MODEL 1
REMARK VINA RESULT:     -12.3      0.000      0.000
REMARK SMILES COc1cccc(-c2c(C(=O)NCCCNC(=O)c3ccc(-c4c5nc(c(-c6cccc(S(=O)(=O)[O-])c6F)c6ccc([nH]6)c(-c6cccc(S(=O)(=O)[O-])c6F)c6nc(c(-c7cccc(S(=O)(=O)[O-])c7F)c7ccc4[nH]7)C=C6)C=C5)cc3)nnn2Cc2ccc(OC(F)(F)F)cc2)c1
REMARK SMILES IDX 13 1 12 2 10 3 11 4 9 6 8 7 84 8 82 9 83 10 7 11 3 12 4 13
REMARK SMILES IDX 97 14 5 15 6 16 2 17 1 18 85 19 86 20 87 21 96 22 88 23
REMARK SMILES IDX 95 24 89 25 90 26 91 27 92 28 93 29 94 30 14 31 15 32 16 33
REMARK SMILES IDX 17 34 18 36 19 37 20 38 81 39 21 40 80 41 22 42 23 43 24 44
REMARK SMILES IDX 74 45 25 46 79 47 73 48 75 49 26 50 78 51 72 52 71 53 27 55
REMARK SMILES IDX 59 56 39 57 58 58 40 59 43 60 57 61 76 62 41 63 42 64 56 66
REMARK SMILES IDX 77 67 44 68 28 69 29 70 37 71 30 72 32 73 38 74 31 75 33 76
REMARK SMILES IDX 34 77 35 78 36 79 60 80 61 81 69 82 62 83 64 84 70 85 63 86
REMARK SMILES IDX 65 87 66 88 67 89 68 90 45 91 46 92 54 93 47 94 49 95 55 96
REMARK SMILES IDX 48 97 50 98 51 99 52 100 53 101
REMARK H PARENT 12 5 16 35 75 54 43 65
REMARK Flexibility Score: inf
ROOT
ATOM      1  C   UNL A   1      35.444  22.422  24.864  1.00  0.00     0.118 C 
ENDROOT
BRANCH   1   2
ATOM      2  N   UNL A   1      34.261  21.609  24.815  1.00  0.00    -0.351 N 
ATOM      3  C   UNL A   1      32.927  21.898  24.910  1.00  0.00     0.274 C 
ATOM      4  O   UNL A   1      32.194  21.026  24.435  1.00  0.00    -0.267 OA
ATOM      5  H   UNL A   1      34.447  20.651  24.687  1.00  0.00     0.163 HD
BRANCH   3   6
ATOM      6  C   UNL A   1      32.332  23.095  25.520  1.00  0.00     0.178 A 
ATOM      7  C   UNL A   1      32.348  24.486  25.338  1.00  0.00     0.102 A 
ATOM      8  N   UNL A   1      31.542  24.942  26.366  1.00  0.00    -0.239 N 
ATOM      9  N   UNL A   1      31.544  22.830  26.636  1.00  0.00    -0.124 NA
ATOM     10  N   UNL A   1      31.124  23.954  27.162  1.00  0.00    -0.066 NA
BRANCH   7  11
ATOM     11  C   UNL A   1      32.969  25.434  24.419  1.00  0.00     0.006 A 
ATOM     12  C   UNL A   1      33.398  26.156  22.129  1.00  0.00     0.119 A 
ATOM     13  C   UNL A   1      34.130  27.240  22.620  1.00  0.00     0.046 A 
ATOM     14  C   UNL A   1      32.816  25.258  23.029  1.00  0.00     0.056 A 
ATOM     15  C   UNL A   1      34.314  27.408  23.994  1.00  0.00     0.005 A 
ATOM     16  C   UNL A   1      33.770  26.482  24.888  1.00  0.00     0.011 A 
BRANCH  12  17
ATOM     17  O   UNL A   1      33.323  26.080  20.766  1.00  0.00    -0.497 OA
ATOM     18  C   UNL A   1      32.110  25.570  20.221  1.00  0.00     0.278 C 
ENDBRANCH  12  17
ENDBRANCH   7  11
BRANCH   8  19
ATOM     19  C   UNL A   1      31.125  26.297  26.688  1.00  0.00     0.182 C 
BRANCH  19  20
ATOM     20  C   UNL A   1      30.563  26.998  25.475  1.00  0.00    -0.026 A 
ATOM     21  C   UNL A   1      31.014  28.267  25.100  1.00  0.00     0.009 A 
ATOM     22  C   UNL A   1      29.594  26.365  24.683  1.00  0.00     0.009 A 
ATOM     23  C   UNL A   1      30.498  28.884  23.958  1.00  0.00     0.047 A 
ATOM     24  C   UNL A   1      29.093  26.976  23.534  1.00  0.00     0.047 A 
ATOM     25  C   UNL A   1      29.539  28.243  23.165  1.00  0.00     0.129 A 
BRANCH  25  26
ATOM     26  O   UNL A   1      29.129  28.956  22.075  1.00  0.00    -0.406 OA
BRANCH  26  27
ATOM     27  C   UNL A   1      28.020  29.823  22.245  1.00  0.00     0.573 C 
ATOM     28  F   UNL A   1      27.664  30.402  21.080  1.00  0.00    -0.132 F 
ATOM     29  F   UNL A   1      26.962  29.169  22.771  1.00  0.00    -0.132 F 
ATOM     30  F   UNL A   1      28.369  30.803  23.109  1.00  0.00    -0.132 F 
ENDBRANCH  26  27
ENDBRANCH  25  26
ENDBRANCH  19  20
ENDBRANCH   8  19
ENDBRANCH   3   6
ENDBRANCH   1   2
BRANCH   1  31
ATOM     31  C   UNL A   1      36.466  21.954  25.895  1.00  0.00     0.042 C 
BRANCH  31  32
ATOM     32  C   UNL A   1      37.759  22.733  25.816  1.00  0.00     0.118 C 
BRANCH  32  33
ATOM     33  N   UNL A   1      38.932  21.850  25.608  1.00  0.00    -0.352 N 
ATOM     34  C   UNL A   1      40.250  22.045  25.995  1.00  0.00     0.251 C 
ATOM     35  H   UNL A   1      38.751  21.009  25.129  1.00  0.00     0.163 HD
ATOM     36  O   UNL A   1      41.169  21.388  25.512  1.00  0.00    -0.269 OA
BRANCH  34  37
ATOM     37  C   UNL A   1      40.507  23.059  27.026  1.00  0.00     0.039 A 
ATOM     38  C   UNL A   1      41.494  22.948  28.010  1.00  0.00     0.014 A 
ATOM     39  C   UNL A   1      39.832  24.246  26.824  1.00  0.00     0.014 A 
ATOM     40  C   UNL A   1      41.863  24.101  28.703  1.00  0.00     0.010 A 
ATOM     41  C   UNL A   1      40.472  25.380  27.198  1.00  0.00     0.010 A 
ATOM     42  C   UNL A   1      41.355  25.329  28.262  1.00  0.00    -0.014 A 
BRANCH  42  43
ATOM     43  C   UNL A   1      41.731  26.627  28.804  1.00  0.00     0.031 A 
ATOM     44  C   UNL A   1      42.978  27.203  28.241  1.00  0.00     0.074 A 
ATOM     45  C   UNL A   1      40.831  27.361  29.506  1.00  0.00     0.049 A 
ATOM     46  N   UNL A   1      44.097  27.407  28.851  1.00  0.00    -0.248 NA
ATOM     47  C   UNL A   1      43.040  27.440  26.789  1.00  0.00     0.031 C 
ATOM     48  C   UNL A   1      39.422  27.036  29.814  1.00  0.00     0.029 A 
ATOM     49  N   UNL A   1      40.921  28.647  29.930  1.00  0.00    -0.354 N 
ATOM     50  C   UNL A   1      44.912  28.049  27.920  1.00  0.00     0.074 A 
ATOM     51  C   UNL A   1      44.313  27.809  26.635  1.00  0.00     0.031 C 
ATOM     52  C   UNL A   1      38.741  28.168  30.087  1.00  0.00     0.029 A 
ATOM     53  C   UNL A   1      39.693  29.249  30.196  1.00  0.00     0.049 A 
ATOM     54  H   UNL A   1      41.780  29.113  30.041  1.00  0.00     0.167 HD
ATOM     55  C   UNL A   1      45.835  28.974  28.310  1.00  0.00     0.034 A 
ATOM     56  C   UNL A   1      39.473  30.560  30.452  1.00  0.00     0.034 A 
ATOM     57  C   UNL A   1      46.041  28.932  29.739  1.00  0.00     0.049 A 
ATOM     58  C   UNL A   1      40.770  31.132  30.872  1.00  0.00     0.074 A 
ATOM     59  C   UNL A   1      46.432  27.965  30.646  1.00  0.00     0.029 A 
ATOM     60  N   UNL A   1      45.429  29.914  30.479  1.00  0.00    -0.354 N 
ATOM     61  N   UNL A   1      41.399  30.762  31.954  1.00  0.00    -0.248 NA
ATOM     62  C   UNL A   1      41.590  31.765  29.854  1.00  0.00     0.031 C 
ATOM     63  C   UNL A   1      45.607  28.186  31.790  1.00  0.00     0.029 A 
ATOM     64  C   UNL A   1      44.818  29.314  31.547  1.00  0.00     0.049 A 
ATOM     65  H   UNL A   1      45.428  30.879  30.276  1.00  0.00     0.167 HD
ATOM     66  C   UNL A   1      42.731  30.686  31.569  1.00  0.00     0.074 A 
ATOM     67  C   UNL A   1      42.801  31.427  30.308  1.00  0.00     0.031 C 
ATOM     68  C   UNL A   1      43.583  29.783  32.141  1.00  0.00     0.034 A 
BRANCH  55  69
ATOM     69  C   UNL A   1      46.266  30.181  27.501  1.00  0.00     0.023 A 
ATOM     70  C   UNL A   1      47.647  30.487  27.496  1.00  0.00     0.012 A 
ATOM     71  C   UNL A   1      45.396  31.169  26.986  1.00  0.00     0.148 A 
ATOM     72  C   UNL A   1      48.126  31.731  27.071  1.00  0.00     0.002 A 
ATOM     73  C   UNL A   1      45.884  32.374  26.491  1.00  0.00     0.091 A 
ATOM     74  F   UNL A   1      44.073  31.026  27.092  1.00  0.00    -0.205 F 
ATOM     75  C   UNL A   1      47.244  32.675  26.563  1.00  0.00     0.022 A 
BRANCH  73  76
ATOM     76  S   UNL A   1      44.786  33.607  25.780  1.00  0.00     0.127 S 
ATOM     77  O   UNL A   1      44.158  34.160  26.975  1.00  0.00    -0.237 OA
ATOM     78  O   UNL A   1      45.731  34.497  25.105  1.00  0.00    -0.237 OA
ATOM     79  O   UNL A   1      43.914  32.871  24.872  1.00  0.00    -0.744 OA
ENDBRANCH  73  76
ENDBRANCH  55  69
BRANCH  56  80
ATOM     80  C   UNL A   1      38.306  31.399  30.101  1.00  0.00     0.023 A 
ATOM     81  C   UNL A   1      37.752  31.329  28.808  1.00  0.00     0.012 A 
ATOM     82  C   UNL A   1      37.565  32.055  31.110  1.00  0.00     0.148 A 
ATOM     83  C   UNL A   1      36.488  31.868  28.536  1.00  0.00     0.002 A 
ATOM     84  C   UNL A   1      36.311  32.592  30.834  1.00  0.00     0.091 A 
ATOM     85  F   UNL A   1      38.055  32.072  32.358  1.00  0.00    -0.205 F 
ATOM     86  C   UNL A   1      35.764  32.489  29.550  1.00  0.00     0.022 A 
BRANCH  84  87
ATOM     87  S   UNL A   1      35.305  33.380  32.099  1.00  0.00     0.127 S 
ATOM     88  O   UNL A   1      33.999  33.443  31.444  1.00  0.00    -0.237 OA
ATOM     89  O   UNL A   1      35.397  32.420  33.195  1.00  0.00    -0.237 OA
ATOM     90  O   UNL A   1      35.925  34.676  32.340  1.00  0.00    -0.744 OA
ENDBRANCH  84  87
ENDBRANCH  56  80
BRANCH  68  91
ATOM     91  C   UNL A   1      43.098  29.016  33.352  1.00  0.00     0.023 A 
ATOM     92  C   UNL A   1      42.198  27.933  33.250  1.00  0.00     0.012 A 
ATOM     93  C   UNL A   1      43.709  29.267  34.590  1.00  0.00     0.148 A 
ATOM     94  C   UNL A   1      41.902  27.130  34.357  1.00  0.00     0.002 A 
ATOM     95  C   UNL A   1      43.447  28.442  35.678  1.00  0.00     0.091 A 
ATOM     96  F   UNL A   1      44.571  30.292  34.672  1.00  0.00    -0.205 F 
ATOM     97  C   UNL A   1      42.538  27.378  35.569  1.00  0.00     0.022 A 
BRANCH  95  98
ATOM     98  S   UNL A   1      44.326  28.626  37.231  1.00  0.00     0.127 S 
ATOM     99  O   UNL A   1      43.834  27.484  37.997  1.00  0.00    -0.237 OA
ATOM    100  O   UNL A   1      45.726  28.525  36.813  1.00  0.00    -0.237 OA
ATOM    101  O   UNL A   1      43.955  29.936  37.751  1.00  0.00    -0.744 OA
ENDBRANCH  95  98
ENDBRANCH  68  91
ENDBRANCH  42  43
ENDBRANCH  34  37
ENDBRANCH  32  33
ENDBRANCH  31  32
ENDBRANCH   1  31
TORSDOF 19
ENDMDL
MODEL 2
REMARK VINA RESULT:     -12.1      3.588      7.555
REMARK SMILES COc1cccc(-c2c(C(=O)NCCCNC(=O)c3ccc(-c4c5nc(c(-c6cccc(S(=O)(=O)[O-])c6F)c6ccc([nH]6)c(-c6cccc(S(=O)(=O)[O-])c6F)c6nc(c(-c7cccc(S(=O)(=O)[O-])c7F)c7ccc4[nH]7)C=C6)C=C5)cc3)nnn2Cc2ccc(OC(F)(F)F)cc2)c1
REMARK SMILES IDX 13 1 12 2 10 3 11 4 9 6 8 7 84 8 82 9 83 10 7 11 3 12 4 13
REMARK SMILES IDX 97 14 5 15 6 16 2 17 1 18 85 19 86 20 87 21 96 22 88 23
REMARK SMILES IDX 95 24 89 25 90 26 91 27 92 28 93 29 94 30 14 31 15 32 16 33
REMARK SMILES IDX 17 34 18 36 19 37 20 38 81 39 21 40 80 41 22 42 23 43 24 44
REMARK SMILES IDX 74 45 25 46 79 47 73 48 75 49 26 50 78 51 72 52 71 53 27 55
REMARK SMILES IDX 59 56 39 57 58 58 40 59 43 60 57 61 76 62 41 63 42 64 56 66
REMARK SMILES IDX 77 67 44 68 28 69 29 70 37 71 30 72 32 73 38 74 31 75 33 76
REMARK SMILES IDX 34 77 35 78 36 79 60 80 61 81 69 82 62 83 64 84 70 85 63 86
REMARK SMILES IDX 65 87 66 88 67 89 68 90 45 91 46 92 54 93 47 94 49 95 55 96
REMARK SMILES IDX 48 97 50 98 51 99 52 100 53 101
REMARK H PARENT 12 5 16 35 75 54 43 65
REMARK Flexibility Score: inf
ROOT
ATOM      1  C   UNL A   1      35.025  21.854  24.539  1.00  0.00     0.118 C 
ENDROOT
BRANCH   1   2
ATOM      2  N   UNL A   1      33.701  21.407  24.205  1.00  0.00    -0.351 N 
ATOM      3  C   UNL A   1      32.787  21.816  23.273  1.00  0.00     0.274 C 
ATOM      4  O   UNL A   1      31.932  20.965  23.007  1.00  0.00    -0.267 OA
ATOM      5  H   UNL A   1      33.390  20.653  24.756  1.00  0.00     0.163 HD
BRANCH   3   6
ATOM      6  C   UNL A   1      32.734  23.129  22.616  1.00  0.00     0.178 A 
ATOM      7  C   UNL A   1      32.153  24.388  22.830  1.00  0.00     0.102 A 
ATOM      8  N   UNL A   1      32.551  25.106  21.715  1.00  0.00    -0.239 N 
ATOM      9  N   UNL A   1      33.411  23.183  21.402  1.00  0.00    -0.124 NA
ATOM     10  N   UNL A   1      33.244  24.360  20.850  1.00  0.00    -0.066 NA
BRANCH   7  11
ATOM     11  C   UNL A   1      31.309  25.016  23.841  1.00  0.00     0.006 A 
ATOM     12  C   UNL A   1      31.086  26.010  26.058  1.00  0.00     0.119 A 
ATOM     13  C   UNL A   1      29.732  26.240  25.805  1.00  0.00     0.046 A 
ATOM     14  C   UNL A   1      31.873  25.402  25.074  1.00  0.00     0.056 A 
ATOM     15  C   UNL A   1      29.156  25.835  24.599  1.00  0.00     0.005 A 
ATOM     16  C   UNL A   1      29.935  25.187  23.638  1.00  0.00     0.011 A 
BRANCH  12  17
ATOM     17  O   UNL A   1      31.521  26.416  27.288  1.00  0.00    -0.497 OA
ATOM     18  C   UNL A   1      31.231  27.762  27.655  1.00  0.00     0.278 C 
ENDBRANCH  12  17
ENDBRANCH   7  11
BRANCH   8  19
ATOM     19  C   UNL A   1      32.308  26.497  21.371  1.00  0.00     0.182 C 
BRANCH  19  20
ATOM     20  C   UNL A   1      32.662  27.413  22.517  1.00  0.00    -0.026 A 
ATOM     21  C   UNL A   1      31.707  28.260  23.088  1.00  0.00     0.009 A 
ATOM     22  C   UNL A   1      33.959  27.402  23.051  1.00  0.00     0.009 A 
ATOM     23  C   UNL A   1      32.053  29.079  24.165  1.00  0.00     0.047 A 
ATOM     24  C   UNL A   1      34.297  28.208  24.138  1.00  0.00     0.047 A 
ATOM     25  C   UNL A   1      33.345  29.056  24.701  1.00  0.00     0.129 A 
BRANCH  25  26
ATOM     26  O   UNL A   1      33.542  29.899  25.757  1.00  0.00    -0.406 OA
BRANCH  26  27
ATOM     27  C   UNL A   1      34.306  29.409  26.847  1.00  0.00     0.573 C 
ATOM     28  F   UNL A   1      34.156  28.077  26.996  1.00  0.00    -0.132 F 
ATOM     29  F   UNL A   1      35.615  29.707  26.701  1.00  0.00    -0.132 F 
ATOM     30  F   UNL A   1      33.872  30.008  27.979  1.00  0.00    -0.132 F 
ENDBRANCH  26  27
ENDBRANCH  25  26
ENDBRANCH  19  20
ENDBRANCH   8  19
ENDBRANCH   3   6
ENDBRANCH   1   2
BRANCH   1  31
ATOM     31  C   UNL A   1      35.938  20.740  25.040  1.00  0.00     0.042 C 
BRANCH  31  32
ATOM     32  C   UNL A   1      37.402  21.086  24.889  1.00  0.00     0.118 C 
BRANCH  32  33
ATOM     33  N   UNL A   1      38.274  19.892  24.999  1.00  0.00    -0.352 N 
ATOM     34  C   UNL A   1      39.517  19.773  25.601  1.00  0.00     0.251 C 
ATOM     35  H   UNL A   1      37.921  19.070  24.589  1.00  0.00     0.163 HD
ATOM     36  O   UNL A   1      40.258  18.819  25.371  1.00  0.00    -0.269 OA
BRANCH  34  37
ATOM     37  C   UNL A   1      39.913  20.826  26.546  1.00  0.00     0.039 A 
ATOM     38  C   UNL A   1      40.803  20.635  27.608  1.00  0.00     0.014 A 
ATOM     39  C   UNL A   1      39.499  22.090  26.181  1.00  0.00     0.014 A 
ATOM     40  C   UNL A   1      41.354  21.766  28.213  1.00  0.00     0.010 A 
ATOM     41  C   UNL A   1      40.329  23.115  26.491  1.00  0.00     0.010 A 
ATOM     42  C   UNL A   1      41.124  23.012  27.619  1.00  0.00    -0.014 A 
BRANCH  42  43
ATOM     43  C   UNL A   1      41.719  24.266  28.060  1.00  0.00     0.031 A 
ATOM     44  C   UNL A   1      40.770  25.401  28.177  1.00  0.00     0.074 A 
ATOM     45  C   UNL A   1      42.953  24.276  28.623  1.00  0.00     0.049 A 
ATOM     46  N   UNL A   1      40.738  26.477  27.465  1.00  0.00    -0.248 NA
ATOM     47  C   UNL A   1      39.625  25.259  29.092  1.00  0.00     0.031 C 
ATOM     48  C   UNL A   1      43.848  23.131  28.895  1.00  0.00     0.029 A 
ATOM     49  N   UNL A   1      43.598  25.290  29.252  1.00  0.00    -0.354 N 
ATOM     50  C   UNL A   1      39.733  27.262  28.029  1.00  0.00     0.074 A 
ATOM     51  C   UNL A   1      38.938  26.374  28.832  1.00  0.00     0.031 C 
ATOM     52  C   UNL A   1      44.730  23.458  29.862  1.00  0.00     0.029 A 
ATOM     53  C   UNL A   1      44.615  24.877  30.111  1.00  0.00     0.049 A 
ATOM     54  H   UNL A   1      43.367  26.237  29.114  1.00  0.00     0.167 HD
ATOM     55  C   UNL A   1      39.820  28.623  28.031  1.00  0.00     0.034 A 
ATOM     56  C   UNL A   1      45.291  25.648  30.995  1.00  0.00     0.034 A 
ATOM     57  C   UNL A   1      40.858  29.080  27.138  1.00  0.00     0.049 A 
ATOM     58  C   UNL A   1      45.111  27.049  30.558  1.00  0.00     0.074 A 
ATOM     59  C   UNL A   1      41.129  28.933  25.791  1.00  0.00     0.029 A 
ATOM     60  N   UNL A   1      42.042  29.468  27.718  1.00  0.00    -0.354 N 
ATOM     61  N   UNL A   1      45.562  27.508  29.422  1.00  0.00    -0.248 NA
ATOM     62  C   UNL A   1      44.032  27.811  31.160  1.00  0.00     0.031 C 
ATOM     63  C   UNL A   1      42.545  28.762  25.721  1.00  0.00     0.029 A 
ATOM     64  C   UNL A   1      43.063  28.889  27.013  1.00  0.00     0.049 A 
ATOM     65  H   UNL A   1      42.139  30.057  28.502  1.00  0.00     0.167 HD
ATOM     66  C   UNL A   1      44.536  28.315  28.947  1.00  0.00     0.074 A 
ATOM     67  C   UNL A   1      43.679  28.556  30.109  1.00  0.00     0.031 C 
ATOM     68  C   UNL A   1      44.314  28.459  27.605  1.00  0.00     0.034 A 
BRANCH  55  69
ATOM     69  C   UNL A   1      39.266  29.537  29.106  1.00  0.00     0.023 A 
ATOM     70  C   UNL A   1      38.506  30.648  28.671  1.00  0.00     0.012 A 
ATOM     71  C   UNL A   1      39.665  29.533  30.462  1.00  0.00     0.148 A 
ATOM     72  C   UNL A   1      38.222  31.725  29.518  1.00  0.00     0.002 A 
ATOM     73  C   UNL A   1      39.312  30.569  31.321  1.00  0.00     0.091 A 
ATOM     74  F   UNL A   1      40.508  28.604  30.916  1.00  0.00    -0.205 F 
ATOM     75  C   UNL A   1      38.621  31.684  30.847  1.00  0.00     0.022 A 
BRANCH  73  76
ATOM     76  S   UNL A   1      39.765  30.538  33.061  1.00  0.00     0.127 S 
ATOM     77  O   UNL A   1      39.076  29.337  33.520  1.00  0.00    -0.237 OA
ATOM     78  O   UNL A   1      41.222  30.431  32.990  1.00  0.00    -0.237 OA
ATOM     79  O   UNL A   1      39.290  31.805  33.606  1.00  0.00    -0.744 OA
ENDBRANCH  73  76
ENDBRANCH  55  69
BRANCH  56  80
ATOM     80  C   UNL A   1      45.840  25.288  32.321  1.00  0.00     0.023 A 
ATOM     81  C   UNL A   1      47.115  25.745  32.703  1.00  0.00     0.012 A 
ATOM     82  C   UNL A   1      45.003  24.733  33.317  1.00  0.00     0.148 A 
ATOM     83  C   UNL A   1      47.533  25.682  34.039  1.00  0.00     0.002 A 
ATOM     84  C   UNL A   1      45.424  24.670  34.641  1.00  0.00     0.091 A 
ATOM     85  F   UNL A   1      43.764  24.353  32.975  1.00  0.00    -0.205 F 
ATOM     86  C   UNL A   1      46.685  25.155  35.008  1.00  0.00     0.022 A 
BRANCH  84  87
ATOM     87  S   UNL A   1      44.372  24.033  35.952  1.00  0.00     0.127 S 
ATOM     88  O   UNL A   1      45.354  23.449  36.866  1.00  0.00    -0.237 OA
ATOM     89  O   UNL A   1      43.728  25.250  36.439  1.00  0.00    -0.237 OA
ATOM     90  O   UNL A   1      43.491  23.065  35.311  1.00  0.00    -0.744 OA
ENDBRANCH  84  87
ENDBRANCH  56  80
BRANCH  68  91
ATOM     91  C   UNL A   1      45.339  27.893  26.649  1.00  0.00     0.023 A 
ATOM     92  C   UNL A   1      46.554  28.555  26.365  1.00  0.00     0.012 A 
ATOM     93  C   UNL A   1      45.164  26.581  26.181  1.00  0.00     0.148 A 
ATOM     94  C   UNL A   1      47.561  27.933  25.619  1.00  0.00     0.002 A 
ATOM     95  C   UNL A   1      46.183  25.949  25.476  1.00  0.00     0.091 A 
ATOM     96  F   UNL A   1      44.011  25.959  26.467  1.00  0.00    -0.205 F 
ATOM     97  C   UNL A   1      47.379  26.623  25.185  1.00  0.00     0.022 A 
BRANCH  95  98
ATOM     98  S   UNL A   1      46.066  24.224  25.000  1.00  0.00     0.127 S 
ATOM     99  O   UNL A   1      44.700  24.140  24.488  1.00  0.00    -0.237 OA
ATOM    100  O   UNL A   1      47.110  24.108  23.980  1.00  0.00    -0.237 OA
ATOM    101  O   UNL A   1      46.329  23.454  26.209  1.00  0.00    -0.744 OA
ENDBRANCH  95  98
ENDBRANCH  68  91
ENDBRANCH  42  43
ENDBRANCH  34  37
ENDBRANCH  32  33
ENDBRANCH  31  32
ENDBRANCH   1  31
TORSDOF 19
ENDMDL
MODEL 3
REMARK VINA RESULT:     -12.0      3.688      8.631
REMARK SMILES COc1cccc(-c2c(C(=O)NCCCNC(=O)c3ccc(-c4c5nc(c(-c6cccc(S(=O)(=O)[O-])c6F)c6ccc([nH]6)c(-c6cccc(S(=O)(=O)[O-])c6F)c6nc(c(-c7cccc(S(=O)(=O)[O-])c7F)c7ccc4[nH]7)C=C6)C=C5)cc3)nnn2Cc2ccc(OC(F)(F)F)cc2)c1
REMARK SMILES IDX 13 1 12 2 10 3 11 4 9 6 8 7 84 8 82 9 83 10 7 11 3 12 4 13
REMARK SMILES IDX 97 14 5 15 6 16 2 17 1 18 85 19 86 20 87 21 96 22 88 23
REMARK SMILES IDX 95 24 89 25 90 26 91 27 92 28 93 29 94 30 14 31 15 32 16 33
REMARK SMILES IDX 17 34 18 36 19 37 20 38 81 39 21 40 80 41 22 42 23 43 24 44
REMARK SMILES IDX 74 45 25 46 79 47 73 48 75 49 26 50 78 51 72 52 71 53 27 55
REMARK SMILES IDX 59 56 39 57 58 58 40 59 43 60 57 61 76 62 41 63 42 64 56 66
REMARK SMILES IDX 77 67 44 68 28 69 29 70 37 71 30 72 32 73 38 74 31 75 33 76
REMARK SMILES IDX 34 77 35 78 36 79 60 80 61 81 69 82 62 83 64 84 70 85 63 86
REMARK SMILES IDX 65 87 66 88 67 89 68 90 45 91 46 92 54 93 47 94 49 95 55 96
REMARK SMILES IDX 48 97 50 98 51 99 52 100 53 101
REMARK H PARENT 12 5 16 35 75 54 43 65
REMARK Flexibility Score: inf
ROOT
ATOM      1  C   UNL A   1      34.623  32.701  31.719  1.00  0.00     0.118 C 
ENDROOT
BRANCH   1   2
ATOM      2  N   UNL A   1      34.911  33.541  30.589  1.00  0.00    -0.351 N 
ATOM      3  C   UNL A   1      34.730  33.384  29.242  1.00  0.00     0.274 C 
ATOM      4  O   UNL A   1      34.725  34.448  28.614  1.00  0.00    -0.267 OA
ATOM      5  H   UNL A   1      35.320  34.402  30.834  1.00  0.00     0.163 HD
BRANCH   3   6
ATOM      6  C   UNL A   1      34.572  32.114  28.521  1.00  0.00     0.178 A 
ATOM      7  C   UNL A   1      35.224  30.876  28.420  1.00  0.00     0.102 A 
ATOM      8  N   UNL A   1      34.464  30.202  27.480  1.00  0.00    -0.239 N 
ATOM      9  N   UNL A   1      33.499  32.093  27.637  1.00  0.00    -0.124 NA
ATOM     10  N   UNL A   1      33.483  30.959  26.981  1.00  0.00    -0.066 NA
BRANCH   7  11
ATOM     11  C   UNL A   1      36.396  30.236  29.008  1.00  0.00     0.006 A 
ATOM     12  C   UNL A   1      37.437  29.116  30.909  1.00  0.00     0.119 A 
ATOM     13  C   UNL A   1      38.616  28.984  30.171  1.00  0.00     0.046 A 
ATOM     14  C   UNL A   1      36.328  29.738  30.325  1.00  0.00     0.056 A 
ATOM     15  C   UNL A   1      38.703  29.499  28.876  1.00  0.00     0.005 A 
ATOM     16  C   UNL A   1      37.610  30.161  28.313  1.00  0.00     0.011 A 
BRANCH  12  17
ATOM     17  O   UNL A   1      37.489  28.607  32.176  1.00  0.00    -0.497 OA
ATOM     18  C   UNL A   1      38.291  27.444  32.364  1.00  0.00     0.278 C 
ENDBRANCH  12  17
ENDBRANCH   7  11
BRANCH   8  19
ATOM     19  C   UNL A   1      34.600  28.845  26.975  1.00  0.00     0.182 C 
BRANCH  19  20
ATOM     20  C   UNL A   1      33.449  28.482  26.069  1.00  0.00    -0.026 A 
ATOM     21  C   UNL A   1      32.218  28.077  26.591  1.00  0.00     0.009 A 
ATOM     22  C   UNL A   1      33.593  28.578  24.677  1.00  0.00     0.009 A 
ATOM     23  C   UNL A   1      31.159  27.771  25.733  1.00  0.00     0.047 A 
ATOM     24  C   UNL A   1      32.529  28.288  23.822  1.00  0.00     0.047 A 
ATOM     25  C   UNL A   1      31.304  27.880  24.345  1.00  0.00     0.129 A 
BRANCH  25  26
ATOM     26  O   UNL A   1      30.189  27.559  23.626  1.00  0.00    -0.406 OA
BRANCH  26  27
ATOM     27  C   UNL A   1      29.434  28.631  23.085  1.00  0.00     0.573 C 
ATOM     28  F   UNL A   1      28.126  28.315  22.990  1.00  0.00    -0.132 F 
ATOM     29  F   UNL A   1      29.579  29.754  23.821  1.00  0.00    -0.132 F 
ATOM     30  F   UNL A   1      29.892  28.893  21.839  1.00  0.00    -0.132 F 
ENDBRANCH  26  27
ENDBRANCH  25  26
ENDBRANCH  19  20
ENDBRANCH   8  19
ENDBRANCH   3   6
ENDBRANCH   1   2
BRANCH   1  31
ATOM     31  C   UNL A   1      34.595  33.451  33.046  1.00  0.00     0.042 C 
BRANCH  31  32
ATOM     32  C   UNL A   1      35.777  33.109  33.925  1.00  0.00     0.118 C 
BRANCH  32  33
ATOM     33  N   UNL A   1      36.716  34.247  34.067  1.00  0.00    -0.352 N 
ATOM     34  C   UNL A   1      38.089  34.275  33.872  1.00  0.00     0.251 C 
ATOM     35  H   UNL A   1      36.309  35.102  34.338  1.00  0.00     0.163 HD
ATOM     36  O   UNL A   1      38.784  35.192  34.303  1.00  0.00    -0.269 OA
BRANCH  34  37
ATOM     37  C   UNL A   1      38.684  33.170  33.109  1.00  0.00     0.039 A 
ATOM     38  C   UNL A   1      38.663  33.077  31.714  1.00  0.00     0.014 A 
ATOM     39  C   UNL A   1      39.461  32.319  33.869  1.00  0.00     0.014 A 
ATOM     40  C   UNL A   1      39.540  32.179  31.103  1.00  0.00     0.010 A 
ATOM     41  C   UNL A   1      40.548  31.785  33.262  1.00  0.00     0.010 A 
ATOM     42  C   UNL A   1      40.506  31.552  31.899  1.00  0.00    -0.014 A 
BRANCH  42  43
ATOM     43  C   UNL A   1      41.559  30.681  31.397  1.00  0.00     0.031 A 
ATOM     44  C   UNL A   1      42.515  31.329  30.465  1.00  0.00     0.074 A 
ATOM     45  C   UNL A   1      41.810  29.493  32.003  1.00  0.00     0.049 A 
ATOM     46  N   UNL A   1      42.679  31.084  29.208  1.00  0.00    -0.248 NA
ATOM     47  C   UNL A   1      43.276  32.494  30.948  1.00  0.00     0.031 C 
ATOM     48  C   UNL A   1      41.147  28.909  33.188  1.00  0.00     0.029 A 
ATOM     49  N   UNL A   1      42.844  28.636  31.809  1.00  0.00    -0.354 N 
ATOM     50  C   UNL A   1      43.753  31.881  28.815  1.00  0.00     0.074 A 
ATOM     51  C   UNL A   1      43.898  32.884  29.834  1.00  0.00     0.031 C 
ATOM     52  C   UNL A   1      41.958  27.995  33.762  1.00  0.00     0.029 A 
ATOM     53  C   UNL A   1      43.076  27.769  32.875  1.00  0.00     0.049 A 
ATOM     54  H   UNL A   1      43.383  28.628  30.986  1.00  0.00     0.167 HD
ATOM     55  C   UNL A   1      44.620  31.468  27.846  1.00  0.00     0.034 A 
ATOM     56  C   UNL A   1      44.139  26.945  33.033  1.00  0.00     0.034 A 
ATOM     57  C   UNL A   1      44.094  30.330  27.129  1.00  0.00     0.049 A 
ATOM     58  C   UNL A   1      44.740  26.771  31.693  1.00  0.00     0.074 A 
ATOM     59  C   UNL A   1      42.949  30.073  26.399  1.00  0.00     0.029 A 
ATOM     60  N   UNL A   1      44.609  29.100  27.463  1.00  0.00    -0.354 N 
ATOM     61  N   UNL A   1      44.118  26.198  30.698  1.00  0.00    -0.248 NA
ATOM     62  C   UNL A   1      45.839  27.647  31.326  1.00  0.00     0.031 C 
ATOM     63  C   UNL A   1      42.583  28.740  26.754  1.00  0.00     0.029 A 
ATOM     64  C   UNL A   1      43.560  28.235  27.617  1.00  0.00     0.049 A 
ATOM     65  H   UNL A   1      45.564  28.881  27.572  1.00  0.00     0.167 HD
ATOM     66  C   UNL A   1      44.429  26.987  29.598  1.00  0.00     0.074 A 
ATOM     67  C   UNL A   1      45.581  27.786  30.023  1.00  0.00     0.031 C 
ATOM     68  C   UNL A   1      43.547  27.139  28.565  1.00  0.00     0.034 A 
BRANCH  55  69
ATOM     69  C   UNL A   1      46.095  31.807  27.785  1.00  0.00     0.023 A 
ATOM     70  C   UNL A   1      46.948  31.120  28.681  1.00  0.00     0.012 A 
ATOM     71  C   UNL A   1      46.646  32.926  27.117  1.00  0.00     0.148 A 
ATOM     72  C   UNL A   1      48.247  31.563  28.950  1.00  0.00     0.002 A 
ATOM     73  C   UNL A   1      47.965  33.315  27.328  1.00  0.00     0.091 A 
ATOM     74  F   UNL A   1      45.872  33.718  26.374  1.00  0.00    -0.205 F 
ATOM     75  C   UNL A   1      48.759  32.660  28.270  1.00  0.00     0.022 A 
BRANCH  73  76
ATOM     76  S   UNL A   1      48.687  34.698  26.436  1.00  0.00     0.127 S 
ATOM     77  O   UNL A   1      47.995  35.829  27.044  1.00  0.00    -0.237 OA
ATOM     78  O   UNL A   1      50.103  34.574  26.784  1.00  0.00    -0.237 OA
ATOM     79  O   UNL A   1      48.398  34.444  25.029  1.00  0.00    -0.744 OA
ENDBRANCH  73  76
ENDBRANCH  55  69
BRANCH  56  80
ATOM     80  C   UNL A   1      44.823  26.529  34.276  1.00  0.00     0.023 A 
ATOM     81  C   UNL A   1      44.972  27.442  35.337  1.00  0.00     0.012 A 
ATOM     82  C   UNL A   1      45.080  25.163  34.531  1.00  0.00     0.148 A 
ATOM     83  C   UNL A   1      45.335  27.006  36.618  1.00  0.00     0.002 A 
ATOM     84  C   UNL A   1      45.443  24.734  35.803  1.00  0.00     0.091 A 
ATOM     85  F   UNL A   1      44.880  24.278  33.544  1.00  0.00    -0.205 F 
ATOM     86  C   UNL A   1      45.560  25.653  36.854  1.00  0.00     0.022 A 
BRANCH  84  87
ATOM     87  S   UNL A   1      45.718  23.000  36.190  1.00  0.00     0.127 S 
ATOM     88  O   UNL A   1      45.887  23.041  37.642  1.00  0.00    -0.237 OA
ATOM     89  O   UNL A   1      44.472  22.390  35.734  1.00  0.00    -0.237 OA
ATOM     90  O   UNL A   1      46.916  22.620  35.451  1.00  0.00    -0.744 OA
ENDBRANCH  84  87
ENDBRANCH  56  80
BRANCH  68  91
ATOM     91  C   UNL A   1      42.317  26.260  28.545  1.00  0.00     0.023 A 
ATOM     92  C   UNL A   1      41.031  26.752  28.862  1.00  0.00     0.012 A 
ATOM     93  C   UNL A   1      42.427  24.967  28.009  1.00  0.00     0.148 A 
ATOM     94  C   UNL A   1      39.888  25.970  28.666  1.00  0.00     0.002 A 
ATOM     95  C   UNL A   1      41.287  24.208  27.775  1.00  0.00     0.091 A 
ATOM     96  F   UNL A   1      43.653  24.516  27.700  1.00  0.00    -0.205 F 
ATOM     97  C   UNL A   1      40.016  24.701  28.110  1.00  0.00     0.022 A 
BRANCH  95  98
ATOM     98  S   UNL A   1      41.368  22.620  26.944  1.00  0.00     0.127 S 
ATOM     99  O   UNL A   1      42.077  22.956  25.712  1.00  0.00    -0.237 OA
ATOM    100  O   UNL A   1      42.137  21.810  27.891  1.00  0.00    -0.237 OA
ATOM    101  O   UNL A   1      39.988  22.184  26.774  1.00  0.00    -0.744 OA
ENDBRANCH  95  98
ENDBRANCH  68  91
ENDBRANCH  42  43
ENDBRANCH  34  37
ENDBRANCH  32  33
ENDBRANCH  31  32
ENDBRANCH   1  31
TORSDOF 19
ENDMDL
