MODEL 1
REMARK VINA RESULT:     -12.1      0.000      0.000
REMARK SMILES CCOC(=O)C1=NN(c2ccc([N+](=O)[O-])cc2C(F)(F)F)[C@@](C)(C(=O)NCCCNC(=O)c2ccc(-c3c4nc(c(-c5cccc(S(=O)(=O)[O-])c5F)c5ccc([nH]5)c(-c5cccc(S(=O)(=O)[O-])c5F)c5nc(c(-c6cccc(S(=O)(=O)[O-])c6F)c6ccc3[nH]6)C=C5)C=C4)cc2)C1
REMARK SMILES IDX 28 1 27 2 26 3 24 4 25 5 22 7 6 8 7 9 96 10 8 11 23 12 4 13
REMARK SMILES IDX 5 14 3 15 2 16 1 17 9 18 10 19 17 20 11 21 16 22 12 23 18 24
REMARK SMILES IDX 19 25 20 26 21 27 13 28 14 29 15 30 29 31 30 32 31 33 32 35
REMARK SMILES IDX 33 36 34 37 95 38 35 39 94 40 36 41 37 42 38 43 88 44 39 45
REMARK SMILES IDX 93 46 87 47 89 48 40 49 92 50 86 51 85 52 41 54 73 55 53 56
REMARK SMILES IDX 72 57 54 58 57 59 71 60 90 61 55 62 56 63 70 65 91 66 58 67
REMARK SMILES IDX 42 68 43 69 51 70 44 71 46 72 52 73 45 74 47 75 48 76 49 77
REMARK SMILES IDX 50 78 74 79 75 80 83 81 76 82 78 83 84 84 77 85 79 86 80 87
REMARK SMILES IDX 81 88 82 89 59 90 60 91 68 92 61 93 63 94 69 95 62 96 64 97
REMARK SMILES IDX 65 98 66 99 67 100
REMARK H PARENT 26 6 30 34 89 53 57 64
REMARK Flexibility Score: inf
ROOT
ATOM      1  C   UNL A   1      32.129  28.157  27.765  1.00  0.00     0.042 C 
ENDROOT
BRANCH   1   2
ATOM      2  C   UNL A   1      31.341  27.455  26.662  1.00  0.00     0.117 C 
BRANCH   2   3
ATOM      3  N   UNL A   1      31.199  26.032  26.914  1.00  0.00    -0.354 N 
ATOM      4  C   UNL A   1      31.713  24.919  26.328  1.00  0.00     0.248 C 
ATOM      5  O   UNL A   1      31.278  23.853  26.790  1.00  0.00    -0.272 OA
ATOM      6  H   UNL A   1      30.602  25.830  27.670  1.00  0.00     0.163 HD
BRANCH   4   7
ATOM      7  C   UNL A   1      32.768  24.917  25.181  1.00  0.00     0.144 C 
ATOM      8  C   UNL A   1      32.368  23.021  23.911  1.00  0.00     0.149 C 
ATOM      9  N   UNL A   1      31.795  23.971  23.237  1.00  0.00    -0.169 NA
ATOM     10  C   UNL A   1      33.267  23.456  25.017  1.00  0.00     0.106 C 
ATOM     11  N   UNL A   1      32.163  25.147  23.840  1.00  0.00    -0.249 N 
ATOM     12  C   UNL A   1      33.991  25.784  25.465  1.00  0.00     0.048 C 
BRANCH   8  13
ATOM     13  C   UNL A   1      32.227  21.551  23.606  1.00  0.00     0.354 C 
ATOM     14  O   UNL A   1      32.051  21.153  22.467  1.00  0.00    -0.245 OA
BRANCH  13  15
ATOM     15  O   UNL A   1      32.258  20.821  24.736  1.00  0.00    -0.461 OA
BRANCH  15  16
ATOM     16  C   UNL A   1      33.263  19.801  24.789  1.00  0.00     0.230 C 
ATOM     17  C   UNL A   1      32.732  18.556  25.476  1.00  0.00     0.049 C 
ENDBRANCH  15  16
ENDBRANCH  13  15
ENDBRANCH   8  13
BRANCH  11  18
ATOM     18  C   UNL A   1      31.466  26.283  23.446  1.00  0.00     0.073 A 
ATOM     19  C   UNL A   1      30.066  26.334  23.616  1.00  0.00     0.036 A 
ATOM     20  C   UNL A   1      32.105  27.368  22.817  1.00  0.00     0.088 A 
ATOM     21  C   UNL A   1      29.321  27.469  23.276  1.00  0.00     0.088 A 
ATOM     22  C   UNL A   1      31.358  28.525  22.500  1.00  0.00     0.101 A 
ATOM     23  C   UNL A   1      29.983  28.574  22.749  1.00  0.00     0.270 A 
BRANCH  20  24
ATOM     24  C   UNL A   1      33.572  27.362  22.467  1.00  0.00     0.418 C 
ATOM     25  F   UNL A   1      33.864  28.188  21.418  1.00  0.00    -0.166 F 
ATOM     26  F   UNL A   1      34.337  27.823  23.500  1.00  0.00    -0.166 F 
ATOM     27  F   UNL A   1      34.104  26.155  22.128  1.00  0.00    -0.166 F 
ENDBRANCH  20  24
BRANCH  23  28
ATOM     28  N   UNL A   1      29.255  29.821  22.511  1.00  0.00     0.062 N 
ATOM     29  O   UNL A   1      28.894  30.051  21.349  1.00  0.00    -0.258 OA
ATOM     30  O   UNL A   1      28.971  30.510  23.500  1.00  0.00    -0.258 OA
ENDBRANCH  23  28
ENDBRANCH  11  18
ENDBRANCH   4   7
ENDBRANCH   2   3
ENDBRANCH   1   2
BRANCH   1  31
ATOM     31  C   UNL A   1      33.459  28.762  27.332  1.00  0.00     0.118 C 
BRANCH  31  32
ATOM     32  N   UNL A   1      33.512  30.202  27.518  1.00  0.00    -0.352 N 
ATOM     33  C   UNL A   1      34.528  30.952  28.068  1.00  0.00     0.251 C 
ATOM     34  H   UNL A   1      32.722  30.704  27.214  1.00  0.00     0.163 HD
ATOM     35  O   UNL A   1      34.354  32.147  28.294  1.00  0.00    -0.269 OA
BRANCH  33  36
ATOM     36  C   UNL A   1      35.817  30.308  28.415  1.00  0.00     0.039 A 
ATOM     37  C   UNL A   1      36.873  30.375  27.502  1.00  0.00     0.014 A 
ATOM     38  C   UNL A   1      35.986  29.655  29.640  1.00  0.00     0.014 A 
ATOM     39  C   UNL A   1      38.122  29.849  27.846  1.00  0.00     0.010 A 
ATOM     40  C   UNL A   1      37.244  29.172  29.999  1.00  0.00     0.010 A 
ATOM     41  C   UNL A   1      38.325  29.271  29.110  1.00  0.00    -0.014 A 
BRANCH  41  42
ATOM     42  C   UNL A   1      39.656  28.763  29.527  1.00  0.00     0.031 A 
ATOM     43  C   UNL A   1      40.404  29.439  30.639  1.00  0.00     0.074 A 
ATOM     44  C   UNL A   1      40.231  27.745  28.857  1.00  0.00     0.049 A 
ATOM     45  N   UNL A   1      41.639  29.259  31.028  1.00  0.00    -0.248 NA
ATOM     46  C   UNL A   1      39.675  30.467  31.399  1.00  0.00     0.031 C 
ATOM     47  C   UNL A   1      39.634  27.024  27.731  1.00  0.00     0.029 A 
ATOM     48  N   UNL A   1      41.458  27.151  29.020  1.00  0.00    -0.354 N 
ATOM     49  C   UNL A   1      41.861  30.202  32.022  1.00  0.00     0.074 A 
ATOM     50  C   UNL A   1      40.621  30.926  32.208  1.00  0.00     0.031 C 
ATOM     51  C   UNL A   1      40.489  26.073  27.318  1.00  0.00     0.029 A 
ATOM     52  C   UNL A   1      41.701  26.133  28.129  1.00  0.00     0.049 A 
ATOM     53  H   UNL A   1      42.103  27.428  29.710  1.00  0.00     0.167 HD
ATOM     54  C   UNL A   1      42.996  30.445  32.719  1.00  0.00     0.034 A 
ATOM     55  C   UNL A   1      42.778  25.337  27.984  1.00  0.00     0.034 A 
ATOM     56  C   UNL A   1      44.205  29.680  32.599  1.00  0.00     0.049 A 
ATOM     57  C   UNL A   1      43.965  25.520  28.888  1.00  0.00     0.074 A 
ATOM     58  C   UNL A   1      45.417  29.873  33.239  1.00  0.00     0.029 A 
ATOM     59  N   UNL A   1      44.343  28.549  31.811  1.00  0.00    -0.354 N 
ATOM     60  N   UNL A   1      44.145  26.404  29.837  1.00  0.00    -0.248 NA
ATOM     61  C   UNL A   1      45.088  24.585  28.713  1.00  0.00     0.031 C 
ATOM     62  C   UNL A   1      46.274  28.826  32.876  1.00  0.00     0.029 A 
ATOM     63  C   UNL A   1      45.602  28.003  31.986  1.00  0.00     0.049 A 
ATOM     64  H   UNL A   1      43.647  28.187  31.215  1.00  0.00     0.167 HD
ATOM     65  C   UNL A   1      45.398  26.133  30.375  1.00  0.00     0.074 A 
ATOM     66  C   UNL A   1      45.921  24.982  29.667  1.00  0.00     0.031 C 
ATOM     67  C   UNL A   1      46.071  26.806  31.338  1.00  0.00     0.034 A 
BRANCH  54  68
ATOM     68  C   UNL A   1      42.955  31.563  33.716  1.00  0.00     0.023 A 
ATOM     69  C   UNL A   1      43.397  32.840  33.329  1.00  0.00     0.012 A 
ATOM     70  C   UNL A   1      42.476  31.360  35.022  1.00  0.00     0.148 A 
ATOM     71  C   UNL A   1      43.371  33.901  34.234  1.00  0.00     0.002 A 
ATOM     72  C   UNL A   1      42.451  32.425  35.917  1.00  0.00     0.091 A 
ATOM     73  F   UNL A   1      42.070  30.135  35.385  1.00  0.00    -0.205 F 
ATOM     74  C   UNL A   1      42.897  33.695  35.529  1.00  0.00     0.022 A 
BRANCH  72  75
ATOM     75  S   UNL A   1      41.857  32.157  37.589  1.00  0.00     0.127 S 
ATOM     76  O   UNL A   1      42.127  33.440  38.235  1.00  0.00    -0.237 OA
ATOM     77  O   UNL A   1      40.434  31.872  37.401  1.00  0.00    -0.237 OA
ATOM     78  O   UNL A   1      42.642  31.016  38.047  1.00  0.00    -0.744 OA
ENDBRANCH  72  75
ENDBRANCH  54  68
BRANCH  55  79
ATOM     79  C   UNL A   1      42.739  24.232  26.991  1.00  0.00     0.023 A 
ATOM     80  C   UNL A   1      43.406  24.400  25.763  1.00  0.00     0.012 A 
ATOM     81  C   UNL A   1      42.104  23.009  27.266  1.00  0.00     0.148 A 
ATOM     82  C   UNL A   1      43.430  23.371  24.820  1.00  0.00     0.002 A 
ATOM     83  C   UNL A   1      42.156  21.978  26.334  1.00  0.00     0.091 A 
ATOM     84  F   UNL A   1      41.476  22.855  28.442  1.00  0.00    -0.205 F 
ATOM     85  C   UNL A   1      42.810  22.156  25.107  1.00  0.00     0.022 A 
BRANCH  83  86
ATOM     86  S   UNL A   1      41.427  20.388  26.736  1.00  0.00     0.127 S 
ATOM     87  O   UNL A   1      42.214  19.954  27.886  1.00  0.00    -0.237 OA
ATOM     88  O   UNL A   1      40.036  20.724  27.046  1.00  0.00    -0.237 OA
ATOM     89  O   UNL A   1      41.597  19.629  25.501  1.00  0.00    -0.744 OA
ENDBRANCH  83  86
ENDBRANCH  55  79
BRANCH  67  90
ATOM     90  C   UNL A   1      47.445  26.319  31.692  1.00  0.00     0.023 A 
ATOM     91  C   UNL A   1      48.536  26.738  30.906  1.00  0.00     0.012 A 
ATOM     92  C   UNL A   1      47.673  25.515  32.822  1.00  0.00     0.148 A 
ATOM     93  C   UNL A   1      49.836  26.363  31.242  1.00  0.00     0.002 A 
ATOM     94  C   UNL A   1      48.975  25.151  33.153  1.00  0.00     0.091 A 
ATOM     95  F   UNL A   1      46.626  25.108  33.555  1.00  0.00    -0.205 F 
ATOM     96  C   UNL A   1      50.059  25.573  32.368  1.00  0.00     0.022 A 
BRANCH  94  97
ATOM     97  S   UNL A   1      49.274  24.149  34.614  1.00  0.00     0.127 S 
ATOM     98  O   UNL A   1      50.724  23.992  34.599  1.00  0.00    -0.237 OA
ATOM     99  O   UNL A   1      48.769  24.985  35.706  1.00  0.00    -0.237 OA
ATOM    100  O   UNL A   1      48.485  22.945  34.374  1.00  0.00    -0.744 OA
ENDBRANCH  94  97
ENDBRANCH  67  90
ENDBRANCH  41  42
ENDBRANCH  33  36
ENDBRANCH  31  32
ENDBRANCH   1  31
TORSDOF 19
ENDMDL
MODEL 2
REMARK VINA RESULT:     -11.7      4.424      7.818
REMARK SMILES CCOC(=O)C1=NN(c2ccc([N+](=O)[O-])cc2C(F)(F)F)[C@@](C)(C(=O)NCCCNC(=O)c2ccc(-c3c4nc(c(-c5cccc(S(=O)(=O)[O-])c5F)c5ccc([nH]5)c(-c5cccc(S(=O)(=O)[O-])c5F)c5nc(c(-c6cccc(S(=O)(=O)[O-])c6F)c6ccc3[nH]6)C=C5)C=C4)cc2)C1
REMARK SMILES IDX 28 1 27 2 26 3 24 4 25 5 22 7 6 8 7 9 96 10 8 11 23 12 4 13
REMARK SMILES IDX 5 14 3 15 2 16 1 17 9 18 10 19 17 20 11 21 16 22 12 23 18 24
REMARK SMILES IDX 19 25 20 26 21 27 13 28 14 29 15 30 29 31 30 32 31 33 32 35
REMARK SMILES IDX 33 36 34 37 95 38 35 39 94 40 36 41 37 42 38 43 88 44 39 45
REMARK SMILES IDX 93 46 87 47 89 48 40 49 92 50 86 51 85 52 41 54 73 55 53 56
REMARK SMILES IDX 72 57 54 58 57 59 71 60 90 61 55 62 56 63 70 65 91 66 58 67
REMARK SMILES IDX 42 68 43 69 51 70 44 71 46 72 52 73 45 74 47 75 48 76 49 77
REMARK SMILES IDX 50 78 74 79 75 80 83 81 76 82 78 83 84 84 77 85 79 86 80 87
REMARK SMILES IDX 81 88 82 89 59 90 60 91 68 92 61 93 63 94 69 95 62 96 64 97
REMARK SMILES IDX 65 98 66 99 67 100
REMARK H PARENT 26 6 30 34 89 53 57 64
REMARK Flexibility Score: inf
ROOT
ATOM      1  C   UNL A   1      36.488  23.085  23.986  1.00  0.00     0.042 C 
ENDROOT
BRANCH   1   2
ATOM      2  C   UNL A   1      35.190  22.780  23.244  1.00  0.00     0.117 C 
BRANCH   2   3
ATOM      3  N   UNL A   1      34.649  23.956  22.584  1.00  0.00    -0.354 N 
ATOM      4  C   UNL A   1      33.824  24.960  22.982  1.00  0.00     0.248 C 
ATOM      5  O   UNL A   1      33.521  25.756  22.081  1.00  0.00    -0.272 OA
ATOM      6  H   UNL A   1      34.943  24.044  21.648  1.00  0.00     0.163 HD
BRANCH   4   7
ATOM      7  C   UNL A   1      33.284  25.152  24.430  1.00  0.00     0.144 C 
ATOM      8  C   UNL A   1      31.117  25.949  24.232  1.00  0.00     0.149 C 
ATOM      9  N   UNL A   1      30.960  24.681  24.458  1.00  0.00    -0.169 NA
ATOM     10  C   UNL A   1      32.489  26.487  24.451  1.00  0.00     0.106 C 
ATOM     11  N   UNL A   1      32.201  24.189  24.776  1.00  0.00    -0.249 N 
ATOM     12  C   UNL A   1      34.376  25.261  25.489  1.00  0.00     0.048 C 
BRANCH   8  13
ATOM     13  C   UNL A   1      30.008  26.889  23.832  1.00  0.00     0.354 C 
ATOM     14  O   UNL A   1      28.883  26.481  23.600  1.00  0.00    -0.245 OA
BRANCH  13  15
ATOM     15  O   UNL A   1      30.464  28.150  23.720  1.00  0.00    -0.461 OA
BRANCH  15  16
ATOM     16  C   UNL A   1      30.479  28.689  22.393  1.00  0.00     0.230 C 
ATOM     17  C   UNL A   1      29.352  29.689  22.205  1.00  0.00     0.049 C 
ENDBRANCH  15  16
ENDBRANCH  13  15
ENDBRANCH   8  13
BRANCH  11  18
ATOM     18  C   UNL A   1      32.324  22.806  24.809  1.00  0.00     0.073 A 
ATOM     19  C   UNL A   1      32.050  22.054  23.646  1.00  0.00     0.036 A 
ATOM     20  C   UNL A   1      32.652  22.116  25.991  1.00  0.00     0.088 A 
ATOM     21  C   UNL A   1      32.198  20.663  23.613  1.00  0.00     0.088 A 
ATOM     22  C   UNL A   1      32.831  20.715  25.951  1.00  0.00     0.101 A 
ATOM     23  C   UNL A   1      32.623  20.005  24.763  1.00  0.00     0.270 A 
BRANCH  20  24
ATOM     24  C   UNL A   1      32.836  22.809  27.319  1.00  0.00     0.418 C 
ATOM     25  F   UNL A   1      32.628  21.972  28.379  1.00  0.00    -0.166 F 
ATOM     26  F   UNL A   1      34.114  23.264  27.475  1.00  0.00    -0.166 F 
ATOM     27  F   UNL A   1      32.034  23.884  27.551  1.00  0.00    -0.166 F 
ENDBRANCH  20  24
BRANCH  23  28
ATOM     28  N   UNL A   1      32.918  18.573  24.723  1.00  0.00     0.062 N 
ATOM     29  O   UNL A   1      34.021  18.235  24.272  1.00  0.00    -0.258 OA
ATOM     30  O   UNL A   1      32.084  17.807  25.225  1.00  0.00    -0.258 OA
ENDBRANCH  23  28
ENDBRANCH  11  18
ENDBRANCH   4   7
ENDBRANCH   2   3
ENDBRANCH   1   2
BRANCH   1  31
ATOM     31  C   UNL A   1      36.581  22.520  25.398  1.00  0.00     0.118 C 
BRANCH  31  32
ATOM     32  N   UNL A   1      37.450  21.359  25.486  1.00  0.00    -0.352 N 
ATOM     33  C   UNL A   1      38.763  21.308  25.898  1.00  0.00     0.251 C 
ATOM     34  H   UNL A   1      37.050  20.501  25.215  1.00  0.00     0.163 HD
ATOM     35  O   UNL A   1      39.406  20.269  25.769  1.00  0.00    -0.269 OA
BRANCH  33  36
ATOM     36  C   UNL A   1      39.405  22.516  26.468  1.00  0.00     0.039 A 
ATOM     37  C   UNL A   1      40.415  22.358  27.422  1.00  0.00     0.014 A 
ATOM     38  C   UNL A   1      39.024  23.795  26.051  1.00  0.00     0.014 A 
ATOM     39  C   UNL A   1      41.091  23.482  27.907  1.00  0.00     0.010 A 
ATOM     40  C   UNL A   1      39.731  24.910  26.502  1.00  0.00     0.010 A 
ATOM     41  C   UNL A   1      40.775  24.763  27.428  1.00  0.00    -0.014 A 
BRANCH  41  42
ATOM     42  C   UNL A   1      41.520  25.967  27.876  1.00  0.00     0.031 A 
ATOM     43  C   UNL A   1      40.828  27.016  28.698  1.00  0.00     0.074 A 
ATOM     44  C   UNL A   1      42.794  26.160  27.481  1.00  0.00     0.049 A 
ATOM     45  N   UNL A   1      41.249  28.207  29.033  1.00  0.00    -0.248 NA
ATOM     46  C   UNL A   1      39.478  26.691  29.188  1.00  0.00     0.031 C 
ATOM     47  C   UNL A   1      43.573  25.242  26.648  1.00  0.00     0.029 A 
ATOM     48  N   UNL A   1      43.651  27.205  27.717  1.00  0.00    -0.354 N 
ATOM     49  C   UNL A   1      40.190  28.804  29.704  1.00  0.00     0.074 A 
ATOM     50  C   UNL A   1      39.121  27.830  29.765  1.00  0.00     0.031 C 
ATOM     51  C   UNL A   1      44.800  25.757  26.460  1.00  0.00     0.029 A 
ATOM     52  C   UNL A   1      44.886  27.049  27.134  1.00  0.00     0.049 A 
ATOM     53  H   UNL A   1      43.405  27.992  28.254  1.00  0.00     0.167 HD
ATOM     54  C   UNL A   1      40.113  30.052  30.222  1.00  0.00     0.034 A 
ATOM     55  C   UNL A   1      45.966  27.854  27.143  1.00  0.00     0.034 A 
ATOM     56  C   UNL A   1      41.196  30.996  30.238  1.00  0.00     0.049 A 
ATOM     57  C   UNL A   1      45.908  29.167  27.873  1.00  0.00     0.074 A 
ATOM     58  C   UNL A   1      41.202  32.297  30.710  1.00  0.00     0.029 A 
ATOM     59  N   UNL A   1      42.479  30.725  29.792  1.00  0.00    -0.354 N 
ATOM     60  N   UNL A   1      44.903  29.702  28.520  1.00  0.00    -0.248 NA
ATOM     61  C   UNL A   1      47.136  29.976  27.890  1.00  0.00     0.031 C 
ATOM     62  C   UNL A   1      42.506  32.796  30.598  1.00  0.00     0.029 A 
ATOM     63  C   UNL A   1      43.299  31.815  30.024  1.00  0.00     0.049 A 
ATOM     64  H   UNL A   1      42.766  29.881  29.373  1.00  0.00     0.167 HD
ATOM     65  C   UNL A   1      45.375  30.909  29.023  1.00  0.00     0.074 A 
ATOM     66  C   UNL A   1      46.766  31.012  28.632  1.00  0.00     0.031 C 
ATOM     67  C   UNL A   1      44.702  31.864  29.708  1.00  0.00     0.034 A 
BRANCH  54  68
ATOM     68  C   UNL A   1      38.818  30.443  30.865  1.00  0.00     0.023 A 
ATOM     69  C   UNL A   1      38.593  30.103  32.211  1.00  0.00     0.012 A 
ATOM     70  C   UNL A   1      37.832  31.147  30.153  1.00  0.00     0.148 A 
ATOM     71  C   UNL A   1      37.397  30.452  32.838  1.00  0.00     0.002 A 
ATOM     72  C   UNL A   1      36.643  31.494  30.788  1.00  0.00     0.091 A 
ATOM     73  F   UNL A   1      38.050  31.454  28.866  1.00  0.00    -0.205 F 
ATOM     74  C   UNL A   1      36.421  31.150  32.128  1.00  0.00     0.022 A 
BRANCH  72  75
ATOM     75  S   UNL A   1      35.378  32.377  29.870  1.00  0.00     0.127 S 
ATOM     76  O   UNL A   1      34.349  32.606  30.881  1.00  0.00    -0.237 OA
ATOM     77  O   UNL A   1      36.066  33.593  29.432  1.00  0.00    -0.237 OA
ATOM     78  O   UNL A   1      35.042  31.457  28.790  1.00  0.00    -0.744 OA
ENDBRANCH  72  75
ENDBRANCH  54  68
BRANCH  55  79
ATOM     79  C   UNL A   1      47.226  27.391  26.507  1.00  0.00     0.023 A 
ATOM     80  C   UNL A   1      47.507  27.793  25.187  1.00  0.00     0.012 A 
ATOM     81  C   UNL A   1      48.165  26.611  27.202  1.00  0.00     0.148 A 
ATOM     82  C   UNL A   1      48.699  27.416  24.568  1.00  0.00     0.002 A 
ATOM     83  C   UNL A   1      49.364  26.262  26.588  1.00  0.00     0.091 A 
ATOM     84  F   UNL A   1      47.892  26.236  28.461  1.00  0.00    -0.205 F 
ATOM     85  C   UNL A   1      49.632  26.655  25.269  1.00  0.00     0.022 A 
BRANCH  83  86
ATOM     86  S   UNL A   1      50.599  25.350  27.518  1.00  0.00     0.127 S 
ATOM     87  O   UNL A   1      49.848  24.197  28.004  1.00  0.00    -0.237 OA
ATOM     88  O   UNL A   1      51.613  25.032  26.511  1.00  0.00    -0.237 OA
ATOM     89  O   UNL A   1      51.035  26.318  28.520  1.00  0.00    -0.744 OA
ENDBRANCH  83  86
ENDBRANCH  55  79
BRANCH  67  90
ATOM     90  C   UNL A   1      45.455  33.105  30.087  1.00  0.00     0.023 A 
ATOM     91  C   UNL A   1      46.023  33.186  31.373  1.00  0.00     0.012 A 
ATOM     92  C   UNL A   1      45.662  34.150  29.170  1.00  0.00     0.148 A 
ATOM     93  C   UNL A   1      46.789  34.293  31.740  1.00  0.00     0.002 A 
ATOM     94  C   UNL A   1      46.432  35.247  29.543  1.00  0.00     0.091 A 
ATOM     95  F   UNL A   1      45.104  34.069  27.954  1.00  0.00    -0.205 F 
ATOM     96  C   UNL A   1      46.999  35.322  30.824  1.00  0.00     0.022 A 
BRANCH  94  97
ATOM     97  S   UNL A   1      46.725  36.570  28.364  1.00  0.00     0.127 S 
ATOM     98  O   UNL A   1      45.379  37.072  28.112  1.00  0.00    -0.237 OA
ATOM     99  O   UNL A   1      47.586  37.496  29.102  1.00  0.00    -0.237 OA
ATOM    100  O   UNL A   1      47.389  35.900  27.251  1.00  0.00    -0.744 OA
ENDBRANCH  94  97
ENDBRANCH  67  90
ENDBRANCH  41  42
ENDBRANCH  33  36
ENDBRANCH  31  32
ENDBRANCH   1  31
TORSDOF 19
ENDMDL
MODEL 3
REMARK VINA RESULT:     -11.5      4.455      7.677
REMARK SMILES CCOC(=O)C1=NN(c2ccc([N+](=O)[O-])cc2C(F)(F)F)[C@@](C)(C(=O)NCCCNC(=O)c2ccc(-c3c4nc(c(-c5cccc(S(=O)(=O)[O-])c5F)c5ccc([nH]5)c(-c5cccc(S(=O)(=O)[O-])c5F)c5nc(c(-c6cccc(S(=O)(=O)[O-])c6F)c6ccc3[nH]6)C=C5)C=C4)cc2)C1
REMARK SMILES IDX 28 1 27 2 26 3 24 4 25 5 22 7 6 8 7 9 96 10 8 11 23 12 4 13
REMARK SMILES IDX 5 14 3 15 2 16 1 17 9 18 10 19 17 20 11 21 16 22 12 23 18 24
REMARK SMILES IDX 19 25 20 26 21 27 13 28 14 29 15 30 29 31 30 32 31 33 32 35
REMARK SMILES IDX 33 36 34 37 95 38 35 39 94 40 36 41 37 42 38 43 88 44 39 45
REMARK SMILES IDX 93 46 87 47 89 48 40 49 92 50 86 51 85 52 41 54 73 55 53 56
REMARK SMILES IDX 72 57 54 58 57 59 71 60 90 61 55 62 56 63 70 65 91 66 58 67
REMARK SMILES IDX 42 68 43 69 51 70 44 71 46 72 52 73 45 74 47 75 48 76 49 77
REMARK SMILES IDX 50 78 74 79 75 80 83 81 76 82 78 83 84 84 77 85 79 86 80 87
REMARK SMILES IDX 81 88 82 89 59 90 60 91 68 92 61 93 63 94 69 95 62 96 64 97
REMARK SMILES IDX 65 98 66 99 67 100
REMARK H PARENT 26 6 30 34 89 53 57 64
REMARK Flexibility Score: inf
ROOT
ATOM      1  C   UNL A   1      36.653  22.872  23.805  1.00  0.00     0.042 C 
ENDROOT
BRANCH   1   2
ATOM      2  C   UNL A   1      35.248  22.608  23.269  1.00  0.00     0.117 C 
BRANCH   2   3
ATOM      3  N   UNL A   1      34.715  23.752  22.548  1.00  0.00    -0.354 N 
ATOM      4  C   UNL A   1      33.872  24.763  22.883  1.00  0.00     0.248 C 
ATOM      5  O   UNL A   1      33.587  25.520  21.943  1.00  0.00    -0.272 OA
ATOM      6  H   UNL A   1      35.033  23.805  21.618  1.00  0.00     0.163 HD
BRANCH   4   7
ATOM      7  C   UNL A   1      33.292  25.008  24.308  1.00  0.00     0.144 C 
ATOM      8  C   UNL A   1      31.108  25.729  24.022  1.00  0.00     0.149 C 
ATOM      9  N   UNL A   1      30.983  24.469  24.306  1.00  0.00    -0.169 NA
ATOM     10  C   UNL A   1      32.459  26.317  24.246  1.00  0.00     0.106 C 
ATOM     11  N   UNL A   1      32.229  24.031  24.675  1.00  0.00    -0.249 N 
ATOM     12  C   UNL A   1      34.355  25.200  25.385  1.00  0.00     0.048 C 
BRANCH   8  13
ATOM     13  C   UNL A   1      29.982  26.616  23.553  1.00  0.00     0.354 C 
ATOM     14  O   UNL A   1      28.856  26.505  24.006  1.00  0.00    -0.245 OA
BRANCH  13  15
ATOM     15  O   UNL A   1      30.396  27.439  22.572  1.00  0.00    -0.461 OA
BRANCH  15  16
ATOM     16  C   UNL A   1      29.802  28.742  22.564  1.00  0.00     0.230 C 
ATOM     17  C   UNL A   1      30.266  29.553  23.760  1.00  0.00     0.049 C 
ENDBRANCH  15  16
ENDBRANCH  13  15
ENDBRANCH   8  13
BRANCH  11  18
ATOM     18  C   UNL A   1      32.391  22.654  24.778  1.00  0.00     0.073 A 
ATOM     19  C   UNL A   1      32.137  21.838  23.655  1.00  0.00     0.036 A 
ATOM     20  C   UNL A   1      32.740  22.035  25.993  1.00  0.00     0.088 A 
ATOM     21  C   UNL A   1      32.325  20.451  23.692  1.00  0.00     0.088 A 
ATOM     22  C   UNL A   1      32.958  20.639  26.023  1.00  0.00     0.101 A 
ATOM     23  C   UNL A   1      32.769  19.864  24.873  1.00  0.00     0.270 A 
BRANCH  20  24
ATOM     24  C   UNL A   1      32.905  22.798  27.283  1.00  0.00     0.418 C 
ATOM     25  F   UNL A   1      34.172  23.284  27.446  1.00  0.00    -0.166 F 
ATOM     26  F   UNL A   1      32.099  23.900  27.322  1.00  0.00    -0.166 F 
ATOM     27  F   UNL A   1      32.639  22.110  28.427  1.00  0.00    -0.166 F 
ENDBRANCH  20  24
BRANCH  23  28
ATOM     28  N   UNL A   1      33.104  18.441  24.905  1.00  0.00     0.062 N 
ATOM     29  O   UNL A   1      32.277  17.677  25.419  1.00  0.00    -0.258 OA
ATOM     30  O   UNL A   1      34.147  18.090  24.334  1.00  0.00    -0.258 OA
ENDBRANCH  23  28
ENDBRANCH  11  18
ENDBRANCH   4   7
ENDBRANCH   2   3
ENDBRANCH   1   2
BRANCH   1  31
ATOM     31  C   UNL A   1      36.849  22.587  25.289  1.00  0.00     0.118 C 
BRANCH  31  32
ATOM     32  N   UNL A   1      37.696  21.433  25.535  1.00  0.00    -0.352 N 
ATOM     33  C   UNL A   1      38.969  21.409  26.061  1.00  0.00     0.251 C 
ATOM     34  H   UNL A   1      37.313  20.558  25.295  1.00  0.00     0.163 HD
ATOM     35  O   UNL A   1      39.612  20.362  26.064  1.00  0.00    -0.269 OA
BRANCH  33  36
ATOM     36  C   UNL A   1      39.571  22.654  26.594  1.00  0.00     0.039 A 
ATOM     37  C   UNL A   1      40.558  22.560  27.580  1.00  0.00     0.014 A 
ATOM     38  C   UNL A   1      39.175  23.906  26.112  1.00  0.00     0.014 A 
ATOM     39  C   UNL A   1      41.198  23.717  28.033  1.00  0.00     0.010 A 
ATOM     40  C   UNL A   1      39.846  25.054  26.532  1.00  0.00     0.010 A 
ATOM     41  C   UNL A   1      40.869  24.970  27.490  1.00  0.00    -0.014 A 
BRANCH  41  42
ATOM     42  C   UNL A   1      41.576  26.207  27.905  1.00  0.00     0.031 A 
ATOM     43  C   UNL A   1      40.867  27.235  28.738  1.00  0.00     0.074 A 
ATOM     44  C   UNL A   1      42.828  26.449  27.468  1.00  0.00     0.049 A 
ATOM     45  N   UNL A   1      41.248  28.446  29.051  1.00  0.00    -0.248 NA
ATOM     46  C   UNL A   1      39.548  26.859  29.273  1.00  0.00     0.031 C 
ATOM     47  C   UNL A   1      43.618  25.556  26.619  1.00  0.00     0.029 A 
ATOM     48  N   UNL A   1      43.648  27.531  27.668  1.00  0.00    -0.354 N 
ATOM     49  C   UNL A   1      40.187  29.005  29.749  1.00  0.00     0.074 A 
ATOM     50  C   UNL A   1      39.162  27.989  29.852  1.00  0.00     0.031 C 
ATOM     51  C   UNL A   1      44.816  26.119  26.387  1.00  0.00     0.029 A 
ATOM     52  C   UNL A   1      44.870  27.420  27.047  1.00  0.00     0.049 A 
ATOM     53  H   UNL A   1      43.386  28.312  28.206  1.00  0.00     0.167 HD
ATOM     54  C   UNL A   1      40.075  30.254  30.259  1.00  0.00     0.034 A 
ATOM     55  C   UNL A   1      45.915  28.269  27.016  1.00  0.00     0.034 A 
ATOM     56  C   UNL A   1      41.117  31.242  30.232  1.00  0.00     0.049 A 
ATOM     57  C   UNL A   1      45.825  29.585  27.736  1.00  0.00     0.074 A 
ATOM     58  C   UNL A   1      41.083  32.546  30.693  1.00  0.00     0.029 A 
ATOM     59  N   UNL A   1      42.396  31.020  29.749  1.00  0.00    -0.354 N 
ATOM     60  N   UNL A   1      44.819  30.085  28.410  1.00  0.00    -0.248 NA
ATOM     61  C   UNL A   1      47.018  30.445  27.707  1.00  0.00     0.031 C 
ATOM     62  C   UNL A   1      42.361  33.098  30.536  1.00  0.00     0.029 A 
ATOM     63  C   UNL A   1      43.177  32.145  29.946  1.00  0.00     0.049 A 
ATOM     64  H   UNL A   1      42.704  30.184  29.328  1.00  0.00     0.167 HD
ATOM     65  C   UNL A   1      45.256  31.315  28.887  1.00  0.00     0.074 A 
ATOM     66  C   UNL A   1      46.629  31.473  28.452  1.00  0.00     0.031 C 
ATOM     67  C   UNL A   1      44.566  32.249  29.585  1.00  0.00     0.034 A 
BRANCH  54  68
ATOM     68  C   UNL A   1      38.784  30.597  30.939  1.00  0.00     0.023 A 
ATOM     69  C   UNL A   1      38.603  30.230  32.284  1.00  0.00     0.012 A 
ATOM     70  C   UNL A   1      37.762  31.284  30.262  1.00  0.00     0.148 A 
ATOM     71  C   UNL A   1      37.413  30.535  32.945  1.00  0.00     0.002 A 
ATOM     72  C   UNL A   1      36.579  31.587  30.930  1.00  0.00     0.091 A 
ATOM     73  F   UNL A   1      37.939  31.617  28.975  1.00  0.00    -0.205 F 
ATOM     74  C   UNL A   1      36.400  31.215  32.270  1.00  0.00     0.022 A 
BRANCH  72  75
ATOM     75  S   UNL A   1      35.268  32.446  30.058  1.00  0.00     0.127 S 
ATOM     76  O   UNL A   1      34.273  32.662  31.105  1.00  0.00    -0.237 OA
ATOM     77  O   UNL A   1      35.919  33.672  29.592  1.00  0.00    -0.237 OA
ATOM     78  O   UNL A   1      34.907  31.518  28.993  1.00  0.00    -0.744 OA
ENDBRANCH  72  75
ENDBRANCH  54  68
BRANCH  55  79
ATOM     79  C   UNL A   1      47.173  27.852  26.344  1.00  0.00     0.023 A 
ATOM     80  C   UNL A   1      48.204  27.293  27.122  1.00  0.00     0.012 A 
ATOM     81  C   UNL A   1      47.339  27.951  24.952  1.00  0.00     0.148 A 
ATOM     82  C   UNL A   1      49.384  26.849  26.524  1.00  0.00     0.002 A 
ATOM     83  C   UNL A   1      48.506  27.481  24.360  1.00  0.00     0.091 A 
ATOM     84  F   UNL A   1      46.349  28.481  24.217  1.00  0.00    -0.205 F 
ATOM     85  C   UNL A   1      49.535  26.937  25.142  1.00  0.00     0.022 A 
BRANCH  83  86
ATOM     86  S   UNL A   1      48.667  27.521  22.573  1.00  0.00     0.127 S 
ATOM     87  O   UNL A   1      47.515  28.318  22.164  1.00  0.00    -0.237 OA
ATOM     88  O   UNL A   1      49.960  28.176  22.365  1.00  0.00    -0.237 OA
ATOM     89  O   UNL A   1      48.649  26.108  22.211  1.00  0.00    -0.744 OA
ENDBRANCH  83  86
ENDBRANCH  55  79
BRANCH  67  90
ATOM     90  C   UNL A   1      45.278  33.523  29.929  1.00  0.00     0.023 A 
ATOM     91  C   UNL A   1      45.255  34.584  29.003  1.00  0.00     0.012 A 
ATOM     92  C   UNL A   1      45.906  33.703  31.174  1.00  0.00     0.148 A 
ATOM     93  C   UNL A   1      45.847  35.808  29.314  1.00  0.00     0.002 A 
ATOM     94  C   UNL A   1      46.488  34.930  31.478  1.00  0.00     0.091 A 
ATOM     95  F   UNL A   1      45.936  32.682  32.042  1.00  0.00    -0.205 F 
ATOM     96  C   UNL A   1      46.459  35.985  30.553  1.00  0.00     0.022 A 
BRANCH  94  97
ATOM     97  S   UNL A   1      47.263  35.174  33.079  1.00  0.00     0.127 S 
ATOM     98  O   UNL A   1      48.337  34.186  33.065  1.00  0.00    -0.237 OA
ATOM     99  O   UNL A   1      47.722  36.564  33.024  1.00  0.00    -0.237 OA
ATOM    100  O   UNL A   1      46.178  34.944  34.027  1.00  0.00    -0.744 OA
ENDBRANCH  94  97
ENDBRANCH  67  90
ENDBRANCH  41  42
ENDBRANCH  33  36
ENDBRANCH  31  32
ENDBRANCH   1  31
TORSDOF 19
ENDMDL
