MODEL 1
REMARK VINA RESULT:     -12.9      0.000      0.000
REMARK SMILES O=C(NCCCNC(=O)c1ccc(-c2c3nc(c(-c4cccc(S(=O)(=O)[O-])c4F)c4ccc([nH]4)c(-c4cccc(S(=O)(=O)[O-])c4F)c4nc(c(-c5cccc(S(=O)(=O)[O-])c5F)c5ccc2[nH]5)C=C4)C=C3)cc1)C1=Cc2ccc(Cl)c(Cl)c2O[C@@H]1C(F)(F)F
REMARK SMILES IDX 6 1 5 2 4 3 3 4 1 5 2 6 73 8 74 9 84 10 75 11 83 12 76 13
REMARK SMILES IDX 82 14 77 15 80 16 78 17 81 18 79 19 85 20 86 21 87 22 88 23
REMARK SMILES IDX 7 24 8 25 9 27 10 28 11 29 72 30 12 31 71 32 13 33 14 34
REMARK SMILES IDX 15 35 65 36 16 37 70 38 64 39 66 40 17 41 69 42 63 43 62 44
REMARK SMILES IDX 18 46 50 47 30 48 49 49 31 50 34 51 48 52 67 53 32 54 33 55
REMARK SMILES IDX 47 57 68 58 35 59 19 60 20 61 28 62 21 63 23 64 29 65 22 66
REMARK SMILES IDX 24 67 25 68 26 69 27 70 51 71 52 72 60 73 53 74 55 75 61 76
REMARK SMILES IDX 54 77 56 78 57 79 58 80 59 81 36 82 37 83 45 84 38 85 40 86
REMARK SMILES IDX 46 87 39 88 41 89 42 90 43 91 44 92
REMARK H PARENT 3 7 7 26 66 45 34 56
REMARK Flexibility Score: inf
ROOT
ATOM      1  C   UNL A   1      32.719  29.883  25.695  1.00  0.00     0.118 C 
ENDROOT
BRANCH   1   2
ATOM      2  C   UNL A   1      31.626  28.833  25.871  1.00  0.00     0.042 C 
BRANCH   2   3
ATOM      3  C   UNL A   1      32.049  27.691  26.787  1.00  0.00     0.118 C 
BRANCH   3   4
ATOM      4  N   UNL A   1      31.080  26.593  26.866  1.00  0.00    -0.352 N 
ATOM      5  O   UNL A   1      30.394  24.430  26.779  1.00  0.00    -0.270 OA
ATOM      6  C   UNL A   1      31.184  25.294  26.421  1.00  0.00     0.251 C 
ATOM      7  H   UNL A   1      30.227  26.818  27.301  1.00  0.00     0.163 HD
BRANCH   6   8
ATOM      8  C   UNL A   1      32.359  24.945  25.598  1.00  0.00     0.067 C 
ATOM      9  C   UNL A   1      33.361  24.256  26.159  1.00  0.00     0.025 C 
ATOM     10  C   UNL A   1      32.194  25.043  24.116  1.00  0.00     0.314 C 
ATOM     11  C   UNL A   1      33.702  23.047  25.385  1.00  0.00     0.019 A 
ATOM     12  O   UNL A   1      32.361  23.763  23.465  1.00  0.00    -0.474 OA
ATOM     13  C   UNL A   1      34.275  21.987  26.098  1.00  0.00     0.013 A 
ATOM     14  C   UNL A   1      33.061  22.792  24.151  1.00  0.00     0.148 A 
ATOM     15  C   UNL A   1      34.129  20.677  25.638  1.00  0.00     0.023 A 
ATOM     16  C   UNL A   1      32.942  21.473  23.676  1.00  0.00     0.102 A 
ATOM     17  C   UNL A   1      33.451  20.417  24.443  1.00  0.00     0.063 A 
ATOM     18  Cl  UNL A   1      32.025  21.171  22.232  1.00  0.00    -0.079 Cl
ATOM     19  Cl  UNL A   1      33.204  18.760  24.017  1.00  0.00    -0.083 Cl
BRANCH  10  20
ATOM     20  C   UNL A   1      33.146  26.088  23.513  1.00  0.00     0.429 C 
ATOM     21  F   UNL A   1      32.454  27.132  22.991  1.00  0.00    -0.167 F 
ATOM     22  F   UNL A   1      33.987  26.606  24.438  1.00  0.00    -0.167 F 
ATOM     23  F   UNL A   1      33.908  25.581  22.515  1.00  0.00    -0.167 F 
ENDBRANCH  10  20
ENDBRANCH   6   8
ENDBRANCH   3   4
ENDBRANCH   2   3
ENDBRANCH   1   2
BRANCH   1  24
ATOM     24  N   UNL A   1      32.401  31.169  26.317  1.00  0.00    -0.352 N 
ATOM     25  C   UNL A   1      33.094  31.953  27.220  1.00  0.00     0.251 C 
ATOM     26  H   UNL A   1      31.535  31.546  26.040  1.00  0.00     0.163 HD
ATOM     27  O   UNL A   1      32.563  32.954  27.677  1.00  0.00    -0.269 OA
BRANCH  25  28
ATOM     28  C   UNL A   1      34.455  31.572  27.667  1.00  0.00     0.039 A 
ATOM     29  C   UNL A   1      35.444  32.559  27.768  1.00  0.00     0.014 A 
ATOM     30  C   UNL A   1      34.761  30.256  27.996  1.00  0.00     0.014 A 
ATOM     31  C   UNL A   1      36.689  32.242  28.325  1.00  0.00     0.010 A 
ATOM     32  C   UNL A   1      35.948  29.969  28.657  1.00  0.00     0.010 A 
ATOM     33  C   UNL A   1      36.924  30.960  28.845  1.00  0.00    -0.014 A 
BRANCH  33  34
ATOM     34  C   UNL A   1      38.150  30.611  29.615  1.00  0.00     0.031 A 
ATOM     35  C   UNL A   1      39.134  29.623  29.043  1.00  0.00     0.074 A 
ATOM     36  C   UNL A   1      38.295  31.049  30.884  1.00  0.00     0.049 A 
ATOM     37  N   UNL A   1      40.117  28.997  29.637  1.00  0.00    -0.248 NA
ATOM     38  C   UNL A   1      38.958  29.254  27.628  1.00  0.00     0.031 C 
ATOM     39  C   UNL A   1      37.379  31.955  31.583  1.00  0.00     0.029 A 
ATOM     40  N   UNL A   1      39.248  30.755  31.830  1.00  0.00    -0.354 N 
ATOM     41  C   UNL A   1      40.634  28.120  28.690  1.00  0.00     0.074 A 
ATOM     42  C   UNL A   1      39.836  28.270  27.492  1.00  0.00     0.031 C 
ATOM     43  C   UNL A   1      37.813  32.143  32.839  1.00  0.00     0.029 A 
ATOM     44  C   UNL A   1      39.007  31.335  33.055  1.00  0.00     0.049 A 
ATOM     45  H   UNL A   1      40.029  30.184  31.648  1.00  0.00     0.167 HD
ATOM     46  C   UNL A   1      41.700  27.290  28.792  1.00  0.00     0.034 A 
ATOM     47  C   UNL A   1      39.658  31.210  34.230  1.00  0.00     0.034 A 
ATOM     48  C   UNL A   1      42.542  27.206  29.954  1.00  0.00     0.049 A 
ATOM     49  C   UNL A   1      40.863  30.310  34.303  1.00  0.00     0.074 A 
ATOM     50  C   UNL A   1      43.701  26.470  30.123  1.00  0.00     0.029 A 
ATOM     51  N   UNL A   1      42.323  27.890  31.139  1.00  0.00    -0.354 N 
ATOM     52  N   UNL A   1      41.413  29.590  33.356  1.00  0.00    -0.248 NA
ATOM     53  C   UNL A   1      41.550  30.221  35.600  1.00  0.00     0.031 C 
ATOM     54  C   UNL A   1      44.182  26.708  31.414  1.00  0.00     0.029 A 
ATOM     55  C   UNL A   1      43.325  27.594  32.045  1.00  0.00     0.049 A 
ATOM     56  H   UNL A   1      41.566  28.496  31.310  1.00  0.00     0.167 HD
ATOM     57  C   UNL A   1      42.525  28.987  33.933  1.00  0.00     0.074 A 
ATOM     58  C   UNL A   1      42.585  29.446  35.305  1.00  0.00     0.031 C 
ATOM     59  C   UNL A   1      43.403  28.112  33.386  1.00  0.00     0.034 A 
BRANCH  46  60
ATOM     60  C   UNL A   1      42.067  26.467  27.586  1.00  0.00     0.023 A 
ATOM     61  C   UNL A   1      42.778  27.071  26.531  1.00  0.00     0.012 A 
ATOM     62  C   UNL A   1      41.771  25.091  27.522  1.00  0.00     0.148 A 
ATOM     63  C   UNL A   1      43.162  26.331  25.414  1.00  0.00     0.002 A 
ATOM     64  C   UNL A   1      42.195  24.348  26.424  1.00  0.00     0.091 A 
ATOM     65  F   UNL A   1      41.079  24.537  28.527  1.00  0.00    -0.205 F 
ATOM     66  C   UNL A   1      42.880  24.969  25.366  1.00  0.00     0.022 A 
BRANCH  64  67
ATOM     67  S   UNL A   1      41.947  22.573  26.294  1.00  0.00     0.127 S 
ATOM     68  O   UNL A   1      42.634  22.271  25.039  1.00  0.00    -0.237 OA
ATOM     69  O   UNL A   1      42.623  22.080  27.494  1.00  0.00    -0.237 OA
ATOM     70  O   UNL A   1      40.505  22.369  26.280  1.00  0.00    -0.744 OA
ENDBRANCH  64  67
ENDBRANCH  46  60
BRANCH  47  71
ATOM     71  C   UNL A   1      39.223  31.995  35.421  1.00  0.00     0.023 A 
ATOM     72  C   UNL A   1      38.340  31.402  36.344  1.00  0.00     0.012 A 
ATOM     73  C   UNL A   1      39.678  33.306  35.657  1.00  0.00     0.148 A 
ATOM     74  C   UNL A   1      37.890  32.110  37.459  1.00  0.00     0.002 A 
ATOM     75  C   UNL A   1      39.271  33.988  36.800  1.00  0.00     0.091 A 
ATOM     76  F   UNL A   1      40.504  33.867  34.762  1.00  0.00    -0.205 F 
ATOM     77  C   UNL A   1      38.362  33.398  37.693  1.00  0.00     0.022 A 
BRANCH  75  78
ATOM     78  S   UNL A   1      39.946  35.593  37.241  1.00  0.00     0.127 S 
ATOM     79  O   UNL A   1      39.253  35.877  38.494  1.00  0.00    -0.237 OA
ATOM     80  O   UNL A   1      41.373  35.304  37.377  1.00  0.00    -0.237 OA
ATOM     81  O   UNL A   1      39.624  36.465  36.118  1.00  0.00    -0.744 OA
ENDBRANCH  75  78
ENDBRANCH  47  71
BRANCH  59  82
ATOM     82  C   UNL A   1      44.522  27.608  34.257  1.00  0.00     0.023 A 
ATOM     83  C   UNL A   1      45.701  28.367  34.376  1.00  0.00     0.012 A 
ATOM     84  C   UNL A   1      44.366  26.440  35.028  1.00  0.00     0.148 A 
ATOM     85  C   UNL A   1      46.720  27.960  35.236  1.00  0.00     0.002 A 
ATOM     86  C   UNL A   1      45.367  26.064  35.914  1.00  0.00     0.091 A 
ATOM     87  F   UNL A   1      43.239  25.726  34.884  1.00  0.00    -0.205 F 
ATOM     88  C   UNL A   1      46.548  26.817  36.012  1.00  0.00     0.022 A 
BRANCH  86  89
ATOM     89  S   UNL A   1      45.199  24.660  37.022  1.00  0.00     0.127 S 
ATOM     90  O   UNL A   1      46.487  24.672  37.714  1.00  0.00    -0.237 OA
ATOM     91  O   UNL A   1      44.058  25.053  37.849  1.00  0.00    -0.237 OA
ATOM     92  O   UNL A   1      44.961  23.501  36.173  1.00  0.00    -0.744 OA
ENDBRANCH  86  89
ENDBRANCH  59  82
ENDBRANCH  33  34
ENDBRANCH  25  28
ENDBRANCH   1  24
TORSDOF 14
ENDMDL
MODEL 2
REMARK VINA RESULT:     -12.8      5.441     10.215
REMARK SMILES O=C(NCCCNC(=O)c1ccc(-c2c3nc(c(-c4cccc(S(=O)(=O)[O-])c4F)c4ccc([nH]4)c(-c4cccc(S(=O)(=O)[O-])c4F)c4nc(c(-c5cccc(S(=O)(=O)[O-])c5F)c5ccc2[nH]5)C=C4)C=C3)cc1)C1=Cc2ccc(Cl)c(Cl)c2O[C@@H]1C(F)(F)F
REMARK SMILES IDX 6 1 5 2 4 3 3 4 1 5 2 6 73 8 74 9 84 10 75 11 83 12 76 13
REMARK SMILES IDX 82 14 77 15 80 16 78 17 81 18 79 19 85 20 86 21 87 22 88 23
REMARK SMILES IDX 7 24 8 25 9 27 10 28 11 29 72 30 12 31 71 32 13 33 14 34
REMARK SMILES IDX 15 35 65 36 16 37 70 38 64 39 66 40 17 41 69 42 63 43 62 44
REMARK SMILES IDX 18 46 50 47 30 48 49 49 31 50 34 51 48 52 67 53 32 54 33 55
REMARK SMILES IDX 47 57 68 58 35 59 19 60 20 61 28 62 21 63 23 64 29 65 22 66
REMARK SMILES IDX 24 67 25 68 26 69 27 70 51 71 52 72 60 73 53 74 55 75 61 76
REMARK SMILES IDX 54 77 56 78 57 79 58 80 59 81 36 82 37 83 45 84 38 85 40 86
REMARK SMILES IDX 46 87 39 88 41 89 42 90 43 91 44 92
REMARK H PARENT 3 7 7 26 66 45 34 56
REMARK Flexibility Score: inf
ROOT
ATOM      1  C   UNL A   1      37.087  21.727  25.029  1.00  0.00     0.118 C 
ENDROOT
BRANCH   1   2
ATOM      2  C   UNL A   1      35.780  21.524  25.789  1.00  0.00     0.042 C 
BRANCH   2   3
ATOM      3  C   UNL A   1      34.583  21.343  24.863  1.00  0.00     0.118 C 
BRANCH   3   4
ATOM      4  N   UNL A   1      34.560  22.265  23.723  1.00  0.00    -0.352 N 
ATOM      5  O   UNL A   1      34.281  24.266  22.686  1.00  0.00    -0.270 OA
ATOM      6  C   UNL A   1      34.005  23.521  23.618  1.00  0.00     0.251 C 
ATOM      7  H   UNL A   1      35.007  21.937  22.910  1.00  0.00     0.163 HD
BRANCH   6   8
ATOM      8  C   UNL A   1      33.162  23.992  24.735  1.00  0.00     0.067 C 
ATOM      9  C   UNL A   1      33.629  24.960  25.534  1.00  0.00     0.025 C 
ATOM     10  C   UNL A   1      31.711  23.640  24.677  1.00  0.00     0.314 C 
ATOM     11  C   UNL A   1      32.681  26.085  25.651  1.00  0.00     0.019 A 
ATOM     12  O   UNL A   1      30.870  24.814  24.603  1.00  0.00    -0.474 OA
ATOM     13  C   UNL A   1      33.231  27.339  25.945  1.00  0.00     0.013 A 
ATOM     14  C   UNL A   1      31.409  26.006  25.040  1.00  0.00     0.148 A 
ATOM     15  C   UNL A   1      32.567  28.501  25.548  1.00  0.00     0.023 A 
ATOM     16  C   UNL A   1      30.730  27.180  24.669  1.00  0.00     0.102 A 
ATOM     17  C   UNL A   1      31.331  28.424  24.897  1.00  0.00     0.063 A 
ATOM     18  Cl  UNL A   1      29.236  27.055  23.790  1.00  0.00    -0.079 Cl
ATOM     19  Cl  UNL A   1      30.643  29.904  24.326  1.00  0.00    -0.083 Cl
BRANCH  10  20
ATOM     20  C   UNL A   1      31.302  22.751  25.862  1.00  0.00     0.429 C 
ATOM     21  F   UNL A   1      32.179  22.878  26.891  1.00  0.00    -0.167 F 
ATOM     22  F   UNL A   1      30.083  23.080  26.350  1.00  0.00    -0.167 F 
ATOM     23  F   UNL A   1      31.264  21.438  25.535  1.00  0.00    -0.167 F 
ENDBRANCH  10  20
ENDBRANCH   6   8
ENDBRANCH   3   4
ENDBRANCH   2   3
ENDBRANCH   1   2
BRANCH   1  24
ATOM     24  N   UNL A   1      38.091  20.700  25.305  1.00  0.00    -0.352 N 
ATOM     25  C   UNL A   1      39.310  20.752  25.955  1.00  0.00     0.251 C 
ATOM     26  H   UNL A   1      37.855  19.806  24.967  1.00  0.00     0.163 HD
ATOM     27  O   UNL A   1      40.027  19.763  25.967  1.00  0.00    -0.269 OA
BRANCH  25  28
ATOM     28  C   UNL A   1      39.771  22.003  26.603  1.00  0.00     0.039 A 
ATOM     29  C   UNL A   1      40.708  21.932  27.641  1.00  0.00     0.014 A 
ATOM     30  C   UNL A   1      39.296  23.243  26.189  1.00  0.00     0.014 A 
ATOM     31  C   UNL A   1      41.260  23.108  28.162  1.00  0.00     0.010 A 
ATOM     32  C   UNL A   1      39.929  24.402  26.620  1.00  0.00     0.010 A 
ATOM     33  C   UNL A   1      40.930  24.352  27.602  1.00  0.00    -0.014 A 
BRANCH  33  34
ATOM     34  C   UNL A   1      41.616  25.618  27.980  1.00  0.00     0.031 A 
ATOM     35  C   UNL A   1      40.851  26.693  28.708  1.00  0.00     0.074 A 
ATOM     36  C   UNL A   1      42.864  25.867  27.530  1.00  0.00     0.049 A 
ATOM     37  N   UNL A   1      41.171  27.946  28.906  1.00  0.00    -0.248 NA
ATOM     38  C   UNL A   1      39.528  26.322  29.240  1.00  0.00     0.031 C 
ATOM     39  C   UNL A   1      43.692  24.939  26.755  1.00  0.00     0.029 A 
ATOM     40  N   UNL A   1      43.641  26.997  27.622  1.00  0.00    -0.354 N 
ATOM     41  C   UNL A   1      40.069  28.523  29.528  1.00  0.00     0.074 A 
ATOM     42  C   UNL A   1      39.060  27.494  29.645  1.00  0.00     0.031 C 
ATOM     43  C   UNL A   1      44.855  25.533  26.445  1.00  0.00     0.029 A 
ATOM     44  C   UNL A   1      44.841  26.900  26.952  1.00  0.00     0.049 A 
ATOM     45  H   UNL A   1      43.366  27.801  28.120  1.00  0.00     0.167 HD
ATOM     46  C   UNL A   1      39.922  29.787  29.995  1.00  0.00     0.034 A 
ATOM     47  C   UNL A   1      45.810  27.815  26.746  1.00  0.00     0.034 A 
ATOM     48  C   UNL A   1      40.958  30.782  29.953  1.00  0.00     0.049 A 
ATOM     49  C   UNL A   1      45.635  29.200  27.310  1.00  0.00     0.074 A 
ATOM     50  C   UNL A   1      40.943  32.059  30.486  1.00  0.00     0.029 A 
ATOM     51  N   UNL A   1      42.197  30.608  29.359  1.00  0.00    -0.354 N 
ATOM     52  N   UNL A   1      44.639  29.686  28.011  1.00  0.00    -0.248 NA
ATOM     53  C   UNL A   1      46.726  30.157  27.074  1.00  0.00     0.031 C 
ATOM     54  C   UNL A   1      42.175  32.659  30.208  1.00  0.00     0.029 A 
ATOM     55  C   UNL A   1      42.956  31.754  29.509  1.00  0.00     0.049 A 
ATOM     56  H   UNL A   1      42.492  29.790  28.897  1.00  0.00     0.167 HD
ATOM     57  C   UNL A   1      44.996  30.993  28.323  1.00  0.00     0.074 A 
ATOM     58  C   UNL A   1      46.310  31.215  27.758  1.00  0.00     0.031 C 
ATOM     59  C   UNL A   1      44.289  31.933  28.996  1.00  0.00     0.034 A 
BRANCH  46  60
ATOM     60  C   UNL A   1      38.621  30.140  30.666  1.00  0.00     0.023 A 
ATOM     61  C   UNL A   1      38.396  29.724  31.993  1.00  0.00     0.012 A 
ATOM     62  C   UNL A   1      37.655  30.934  30.017  1.00  0.00     0.148 A 
ATOM     63  C   UNL A   1      37.217  30.061  32.656  1.00  0.00     0.002 A 
ATOM     64  C   UNL A   1      36.500  31.303  30.699  1.00  0.00     0.091 A 
ATOM     65  F   UNL A   1      37.879  31.306  28.749  1.00  0.00    -0.205 F 
ATOM     66  C   UNL A   1      36.276  30.858  32.013  1.00  0.00     0.022 A 
BRANCH  64  67
ATOM     67  S   UNL A   1      35.254  32.387  29.990  1.00  0.00     0.127 S 
ATOM     68  O   UNL A   1      34.748  31.571  28.887  1.00  0.00    -0.237 OA
ATOM     69  O   UNL A   1      34.321  32.552  31.104  1.00  0.00    -0.237 OA
ATOM     70  O   UNL A   1      35.955  33.601  29.595  1.00  0.00    -0.744 OA
ENDBRANCH  64  67
ENDBRANCH  46  60
BRANCH  47  71
ATOM     71  C   UNL A   1      47.057  27.443  26.018  1.00  0.00     0.023 A 
ATOM     72  C   UNL A   1      48.086  26.785  26.719  1.00  0.00     0.012 A 
ATOM     73  C   UNL A   1      47.231  27.719  24.649  1.00  0.00     0.148 A 
ATOM     74  C   UNL A   1      49.278  26.441  26.082  1.00  0.00     0.002 A 
ATOM     75  C   UNL A   1      48.399  27.323  24.004  1.00  0.00     0.091 A 
ATOM     76  F   UNL A   1      46.252  28.361  23.997  1.00  0.00    -0.205 F 
ATOM     77  C   UNL A   1      49.432  26.701  24.723  1.00  0.00     0.022 A 
BRANCH  75  78
ATOM     78  S   UNL A   1      48.610  27.495  22.228  1.00  0.00     0.127 S 
ATOM     79  O   UNL A   1      49.835  28.284  22.145  1.00  0.00    -0.237 OA
ATOM     80  O   UNL A   1      48.741  26.104  21.794  1.00  0.00    -0.237 OA
ATOM     81  O   UNL A   1      47.393  28.148  21.760  1.00  0.00    -0.744 OA
ENDBRANCH  75  78
ENDBRANCH  47  71
BRANCH  59  82
ATOM     82  C   UNL A   1      44.926  33.284  29.184  1.00  0.00     0.023 A 
ATOM     83  C   UNL A   1      45.735  33.516  30.312  1.00  0.00     0.012 A 
ATOM     84  C   UNL A   1      44.803  34.283  28.199  1.00  0.00     0.148 A 
ATOM     85  C   UNL A   1      46.397  34.732  30.469  1.00  0.00     0.002 A 
ATOM     86  C   UNL A   1      45.499  35.476  28.341  1.00  0.00     0.091 A 
ATOM     87  F   UNL A   1      44.013  34.043  27.141  1.00  0.00    -0.205 F 
ATOM     88  C   UNL A   1      46.289  35.706  29.479  1.00  0.00     0.022 A 
BRANCH  86  89
ATOM     89  S   UNL A   1      45.496  36.753  27.077  1.00  0.00     0.127 S 
ATOM     90  O   UNL A   1      46.297  37.800  27.711  1.00  0.00    -0.237 OA
ATOM     91  O   UNL A   1      46.151  36.079  25.955  1.00  0.00    -0.237 OA
ATOM     92  O   UNL A   1      44.099  37.092  26.849  1.00  0.00    -0.744 OA
ENDBRANCH  86  89
ENDBRANCH  59  82
ENDBRANCH  33  34
ENDBRANCH  25  28
ENDBRANCH   1  24
TORSDOF 14
ENDMDL
MODEL 3
REMARK VINA RESULT:     -12.5      5.063      7.882
REMARK SMILES O=C(NCCCNC(=O)c1ccc(-c2c3nc(c(-c4cccc(S(=O)(=O)[O-])c4F)c4ccc([nH]4)c(-c4cccc(S(=O)(=O)[O-])c4F)c4nc(c(-c5cccc(S(=O)(=O)[O-])c5F)c5ccc2[nH]5)C=C4)C=C3)cc1)C1=Cc2ccc(Cl)c(Cl)c2O[C@@H]1C(F)(F)F
REMARK SMILES IDX 6 1 5 2 4 3 3 4 1 5 2 6 73 8 74 9 84 10 75 11 83 12 76 13
REMARK SMILES IDX 82 14 77 15 80 16 78 17 81 18 79 19 85 20 86 21 87 22 88 23
REMARK SMILES IDX 7 24 8 25 9 27 10 28 11 29 72 30 12 31 71 32 13 33 14 34
REMARK SMILES IDX 15 35 65 36 16 37 70 38 64 39 66 40 17 41 69 42 63 43 62 44
REMARK SMILES IDX 18 46 50 47 30 48 49 49 31 50 34 51 48 52 67 53 32 54 33 55
REMARK SMILES IDX 47 57 68 58 35 59 19 60 20 61 28 62 21 63 23 64 29 65 22 66
REMARK SMILES IDX 24 67 25 68 26 69 27 70 51 71 52 72 60 73 53 74 55 75 61 76
REMARK SMILES IDX 54 77 56 78 57 79 58 80 59 81 36 82 37 83 45 84 38 85 40 86
REMARK SMILES IDX 46 87 39 88 41 89 42 90 43 91 44 92
REMARK H PARENT 3 7 7 26 66 45 34 56
REMARK Flexibility Score: inf
ROOT
ATOM      1  C   UNL A   1      37.332  21.338  24.903  1.00  0.00     0.118 C 
ENDROOT
BRANCH   1   2
ATOM      2  C   UNL A   1      36.052  21.326  25.732  1.00  0.00     0.042 C 
BRANCH   2   3
ATOM      3  C   UNL A   1      34.796  21.248  24.873  1.00  0.00     0.118 C 
BRANCH   3   4
ATOM      4  N   UNL A   1      34.766  22.206  23.764  1.00  0.00    -0.352 N 
ATOM      5  O   UNL A   1      34.460  24.234  22.789  1.00  0.00    -0.270 OA
ATOM      6  C   UNL A   1      34.189  23.455  23.694  1.00  0.00     0.251 C 
ATOM      7  H   UNL A   1      35.226  21.913  22.945  1.00  0.00     0.163 HD
BRANCH   6   8
ATOM      8  C   UNL A   1      33.328  23.874  24.817  1.00  0.00     0.067 C 
ATOM      9  C   UNL A   1      33.788  24.790  25.679  1.00  0.00     0.025 C 
ATOM     10  C   UNL A   1      31.874  23.545  24.709  1.00  0.00     0.314 C 
ATOM     11  C   UNL A   1      32.852  25.919  25.838  1.00  0.00     0.019 A 
ATOM     12  O   UNL A   1      31.049  24.732  24.682  1.00  0.00    -0.474 OA
ATOM     13  C   UNL A   1      33.410  27.148  26.213  1.00  0.00     0.013 A 
ATOM     14  C   UNL A   1      31.592  25.891  25.197  1.00  0.00     0.148 A 
ATOM     15  C   UNL A   1      32.768  28.339  25.868  1.00  0.00     0.023 A 
ATOM     16  C   UNL A   1      30.935  27.093  24.878  1.00  0.00     0.102 A 
ATOM     17  C   UNL A   1      31.546  28.314  25.188  1.00  0.00     0.063 A 
ATOM     18  Cl  UNL A   1      29.460  27.036  23.962  1.00  0.00    -0.079 Cl
ATOM     19  Cl  UNL A   1      30.889  29.832  24.686  1.00  0.00    -0.083 Cl
BRANCH  10  20
ATOM     20  C   UNL A   1      31.428  22.597  25.834  1.00  0.00     0.429 C 
ATOM     21  F   UNL A   1      30.164  22.881  26.236  1.00  0.00    -0.167 F 
ATOM     22  F   UNL A   1      31.427  21.303  25.439  1.00  0.00    -0.167 F 
ATOM     23  F   UNL A   1      32.220  22.684  26.929  1.00  0.00    -0.167 F 
ENDBRANCH  10  20
ENDBRANCH   6   8
ENDBRANCH   3   4
ENDBRANCH   2   3
ENDBRANCH   1   2
BRANCH   1  24
ATOM     24  N   UNL A   1      38.368  20.437  25.410  1.00  0.00    -0.352 N 
ATOM     25  C   UNL A   1      39.518  20.671  26.140  1.00  0.00     0.251 C 
ATOM     26  H   UNL A   1      38.217  19.489  25.192  1.00  0.00     0.163 HD
ATOM     27  O   UNL A   1      40.289  19.750  26.358  1.00  0.00    -0.269 OA
BRANCH  25  28
ATOM     28  C   UNL A   1      39.842  22.033  26.627  1.00  0.00     0.039 A 
ATOM     29  C   UNL A   1      40.858  22.197  27.577  1.00  0.00     0.014 A 
ATOM     30  C   UNL A   1      39.163  23.148  26.147  1.00  0.00     0.014 A 
ATOM     31  C   UNL A   1      41.274  23.485  27.936  1.00  0.00     0.010 A 
ATOM     32  C   UNL A   1      39.654  24.420  26.411  1.00  0.00     0.010 A 
ATOM     33  C   UNL A   1      40.725  24.608  27.298  1.00  0.00    -0.014 A 
BRANCH  33  34
ATOM     34  C   UNL A   1      41.249  25.988  27.495  1.00  0.00     0.031 A 
ATOM     35  C   UNL A   1      42.660  26.317  27.082  1.00  0.00     0.074 A 
ATOM     36  C   UNL A   1      40.522  26.891  28.187  1.00  0.00     0.049 A 
ATOM     37  N   UNL A   1      43.389  27.360  27.385  1.00  0.00    -0.248 NA
ATOM     38  C   UNL A   1      43.362  25.315  26.260  1.00  0.00     0.031 C 
ATOM     39  C   UNL A   1      39.167  26.679  28.705  1.00  0.00     0.029 A 
ATOM     40  N   UNL A   1      40.838  28.158  28.614  1.00  0.00    -0.354 N 
ATOM     41  C   UNL A   1      44.646  27.112  26.844  1.00  0.00     0.074 A 
ATOM     42  C   UNL A   1      44.592  25.807  26.224  1.00  0.00     0.031 C 
ATOM     43  C   UNL A   1      38.771  27.772  29.374  1.00  0.00     0.029 A 
ATOM     44  C   UNL A   1      39.857  28.745  29.381  1.00  0.00     0.049 A 
ATOM     45  H   UNL A   1      41.688  28.605  28.393  1.00  0.00     0.167 HD
ATOM     46  C   UNL A   1      45.739  27.913  26.833  1.00  0.00     0.034 A 
ATOM     47  C   UNL A   1      39.840  29.923  30.038  1.00  0.00     0.034 A 
ATOM     48  C   UNL A   1      45.763  29.244  27.376  1.00  0.00     0.049 A 
ATOM     49  C   UNL A   1      41.055  30.809  29.974  1.00  0.00     0.074 A 
ATOM     50  C   UNL A   1      46.788  30.173  27.327  1.00  0.00     0.029 A 
ATOM     51  N   UNL A   1      44.711  29.840  28.052  1.00  0.00    -0.354 N 
ATOM     52  N   UNL A   1      42.188  30.612  29.346  1.00  0.00    -0.248 NA
ATOM     53  C   UNL A   1      40.983  32.091  30.692  1.00  0.00     0.031 C 
ATOM     54  C   UNL A   1      46.355  31.331  27.980  1.00  0.00     0.029 A 
ATOM     55  C   UNL A   1      45.061  31.124  28.428  1.00  0.00     0.049 A 
ATOM     56  H   UNL A   1      43.844  29.412  28.238  1.00  0.00     0.167 HD
ATOM     57  C   UNL A   1      42.951  31.753  29.567  1.00  0.00     0.074 A 
ATOM     58  C   UNL A   1      42.141  32.649  30.366  1.00  0.00     0.031 C 
ATOM     59  C   UNL A   1      44.216  32.025  29.167  1.00  0.00     0.034 A 
BRANCH  46  60
ATOM     60  C   UNL A   1      46.975  27.405  26.139  1.00  0.00     0.023 A 
ATOM     61  C   UNL A   1      47.161  27.686  24.771  1.00  0.00     0.012 A 
ATOM     62  C   UNL A   1      47.978  26.712  26.845  1.00  0.00     0.148 A 
ATOM     63  C   UNL A   1      48.308  27.258  24.105  1.00  0.00     0.002 A 
ATOM     64  C   UNL A   1      49.140  26.326  26.184  1.00  0.00     0.091 A 
ATOM     65  F   UNL A   1      47.775  26.439  28.141  1.00  0.00    -0.205 F 
ATOM     66  C   UNL A   1      49.300  26.589  24.814  1.00  0.00     0.022 A 
BRANCH  64  67
ATOM     67  S   UNL A   1      50.513  25.521  27.019  1.00  0.00     0.127 S 
ATOM     68  O   UNL A   1      51.424  25.262  25.904  1.00  0.00    -0.237 OA
ATOM     69  O   UNL A   1      50.961  26.561  27.944  1.00  0.00    -0.237 OA
ATOM     70  O   UNL A   1      49.956  24.335  27.656  1.00  0.00    -0.744 OA
ENDBRANCH  64  67
ENDBRANCH  46  60
BRANCH  47  71
ATOM     71  C   UNL A   1      38.617  30.362  30.770  1.00  0.00     0.023 A 
ATOM     72  C   UNL A   1      38.489  30.047  32.137  1.00  0.00     0.012 A 
ATOM     73  C   UNL A   1      37.593  31.093  30.138  1.00  0.00     0.148 A 
ATOM     74  C   UNL A   1      37.350  30.418  32.851  1.00  0.00     0.002 A 
ATOM     75  C   UNL A   1      36.485  31.510  30.870  1.00  0.00     0.091 A 
ATOM     76  F   UNL A   1      37.718  31.371  28.833  1.00  0.00    -0.205 F 
ATOM     77  C   UNL A   1      36.352  31.157  32.222  1.00  0.00     0.022 A 
BRANCH  75  78
ATOM     78  S   UNL A   1      35.229  32.585  30.165  1.00  0.00     0.127 S 
ATOM     79  O   UNL A   1      34.730  31.777  29.056  1.00  0.00    -0.237 OA
ATOM     80  O   UNL A   1      34.297  32.747  31.280  1.00  0.00    -0.237 OA
ATOM     81  O   UNL A   1      35.934  33.808  29.802  1.00  0.00    -0.744 OA
ENDBRANCH  75  78
ENDBRANCH  47  71
BRANCH  59  82
ATOM     82  C   UNL A   1      44.803  33.354  29.561  1.00  0.00     0.023 A 
ATOM     83  C   UNL A   1      45.580  33.447  30.731  1.00  0.00     0.012 A 
ATOM     84  C   UNL A   1      44.666  34.480  28.726  1.00  0.00     0.148 A 
ATOM     85  C   UNL A   1      46.196  34.649  31.077  1.00  0.00     0.002 A 
ATOM     86  C   UNL A   1      45.319  35.661  29.054  1.00  0.00     0.091 A 
ATOM     87  F   UNL A   1      43.908  34.370  27.625  1.00  0.00    -0.205 F 
ATOM     88  C   UNL A   1      46.076  35.750  30.233  1.00  0.00     0.022 A 
BRANCH  86  89
ATOM     89  S   UNL A   1      45.299  37.105  27.985  1.00  0.00     0.127 S 
ATOM     90  O   UNL A   1      46.116  38.049  28.746  1.00  0.00    -0.237 OA
ATOM     91  O   UNL A   1      45.929  36.596  26.766  1.00  0.00    -0.237 OA
ATOM     92  O   UNL A   1      43.899  37.476  27.834  1.00  0.00    -0.744 OA
ENDBRANCH  86  89
ENDBRANCH  59  82
ENDBRANCH  33  34
ENDBRANCH  25  28
ENDBRANCH   1  24
TORSDOF 14
ENDMDL
