MODEL 1
REMARK VINA RESULT:     -11.9      0.000      0.000
REMARK SMILES COc1ccc(CCc2nnc(NC(=O)[C@@H]3[C@@H](C(=O)NCCCNC(=O)c4ccc(-c5c6nc(c(-c7cccc(S(=O)(=O)[O-])c7F)c7ccc([nH]7)c(-c7cccc(S(=O)(=O)[O-])c7F)c7nc(c(-c8cccc(S(=O)(=O)[O-])c8F)c8ccc5[nH]8)C=C7)C=C6)cc4)C3(C)C)s2)cc1
REMARK SMILES IDX 18 1 19 2 20 3 17 5 16 6 90 7 91 8 92 9 14 10 13 11 15 13
REMARK SMILES IDX 12 14 9 15 10 16 93 17 11 18 8 19 7 20 6 21 3 22 4 23 95 24
REMARK SMILES IDX 5 25 94 26 2 27 1 28 21 29 22 30 23 31 24 32 25 33 26 35
REMARK SMILES IDX 27 36 28 37 89 38 29 39 88 40 30 41 31 42 32 43 82 44 33 45
REMARK SMILES IDX 87 46 81 47 83 48 34 49 86 50 80 51 79 52 35 54 67 55 47 56
REMARK SMILES IDX 66 57 48 58 51 59 65 60 84 61 49 62 50 63 64 65 85 66 52 67
REMARK SMILES IDX 36 68 37 69 45 70 38 71 40 72 46 73 39 74 41 75 42 76 43 77
REMARK SMILES IDX 44 78 68 79 69 80 77 81 70 82 72 83 78 84 71 85 73 86 74 87
REMARK SMILES IDX 75 88 76 89 53 90 54 91 62 92 55 93 57 94 63 95 56 96 58 97
REMARK SMILES IDX 59 98 60 99 61 100
REMARK H PARENT 20 4 13 12 24 34 83 53 51 64
REMARK Flexibility Score: inf
ROOT
ATOM      1  C   UNL A   1      32.192  24.335  26.580  1.00  0.00     0.224 C 
ATOM      2  O   UNL A   1      31.246  23.855  27.208  1.00  0.00    -0.275 OA
ATOM      3  N   UNL A   1      32.342  25.686  26.655  1.00  0.00    -0.356 N 
ATOM      4  H   UNL A   1      31.670  26.112  27.236  1.00  0.00     0.163 HD
ENDROOT
BRANCH   1   5
ATOM      5  C   UNL A   1      33.072  23.380  25.865  1.00  0.00     0.098 C 
ATOM      6  C   UNL A   1      32.831  21.937  25.512  1.00  0.00     0.098 C 
ATOM      7  C   UNL A   1      33.943  22.313  26.505  1.00  0.00    -0.011 C 
ATOM      8  C   UNL A   1      33.733  21.922  27.953  1.00  0.00     0.013 C 
ATOM      9  C   UNL A   1      35.391  22.246  26.087  1.00  0.00     0.013 C 
BRANCH   6  10
ATOM     10  C   UNL A   1      33.005  21.575  24.074  1.00  0.00     0.230 C 
ATOM     11  N   UNL A   1      32.487  22.390  23.097  1.00  0.00    -0.300 N 
ATOM     12  H   UNL A   1      32.628  22.118  22.162  1.00  0.00     0.172 HD
ATOM     13  O   UNL A   1      33.596  20.546  23.747  1.00  0.00    -0.274 OA
BRANCH  11  14
ATOM     14  C   UNL A   1      31.792  23.546  23.313  1.00  0.00     0.212 A 
ATOM     15  C   UNL A   1      31.064  25.796  23.164  1.00  0.00     0.119 A 
ATOM     16  N   UNL A   1      30.164  25.012  23.717  1.00  0.00    -0.142 NA
ATOM     17  S   UNL A   1      32.565  24.996  22.844  1.00  0.00    -0.080 S 
ATOM     18  N   UNL A   1      30.590  23.709  23.798  1.00  0.00    -0.120 NA
BRANCH  15  19
ATOM     19  C   UNL A   1      30.815  27.233  22.841  1.00  0.00     0.074 C 
BRANCH  19  20
ATOM     20  C   UNL A   1      29.451  27.775  23.291  1.00  0.00     0.043 C 
BRANCH  20  21
ATOM     21  C   UNL A   1      29.104  29.192  22.883  1.00  0.00    -0.047 A 
ATOM     22  C   UNL A   1      28.387  31.778  22.019  1.00  0.00     0.118 A 
ATOM     23  C   UNL A   1      27.653  31.144  23.014  1.00  0.00     0.046 A 
ATOM     24  C   UNL A   1      29.503  31.144  21.474  1.00  0.00     0.046 A 
ATOM     25  C   UNL A   1      27.994  29.854  23.424  1.00  0.00     0.007 A 
ATOM     26  C   UNL A   1      29.859  29.860  21.905  1.00  0.00     0.007 A 
BRANCH  22  27
ATOM     27  O   UNL A   1      27.987  33.041  21.684  1.00  0.00    -0.497 OA
ATOM     28  C   UNL A   1      27.477  33.140  20.358  1.00  0.00     0.278 C 
ENDBRANCH  22  27
ENDBRANCH  20  21
ENDBRANCH  19  20
ENDBRANCH  15  19
ENDBRANCH  11  14
ENDBRANCH   6  10
ENDBRANCH   1   5
BRANCH   3  29
ATOM     29  C   UNL A   1      33.265  26.640  26.072  1.00  0.00     0.117 C 
BRANCH  29  30
ATOM     30  C   UNL A   1      33.139  28.016  26.709  1.00  0.00     0.042 C 
BRANCH  30  31
ATOM     31  C   UNL A   1      34.124  29.030  26.150  1.00  0.00     0.118 C 
BRANCH  31  32
ATOM     32  N   UNL A   1      33.952  30.350  26.738  1.00  0.00    -0.352 N 
ATOM     33  C   UNL A   1      34.657  30.976  27.736  1.00  0.00     0.251 C 
ATOM     34  H   UNL A   1      33.213  30.879  26.359  1.00  0.00     0.163 HD
ATOM     35  O   UNL A   1      34.214  32.010  28.229  1.00  0.00    -0.269 OA
BRANCH  33  36
ATOM     36  C   UNL A   1      35.936  30.415  28.226  1.00  0.00     0.039 A 
ATOM     37  C   UNL A   1      37.097  30.629  27.479  1.00  0.00     0.014 A 
ATOM     38  C   UNL A   1      35.997  29.645  29.390  1.00  0.00     0.014 A 
ATOM     39  C   UNL A   1      38.315  30.106  27.919  1.00  0.00     0.010 A 
ATOM     40  C   UNL A   1      37.225  29.223  29.887  1.00  0.00     0.010 A 
ATOM     41  C   UNL A   1      38.396  29.417  29.141  1.00  0.00    -0.014 A 
BRANCH  41  42
ATOM     42  C   UNL A   1      39.687  28.870  29.631  1.00  0.00     0.031 A 
ATOM     43  C   UNL A   1      40.413  29.537  30.772  1.00  0.00     0.074 A 
ATOM     44  C   UNL A   1      40.238  27.806  29.014  1.00  0.00     0.049 A 
ATOM     45  N   UNL A   1      41.549  29.209  31.330  1.00  0.00    -0.248 NA
ATOM     46  C   UNL A   1      39.799  30.750  31.342  1.00  0.00     0.031 C 
ATOM     47  C   UNL A   1      39.681  27.124  27.844  1.00  0.00     0.029 A 
ATOM     48  N   UNL A   1      41.400  27.123  29.274  1.00  0.00    -0.354 N 
ATOM     49  C   UNL A   1      41.805  30.190  32.282  1.00  0.00     0.074 A 
ATOM     50  C   UNL A   1      40.728  31.149  32.199  1.00  0.00     0.031 C 
ATOM     51  C   UNL A   1      40.492  26.114  27.496  1.00  0.00     0.029 A 
ATOM     52  C   UNL A   1      41.641  26.092  28.395  1.00  0.00     0.049 A 
ATOM     53  H   UNL A   1      42.003  27.348  30.019  1.00  0.00     0.167 HD
ATOM     54  C   UNL A   1      42.827  30.271  33.167  1.00  0.00     0.034 A 
ATOM     55  C   UNL A   1      42.675  25.232  28.317  1.00  0.00     0.034 A 
ATOM     56  C   UNL A   1      43.874  29.293  33.274  1.00  0.00     0.049 A 
ATOM     57  C   UNL A   1      43.771  25.311  29.344  1.00  0.00     0.074 A 
ATOM     58  C   UNL A   1      44.899  29.229  34.202  1.00  0.00     0.029 A 
ATOM     59  N   UNL A   1      44.041  28.216  32.419  1.00  0.00    -0.354 N 
ATOM     60  N   UNL A   1      43.905  26.148  30.345  1.00  0.00    -0.248 NA
ATOM     61  C   UNL A   1      44.837  24.303  29.258  1.00  0.00     0.031 C 
ATOM     62  C   UNL A   1      45.709  28.135  33.883  1.00  0.00     0.029 A 
ATOM     63  C   UNL A   1      45.161  27.489  32.786  1.00  0.00     0.049 A 
ATOM     64  H   UNL A   1      43.450  27.998  31.663  1.00  0.00     0.167 HD
ATOM     65  C   UNL A   1      45.047  25.747  31.027  1.00  0.00     0.074 A 
ATOM     66  C   UNL A   1      45.554  24.577  30.338  1.00  0.00     0.031 C 
ATOM     67  C   UNL A   1      45.631  26.302  32.118  1.00  0.00     0.034 A 
BRANCH  54  68
ATOM     68  C   UNL A   1      42.840  31.442  34.118  1.00  0.00     0.023 A 
ATOM     69  C   UNL A   1      43.474  32.646  33.743  1.00  0.00     0.012 A 
ATOM     70  C   UNL A   1      42.179  31.370  35.359  1.00  0.00     0.148 A 
ATOM     71  C   UNL A   1      43.486  33.742  34.604  1.00  0.00     0.002 A 
ATOM     72  C   UNL A   1      42.151  32.484  36.191  1.00  0.00     0.091 A 
ATOM     73  F   UNL A   1      41.598  30.214  35.709  1.00  0.00    -0.205 F 
ATOM     74  C   UNL A   1      42.817  33.664  35.822  1.00  0.00     0.022 A 
BRANCH  72  75
ATOM     75  S   UNL A   1      41.243  32.516  37.740  1.00  0.00     0.127 S 
ATOM     76  O   UNL A   1      39.933  32.019  37.324  1.00  0.00    -0.237 OA
ATOM     77  O   UNL A   1      42.014  31.585  38.566  1.00  0.00    -0.237 OA
ATOM     78  O   UNL A   1      41.271  33.899  38.195  1.00  0.00    -0.744 OA
ENDBRANCH  72  75
ENDBRANCH  54  68
BRANCH  55  79
ATOM     79  C   UNL A   1      42.689  24.183  27.258  1.00  0.00     0.023 A 
ATOM     80  C   UNL A   1      43.403  24.405  26.065  1.00  0.00     0.012 A 
ATOM     81  C   UNL A   1      42.023  22.956  27.442  1.00  0.00     0.148 A 
ATOM     82  C   UNL A   1      43.422  23.439  25.057  1.00  0.00     0.002 A 
ATOM     83  C   UNL A   1      42.095  21.975  26.461  1.00  0.00     0.091 A 
ATOM     84  F   UNL A   1      41.344  22.768  28.582  1.00  0.00    -0.205 F 
ATOM     85  C   UNL A   1      42.778  22.221  25.259  1.00  0.00     0.022 A 
BRANCH  83  86
ATOM     86  S   UNL A   1      41.410  20.331  26.688  1.00  0.00     0.127 S 
ATOM     87  O   UNL A   1      42.133  19.867  27.869  1.00  0.00    -0.237 OA
ATOM     88  O   UNL A   1      39.993  20.624  26.906  1.00  0.00    -0.237 OA
ATOM     89  O   UNL A   1      41.692  19.612  25.453  1.00  0.00    -0.744 OA
ENDBRANCH  83  86
ENDBRANCH  55  79
BRANCH  67  90
ATOM     90  C   UNL A   1      46.862  25.630  32.669  1.00  0.00     0.023 A 
ATOM     91  C   UNL A   1      48.136  25.972  32.174  1.00  0.00     0.012 A 
ATOM     92  C   UNL A   1      46.756  24.703  33.725  1.00  0.00     0.148 A 
ATOM     93  C   UNL A   1      49.282  25.370  32.693  1.00  0.00     0.002 A 
ATOM     94  C   UNL A   1      47.906  24.149  34.274  1.00  0.00     0.091 A 
ATOM     95  F   UNL A   1      45.534  24.377  34.172  1.00  0.00    -0.205 F 
ATOM     96  C   UNL A   1      49.169  24.468  33.749  1.00  0.00     0.022 A 
BRANCH  94  97
ATOM     97  S   UNL A   1      47.862  23.058  35.701  1.00  0.00     0.127 S 
ATOM     98  O   UNL A   1      47.412  23.964  36.755  1.00  0.00    -0.237 OA
ATOM     99  O   UNL A   1      46.874  22.058  35.294  1.00  0.00    -0.237 OA
ATOM    100  O   UNL A   1      49.215  22.542  35.855  1.00  0.00    -0.744 OA
ENDBRANCH  94  97
ENDBRANCH  67  90
ENDBRANCH  41  42
ENDBRANCH  33  36
ENDBRANCH  31  32
ENDBRANCH  30  31
ENDBRANCH  29  30
ENDBRANCH   3  29
TORSDOF 19
ENDMDL
MODEL 2
REMARK VINA RESULT:     -10.8      2.704      3.398
REMARK SMILES COc1ccc(CCc2nnc(NC(=O)[C@@H]3[C@@H](C(=O)NCCCNC(=O)c4ccc(-c5c6nc(c(-c7cccc(S(=O)(=O)[O-])c7F)c7ccc([nH]7)c(-c7cccc(S(=O)(=O)[O-])c7F)c7nc(c(-c8cccc(S(=O)(=O)[O-])c8F)c8ccc5[nH]8)C=C7)C=C6)cc4)C3(C)C)s2)cc1
REMARK SMILES IDX 18 1 19 2 20 3 17 5 16 6 90 7 91 8 92 9 14 10 13 11 15 13
REMARK SMILES IDX 12 14 9 15 10 16 93 17 11 18 8 19 7 20 6 21 3 22 4 23 95 24
REMARK SMILES IDX 5 25 94 26 2 27 1 28 21 29 22 30 23 31 24 32 25 33 26 35
REMARK SMILES IDX 27 36 28 37 89 38 29 39 88 40 30 41 31 42 32 43 82 44 33 45
REMARK SMILES IDX 87 46 81 47 83 48 34 49 86 50 80 51 79 52 35 54 67 55 47 56
REMARK SMILES IDX 66 57 48 58 51 59 65 60 84 61 49 62 50 63 64 65 85 66 52 67
REMARK SMILES IDX 36 68 37 69 45 70 38 71 40 72 46 73 39 74 41 75 42 76 43 77
REMARK SMILES IDX 44 78 68 79 69 80 77 81 70 82 72 83 78 84 71 85 73 86 74 87
REMARK SMILES IDX 75 88 76 89 53 90 54 91 62 92 55 93 57 94 63 95 56 96 58 97
REMARK SMILES IDX 59 98 60 99 61 100
REMARK H PARENT 20 4 13 12 24 34 83 53 51 64
REMARK Flexibility Score: inf
ROOT
ATOM      1  C   UNL A   1      33.729  24.042  26.437  1.00  0.00     0.224 C 
ATOM      2  O   UNL A   1      33.567  23.503  27.534  1.00  0.00    -0.275 OA
ATOM      3  N   UNL A   1      33.721  25.403  26.428  1.00  0.00    -0.356 N 
ATOM      4  H   UNL A   1      33.608  25.790  27.327  1.00  0.00     0.163 HD
ENDROOT
BRANCH   1   5
ATOM      5  C   UNL A   1      33.958  23.145  25.280  1.00  0.00     0.098 C 
ATOM      6  C   UNL A   1      34.145  21.652  25.248  1.00  0.00     0.098 C 
ATOM      7  C   UNL A   1      35.296  22.582  24.834  1.00  0.00    -0.011 C 
ATOM      8  C   UNL A   1      36.496  22.644  25.755  1.00  0.00     0.013 C 
ATOM      9  C   UNL A   1      35.670  22.730  23.380  1.00  0.00     0.013 C 
BRANCH   6  10
ATOM     10  C   UNL A   1      33.238  20.895  24.336  1.00  0.00     0.230 C 
ATOM     11  N   UNL A   1      31.983  21.385  24.059  1.00  0.00    -0.300 N 
ATOM     12  H   UNL A   1      31.419  20.859  23.448  1.00  0.00     0.172 HD
ATOM     13  O   UNL A   1      33.588  19.828  23.834  1.00  0.00    -0.274 OA
BRANCH  11  14
ATOM     14  C   UNL A   1      31.454  22.541  24.561  1.00  0.00     0.212 A 
ATOM     15  C   UNL A   1      30.483  24.697  24.696  1.00  0.00     0.119 A 
ATOM     16  N   UNL A   1      30.338  24.010  25.808  1.00  0.00    -0.142 NA
ATOM     17  S   UNL A   1      31.463  23.895  23.517  1.00  0.00    -0.080 S 
ATOM     18  N   UNL A   1      30.899  22.760  25.723  1.00  0.00    -0.120 NA
BRANCH  15  19
ATOM     19  C   UNL A   1      29.861  26.038  24.472  1.00  0.00     0.074 C 
BRANCH  19  20
ATOM     20  C   UNL A   1      30.462  26.849  23.315  1.00  0.00     0.043 C 
BRANCH  20  21
ATOM     21  C   UNL A   1      29.719  28.099  22.893  1.00  0.00    -0.047 A 
ATOM     22  C   UNL A   1      28.349  30.472  22.232  1.00  0.00     0.118 A 
ATOM     23  C   UNL A   1      29.712  30.362  21.989  1.00  0.00     0.046 A 
ATOM     24  C   UNL A   1      27.653  29.392  22.771  1.00  0.00     0.046 A 
ATOM     25  C   UNL A   1      30.395  29.195  22.338  1.00  0.00     0.007 A 
ATOM     26  C   UNL A   1      28.334  28.212  23.098  1.00  0.00     0.007 A 
BRANCH  22  27
ATOM     27  O   UNL A   1      27.761  31.647  21.853  1.00  0.00    -0.497 OA
ATOM     28  C   UNL A   1      27.861  31.905  20.456  1.00  0.00     0.278 C 
ENDBRANCH  22  27
ENDBRANCH  20  21
ENDBRANCH  19  20
ENDBRANCH  15  19
ENDBRANCH  11  14
ENDBRANCH   6  10
ENDBRANCH   1   5
BRANCH   3  29
ATOM     29  C   UNL A   1      33.841  26.413  25.394  1.00  0.00     0.117 C 
BRANCH  29  30
ATOM     30  C   UNL A   1      33.233  27.740  25.822  1.00  0.00     0.042 C 
BRANCH  30  31
ATOM     31  C   UNL A   1      34.050  28.944  25.383  1.00  0.00     0.118 C 
BRANCH  31  32
ATOM     32  N   UNL A   1      33.490  30.199  25.865  1.00  0.00    -0.352 N 
ATOM     33  C   UNL A   1      33.787  30.930  26.988  1.00  0.00     0.251 C 
ATOM     34  H   UNL A   1      32.785  30.584  25.294  1.00  0.00     0.163 HD
ATOM     35  O   UNL A   1      33.047  31.854  27.319  1.00  0.00    -0.269 OA
BRANCH  33  36
ATOM     36  C   UNL A   1      34.981  30.615  27.803  1.00  0.00     0.039 A 
ATOM     37  C   UNL A   1      35.998  31.568  27.907  1.00  0.00     0.014 A 
ATOM     38  C   UNL A   1      35.128  29.376  28.431  1.00  0.00     0.014 A 
ATOM     39  C   UNL A   1      37.136  31.290  28.668  1.00  0.00     0.010 A 
ATOM     40  C   UNL A   1      36.207  29.145  29.279  1.00  0.00     0.010 A 
ATOM     41  C   UNL A   1      37.241  30.085  29.382  1.00  0.00    -0.014 A 
BRANCH  41  42
ATOM     42  C   UNL A   1      38.438  29.783  30.208  1.00  0.00     0.031 A 
ATOM     43  C   UNL A   1      38.604  30.416  31.568  1.00  0.00     0.074 A 
ATOM     44  C   UNL A   1      39.406  28.985  29.716  1.00  0.00     0.049 A 
ATOM     45  N   UNL A   1      39.580  30.277  32.427  1.00  0.00    -0.248 NA
ATOM     46  C   UNL A   1      37.552  31.349  32.008  1.00  0.00     0.031 C 
ATOM     47  C   UNL A   1      39.408  28.383  28.381  1.00  0.00     0.029 A 
ATOM     48  N   UNL A   1      40.585  28.559  30.274  1.00  0.00    -0.354 N 
ATOM     49  C   UNL A   1      39.283  31.132  33.484  1.00  0.00     0.074 A 
ATOM     50  C   UNL A   1      38.056  31.815  33.141  1.00  0.00     0.031 C 
ATOM     51  C   UNL A   1      40.525  27.655  28.229  1.00  0.00     0.029 A 
ATOM     52  C   UNL A   1      41.333  27.762  29.439  1.00  0.00     0.049 A 
ATOM     53  H   UNL A   1      40.869  28.800  31.185  1.00  0.00     0.167 HD
ATOM     54  C   UNL A   1      39.950  31.309  34.648  1.00  0.00     0.034 A 
ATOM     55  C   UNL A   1      42.539  27.188  29.623  1.00  0.00     0.034 A 
ATOM     56  C   UNL A   1      41.147  30.597  35.003  1.00  0.00     0.049 A 
ATOM     57  C   UNL A   1      43.235  27.359  30.945  1.00  0.00     0.074 A 
ATOM     58  C   UNL A   1      41.844  30.630  36.198  1.00  0.00     0.029 A 
ATOM     59  N   UNL A   1      41.832  29.734  34.163  1.00  0.00    -0.354 N 
ATOM     60  N   UNL A   1      42.850  28.038  31.998  1.00  0.00    -0.248 NA
ATOM     61  C   UNL A   1      44.511  26.652  31.121  1.00  0.00     0.031 C 
ATOM     62  C   UNL A   1      42.974  29.816  36.066  1.00  0.00     0.029 A 
ATOM     63  C   UNL A   1      42.954  29.240  34.806  1.00  0.00     0.049 A 
ATOM     64  H   UNL A   1      41.561  29.505  33.245  1.00  0.00     0.167 HD
ATOM     65  C   UNL A   1      43.815  27.813  32.972  1.00  0.00     0.074 A 
ATOM     66  C   UNL A   1      44.791  26.915  32.389  1.00  0.00     0.031 C 
ATOM     67  C   UNL A   1      43.895  28.313  34.230  1.00  0.00     0.034 A 
BRANCH  54  68
ATOM     68  C   UNL A   1      39.378  32.290  35.642  1.00  0.00     0.023 A 
ATOM     69  C   UNL A   1      38.347  31.884  36.515  1.00  0.00     0.012 A 
ATOM     70  C   UNL A   1      39.899  33.594  35.749  1.00  0.00     0.148 A 
ATOM     71  C   UNL A   1      37.814  32.773  37.448  1.00  0.00     0.002 A 
ATOM     72  C   UNL A   1      39.398  34.458  36.717  1.00  0.00     0.091 A 
ATOM     73  F   UNL A   1      40.865  33.970  34.900  1.00  0.00    -0.205 F 
ATOM     74  C   UNL A   1      38.346  34.055  37.556  1.00  0.00     0.022 A 
BRANCH  72  75
ATOM     75  S   UNL A   1      40.074  36.099  36.996  1.00  0.00     0.127 S 
ATOM     76  O   UNL A   1      39.287  36.551  38.142  1.00  0.00    -0.237 OA
ATOM     77  O   UNL A   1      41.476  35.805  37.296  1.00  0.00    -0.237 OA
ATOM     78  O   UNL A   1      39.858  36.838  35.760  1.00  0.00    -0.744 OA
ENDBRANCH  72  75
ENDBRANCH  54  68
BRANCH  55  79
ATOM     79  C   UNL A   1      43.133  26.348  28.545  1.00  0.00     0.023 A 
ATOM     80  C   UNL A   1      42.660  25.038  28.340  1.00  0.00     0.012 A 
ATOM     81  C   UNL A   1      44.146  26.853  27.705  1.00  0.00     0.148 A 
ATOM     82  C   UNL A   1      43.209  24.231  27.341  1.00  0.00     0.002 A 
ATOM     83  C   UNL A   1      44.646  26.066  26.675  1.00  0.00     0.091 A 
ATOM     84  F   UNL A   1      44.587  28.099  27.923  1.00  0.00    -0.205 F 
ATOM     85  C   UNL A   1      44.193  24.749  26.503  1.00  0.00     0.022 A 
BRANCH  83  86
ATOM     86  S   UNL A   1      45.818  26.691  25.466  1.00  0.00     0.127 S 
ATOM     87  O   UNL A   1      45.994  25.533  24.594  1.00  0.00    -0.237 OA
ATOM     88  O   UNL A   1      45.072  27.803  24.873  1.00  0.00    -0.237 OA
ATOM     89  O   UNL A   1      46.993  27.093  26.227  1.00  0.00    -0.744 OA
ENDBRANCH  83  86
ENDBRANCH  55  79
BRANCH  67  90
ATOM     90  C   UNL A   1      45.052  27.868  35.087  1.00  0.00     0.023 A 
ATOM     91  C   UNL A   1      46.247  28.615  35.104  1.00  0.00     0.012 A 
ATOM     92  C   UNL A   1      44.929  26.741  35.923  1.00  0.00     0.148 A 
ATOM     93  C   UNL A   1      47.316  28.221  35.909  1.00  0.00     0.002 A 
ATOM     94  C   UNL A   1      45.977  26.387  36.764  1.00  0.00     0.091 A 
ATOM     95  F   UNL A   1      43.791  26.033  35.880  1.00  0.00    -0.205 F 
ATOM     96  C   UNL A   1      47.178  27.116  36.746  1.00  0.00     0.022 A 
BRANCH  94  97
ATOM     97  S   UNL A   1      45.850  25.042  37.947  1.00  0.00     0.127 S 
ATOM     98  O   UNL A   1      46.514  25.610  39.117  1.00  0.00    -0.237 OA
ATOM     99  O   UNL A   1      44.401  24.886  38.083  1.00  0.00    -0.237 OA
ATOM    100  O   UNL A   1      46.525  23.904  37.336  1.00  0.00    -0.744 OA
ENDBRANCH  94  97
ENDBRANCH  67  90
ENDBRANCH  41  42
ENDBRANCH  33  36
ENDBRANCH  31  32
ENDBRANCH  30  31
ENDBRANCH  29  30
ENDBRANCH   3  29
TORSDOF 19
ENDMDL
MODEL 3
REMARK VINA RESULT:     -10.7      2.253      2.964
REMARK SMILES COc1ccc(CCc2nnc(NC(=O)[C@@H]3[C@@H](C(=O)NCCCNC(=O)c4ccc(-c5c6nc(c(-c7cccc(S(=O)(=O)[O-])c7F)c7ccc([nH]7)c(-c7cccc(S(=O)(=O)[O-])c7F)c7nc(c(-c8cccc(S(=O)(=O)[O-])c8F)c8ccc5[nH]8)C=C7)C=C6)cc4)C3(C)C)s2)cc1
REMARK SMILES IDX 18 1 19 2 20 3 17 5 16 6 90 7 91 8 92 9 14 10 13 11 15 13
REMARK SMILES IDX 12 14 9 15 10 16 93 17 11 18 8 19 7 20 6 21 3 22 4 23 95 24
REMARK SMILES IDX 5 25 94 26 2 27 1 28 21 29 22 30 23 31 24 32 25 33 26 35
REMARK SMILES IDX 27 36 28 37 89 38 29 39 88 40 30 41 31 42 32 43 82 44 33 45
REMARK SMILES IDX 87 46 81 47 83 48 34 49 86 50 80 51 79 52 35 54 67 55 47 56
REMARK SMILES IDX 66 57 48 58 51 59 65 60 84 61 49 62 50 63 64 65 85 66 52 67
REMARK SMILES IDX 36 68 37 69 45 70 38 71 40 72 46 73 39 74 41 75 42 76 43 77
REMARK SMILES IDX 44 78 68 79 69 80 77 81 70 82 72 83 78 84 71 85 73 86 74 87
REMARK SMILES IDX 75 88 76 89 53 90 54 91 62 92 55 93 57 94 63 95 56 96 58 97
REMARK SMILES IDX 59 98 60 99 61 100
REMARK H PARENT 20 4 13 12 24 34 83 53 51 64
REMARK Flexibility Score: inf
ROOT
ATOM      1  C   UNL A   1      33.084  24.216  26.396  1.00  0.00     0.224 C 
ATOM      2  O   UNL A   1      32.665  23.631  27.396  1.00  0.00    -0.275 OA
ATOM      3  N   UNL A   1      33.039  25.577  26.430  1.00  0.00    -0.356 N 
ATOM      4  H   UNL A   1      32.692  25.924  27.284  1.00  0.00     0.163 HD
ENDROOT
BRANCH   1   5
ATOM      5  C   UNL A   1      33.623  23.371  25.304  1.00  0.00     0.098 C 
ATOM      6  C   UNL A   1      33.873  21.887  25.277  1.00  0.00     0.098 C 
ATOM      7  C   UNL A   1      35.052  22.870  25.182  1.00  0.00    -0.011 C 
ATOM      8  C   UNL A   1      35.989  22.937  26.370  1.00  0.00     0.013 C 
ATOM      9  C   UNL A   1      35.760  23.084  23.867  1.00  0.00     0.013 C 
BRANCH   6  10
ATOM     10  C   UNL A   1      33.247  21.136  24.150  1.00  0.00     0.230 C 
ATOM     11  N   UNL A   1      32.204  21.696  23.451  1.00  0.00    -0.300 N 
ATOM     12  H   UNL A   1      31.823  21.171  22.712  1.00  0.00     0.172 HD
ATOM     13  O   UNL A   1      33.640  20.011  23.841  1.00  0.00    -0.274 OA
BRANCH  11  14
ATOM     14  C   UNL A   1      31.653  22.922  23.696  1.00  0.00     0.212 A 
ATOM     15  C   UNL A   1      30.945  25.166  23.422  1.00  0.00     0.119 A 
ATOM     16  N   UNL A   1      30.309  24.555  24.398  1.00  0.00    -0.142 NA
ATOM     17  S   UNL A   1      32.210  24.213  22.724  1.00  0.00    -0.080 S 
ATOM     18  N   UNL A   1      30.721  23.253  24.549  1.00  0.00    -0.120 NA
BRANCH  15  19
ATOM     19  C   UNL A   1      30.608  26.547  22.961  1.00  0.00     0.074 C 
BRANCH  19  20
ATOM     20  C   UNL A   1      29.312  27.130  23.541  1.00  0.00     0.043 C 
BRANCH  20  21
ATOM     21  C   UNL A   1      28.935  28.533  23.112  1.00  0.00    -0.047 A 
ATOM     22  C   UNL A   1      28.208  31.095  22.190  1.00  0.00     0.118 A 
ATOM     23  C   UNL A   1      27.278  30.299  22.847  1.00  0.00     0.046 A 
ATOM     24  C   UNL A   1      29.513  30.637  22.020  1.00  0.00     0.046 A 
ATOM     25  C   UNL A   1      27.632  29.021  23.282  1.00  0.00     0.007 A 
ATOM     26  C   UNL A   1      29.874  29.364  22.480  1.00  0.00     0.007 A 
BRANCH  22  27
ATOM     27  O   UNL A   1      27.777  32.334  21.805  1.00  0.00    -0.497 OA
ATOM     28  C   UNL A   1      27.957  32.589  20.415  1.00  0.00     0.278 C 
ENDBRANCH  22  27
ENDBRANCH  20  21
ENDBRANCH  19  20
ENDBRANCH  15  19
ENDBRANCH  11  14
ENDBRANCH   6  10
ENDBRANCH   1   5
BRANCH   3  29
ATOM     29  C   UNL A   1      33.388  26.629  25.496  1.00  0.00     0.117 C 
BRANCH  29  30
ATOM     30  C   UNL A   1      32.755  27.959  25.876  1.00  0.00     0.042 C 
BRANCH  30  31
ATOM     31  C   UNL A   1      33.466  29.158  25.270  1.00  0.00     0.118 C 
BRANCH  31  32
ATOM     32  N   UNL A   1      32.964  30.421  25.791  1.00  0.00    -0.352 N 
ATOM     33  C   UNL A   1      33.330  31.128  26.909  1.00  0.00     0.251 C 
ATOM     34  H   UNL A   1      32.247  30.834  25.256  1.00  0.00     0.163 HD
ATOM     35  O   UNL A   1      32.632  32.068  27.283  1.00  0.00    -0.269 OA
BRANCH  33  36
ATOM     36  C   UNL A   1      34.548  30.767  27.668  1.00  0.00     0.039 A 
ATOM     37  C   UNL A   1      35.634  31.647  27.659  1.00  0.00     0.014 A 
ATOM     38  C   UNL A   1      34.647  29.555  28.354  1.00  0.00     0.014 A 
ATOM     39  C   UNL A   1      36.796  31.325  28.365  1.00  0.00     0.010 A 
ATOM     40  C   UNL A   1      35.758  29.288  29.147  1.00  0.00     0.010 A 
ATOM     41  C   UNL A   1      36.861  30.153  29.136  1.00  0.00    -0.014 A 
BRANCH  41  42
ATOM     42  C   UNL A   1      38.083  29.806  29.906  1.00  0.00     0.031 A 
ATOM     43  C   UNL A   1      38.312  30.393  31.276  1.00  0.00     0.074 A 
ATOM     44  C   UNL A   1      39.017  29.009  29.351  1.00  0.00     0.049 A 
ATOM     45  N   UNL A   1      39.319  30.212  32.092  1.00  0.00    -0.248 NA
ATOM     46  C   UNL A   1      37.294  31.328  31.786  1.00  0.00     0.031 C 
ATOM     47  C   UNL A   1      38.958  28.449  27.999  1.00  0.00     0.029 A 
ATOM     48  N   UNL A   1      40.210  28.546  29.849  1.00  0.00    -0.354 N 
ATOM     49  C   UNL A   1      39.077  31.037  33.186  1.00  0.00     0.074 A 
ATOM     50  C   UNL A   1      37.850  31.750  32.912  1.00  0.00     0.031 C 
ATOM     51  C   UNL A   1      40.055  27.708  27.781  1.00  0.00     0.029 A 
ATOM     52  C   UNL A   1      40.912  27.764  28.961  1.00  0.00     0.049 A 
ATOM     53  H   UNL A   1      40.533  28.754  30.755  1.00  0.00     0.167 HD
ATOM     54  C   UNL A   1      39.792  31.167  34.327  1.00  0.00     0.034 A 
ATOM     55  C   UNL A   1      42.113  27.166  29.080  1.00  0.00     0.034 A 
ATOM     56  C   UNL A   1      40.989  30.425  34.614  1.00  0.00     0.049 A 
ATOM     57  C   UNL A   1      42.863  27.284  30.378  1.00  0.00     0.074 A 
ATOM     58  C   UNL A   1      41.733  30.409  35.781  1.00  0.00     0.029 A 
ATOM     59  N   UNL A   1      41.626  29.578  33.721  1.00  0.00    -0.354 N 
ATOM     60  N   UNL A   1      42.530  27.936  31.466  1.00  0.00    -0.248 NA
ATOM     61  C   UNL A   1      44.132  26.552  30.482  1.00  0.00     0.031 C 
ATOM     62  C   UNL A   1      42.842  29.582  35.579  1.00  0.00     0.029 A 
ATOM     63  C   UNL A   1      42.764  29.046  34.303  1.00  0.00     0.049 A 
ATOM     64  H   UNL A   1      41.316  29.382  32.808  1.00  0.00     0.167 HD
ATOM     65  C   UNL A   1      43.529  27.665  32.394  1.00  0.00     0.074 A 
ATOM     66  C   UNL A   1      44.466  26.769  31.745  1.00  0.00     0.031 C 
ATOM     67  C   UNL A   1      43.665  28.123  33.663  1.00  0.00     0.034 A 
BRANCH  54  68
ATOM     68  C   UNL A   1      39.276  32.124  35.374  1.00  0.00     0.023 A 
ATOM     69  C   UNL A   1      38.313  31.691  36.309  1.00  0.00     0.012 A 
ATOM     70  C   UNL A   1      39.783  33.435  35.464  1.00  0.00     0.148 A 
ATOM     71  C   UNL A   1      37.833  32.558  37.290  1.00  0.00     0.002 A 
ATOM     72  C   UNL A   1      39.338  34.277  36.476  1.00  0.00     0.091 A 
ATOM     73  F   UNL A   1      40.683  33.838  34.555  1.00  0.00    -0.205 F 
ATOM     74  C   UNL A   1      38.352  33.846  37.380  1.00  0.00     0.022 A 
BRANCH  72  75
ATOM     75  S   UNL A   1      40.007  35.925  36.732  1.00  0.00     0.127 S 
ATOM     76  O   UNL A   1      41.429  35.641  36.911  1.00  0.00    -0.237 OA
ATOM     77  O   UNL A   1      39.672  36.590  35.472  1.00  0.00    -0.237 OA
ATOM     78  O   UNL A   1      39.325  36.459  37.902  1.00  0.00    -0.744 OA
ENDBRANCH  72  75
ENDBRANCH  54  68
BRANCH  55  79
ATOM     79  C   UNL A   1      42.651  26.351  27.954  1.00  0.00     0.023 A 
ATOM     80  C   UNL A   1      43.522  26.942  27.018  1.00  0.00     0.012 A 
ATOM     81  C   UNL A   1      42.326  24.987  27.823  1.00  0.00     0.148 A 
ATOM     82  C   UNL A   1      44.031  26.199  25.951  1.00  0.00     0.002 A 
ATOM     83  C   UNL A   1      42.883  24.238  26.794  1.00  0.00     0.091 A 
ATOM     84  F   UNL A   1      41.490  24.446  28.720  1.00  0.00    -0.205 F 
ATOM     85  C   UNL A   1      43.720  24.846  25.846  1.00  0.00     0.022 A 
BRANCH  83  86
ATOM     86  S   UNL A   1      42.646  22.463  26.655  1.00  0.00     0.127 S 
ATOM     87  O   UNL A   1      41.322  22.386  26.042  1.00  0.00    -0.237 OA
ATOM     88  O   UNL A   1      43.754  22.081  25.779  1.00  0.00    -0.237 OA
ATOM     89  O   UNL A   1      42.744  21.945  28.012  1.00  0.00    -0.744 OA
ENDBRANCH  83  86
ENDBRANCH  55  79
BRANCH  67  90
ATOM     90  C   UNL A   1      44.847  27.633  34.459  1.00  0.00     0.023 A 
ATOM     91  C   UNL A   1      44.743  26.456  35.227  1.00  0.00     0.012 A 
ATOM     92  C   UNL A   1      46.081  28.309  34.394  1.00  0.00     0.148 A 
ATOM     93  C   UNL A   1      45.838  25.984  35.952  1.00  0.00     0.002 A 
ATOM     94  C   UNL A   1      47.183  27.802  35.074  1.00  0.00     0.091 A 
ATOM     95  F   UNL A   1      46.157  29.437  33.672  1.00  0.00    -0.205 F 
ATOM     96  C   UNL A   1      47.059  26.650  35.866  1.00  0.00     0.022 A 
BRANCH  94  97
ATOM     97  S   UNL A   1      48.817  28.536  34.940  1.00  0.00     0.127 S 
ATOM     98  O   UNL A   1      49.058  28.466  33.500  1.00  0.00    -0.237 OA
ATOM     99  O   UNL A   1      48.592  29.888  35.455  1.00  0.00    -0.237 OA
ATOM    100  O   UNL A   1      49.696  27.716  35.762  1.00  0.00    -0.744 OA
ENDBRANCH  94  97
ENDBRANCH  67  90
ENDBRANCH  41  42
ENDBRANCH  33  36
ENDBRANCH  31  32
ENDBRANCH  30  31
ENDBRANCH  29  30
ENDBRANCH   3  29
TORSDOF 19
ENDMDL
