MODEL 1
REMARK VINA RESULT:     -13.0      0.000      0.000
REMARK SMILES C[C@H]1Oc2ccccc2C=C1/C=C/C(=O)N[C@H](C(=O)NCCCNC(=O)c1ccc(-c2c3nc(c(-c4cccc(S(=O)(=O)[O-])c4F)c4ccc([nH]4)c(-c4cccc(S(=O)(=O)[O-])c4F)c4nc(c(-c5cccc(S(=O)(=O)[O-])c5F)c5ccc2[nH]5)C=C4)C=C3)cc1)c1ccccc1
REMARK SMILES IDX 22 1 21 2 20 3 18 4 19 5 17 7 16 8 14 9 15 10 13 12 12 13
REMARK SMILES IDX 11 14 1 15 2 16 3 17 4 18 10 19 5 20 9 21 6 22 8 23 7 24
REMARK SMILES IDX 90 25 91 26 95 27 92 28 94 29 93 30 23 31 24 32 25 33 26 35
REMARK SMILES IDX 27 36 28 37 89 38 29 39 88 40 30 41 31 42 32 43 82 44 33 45
REMARK SMILES IDX 87 46 81 47 83 48 34 49 86 50 80 51 79 52 35 54 67 55 47 56
REMARK SMILES IDX 66 57 48 58 51 59 65 60 84 61 49 62 50 63 64 65 85 66 52 67
REMARK SMILES IDX 36 68 37 69 45 70 38 71 40 72 46 73 39 74 41 75 42 76 43 77
REMARK SMILES IDX 44 78 68 79 69 80 77 81 70 82 72 83 78 84 71 85 73 86 74 87
REMARK SMILES IDX 75 88 76 89 53 90 54 91 62 92 55 93 57 94 63 95 56 96 58 97
REMARK SMILES IDX 59 98 60 99 61 100
REMARK H PARENT 20 6 16 11 24 34 83 53 51 64
REMARK Flexibility Score: inf
ROOT
ATOM      1  C   UNL A   1      30.805  31.554  26.083  1.00  0.00     0.042 C 
ENDROOT
BRANCH   1   2
ATOM      2  C   UNL A   1      30.249  31.721  24.622  1.00  0.00     0.117 C 
BRANCH   2   3
ATOM      3  N   UNL A   1      29.984  30.626  23.660  1.00  0.00    -0.354 N 
ATOM      4  C   UNL A   1      30.249  29.256  23.662  1.00  0.00     0.247 C 
ATOM      5  O   UNL A   1      29.345  28.548  23.193  1.00  0.00    -0.272 OA
ATOM      6  H   UNL A   1      29.520  30.930  22.846  1.00  0.00     0.163 HD
BRANCH   4   7
ATOM      7  C   UNL A   1      31.676  28.651  23.865  1.00  0.00     0.202 C 
BRANCH   7   8
ATOM      8  N   UNL A   1      32.644  28.806  22.807  1.00  0.00    -0.337 N 
ATOM      9  C   UNL A   1      33.441  27.831  22.271  1.00  0.00     0.244 C 
ATOM     10  O   UNL A   1      34.241  28.157  21.394  1.00  0.00    -0.270 OA
ATOM     11  H   UNL A   1      32.740  29.710  22.428  1.00  0.00     0.164 HD
BRANCH   9  12
ATOM     12  C   UNL A   1      33.168  26.362  22.518  1.00  0.00     0.071 C 
ATOM     13  C   UNL A   1      33.999  25.366  22.865  1.00  0.00     0.013 C 
BRANCH  13  14
ATOM     14  C   UNL A   1      33.670  24.157  23.604  1.00  0.00    -0.007 C 
ATOM     15  C   UNL A   1      32.046  24.756  25.365  1.00  0.00     0.058 C 
ATOM     16  C   UNL A   1      33.487  24.287  25.094  1.00  0.00     0.200 C 
ATOM     17  O   UNL A   1      33.766  23.068  25.807  1.00  0.00    -0.485 OA
ATOM     18  C   UNL A   1      33.322  21.916  25.209  1.00  0.00     0.127 A 
ATOM     19  C   UNL A   1      33.199  23.034  23.038  1.00  0.00     0.019 C 
ATOM     20  C   UNL A   1      33.366  20.748  25.964  1.00  0.00     0.047 A 
ATOM     21  C   UNL A   1      32.908  21.872  23.876  1.00  0.00     0.017 A 
ATOM     22  C   UNL A   1      32.946  19.540  25.405  1.00  0.00     0.004 A 
ATOM     23  C   UNL A   1      32.421  20.674  23.334  1.00  0.00     0.012 A 
ATOM     24  C   UNL A   1      32.448  19.506  24.101  1.00  0.00     0.001 A 
ENDBRANCH  13  14
ENDBRANCH   9  12
ENDBRANCH   7   8
BRANCH   7  25
ATOM     25  C   UNL A   1      32.279  28.444  25.279  1.00  0.00    -0.016 A 
ATOM     26  C   UNL A   1      33.639  28.804  25.486  1.00  0.00     0.006 A 
ATOM     27  C   UNL A   1      31.524  28.141  26.421  1.00  0.00     0.006 A 
ATOM     28  C   UNL A   1      34.193  28.932  26.765  1.00  0.00     0.000 A 
ATOM     29  C   UNL A   1      32.090  28.252  27.706  1.00  0.00     0.000 A 
ATOM     30  C   UNL A   1      33.412  28.666  27.880  1.00  0.00     0.000 A 
ENDBRANCH   7  25
ENDBRANCH   4   7
ENDBRANCH   2   3
ENDBRANCH   1   2
BRANCH   1  31
ATOM     31  C   UNL A   1      32.158  32.030  26.684  1.00  0.00     0.118 C 
BRANCH  31  32
ATOM     32  N   UNL A   1      32.253  33.411  27.115  1.00  0.00    -0.352 N 
ATOM     33  C   UNL A   1      33.097  33.981  28.061  1.00  0.00     0.251 C 
ATOM     34  H   UNL A   1      31.631  34.035  26.674  1.00  0.00     0.163 HD
ATOM     35  O   UNL A   1      32.834  35.119  28.449  1.00  0.00    -0.269 OA
BRANCH  33  36
ATOM     36  C   UNL A   1      34.300  33.292  28.624  1.00  0.00     0.039 A 
ATOM     37  C   UNL A   1      34.218  32.026  29.201  1.00  0.00     0.014 A 
ATOM     38  C   UNL A   1      35.575  33.857  28.451  1.00  0.00     0.014 A 
ATOM     39  C   UNL A   1      35.358  31.340  29.626  1.00  0.00     0.010 A 
ATOM     40  C   UNL A   1      36.727  33.184  28.896  1.00  0.00     0.010 A 
ATOM     41  C   UNL A   1      36.620  31.924  29.500  1.00  0.00    -0.014 A 
BRANCH  41  42
ATOM     42  C   UNL A   1      37.776  31.252  30.141  1.00  0.00     0.031 A 
ATOM     43  C   UNL A   1      38.052  31.543  31.589  1.00  0.00     0.074 A 
ATOM     44  C   UNL A   1      38.487  30.317  29.481  1.00  0.00     0.049 A 
ATOM     45  N   UNL A   1      39.003  31.088  32.360  1.00  0.00    -0.248 NA
ATOM     46  C   UNL A   1      37.113  32.454  32.267  1.00  0.00     0.031 C 
ATOM     47  C   UNL A   1      38.236  29.886  28.106  1.00  0.00     0.029 A 
ATOM     48  N   UNL A   1      39.554  29.550  29.881  1.00  0.00    -0.354 N 
ATOM     49  C   UNL A   1      38.797  31.681  33.600  1.00  0.00     0.074 A 
ATOM     50  C   UNL A   1      37.621  32.515  33.490  1.00  0.00     0.031 C 
ATOM     51  C   UNL A   1      39.120  28.928  27.777  1.00  0.00     0.029 A 
ATOM     52  C   UNL A   1      40.030  28.712  28.899  1.00  0.00     0.049 A 
ATOM     53  H   UNL A   1      39.941  29.595  30.785  1.00  0.00     0.167 HD
ATOM     54  C   UNL A   1      39.528  31.541  34.729  1.00  0.00     0.034 A 
ATOM     55  C   UNL A   1      41.097  27.886  28.899  1.00  0.00     0.034 A 
ATOM     56  C   UNL A   1      40.684  30.699  34.825  1.00  0.00     0.049 A 
ATOM     57  C   UNL A   1      41.942  27.805  30.142  1.00  0.00     0.074 A 
ATOM     58  C   UNL A   1      41.524  30.511  35.907  1.00  0.00     0.029 A 
ATOM     59  N   UNL A   1      41.164  29.906  33.794  1.00  0.00    -0.354 N 
ATOM     60  N   UNL A   1      41.749  28.386  31.303  1.00  0.00    -0.248 NA
ATOM     61  C   UNL A   1      43.147  26.964  30.085  1.00  0.00     0.031 C 
ATOM     62  C   UNL A   1      42.526  29.617  35.520  1.00  0.00     0.029 A 
ATOM     63  C   UNL A   1      42.295  29.230  34.208  1.00  0.00     0.049 A 
ATOM     64  H   UNL A   1      40.759  29.835  32.899  1.00  0.00     0.167 HD
ATOM     65  C   UNL A   1      42.796  27.976  32.117  1.00  0.00     0.074 A 
ATOM     66  C   UNL A   1      43.616  27.084  31.322  1.00  0.00     0.031 C 
ATOM     67  C   UNL A   1      43.064  28.319  33.400  1.00  0.00     0.034 A 
BRANCH  54  68
ATOM     68  C   UNL A   1      39.107  32.326  35.940  1.00  0.00     0.023 A 
ATOM     69  C   UNL A   1      39.529  33.660  36.094  1.00  0.00     0.012 A 
ATOM     70  C   UNL A   1      38.250  31.752  36.899  1.00  0.00     0.148 A 
ATOM     71  C   UNL A   1      39.113  34.410  37.194  1.00  0.00     0.002 A 
ATOM     72  C   UNL A   1      37.817  32.514  37.976  1.00  0.00     0.091 A 
ATOM     73  F   UNL A   1      37.877  30.475  36.736  1.00  0.00    -0.205 F 
ATOM     74  C   UNL A   1      38.251  33.841  38.128  1.00  0.00     0.022 A 
BRANCH  72  75
ATOM     75  S   UNL A   1      36.680  31.888  39.218  1.00  0.00     0.127 S 
ATOM     76  O   UNL A   1      37.355  32.271  40.457  1.00  0.00    -0.237 OA
ATOM     77  O   UNL A   1      35.464  32.644  38.926  1.00  0.00    -0.237 OA
ATOM     78  O   UNL A   1      36.583  30.451  38.991  1.00  0.00    -0.744 OA
ENDBRANCH  72  75
ENDBRANCH  54  68
BRANCH  55  79
ATOM     79  C   UNL A   1      41.415  27.084  27.683  1.00  0.00     0.023 A 
ATOM     80  C   UNL A   1      42.028  27.701  26.577  1.00  0.00     0.012 A 
ATOM     81  C   UNL A   1      41.176  25.695  27.647  1.00  0.00     0.148 A 
ATOM     82  C   UNL A   1      42.403  26.950  25.460  1.00  0.00     0.002 A 
ATOM     83  C   UNL A   1      41.587  24.946  26.551  1.00  0.00     0.091 A 
ATOM     84  F   UNL A   1      40.575  25.131  28.704  1.00  0.00    -0.205 F 
ATOM     85  C   UNL A   1      42.196  25.573  25.452  1.00  0.00     0.022 A 
BRANCH  83  86
ATOM     86  S   UNL A   1      41.453  23.156  26.490  1.00  0.00     0.127 S 
ATOM     87  O   UNL A   1      42.022  22.768  27.778  1.00  0.00    -0.237 OA
ATOM     88  O   UNL A   1      40.007  22.969  26.373  1.00  0.00    -0.237 OA
ATOM     89  O   UNL A   1      42.215  22.739  25.320  1.00  0.00    -0.744 OA
ENDBRANCH  83  86
ENDBRANCH  55  79
BRANCH  67  90
ATOM     90  C   UNL A   1      44.283  27.726  34.048  1.00  0.00     0.023 A 
ATOM     91  C   UNL A   1      45.484  28.458  34.056  1.00  0.00     0.012 A 
ATOM     92  C   UNL A   1      44.184  26.529  34.782  1.00  0.00     0.148 A 
ATOM     93  C   UNL A   1      46.579  28.004  34.790  1.00  0.00     0.002 A 
ATOM     94  C   UNL A   1      45.266  26.102  35.541  1.00  0.00     0.091 A 
ATOM     95  F   UNL A   1      43.026  25.856  34.750  1.00  0.00    -0.205 F 
ATOM     96  C   UNL A   1      46.464  26.836  35.544  1.00  0.00     0.022 A 
BRANCH  94  97
ATOM     97  S   UNL A   1      45.180  24.658  36.606  1.00  0.00     0.127 S 
ATOM     98  O   UNL A   1      46.485  24.709  37.274  1.00  0.00    -0.237 OA
ATOM     99  O   UNL A   1      44.044  24.988  37.474  1.00  0.00    -0.237 OA
ATOM    100  O   UNL A   1      44.974  23.520  35.737  1.00  0.00    -0.744 OA
ENDBRANCH  94  97
ENDBRANCH  67  90
ENDBRANCH  41  42
ENDBRANCH  33  36
ENDBRANCH  31  32
ENDBRANCH   1  31
TORSDOF 17
ENDMDL
MODEL 2
REMARK VINA RESULT:     -12.9      2.736      8.200
REMARK SMILES C[C@H]1Oc2ccccc2C=C1/C=C/C(=O)N[C@H](C(=O)NCCCNC(=O)c1ccc(-c2c3nc(c(-c4cccc(S(=O)(=O)[O-])c4F)c4ccc([nH]4)c(-c4cccc(S(=O)(=O)[O-])c4F)c4nc(c(-c5cccc(S(=O)(=O)[O-])c5F)c5ccc2[nH]5)C=C4)C=C3)cc1)c1ccccc1
REMARK SMILES IDX 22 1 21 2 20 3 18 4 19 5 17 7 16 8 14 9 15 10 13 12 12 13
REMARK SMILES IDX 11 14 1 15 2 16 3 17 4 18 10 19 5 20 9 21 6 22 8 23 7 24
REMARK SMILES IDX 90 25 91 26 95 27 92 28 94 29 93 30 23 31 24 32 25 33 26 35
REMARK SMILES IDX 27 36 28 37 89 38 29 39 88 40 30 41 31 42 32 43 82 44 33 45
REMARK SMILES IDX 87 46 81 47 83 48 34 49 86 50 80 51 79 52 35 54 67 55 47 56
REMARK SMILES IDX 66 57 48 58 51 59 65 60 84 61 49 62 50 63 64 65 85 66 52 67
REMARK SMILES IDX 36 68 37 69 45 70 38 71 40 72 46 73 39 74 41 75 42 76 43 77
REMARK SMILES IDX 44 78 68 79 69 80 77 81 70 82 72 83 78 84 71 85 73 86 74 87
REMARK SMILES IDX 75 88 76 89 53 90 54 91 62 92 55 93 57 94 63 95 56 96 58 97
REMARK SMILES IDX 59 98 60 99 61 100
REMARK H PARENT 20 6 16 11 24 34 83 53 51 64
REMARK Flexibility Score: inf
ROOT
ATOM      1  C   UNL A   1      33.248  27.635  25.901  1.00  0.00     0.042 C 
ENDROOT
BRANCH   1   2
ATOM      2  C   UNL A   1      31.963  27.491  26.794  1.00  0.00     0.117 C 
BRANCH   2   3
ATOM      3  N   UNL A   1      31.036  26.335  26.808  1.00  0.00    -0.354 N 
ATOM      4  C   UNL A   1      30.977  25.139  26.093  1.00  0.00     0.247 C 
ATOM      5  O   UNL A   1      30.641  24.147  26.758  1.00  0.00    -0.272 OA
ATOM      6  H   UNL A   1      30.307  26.431  27.463  1.00  0.00     0.163 HD
BRANCH   4   7
ATOM      7  C   UNL A   1      30.952  25.064  24.532  1.00  0.00     0.202 C 
BRANCH   7   8
ATOM      8  N   UNL A   1      30.874  23.765  23.909  1.00  0.00    -0.337 N 
ATOM      9  C   UNL A   1      31.915  23.022  23.422  1.00  0.00     0.244 C 
ATOM     10  O   UNL A   1      31.654  21.945  22.886  1.00  0.00    -0.270 OA
ATOM     11  H   UNL A   1      29.976  23.372  23.825  1.00  0.00     0.164 HD
BRANCH   9  12
ATOM     12  C   UNL A   1      33.351  23.344  23.779  1.00  0.00     0.071 C 
ATOM     13  C   UNL A   1      33.987  23.307  24.961  1.00  0.00     0.013 C 
BRANCH  13  14
ATOM     14  C   UNL A   1      35.405  23.083  25.197  1.00  0.00    -0.007 C 
ATOM     15  C   UNL A   1      36.516  22.848  23.004  1.00  0.00     0.058 C 
ATOM     16  C   UNL A   1      36.110  22.107  24.291  1.00  0.00     0.200 C 
ATOM     17  O   UNL A   1      37.257  21.492  24.906  1.00  0.00    -0.485 OA
ATOM     18  C   UNL A   1      38.033  22.321  25.676  1.00  0.00     0.127 A 
ATOM     19  C   UNL A   1      36.186  23.905  25.917  1.00  0.00     0.019 C 
ATOM     20  C   UNL A   1      39.265  21.830  26.097  1.00  0.00     0.047 A 
ATOM     21  C   UNL A   1      37.599  23.580  26.097  1.00  0.00     0.017 A 
ATOM     22  C   UNL A   1      40.091  22.619  26.900  1.00  0.00     0.004 A 
ATOM     23  C   UNL A   1      38.457  24.400  26.845  1.00  0.00     0.012 A 
ATOM     24  C   UNL A   1      39.702  23.913  27.251  1.00  0.00     0.001 A 
ENDBRANCH  13  14
ENDBRANCH   9  12
ENDBRANCH   7   8
BRANCH   7  25
ATOM     25  C   UNL A   1      30.420  26.238  23.669  1.00  0.00    -0.016 A 
ATOM     26  C   UNL A   1      29.065  26.633  23.839  1.00  0.00     0.006 A 
ATOM     27  C   UNL A   1      31.234  27.083  22.901  1.00  0.00     0.006 A 
ATOM     28  C   UNL A   1      28.569  27.843  23.337  1.00  0.00     0.000 A 
ATOM     29  C   UNL A   1      30.727  28.290  22.381  1.00  0.00     0.000 A 
ATOM     30  C   UNL A   1      29.407  28.680  22.615  1.00  0.00     0.000 A 
ENDBRANCH   7  25
ENDBRANCH   4   7
ENDBRANCH   2   3
ENDBRANCH   1   2
BRANCH   1  31
ATOM     31  C   UNL A   1      34.211  28.846  25.746  1.00  0.00     0.118 C 
BRANCH  31  32
ATOM     32  N   UNL A   1      33.710  30.155  26.121  1.00  0.00    -0.352 N 
ATOM     33  C   UNL A   1      34.034  30.937  27.222  1.00  0.00     0.251 C 
ATOM     34  H   UNL A   1      33.046  30.544  25.507  1.00  0.00     0.163 HD
ATOM     35  O   UNL A   1      33.305  31.897  27.476  1.00  0.00    -0.269 OA
BRANCH  33  36
ATOM     36  C   UNL A   1      35.215  30.682  28.106  1.00  0.00     0.039 A 
ATOM     37  C   UNL A   1      35.267  29.584  28.962  1.00  0.00     0.014 A 
ATOM     38  C   UNL A   1      36.367  31.477  27.981  1.00  0.00     0.014 A 
ATOM     39  C   UNL A   1      36.413  29.288  29.703  1.00  0.00     0.010 A 
ATOM     40  C   UNL A   1      37.519  31.200  28.739  1.00  0.00     0.010 A 
ATOM     41  C   UNL A   1      37.540  30.107  29.617  1.00  0.00    -0.014 A 
BRANCH  41  42
ATOM     42  C   UNL A   1      38.658  29.874  30.564  1.00  0.00     0.031 A 
ATOM     43  C   UNL A   1      39.778  28.971  30.130  1.00  0.00     0.074 A 
ATOM     44  C   UNL A   1      38.728  30.543  31.731  1.00  0.00     0.049 A 
ATOM     45  N   UNL A   1      40.851  28.610  30.781  1.00  0.00    -0.248 NA
ATOM     46  C   UNL A   1      39.687  28.419  28.767  1.00  0.00     0.031 C 
ATOM     47  C   UNL A   1      37.744  31.519  32.200  1.00  0.00     0.029 A 
ATOM     48  N   UNL A   1      39.673  30.517  32.727  1.00  0.00    -0.354 N 
ATOM     49  C   UNL A   1      41.544  27.765  29.922  1.00  0.00     0.074 A 
ATOM     50  C   UNL A   1      40.784  27.680  28.695  1.00  0.00     0.031 C 
ATOM     51  C   UNL A   1      38.139  32.004  33.390  1.00  0.00     0.029 A 
ATOM     52  C   UNL A   1      39.376  31.338  33.791  1.00  0.00     0.049 A 
ATOM     53  H   UNL A   1      40.487  29.965  32.684  1.00  0.00     0.167 HD
ATOM     54  C   UNL A   1      42.710  27.118  30.141  1.00  0.00     0.034 A 
ATOM     55  C   UNL A   1      40.017  31.509  34.966  1.00  0.00     0.034 A 
ATOM     56  C   UNL A   1      43.459  27.226  31.360  1.00  0.00     0.049 A 
ATOM     57  C   UNL A   1      41.273  30.719  35.220  1.00  0.00     0.074 A 
ATOM     58  C   UNL A   1      44.633  26.584  31.707  1.00  0.00     0.029 A 
ATOM     59  N   UNL A   1      43.099  28.026  32.433  1.00  0.00    -0.354 N 
ATOM     60  N   UNL A   1      41.908  29.908  34.407  1.00  0.00    -0.248 NA
ATOM     61  C   UNL A   1      41.902  30.860  36.541  1.00  0.00     0.031 C 
ATOM     62  C   UNL A   1      44.972  26.985  33.003  1.00  0.00     0.029 A 
ATOM     63  C   UNL A   1      44.024  27.892  33.450  1.00  0.00     0.049 A 
ATOM     64  H   UNL A   1      42.302  28.604  32.465  1.00  0.00     0.167 HD
ATOM     65  C   UNL A   1      43.015  29.449  35.110  1.00  0.00     0.074 A 
ATOM     66  C   UNL A   1      42.974  30.085  36.412  1.00  0.00     0.031 C 
ATOM     67  C   UNL A   1      43.970  28.571  34.719  1.00  0.00     0.034 A 
BRANCH  54  68
ATOM     68  C   UNL A   1      43.238  26.230  29.050  1.00  0.00     0.023 A 
ATOM     69  C   UNL A   1      42.912  24.860  29.041  1.00  0.00     0.012 A 
ATOM     70  C   UNL A   1      44.014  26.768  28.005  1.00  0.00     0.148 A 
ATOM     71  C   UNL A   1      43.363  24.034  28.011  1.00  0.00     0.002 A 
ATOM     72  C   UNL A   1      44.436  25.945  26.969  1.00  0.00     0.091 A 
ATOM     73  F   UNL A   1      44.323  28.071  28.048  1.00  0.00    -0.205 F 
ATOM     74  C   UNL A   1      44.115  24.577  26.972  1.00  0.00     0.022 A 
BRANCH  72  75
ATOM     75  S   UNL A   1      45.380  26.550  25.567  1.00  0.00     0.127 S 
ATOM     76  O   UNL A   1      46.652  26.903  26.197  1.00  0.00    -0.237 OA
ATOM     77  O   UNL A   1      45.433  25.372  24.703  1.00  0.00    -0.237 OA
ATOM     78  O   UNL A   1      44.630  27.678  25.029  1.00  0.00    -0.744 OA
ENDBRANCH  72  75
ENDBRANCH  54  68
BRANCH  55  79
ATOM     79  C   UNL A   1      39.473  32.461  35.977  1.00  0.00     0.023 A 
ATOM     80  C   UNL A   1      38.544  32.012  36.934  1.00  0.00     0.012 A 
ATOM     81  C   UNL A   1      39.929  33.794  36.036  1.00  0.00     0.148 A 
ATOM     82  C   UNL A   1      38.082  32.870  37.935  1.00  0.00     0.002 A 
ATOM     83  C   UNL A   1      39.498  34.632  37.059  1.00  0.00     0.091 A 
ATOM     84  F   UNL A   1      40.801  34.205  35.105  1.00  0.00    -0.205 F 
ATOM     85  C   UNL A   1      38.568  34.174  38.006  1.00  0.00     0.022 A 
BRANCH  83  86
ATOM     86  S   UNL A   1      40.140  36.293  37.291  1.00  0.00     0.127 S 
ATOM     87  O   UNL A   1      39.938  36.880  35.969  1.00  0.00    -0.237 OA
ATOM     88  O   UNL A   1      39.261  36.810  38.338  1.00  0.00    -0.237 OA
ATOM     89  O   UNL A   1      41.531  36.128  37.694  1.00  0.00    -0.744 OA
ENDBRANCH  83  86
ENDBRANCH  55  79
BRANCH  67  90
ATOM     90  C   UNL A   1      45.065  28.242  35.693  1.00  0.00     0.023 A 
ATOM     91  C   UNL A   1      46.248  29.004  35.683  1.00  0.00     0.012 A 
ATOM     92  C   UNL A   1      44.848  27.294  36.711  1.00  0.00     0.148 A 
ATOM     93  C   UNL A   1      47.206  28.826  36.681  1.00  0.00     0.002 A 
ATOM     94  C   UNL A   1      45.789  27.149  37.721  1.00  0.00     0.091 A 
ATOM     95  F   UNL A   1      43.711  26.585  36.688  1.00  0.00    -0.205 F 
ATOM     96  C   UNL A   1      46.969  27.912  37.706  1.00  0.00     0.022 A 
BRANCH  94  97
ATOM     97  S   UNL A   1      45.530  26.058  39.124  1.00  0.00     0.127 S 
ATOM     98  O   UNL A   1      46.852  26.076  39.758  1.00  0.00    -0.237 OA
ATOM     99  O   UNL A   1      44.490  26.771  39.876  1.00  0.00    -0.237 OA
ATOM    100  O   UNL A   1      45.122  24.781  38.581  1.00  0.00    -0.744 OA
ENDBRANCH  94  97
ENDBRANCH  67  90
ENDBRANCH  41  42
ENDBRANCH  33  36
ENDBRANCH  31  32
ENDBRANCH   1  31
TORSDOF 17
ENDMDL
MODEL 3
REMARK VINA RESULT:     -12.7      1.739      7.890
REMARK SMILES C[C@H]1Oc2ccccc2C=C1/C=C/C(=O)N[C@H](C(=O)NCCCNC(=O)c1ccc(-c2c3nc(c(-c4cccc(S(=O)(=O)[O-])c4F)c4ccc([nH]4)c(-c4cccc(S(=O)(=O)[O-])c4F)c4nc(c(-c5cccc(S(=O)(=O)[O-])c5F)c5ccc2[nH]5)C=C4)C=C3)cc1)c1ccccc1
REMARK SMILES IDX 22 1 21 2 20 3 18 4 19 5 17 7 16 8 14 9 15 10 13 12 12 13
REMARK SMILES IDX 11 14 1 15 2 16 3 17 4 18 10 19 5 20 9 21 6 22 8 23 7 24
REMARK SMILES IDX 90 25 91 26 95 27 92 28 94 29 93 30 23 31 24 32 25 33 26 35
REMARK SMILES IDX 27 36 28 37 89 38 29 39 88 40 30 41 31 42 32 43 82 44 33 45
REMARK SMILES IDX 87 46 81 47 83 48 34 49 86 50 80 51 79 52 35 54 67 55 47 56
REMARK SMILES IDX 66 57 48 58 51 59 65 60 84 61 49 62 50 63 64 65 85 66 52 67
REMARK SMILES IDX 36 68 37 69 45 70 38 71 40 72 46 73 39 74 41 75 42 76 43 77
REMARK SMILES IDX 44 78 68 79 69 80 77 81 70 82 72 83 78 84 71 85 73 86 74 87
REMARK SMILES IDX 75 88 76 89 53 90 54 91 62 92 55 93 57 94 63 95 56 96 58 97
REMARK SMILES IDX 59 98 60 99 61 100
REMARK H PARENT 20 6 16 11 24 34 83 53 51 64
REMARK Flexibility Score: inf
ROOT
ATOM      1  C   UNL A   1      32.392  28.537  24.149  1.00  0.00     0.042 C 
ENDROOT
BRANCH   1   2
ATOM      2  C   UNL A   1      32.944  28.018  22.772  1.00  0.00     0.117 C 
BRANCH   2   3
ATOM      3  N   UNL A   1      33.150  26.601  22.394  1.00  0.00    -0.354 N 
ATOM      4  C   UNL A   1      33.051  25.395  23.088  1.00  0.00     0.247 C 
ATOM      5  O   UNL A   1      32.554  24.459  22.443  1.00  0.00    -0.272 OA
ATOM      6  H   UNL A   1      33.412  26.485  21.451  1.00  0.00     0.163 HD
BRANCH   4   7
ATOM      7  C   UNL A   1      33.825  25.092  24.413  1.00  0.00     0.202 C 
BRANCH   7   8
ATOM      8  N   UNL A   1      33.081  25.056  25.648  1.00  0.00    -0.337 N 
ATOM      9  C   UNL A   1      32.218  24.076  26.060  1.00  0.00     0.244 C 
ATOM     10  O   UNL A   1      31.639  24.233  27.135  1.00  0.00    -0.270 OA
ATOM     11  H   UNL A   1      33.209  25.815  26.260  1.00  0.00     0.164 HD
BRANCH   9  12
ATOM     12  C   UNL A   1      32.183  22.719  25.389  1.00  0.00     0.071 C 
ATOM     13  C   UNL A   1      33.179  21.958  24.906  1.00  0.00     0.013 C 
BRANCH  13  14
ATOM     14  C   UNL A   1      33.206  20.509  24.784  1.00  0.00    -0.007 C 
ATOM     15  C   UNL A   1      32.155  19.905  22.633  1.00  0.00     0.058 C 
ATOM     16  C   UNL A   1      32.003  19.846  24.163  1.00  0.00     0.200 C 
ATOM     17  O   UNL A   1      31.816  18.488  24.604  1.00  0.00    -0.485 OA
ATOM     18  C   UNL A   1      32.960  17.742  24.729  1.00  0.00     0.127 A 
ATOM     19  C   UNL A   1      34.323  19.768  24.866  1.00  0.00     0.019 C 
ATOM     20  C   UNL A   1      32.810  16.374  24.927  1.00  0.00     0.047 A 
ATOM     21  C   UNL A   1      34.234  18.315  24.736  1.00  0.00     0.017 A 
ATOM     22  C   UNL A   1      33.936  15.563  25.080  1.00  0.00     0.004 A 
ATOM     23  C   UNL A   1      35.369  17.495  24.821  1.00  0.00     0.012 A 
ATOM     24  C   UNL A   1      35.215  16.117  25.000  1.00  0.00     0.001 A 
ENDBRANCH  13  14
ENDBRANCH   9  12
ENDBRANCH   7   8
BRANCH   7  25
ATOM     25  C   UNL A   1      35.144  24.275  24.417  1.00  0.00    -0.016 A 
ATOM     26  C   UNL A   1      35.812  24.090  25.659  1.00  0.00     0.006 A 
ATOM     27  C   UNL A   1      35.605  23.518  23.331  1.00  0.00     0.006 A 
ATOM     28  C   UNL A   1      36.831  23.145  25.826  1.00  0.00     0.000 A 
ATOM     29  C   UNL A   1      36.644  22.581  23.499  1.00  0.00     0.000 A 
ATOM     30  C   UNL A   1      37.241  22.379  24.745  1.00  0.00     0.000 A 
ENDBRANCH   7  25
ENDBRANCH   4   7
ENDBRANCH   2   3
ENDBRANCH   1   2
BRANCH   1  31
ATOM     31  C   UNL A   1      33.161  29.164  25.347  1.00  0.00     0.118 C 
BRANCH  31  32
ATOM     32  N   UNL A   1      32.740  30.474  25.804  1.00  0.00    -0.352 N 
ATOM     33  C   UNL A   1      33.181  31.205  26.901  1.00  0.00     0.251 C 
ATOM     34  H   UNL A   1      32.043  30.907  25.260  1.00  0.00     0.163 HD
ATOM     35  O   UNL A   1      32.510  32.179  27.245  1.00  0.00    -0.269 OA
BRANCH  33  36
ATOM     36  C   UNL A   1      34.419  30.879  27.675  1.00  0.00     0.039 A 
ATOM     37  C   UNL A   1      34.700  29.581  28.098  1.00  0.00     0.014 A 
ATOM     38  C   UNL A   1      35.403  31.863  27.869  1.00  0.00     0.014 A 
ATOM     39  C   UNL A   1      35.906  29.259  28.723  1.00  0.00     0.010 A 
ATOM     40  C   UNL A   1      36.612  31.555  28.517  1.00  0.00     0.010 A 
ATOM     41  C   UNL A   1      36.863  30.248  28.961  1.00  0.00    -0.014 A 
BRANCH  41  42
ATOM     42  C   UNL A   1      38.037  29.908  29.801  1.00  0.00     0.031 A 
ATOM     43  C   UNL A   1      39.098  29.023  29.211  1.00  0.00     0.074 A 
ATOM     44  C   UNL A   1      38.208  30.470  31.013  1.00  0.00     0.049 A 
ATOM     45  N   UNL A   1      40.204  28.583  29.747  1.00  0.00    -0.248 NA
ATOM     46  C   UNL A   1      38.896  28.595  27.815  1.00  0.00     0.031 C 
ATOM     47  C   UNL A   1      37.288  31.423  31.634  1.00  0.00     0.029 A 
ATOM     48  N   UNL A   1      39.220  30.337  31.931  1.00  0.00    -0.354 N 
ATOM     49  C   UNL A   1      40.811  27.802  28.771  1.00  0.00     0.074 A 
ATOM     50  C   UNL A   1      39.964  27.841  27.600  1.00  0.00     0.031 C 
ATOM     51  C   UNL A   1      37.779  31.792  32.830  1.00  0.00     0.029 A 
ATOM     52  C   UNL A   1      39.022  31.068  33.080  1.00  0.00     0.049 A 
ATOM     53  H   UNL A   1      40.013  29.773  31.782  1.00  0.00     0.167 HD
ATOM     54  C   UNL A   1      41.971  27.113  28.848  1.00  0.00     0.034 A 
ATOM     55  C   UNL A   1      39.749  31.120  34.216  1.00  0.00     0.034 A 
ATOM     56  C   UNL A   1      42.806  27.097  30.014  1.00  0.00     0.049 A 
ATOM     57  C   UNL A   1      40.997  30.284  34.310  1.00  0.00     0.074 A 
ATOM     58  C   UNL A   1      43.984  26.402  30.218  1.00  0.00     0.029 A 
ATOM     59  N   UNL A   1      42.545  27.807  31.176  1.00  0.00    -0.354 N 
ATOM     60  N   UNL A   1      41.550  29.534  33.386  1.00  0.00    -0.248 NA
ATOM     61  C   UNL A   1      41.722  30.294  35.589  1.00  0.00     0.031 C 
ATOM     62  C   UNL A   1      44.425  26.679  31.516  1.00  0.00     0.029 A 
ATOM     63  C   UNL A   1      43.536  27.565  32.108  1.00  0.00     0.049 A 
ATOM     64  H   UNL A   1      41.770  28.398  31.315  1.00  0.00     0.167 HD
ATOM     65  C   UNL A   1      42.690  28.992  33.964  1.00  0.00     0.074 A 
ATOM     66  C   UNL A   1      42.759  29.511  35.316  1.00  0.00     0.031 C 
ATOM     67  C   UNL A   1      43.591  28.130  33.431  1.00  0.00     0.034 A 
BRANCH  54  68
ATOM     68  C   UNL A   1      42.395  26.313  27.649  1.00  0.00     0.023 A 
ATOM     69  C   UNL A   1      43.204  26.905  26.661  1.00  0.00     0.012 A 
ATOM     70  C   UNL A   1      42.032  24.957  27.532  1.00  0.00     0.148 A 
ATOM     71  C   UNL A   1      43.637  26.160  25.563  1.00  0.00     0.002 A 
ATOM     72  C   UNL A   1      42.490  24.215  26.451  1.00  0.00     0.091 A 
ATOM     73  F   UNL A   1      41.248  24.424  28.479  1.00  0.00    -0.205 F 
ATOM     74  C   UNL A   1      43.288  24.815  25.464  1.00  0.00     0.022 A 
BRANCH  72  75
ATOM     75  S   UNL A   1      42.126  22.468  26.246  1.00  0.00     0.127 S 
ATOM     76  O   UNL A   1      40.668  22.481  26.130  1.00  0.00    -0.237 OA
ATOM     77  O   UNL A   1      42.834  22.153  25.006  1.00  0.00    -0.237 OA
ATOM     78  O   UNL A   1      42.641  21.804  27.436  1.00  0.00    -0.744 OA
ENDBRANCH  72  75
ENDBRANCH  54  68
BRANCH  55  79
ATOM     79  C   UNL A   1      39.304  31.991  35.343  1.00  0.00     0.023 A 
ATOM     80  C   UNL A   1      39.520  33.380  35.283  1.00  0.00     0.012 A 
ATOM     81  C   UNL A   1      38.604  31.452  36.442  1.00  0.00     0.148 A 
ATOM     82  C   UNL A   1      39.042  34.219  36.293  1.00  0.00     0.002 A 
ATOM     83  C   UNL A   1      38.095  32.295  37.424  1.00  0.00     0.091 A 
ATOM     84  F   UNL A   1      38.425  30.125  36.487  1.00  0.00    -0.205 F 
ATOM     85  C   UNL A   1      38.319  33.679  37.355  1.00  0.00     0.022 A 
BRANCH  83  86
ATOM     86  S   UNL A   1      37.069  31.706  38.775  1.00  0.00     0.127 S 
ATOM     87  O   UNL A   1      37.933  31.935  39.930  1.00  0.00    -0.237 OA
ATOM     88  O   UNL A   1      35.913  32.597  38.682  1.00  0.00    -0.237 OA
ATOM     89  O   UNL A   1      36.783  30.309  38.476  1.00  0.00    -0.744 OA
ENDBRANCH  83  86
ENDBRANCH  55  79
BRANCH  67  90
ATOM     90  C   UNL A   1      44.742  27.694  34.290  1.00  0.00     0.023 A 
ATOM     91  C   UNL A   1      45.902  28.488  34.345  1.00  0.00     0.012 A 
ATOM     92  C   UNL A   1      44.602  26.593  35.158  1.00  0.00     0.148 A 
ATOM     93  C   UNL A   1      46.913  28.192  35.258  1.00  0.00     0.002 A 
ATOM     94  C   UNL A   1      45.597  26.327  36.089  1.00  0.00     0.091 A 
ATOM     95  F   UNL A   1      43.486  25.857  35.076  1.00  0.00    -0.205 F 
ATOM     96  C   UNL A   1      46.754  27.123  36.138  1.00  0.00     0.022 A 
BRANCH  94  97
ATOM     97  S   UNL A   1      45.439  25.024  37.315  1.00  0.00     0.127 S 
ATOM     98  O   UNL A   1      46.724  25.122  38.014  1.00  0.00    -0.237 OA
ATOM     99  O   UNL A   1      44.288  25.485  38.101  1.00  0.00    -0.237 OA
ATOM    100  O   UNL A   1      45.224  23.796  36.583  1.00  0.00    -0.744 OA
ENDBRANCH  94  97
ENDBRANCH  67  90
ENDBRANCH  41  42
ENDBRANCH  33  36
ENDBRANCH  31  32
ENDBRANCH   1  31
TORSDOF 17
ENDMDL
