MODEL 1
REMARK VINA RESULT:     -12.5      0.000      0.000
REMARK SMILES CCCC[C@@H](NS(=O)(=O)c1cc2c3c(c1)c(C)cc(=O)n3CC2)C(=O)NCCCNC(=O)c1ccc(-c2c3nc(c(-c4cccc(S(=O)(=O)[O-])c4F)c4ccc([nH]4)c(-c4cccc(S(=O)(=O)[O-])c4F)c4nc(c(-c5cccc(S(=O)(=O)[O-])c5F)c5ccc2[nH]5)C=C4)C=C3)cc1
REMARK SMILES IDX 28 1 27 2 26 3 24 4 25 5 5 7 4 8 3 9 2 10 1 11 6 12 7 14
REMARK SMILES IDX 8 15 9 16 10 17 11 18 15 19 12 20 14 21 13 22 23 23 16 24
REMARK SMILES IDX 21 25 22 26 17 27 18 28 19 29 20 30 29 31 30 32 31 33 32 35
REMARK SMILES IDX 33 36 34 37 95 38 35 39 94 40 36 41 37 42 38 43 88 44 39 45
REMARK SMILES IDX 93 46 87 47 89 48 40 49 92 50 86 51 85 52 41 54 73 55 53 56
REMARK SMILES IDX 72 57 54 58 57 59 71 60 90 61 55 62 56 63 70 65 91 66 58 67
REMARK SMILES IDX 42 68 43 69 51 70 44 71 46 72 52 73 45 74 47 75 48 76 49 77
REMARK SMILES IDX 50 78 74 79 75 80 83 81 76 82 78 83 84 84 77 85 79 86 80 87
REMARK SMILES IDX 81 88 82 89 59 90 60 91 68 92 61 93 63 94 69 95 62 96 64 97
REMARK SMILES IDX 65 98 66 99 67 100
REMARK H PARENT 26 6 6 13 30 34 89 53 57 64
REMARK Flexibility Score: inf
ROOT
ATOM      1  C   UNL A   1      36.472  20.602  24.884  1.00  0.00     0.042 C 
ENDROOT
BRANCH   1   2
ATOM      2  C   UNL A   1      35.243  21.123  25.602  1.00  0.00     0.117 C 
BRANCH   2   3
ATOM      3  N   UNL A   1      34.161  20.148  25.637  1.00  0.00    -0.355 N 
ATOM      4  C   UNL A   1      32.839  20.285  25.314  1.00  0.00     0.238 C 
ATOM      5  O   UNL A   1      32.151  19.263  25.252  1.00  0.00    -0.273 OA
ATOM      6  H   UNL A   1      34.422  19.248  25.939  1.00  0.00     0.163 HD
BRANCH   4   7
ATOM      7  C   UNL A   1      32.237  21.663  25.030  1.00  0.00     0.159 C 
BRANCH   7   8
ATOM      8  C   UNL A   1      31.979  21.794  23.513  1.00  0.00     0.030 C 
BRANCH   8   9
ATOM      9  C   UNL A   1      33.114  22.388  22.680  1.00  0.00     0.002 C 
BRANCH   9  10
ATOM     10  C   UNL A   1      33.580  23.783  23.091  1.00  0.00    -0.003 C 
ATOM     11  C   UNL A   1      33.121  24.884  22.146  1.00  0.00     0.004 C 
ENDBRANCH   9  10
ENDBRANCH   8   9
ENDBRANCH   7   8
BRANCH   7  12
ATOM     12  N   UNL A   1      31.009  21.851  25.843  1.00  0.00    -0.199 NA
ATOM     13  H   UNL A   1      30.827  20.964  26.311  1.00  0.00     0.142 HD
BRANCH  12  14
ATOM     14  S   UNL A   1      30.961  23.051  27.036  1.00  0.00     0.241 S 
ATOM     15  O   UNL A   1      29.636  23.043  27.613  1.00  0.00    -0.207 OA
ATOM     16  O   UNL A   1      32.137  22.827  27.850  1.00  0.00    -0.207 OA
BRANCH  14  17
ATOM     17  C   UNL A   1      31.212  24.616  26.223  1.00  0.00     0.083 A 
ATOM     18  C   UNL A   1      32.435  25.281  26.374  1.00  0.00     0.027 A 
ATOM     19  C   UNL A   1      30.194  25.140  25.391  1.00  0.00     0.032 A 
ATOM     20  C   UNL A   1      32.711  26.347  25.544  1.00  0.00    -0.020 A 
ATOM     21  C   UNL A   1      30.425  26.307  24.655  1.00  0.00     0.003 A 
ATOM     22  C   UNL A   1      31.708  26.825  24.722  1.00  0.00     0.055 A 
ATOM     23  C   UNL A   1      33.975  27.125  25.323  1.00  0.00     0.060 C 
ATOM     24  C   UNL A   1      29.466  27.045  23.811  1.00  0.00    -0.036 A 
ATOM     25  N   UNL A   1      32.150  27.892  23.956  1.00  0.00    -0.308 N 
ATOM     26  C   UNL A   1      33.572  28.113  24.201  1.00  0.00     0.131 C 
ATOM     27  C   UNL A   1      28.020  26.663  23.848  1.00  0.00     0.045 C 
ATOM     28  C   UNL A   1      29.912  28.089  23.078  1.00  0.00     0.075 A 
ATOM     29  C   UNL A   1      31.337  28.554  23.081  1.00  0.00     0.251 A 
ATOM     30  O   UNL A   1      31.687  29.481  22.360  1.00  0.00    -0.269 OA
ENDBRANCH  14  17
ENDBRANCH  12  14
ENDBRANCH   7  12
ENDBRANCH   4   7
ENDBRANCH   2   3
ENDBRANCH   1   2
BRANCH   1  31
ATOM     31  C   UNL A   1      37.757  21.169  25.472  1.00  0.00     0.118 C 
BRANCH  31  32
ATOM     32  N   UNL A   1      38.739  20.130  25.787  1.00  0.00    -0.352 N 
ATOM     33  C   UNL A   1      40.005  20.275  26.296  1.00  0.00     0.251 C 
ATOM     34  H   UNL A   1      38.452  19.204  25.611  1.00  0.00     0.163 HD
ATOM     35  O   UNL A   1      40.760  19.316  26.387  1.00  0.00    -0.269 OA
BRANCH  33  36
ATOM     36  C   UNL A   1      40.428  21.622  26.701  1.00  0.00     0.039 A 
ATOM     37  C   UNL A   1      41.299  21.764  27.781  1.00  0.00     0.014 A 
ATOM     38  C   UNL A   1      40.046  22.719  25.922  1.00  0.00     0.014 A 
ATOM     39  C   UNL A   1      41.848  23.016  28.044  1.00  0.00     0.010 A 
ATOM     40  C   UNL A   1      40.650  23.946  26.142  1.00  0.00     0.010 A 
ATOM     41  C   UNL A   1      41.549  24.104  27.208  1.00  0.00    -0.014 A 
BRANCH  41  42
ATOM     42  C   UNL A   1      42.131  25.439  27.452  1.00  0.00     0.031 A 
ATOM     43  C   UNL A   1      41.323  26.459  28.199  1.00  0.00     0.074 A 
ATOM     44  C   UNL A   1      43.336  25.750  26.941  1.00  0.00     0.049 A 
ATOM     45  N   UNL A   1      41.619  27.700  28.470  1.00  0.00    -0.248 NA
ATOM     46  C   UNL A   1      39.998  26.035  28.687  1.00  0.00     0.031 C 
ATOM     47  C   UNL A   1      44.178  24.855  26.143  1.00  0.00     0.029 A 
ATOM     48  N   UNL A   1      44.056  26.916  27.004  1.00  0.00    -0.354 N 
ATOM     49  C   UNL A   1      40.512  28.212  29.131  1.00  0.00     0.074 A 
ATOM     50  C   UNL A   1      39.521  27.163  29.192  1.00  0.00     0.031 C 
ATOM     51  C   UNL A   1      45.305  25.502  25.802  1.00  0.00     0.029 A 
ATOM     52  C   UNL A   1      45.259  26.858  26.340  1.00  0.00     0.049 A 
ATOM     53  H   UNL A   1      43.742  27.717  27.480  1.00  0.00     0.167 HD
ATOM     54  C   UNL A   1      40.350  29.437  29.677  1.00  0.00     0.034 A 
ATOM     55  C   UNL A   1      46.217  27.793  26.194  1.00  0.00     0.034 A 
ATOM     56  C   UNL A   1      41.361  30.455  29.671  1.00  0.00     0.049 A 
ATOM     57  C   UNL A   1      46.030  29.137  26.843  1.00  0.00     0.074 A 
ATOM     58  C   UNL A   1      41.325  31.702  30.265  1.00  0.00     0.029 A 
ATOM     59  N   UNL A   1      42.591  30.336  29.045  1.00  0.00    -0.354 N 
ATOM     60  N   UNL A   1      45.026  29.563  27.572  1.00  0.00    -0.248 NA
ATOM     61  C   UNL A   1      47.112  30.117  26.678  1.00  0.00     0.031 C 
ATOM     62  C   UNL A   1      42.541  32.340  30.000  1.00  0.00     0.029 A 
ATOM     63  C   UNL A   1      43.328  31.488  29.241  1.00  0.00     0.049 A 
ATOM     64  H   UNL A   1      42.895  29.551  28.537  1.00  0.00     0.167 HD
ATOM     65  C   UNL A   1      45.364  30.850  27.972  1.00  0.00     0.074 A 
ATOM     66  C   UNL A   1      46.672  31.131  27.415  1.00  0.00     0.031 C 
ATOM     67  C   UNL A   1      44.650  31.723  28.721  1.00  0.00     0.034 A 
BRANCH  54  68
ATOM     68  C   UNL A   1      39.066  29.711  30.402  1.00  0.00     0.023 A 
ATOM     69  C   UNL A   1      38.868  29.144  31.677  1.00  0.00     0.012 A 
ATOM     70  C   UNL A   1      38.090  30.565  29.858  1.00  0.00     0.148 A 
ATOM     71  C   UNL A   1      37.708  29.412  32.398  1.00  0.00     0.002 A 
ATOM     72  C   UNL A   1      36.947  30.852  30.596  1.00  0.00     0.091 A 
ATOM     73  F   UNL A   1      38.294  31.072  28.634  1.00  0.00    -0.205 F 
ATOM     74  C   UNL A   1      36.753  30.272  31.862  1.00  0.00     0.022 A 
BRANCH  72  75
ATOM     75  S   UNL A   1      35.676  31.982  30.022  1.00  0.00     0.127 S 
ATOM     76  O   UNL A   1      35.074  31.218  28.930  1.00  0.00    -0.237 OA
ATOM     77  O   UNL A   1      34.833  32.120  31.209  1.00  0.00    -0.237 OA
ATOM     78  O   UNL A   1      36.369  33.198  29.618  1.00  0.00    -0.744 OA
ENDBRANCH  72  75
ENDBRANCH  54  68
BRANCH  55  79
ATOM     79  C   UNL A   1      47.477  27.451  25.480  1.00  0.00     0.023 A 
ATOM     80  C   UNL A   1      48.476  26.738  26.168  1.00  0.00     0.012 A 
ATOM     81  C   UNL A   1      47.663  27.764  24.120  1.00  0.00     0.148 A 
ATOM     82  C   UNL A   1      49.649  26.354  25.519  1.00  0.00     0.002 A 
ATOM     83  C   UNL A   1      48.818  27.346  23.469  1.00  0.00     0.091 A 
ATOM     84  F   UNL A   1      46.695  28.441  23.488  1.00  0.00    -0.205 F 
ATOM     85  C   UNL A   1      49.817  26.651  24.168  1.00  0.00     0.022 A 
BRANCH  83  86
ATOM     86  S   UNL A   1      49.085  27.590  21.709  1.00  0.00     0.127 S 
ATOM     87  O   UNL A   1      49.365  29.022  21.644  1.00  0.00    -0.237 OA
ATOM     88  O   UNL A   1      50.238  26.724  21.460  1.00  0.00    -0.237 OA
ATOM     89  O   UNL A   1      47.854  27.162  21.058  1.00  0.00    -0.744 OA
ENDBRANCH  83  86
ENDBRANCH  55  79
BRANCH  67  90
ATOM     90  C   UNL A   1      45.253  33.069  29.004  1.00  0.00     0.023 A 
ATOM     91  C   UNL A   1      46.065  33.231  30.141  1.00  0.00     0.012 A 
ATOM     92  C   UNL A   1      45.139  34.117  28.069  1.00  0.00     0.148 A 
ATOM     93  C   UNL A   1      46.759  34.422  30.346  1.00  0.00     0.002 A 
ATOM     94  C   UNL A   1      45.859  35.288  28.264  1.00  0.00     0.091 A 
ATOM     95  F   UNL A   1      44.351  33.935  26.999  1.00  0.00    -0.205 F 
ATOM     96  C   UNL A   1      46.666  35.444  29.403  1.00  0.00     0.022 A 
BRANCH  94  97
ATOM     97  S   UNL A   1      45.872  36.626  27.065  1.00  0.00     0.127 S 
ATOM     98  O   UNL A   1      46.835  37.550  27.663  1.00  0.00    -0.237 OA
ATOM     99  O   UNL A   1      46.341  35.952  25.855  1.00  0.00    -0.237 OA
ATOM    100  O   UNL A   1      44.502  37.119  26.995  1.00  0.00    -0.744 OA
ENDBRANCH  94  97
ENDBRANCH  67  90
ENDBRANCH  41  42
ENDBRANCH  33  36
ENDBRANCH  31  32
ENDBRANCH   1  31
TORSDOF 19
ENDMDL
MODEL 2
REMARK VINA RESULT:     -11.7      2.010      7.462
REMARK SMILES CCCC[C@@H](NS(=O)(=O)c1cc2c3c(c1)c(C)cc(=O)n3CC2)C(=O)NCCCNC(=O)c1ccc(-c2c3nc(c(-c4cccc(S(=O)(=O)[O-])c4F)c4ccc([nH]4)c(-c4cccc(S(=O)(=O)[O-])c4F)c4nc(c(-c5cccc(S(=O)(=O)[O-])c5F)c5ccc2[nH]5)C=C4)C=C3)cc1
REMARK SMILES IDX 28 1 27 2 26 3 24 4 25 5 5 7 4 8 3 9 2 10 1 11 6 12 7 14
REMARK SMILES IDX 8 15 9 16 10 17 11 18 15 19 12 20 14 21 13 22 23 23 16 24
REMARK SMILES IDX 21 25 22 26 17 27 18 28 19 29 20 30 29 31 30 32 31 33 32 35
REMARK SMILES IDX 33 36 34 37 95 38 35 39 94 40 36 41 37 42 38 43 88 44 39 45
REMARK SMILES IDX 93 46 87 47 89 48 40 49 92 50 86 51 85 52 41 54 73 55 53 56
REMARK SMILES IDX 72 57 54 58 57 59 71 60 90 61 55 62 56 63 70 65 91 66 58 67
REMARK SMILES IDX 42 68 43 69 51 70 44 71 46 72 52 73 45 74 47 75 48 76 49 77
REMARK SMILES IDX 50 78 74 79 75 80 83 81 76 82 78 83 84 84 77 85 79 86 80 87
REMARK SMILES IDX 81 88 82 89 59 90 60 91 68 92 61 93 63 94 69 95 62 96 64 97
REMARK SMILES IDX 65 98 66 99 67 100
REMARK H PARENT 26 6 6 13 30 34 89 53 57 64
REMARK Flexibility Score: inf
ROOT
ATOM      1  C   UNL A   1      37.106  20.165  24.898  1.00  0.00     0.042 C 
ENDROOT
BRANCH   1   2
ATOM      2  C   UNL A   1      35.799  20.916  25.056  1.00  0.00     0.117 C 
BRANCH   2   3
ATOM      3  N   UNL A   1      34.690  20.040  25.408  1.00  0.00    -0.355 N 
ATOM      4  C   UNL A   1      33.342  20.274  25.400  1.00  0.00     0.238 C 
ATOM      5  O   UNL A   1      32.588  19.313  25.568  1.00  0.00    -0.273 OA
ATOM      6  H   UNL A   1      34.951  19.135  25.696  1.00  0.00     0.163 HD
BRANCH   4   7
ATOM      7  C   UNL A   1      32.791  21.685  25.181  1.00  0.00     0.159 C 
BRANCH   7   8
ATOM      8  C   UNL A   1      32.694  21.954  23.664  1.00  0.00     0.030 C 
BRANCH   8   9
ATOM      9  C   UNL A   1      33.336  23.245  23.159  1.00  0.00     0.002 C 
BRANCH   9  10
ATOM     10  C   UNL A   1      32.497  24.067  22.183  1.00  0.00    -0.003 C 
ATOM     11  C   UNL A   1      33.143  25.385  21.783  1.00  0.00     0.004 C 
ENDBRANCH   9  10
ENDBRANCH   8   9
ENDBRANCH   7   8
BRANCH   7  12
ATOM     12  N   UNL A   1      31.488  21.828  25.878  1.00  0.00    -0.199 NA
ATOM     13  H   UNL A   1      31.301  20.937  26.337  1.00  0.00     0.142 HD
BRANCH  12  14
ATOM     14  S   UNL A   1      31.283  23.034  27.048  1.00  0.00     0.241 S 
ATOM     15  O   UNL A   1      29.933  22.930  27.553  1.00  0.00    -0.207 OA
ATOM     16  O   UNL A   1      32.426  22.910  27.928  1.00  0.00    -0.207 OA
BRANCH  14  17
ATOM     17  C   UNL A   1      31.459  24.605  26.227  1.00  0.00     0.083 A 
ATOM     18  C   UNL A   1      32.661  25.312  26.345  1.00  0.00     0.027 A 
ATOM     19  C   UNL A   1      30.402  25.090  25.419  1.00  0.00     0.032 A 
ATOM     20  C   UNL A   1      32.878  26.385  25.506  1.00  0.00    -0.020 A 
ATOM     21  C   UNL A   1      30.573  26.263  24.676  1.00  0.00     0.003 A 
ATOM     22  C   UNL A   1      31.838  26.826  24.709  1.00  0.00     0.055 A 
ATOM     23  C   UNL A   1      34.108  27.206  25.252  1.00  0.00     0.060 C 
ATOM     24  C   UNL A   1      29.568  26.965  23.856  1.00  0.00    -0.036 A 
ATOM     25  N   UNL A   1      32.224  27.905  23.931  1.00  0.00    -0.308 N 
ATOM     26  C   UNL A   1      33.643  28.177  24.139  1.00  0.00     0.131 C 
ATOM     27  C   UNL A   1      28.137  26.532  23.930  1.00  0.00     0.045 C 
ATOM     28  C   UNL A   1      29.958  28.022  23.109  1.00  0.00     0.075 A 
ATOM     29  C   UNL A   1      31.366  28.537  23.076  1.00  0.00     0.251 A 
ATOM     30  O   UNL A   1      31.665  29.473  22.344  1.00  0.00    -0.269 OA
ENDBRANCH  14  17
ENDBRANCH  12  14
ENDBRANCH   7  12
ENDBRANCH   4   7
ENDBRANCH   2   3
ENDBRANCH   1   2
BRANCH   1  31
ATOM     31  C   UNL A   1      38.241  20.831  25.663  1.00  0.00     0.118 C 
BRANCH  31  32
ATOM     32  N   UNL A   1      39.405  19.958  25.819  1.00  0.00    -0.352 N 
ATOM     33  C   UNL A   1      40.665  20.282  26.256  1.00  0.00     0.251 C 
ATOM     34  H   UNL A   1      39.266  19.013  25.578  1.00  0.00     0.163 HD
ATOM     35  O   UNL A   1      41.575  19.464  26.211  1.00  0.00    -0.269 OA
BRANCH  33  36
ATOM     36  C   UNL A   1      40.887  21.646  26.754  1.00  0.00     0.039 A 
ATOM     37  C   UNL A   1      41.181  21.837  28.104  1.00  0.00     0.014 A 
ATOM     38  C   UNL A   1      40.917  22.706  25.843  1.00  0.00     0.014 A 
ATOM     39  C   UNL A   1      41.576  23.100  28.535  1.00  0.00     0.010 A 
ATOM     40  C   UNL A   1      41.382  23.942  26.261  1.00  0.00     0.010 A 
ATOM     41  C   UNL A   1      41.707  24.149  27.611  1.00  0.00    -0.014 A 
BRANCH  41  42
ATOM     42  C   UNL A   1      42.143  25.494  28.036  1.00  0.00     0.031 A 
ATOM     43  C   UNL A   1      43.602  25.837  27.986  1.00  0.00     0.074 A 
ATOM     44  C   UNL A   1      41.244  26.365  28.532  1.00  0.00     0.049 A 
ATOM     45  N   UNL A   1      44.201  26.932  28.365  1.00  0.00    -0.248 NA
ATOM     46  C   UNL A   1      44.513  24.802  27.463  1.00  0.00     0.031 C 
ATOM     47  C   UNL A   1      39.810  26.111  28.686  1.00  0.00     0.029 A 
ATOM     48  N   UNL A   1      41.410  27.638  29.014  1.00  0.00    -0.354 N 
ATOM     49  C   UNL A   1      45.554  26.711  28.154  1.00  0.00     0.074 A 
ATOM     50  C   UNL A   1      45.698  25.365  27.648  1.00  0.00     0.031 C 
ATOM     51  C   UNL A   1      39.226  27.200  29.214  1.00  0.00     0.029 A 
ATOM     52  C   UNL A   1      40.243  28.219  29.452  1.00  0.00     0.049 A 
ATOM     53  H   UNL A   1      42.282  28.093  29.043  1.00  0.00     0.167 HD
ATOM     54  C   UNL A   1      46.583  27.568  28.327  1.00  0.00     0.034 A 
ATOM     55  C   UNL A   1      40.023  29.440  29.975  1.00  0.00     0.034 A 
ATOM     56  C   UNL A   1      46.429  28.924  28.769  1.00  0.00     0.049 A 
ATOM     57  C   UNL A   1      41.180  30.390  30.123  1.00  0.00     0.074 A 
ATOM     58  C   UNL A   1      47.401  29.898  28.902  1.00  0.00     0.029 A 
ATOM     59  N   UNL A   1      45.224  29.497  29.141  1.00  0.00    -0.354 N 
ATOM     60  N   UNL A   1      42.439  30.206  29.802  1.00  0.00    -0.248 NA
ATOM     61  C   UNL A   1      40.889  31.720  30.676  1.00  0.00     0.031 C 
ATOM     62  C   UNL A   1      46.780  31.066  29.353  1.00  0.00     0.029 A 
ATOM     63  C   UNL A   1      45.424  30.815  29.500  1.00  0.00     0.049 A 
ATOM     64  H   UNL A   1      44.355  29.035  29.148  1.00  0.00     0.167 HD
ATOM     65  C   UNL A   1      43.085  31.402  30.089  1.00  0.00     0.074 A 
ATOM     66  C   UNL A   1      42.078  32.309  30.600  1.00  0.00     0.031 C 
ATOM     67  C   UNL A   1      44.395  31.714  29.955  1.00  0.00     0.034 A 
BRANCH  54  68
ATOM     68  C   UNL A   1      47.955  27.091  27.955  1.00  0.00     0.023 A 
ATOM     69  C   UNL A   1      48.689  26.329  28.886  1.00  0.00     0.012 A 
ATOM     70  C   UNL A   1      48.493  27.341  26.679  1.00  0.00     0.148 A 
ATOM     71  C   UNL A   1      49.948  25.833  28.559  1.00  0.00     0.002 A 
ATOM     72  C   UNL A   1      49.737  26.817  26.349  1.00  0.00     0.091 A 
ATOM     73  F   UNL A   1      47.783  28.088  25.822  1.00  0.00    -0.205 F 
ATOM     74  C   UNL A   1      50.467  26.068  27.288  1.00  0.00     0.022 A 
BRANCH  72  75
ATOM     75  S   UNL A   1      50.479  27.020  24.727  1.00  0.00     0.127 S 
ATOM     76  O   UNL A   1      49.443  26.463  23.857  1.00  0.00    -0.237 OA
ATOM     77  O   UNL A   1      50.632  28.472  24.641  1.00  0.00    -0.237 OA
ATOM     78  O   UNL A   1      51.728  26.272  24.758  1.00  0.00    -0.744 OA
ENDBRANCH  72  75
ENDBRANCH  54  68
BRANCH  55  79
ATOM     79  C   UNL A   1      38.634  29.860  30.305  1.00  0.00     0.023 A 
ATOM     80  C   UNL A   1      38.168  29.692  31.623  1.00  0.00     0.012 A 
ATOM     81  C   UNL A   1      37.804  30.477  29.352  1.00  0.00     0.148 A 
ATOM     82  C   UNL A   1      36.891  30.120  31.984  1.00  0.00     0.002 A 
ATOM     83  C   UNL A   1      36.545  30.934  29.727  1.00  0.00     0.091 A 
ATOM     84  F   UNL A   1      38.272  30.626  28.105  1.00  0.00    -0.205 F 
ATOM     85  C   UNL A   1      36.082  30.747  31.039  1.00  0.00     0.022 A 
BRANCH  83  86
ATOM     86  S   UNL A   1      35.469  31.844  28.613  1.00  0.00     0.127 S 
ATOM     87  O   UNL A   1      34.399  32.269  29.511  1.00  0.00    -0.237 OA
ATOM     88  O   UNL A   1      36.353  32.916  28.155  1.00  0.00    -0.237 OA
ATOM     89  O   UNL A   1      35.078  30.898  27.577  1.00  0.00    -0.744 OA
ENDBRANCH  83  86
ENDBRANCH  55  79
BRANCH  67  90
ATOM     90  C   UNL A   1      44.838  33.094  30.351  1.00  0.00     0.023 A 
ATOM     91  C   UNL A   1      44.784  34.130  29.401  1.00  0.00     0.012 A 
ATOM     92  C   UNL A   1      45.154  33.388  31.692  1.00  0.00     0.148 A 
ATOM     93  C   UNL A   1      45.041  35.446  29.780  1.00  0.00     0.002 A 
ATOM     94  C   UNL A   1      45.377  34.706  32.069  1.00  0.00     0.091 A 
ATOM     95  F   UNL A   1      45.204  32.378  32.573  1.00  0.00    -0.205 F 
ATOM     96  C   UNL A   1      45.324  35.735  31.114  1.00  0.00     0.022 A 
BRANCH  94  97
ATOM     97  S   UNL A   1      45.665  35.189  33.775  1.00  0.00     0.127 S 
ATOM     98  O   UNL A   1      44.451  34.703  34.430  1.00  0.00    -0.237 OA
ATOM     99  O   UNL A   1      46.878  34.441  34.106  1.00  0.00    -0.237 OA
ATOM    100  O   UNL A   1      45.827  36.636  33.763  1.00  0.00    -0.744 OA
ENDBRANCH  94  97
ENDBRANCH  67  90
ENDBRANCH  41  42
ENDBRANCH  33  36
ENDBRANCH  31  32
ENDBRANCH   1  31
TORSDOF 19
ENDMDL
MODEL 3
REMARK VINA RESULT:     -11.5      1.877      2.593
REMARK SMILES CCCC[C@@H](NS(=O)(=O)c1cc2c3c(c1)c(C)cc(=O)n3CC2)C(=O)NCCCNC(=O)c1ccc(-c2c3nc(c(-c4cccc(S(=O)(=O)[O-])c4F)c4ccc([nH]4)c(-c4cccc(S(=O)(=O)[O-])c4F)c4nc(c(-c5cccc(S(=O)(=O)[O-])c5F)c5ccc2[nH]5)C=C4)C=C3)cc1
REMARK SMILES IDX 28 1 27 2 26 3 24 4 25 5 5 7 4 8 3 9 2 10 1 11 6 12 7 14
REMARK SMILES IDX 8 15 9 16 10 17 11 18 15 19 12 20 14 21 13 22 23 23 16 24
REMARK SMILES IDX 21 25 22 26 17 27 18 28 19 29 20 30 29 31 30 32 31 33 32 35
REMARK SMILES IDX 33 36 34 37 95 38 35 39 94 40 36 41 37 42 38 43 88 44 39 45
REMARK SMILES IDX 93 46 87 47 89 48 40 49 92 50 86 51 85 52 41 54 73 55 53 56
REMARK SMILES IDX 72 57 54 58 57 59 71 60 90 61 55 62 56 63 70 65 91 66 58 67
REMARK SMILES IDX 42 68 43 69 51 70 44 71 46 72 52 73 45 74 47 75 48 76 49 77
REMARK SMILES IDX 50 78 74 79 75 80 83 81 76 82 78 83 84 84 77 85 79 86 80 87
REMARK SMILES IDX 81 88 82 89 59 90 60 91 68 92 61 93 63 94 69 95 62 96 64 97
REMARK SMILES IDX 65 98 66 99 67 100
REMARK H PARENT 26 6 6 13 30 34 89 53 57 64
REMARK Flexibility Score: inf
ROOT
ATOM      1  C   UNL A   1      38.147  20.562  25.004  1.00  0.00     0.042 C 
ENDROOT
BRANCH   1   2
ATOM      2  C   UNL A   1      36.888  21.186  25.571  1.00  0.00     0.117 C 
BRANCH   2   3
ATOM      3  N   UNL A   1      35.713  20.346  25.379  1.00  0.00    -0.355 N 
ATOM      4  C   UNL A   1      34.468  20.663  24.909  1.00  0.00     0.238 C 
ATOM      5  O   UNL A   1      33.690  19.737  24.667  1.00  0.00    -0.273 OA
ATOM      6  H   UNL A   1      35.834  19.401  25.627  1.00  0.00     0.163 HD
BRANCH   4   7
ATOM      7  C   UNL A   1      34.060  22.121  24.682  1.00  0.00     0.159 C 
BRANCH   7   8
ATOM      8  C   UNL A   1      32.966  22.171  23.594  1.00  0.00     0.030 C 
BRANCH   8   9
ATOM      9  C   UNL A   1      33.132  23.235  22.511  1.00  0.00     0.002 C 
BRANCH   9  10
ATOM     10  C   UNL A   1      33.980  24.446  22.894  1.00  0.00    -0.003 C 
ATOM     11  C   UNL A   1      33.492  25.751  22.284  1.00  0.00     0.004 C 
ENDBRANCH   9  10
ENDBRANCH   8   9
ENDBRANCH   7   8
BRANCH   7  12
ATOM     12  N   UNL A   1      33.627  22.725  25.967  1.00  0.00    -0.199 NA
ATOM     13  H   UNL A   1      34.108  23.619  26.049  1.00  0.00     0.142 HD
BRANCH  12  14
ATOM     14  S   UNL A   1      31.985  23.027  26.248  1.00  0.00     0.241 S 
ATOM     15  O   UNL A   1      31.227  22.015  25.549  1.00  0.00    -0.207 OA
ATOM     16  O   UNL A   1      31.869  23.197  27.681  1.00  0.00    -0.207 OA
BRANCH  14  17
ATOM     17  C   UNL A   1      31.606  24.613  25.530  1.00  0.00     0.083 A 
ATOM     18  C   UNL A   1      30.550  24.720  24.619  1.00  0.00     0.027 A 
ATOM     19  C   UNL A   1      32.343  25.752  25.934  1.00  0.00     0.032 A 
ATOM     20  C   UNL A   1      30.105  25.980  24.274  1.00  0.00    -0.020 A 
ATOM     21  C   UNL A   1      31.979  27.020  25.468  1.00  0.00     0.003 A 
ATOM     22  C   UNL A   1      30.827  27.079  24.700  1.00  0.00     0.055 A 
ATOM     23  C   UNL A   1      28.899  26.423  23.498  1.00  0.00     0.060 C 
ATOM     24  C   UNL A   1      32.672  28.301  25.703  1.00  0.00    -0.036 A 
ATOM     25  N   UNL A   1      30.246  28.260  24.269  1.00  0.00    -0.308 N 
ATOM     26  C   UNL A   1      28.997  27.966  23.573  1.00  0.00     0.131 C 
ATOM     27  C   UNL A   1      34.021  28.289  26.349  1.00  0.00     0.045 C 
ATOM     28  C   UNL A   1      32.096  29.443  25.268  1.00  0.00     0.075 A 
ATOM     29  C   UNL A   1      30.786  29.485  24.541  1.00  0.00     0.251 A 
ATOM     30  O   UNL A   1      30.295  30.559  24.211  1.00  0.00    -0.269 OA
ENDBRANCH  14  17
ENDBRANCH  12  14
ENDBRANCH   7  12
ENDBRANCH   4   7
ENDBRANCH   2   3
ENDBRANCH   1   2
BRANCH   1  31
ATOM     31  C   UNL A   1      39.333  20.718  25.945  1.00  0.00     0.118 C 
BRANCH  31  32
ATOM     32  N   UNL A   1      40.201  19.540  25.958  1.00  0.00    -0.352 N 
ATOM     33  C   UNL A   1      41.569  19.486  26.060  1.00  0.00     0.251 C 
ATOM     34  H   UNL A   1      39.744  18.671  25.883  1.00  0.00     0.163 HD
ATOM     35  O   UNL A   1      42.168  18.427  25.926  1.00  0.00    -0.269 OA
BRANCH  33  36
ATOM     36  C   UNL A   1      42.286  20.744  26.308  1.00  0.00     0.039 A 
ATOM     37  C   UNL A   1      42.630  21.555  25.226  1.00  0.00     0.014 A 
ATOM     38  C   UNL A   1      42.500  21.157  27.626  1.00  0.00     0.014 A 
ATOM     39  C   UNL A   1      43.135  22.828  25.473  1.00  0.00     0.010 A 
ATOM     40  C   UNL A   1      42.934  22.450  27.867  1.00  0.00     0.010 A 
ATOM     41  C   UNL A   1      43.260  23.291  26.792  1.00  0.00    -0.014 A 
BRANCH  41  42
ATOM     42  C   UNL A   1      43.777  24.644  27.083  1.00  0.00     0.031 A 
ATOM     43  C   UNL A   1      42.832  25.689  27.599  1.00  0.00     0.074 A 
ATOM     44  C   UNL A   1      45.061  24.945  26.814  1.00  0.00     0.049 A 
ATOM     45  N   UNL A   1      43.063  26.945  27.862  1.00  0.00    -0.248 NA
ATOM     46  C   UNL A   1      41.436  25.272  27.826  1.00  0.00     0.031 C 
ATOM     47  C   UNL A   1      46.050  24.023  26.250  1.00  0.00     0.029 A 
ATOM     48  N   UNL A   1      45.751  26.120  26.964  1.00  0.00    -0.354 N 
ATOM     49  C   UNL A   1      41.843  27.475  28.257  1.00  0.00     0.074 A 
ATOM     50  C   UNL A   1      40.863  26.417  28.166  1.00  0.00     0.031 C 
ATOM     51  C   UNL A   1      47.222  24.666  26.114  1.00  0.00     0.029 A 
ATOM     52  C   UNL A   1      47.063  26.046  26.563  1.00  0.00     0.049 A 
ATOM     53  H   UNL A   1      45.344  26.940  27.326  1.00  0.00     0.167 HD
ATOM     54  C   UNL A   1      41.571  28.722  28.696  1.00  0.00     0.034 A 
ATOM     55  C   UNL A   1      48.029  26.985  26.568  1.00  0.00     0.034 A 
ATOM     56  C   UNL A   1      42.560  29.751  28.846  1.00  0.00     0.049 A 
ATOM     57  C   UNL A   1      47.710  28.356  27.098  1.00  0.00     0.074 A 
ATOM     58  C   UNL A   1      42.400  31.025  29.357  1.00  0.00     0.029 A 
ATOM     59  N   UNL A   1      43.892  29.617  28.490  1.00  0.00    -0.354 N 
ATOM     60  N   UNL A   1      46.577  28.804  27.585  1.00  0.00    -0.248 NA
ATOM     61  C   UNL A   1      48.801  29.340  27.108  1.00  0.00     0.031 C 
ATOM     62  C   UNL A   1      43.643  31.664  29.314  1.00  0.00     0.029 A 
ATOM     63  C   UNL A   1      44.571  30.786  28.775  1.00  0.00     0.049 A 
ATOM     64  H   UNL A   1      44.294  28.812  28.095  1.00  0.00     0.167 HD
ATOM     65  C   UNL A   1      46.824  30.113  27.981  1.00  0.00     0.074 A 
ATOM     66  C   UNL A   1      48.217  30.383  27.689  1.00  0.00     0.031 C 
ATOM     67  C   UNL A   1      45.971  31.012  28.524  1.00  0.00     0.034 A 
BRANCH  54  68
ATOM     68  C   UNL A   1      40.166  29.015  29.130  1.00  0.00     0.023 A 
ATOM     69  C   UNL A   1      39.195  29.304  28.150  1.00  0.00     0.012 A 
ATOM     70  C   UNL A   1      39.792  28.950  30.485  1.00  0.00     0.148 A 
ATOM     71  C   UNL A   1      37.871  29.538  28.512  1.00  0.00     0.002 A 
ATOM     72  C   UNL A   1      38.463  29.155  30.836  1.00  0.00     0.091 A 
ATOM     73  F   UNL A   1      40.740  28.696  31.397  1.00  0.00    -0.205 F 
ATOM     74  C   UNL A   1      37.503  29.454  29.852  1.00  0.00     0.022 A 
BRANCH  72  75
ATOM     75  S   UNL A   1      37.872  29.025  32.526  1.00  0.00     0.127 S 
ATOM     76  O   UNL A   1      38.784  29.927  33.227  1.00  0.00    -0.237 OA
ATOM     77  O   UNL A   1      36.499  29.516  32.407  1.00  0.00    -0.237 OA
ATOM     78  O   UNL A   1      37.992  27.620  32.889  1.00  0.00    -0.744 OA
ENDBRANCH  72  75
ENDBRANCH  54  68
BRANCH  55  79
ATOM     79  C   UNL A   1      49.409  26.623  26.144  1.00  0.00     0.023 A 
ATOM     80  C   UNL A   1      50.165  25.759  26.956  1.00  0.00     0.012 A 
ATOM     81  C   UNL A   1      49.946  27.072  24.923  1.00  0.00     0.148 A 
ATOM     82  C   UNL A   1      51.443  25.356  26.568  1.00  0.00     0.002 A 
ATOM     83  C   UNL A   1      51.206  26.638  24.524  1.00  0.00     0.091 A 
ATOM     84  F   UNL A   1      49.204  27.893  24.168  1.00  0.00    -0.205 F 
ATOM     85  C   UNL A   1      51.960  25.788  25.349  1.00  0.00     0.022 A 
BRANCH  83  86
ATOM     86  S   UNL A   1      51.918  27.056  22.929  1.00  0.00     0.127 S 
ATOM     87  O   UNL A   1      50.800  26.797  22.025  1.00  0.00    -0.237 OA
ATOM     88  O   UNL A   1      52.249  28.470  23.112  1.00  0.00    -0.237 OA
ATOM     89  O   UNL A   1      53.070  26.181  22.767  1.00  0.00    -0.744 OA
ENDBRANCH  83  86
ENDBRANCH  55  79
BRANCH  67  90
ATOM     90  C   UNL A   1      46.499  32.378  28.857  1.00  0.00     0.023 A 
ATOM     91  C   UNL A   1      47.089  32.597  30.115  1.00  0.00     0.012 A 
ATOM     92  C   UNL A   1      46.550  33.386  27.874  1.00  0.00     0.148 A 
ATOM     93  C   UNL A   1      47.723  33.806  30.394  1.00  0.00     0.002 A 
ATOM     94  C   UNL A   1      47.212  34.575  28.148  1.00  0.00     0.091 A 
ATOM     95  F   UNL A   1      45.974  33.150  26.687  1.00  0.00    -0.205 F 
ATOM     96  C   UNL A   1      47.796  34.788  29.408  1.00  0.00     0.022 A 
BRANCH  94  97
ATOM     97  S   UNL A   1      47.433  35.866  26.918  1.00  0.00     0.127 S 
ATOM     98  O   UNL A   1      48.226  36.847  27.657  1.00  0.00    -0.237 OA
ATOM     99  O   UNL A   1      48.161  35.163  25.861  1.00  0.00    -0.237 OA
ATOM    100  O   UNL A   1      46.094  36.304  26.547  1.00  0.00    -0.744 OA
ENDBRANCH  94  97
ENDBRANCH  67  90
ENDBRANCH  41  42
ENDBRANCH  33  36
ENDBRANCH  31  32
ENDBRANCH   1  31
TORSDOF 19
ENDMDL
