MODEL 1
REMARK VINA RESULT:     -13.8      0.000      0.000
REMARK SMILES Cc1ccccc1/C=C1\SC(=O)N(CC(=O)Nc2ccccc2C(=O)NCCCNC(=O)c2ccc(-c3c4nc(c(-c5cccc(S(=O)(=O)[O-])c5F)c5ccc([nH]5)c(-c5cccc(S(=O)(=O)[O-])c5F)c5nc(c(-c6cccc(S(=O)(=O)[O-])c6F)c6ccc3[nH]6)C=C5)C=C4)cc2)C1=O
REMARK SMILES IDX 27 1 26 2 24 3 25 4 23 6 18 7 19 8 20 9 22 10 21 11 17 12
REMARK SMILES IDX 15 13 16 14 14 16 13 17 8 18 9 19 10 20 96 21 11 22 97 23
REMARK SMILES IDX 12 24 7 25 1 26 2 27 3 28 4 29 6 30 5 31 28 32 29 33 30 34
REMARK SMILES IDX 31 35 32 37 33 38 34 39 95 40 35 41 94 42 36 43 37 44 38 45
REMARK SMILES IDX 88 46 39 47 93 48 87 49 89 50 40 51 92 52 86 53 85 54 41 56
REMARK SMILES IDX 73 57 53 58 72 59 54 60 57 61 71 62 90 63 55 64 56 65 70 67
REMARK SMILES IDX 91 68 58 69 42 70 43 71 51 72 44 73 46 74 52 75 45 76 47 77
REMARK SMILES IDX 48 78 49 79 50 80 74 81 75 82 83 83 76 84 78 85 84 86 77 87
REMARK SMILES IDX 79 88 80 89 81 90 82 91 59 92 60 93 68 94 61 95 63 96 69 97
REMARK SMILES IDX 62 98 64 99 65 100 66 101 67 102
REMARK H PARENT 26 5 17 15 30 36 89 55 57 66
REMARK Flexibility Score: inf
ROOT
ATOM      1  C   UNL A   1      31.786  29.205  26.341  1.00  0.00     0.118 C 
ENDROOT
BRANCH   1   2
ATOM      2  N   UNL A   1      32.022  29.009  24.907  1.00  0.00    -0.352 N 
ATOM      3  C   UNL A   1      31.302  29.091  23.733  1.00  0.00     0.253 C 
ATOM      4  O   UNL A   1      31.928  29.111  22.674  1.00  0.00    -0.269 OA
ATOM      5  H   UNL A   1      32.955  28.746  24.733  1.00  0.00     0.163 HD
BRANCH   3   6
ATOM      6  C   UNL A   1      29.829  29.177  23.647  1.00  0.00     0.063 A 
ATOM      7  C   UNL A   1      28.980  28.053  23.476  1.00  0.00     0.054 A 
ATOM      8  C   UNL A   1      27.619  28.287  23.169  1.00  0.00     0.027 A 
ATOM      9  C   UNL A   1      27.091  29.570  23.036  1.00  0.00     0.002 A 
ATOM     10  C   UNL A   1      29.283  30.455  23.416  1.00  0.00     0.016 A 
ATOM     11  C   UNL A   1      27.932  30.658  23.144  1.00  0.00     0.001 A 
BRANCH   7  12
ATOM     12  N   UNL A   1      29.316  26.690  23.322  1.00  0.00    -0.324 N 
ATOM     13  C   UNL A   1      30.095  25.747  23.912  1.00  0.00     0.244 C 
ATOM     14  O   UNL A   1      30.091  24.639  23.352  1.00  0.00    -0.273 OA
ATOM     15  H   UNL A   1      28.840  26.306  22.552  1.00  0.00     0.170 HD
BRANCH  13  16
ATOM     16  C   UNL A   1      30.727  25.874  25.285  1.00  0.00     0.230 C 
BRANCH  16  17
ATOM     17  N   UNL A   1      31.906  25.096  25.541  1.00  0.00    -0.259 N 
ATOM     18  C   UNL A   1      33.357  22.000  26.228  1.00  0.00     0.029 C 
ATOM     19  C   UNL A   1      33.293  23.348  26.258  1.00  0.00     0.083 C 
ATOM     20  S   UNL A   1      34.368  24.539  25.665  1.00  0.00    -0.022 SA
ATOM     21  C   UNL A   1      31.957  24.028  26.424  1.00  0.00     0.268 C 
ATOM     22  C   UNL A   1      33.097  25.532  25.035  1.00  0.00     0.294 C 
ATOM     23  O   UNL A   1      31.068  23.652  27.171  1.00  0.00    -0.268 OA
ATOM     24  O   UNL A   1      33.291  26.445  24.262  1.00  0.00    -0.261 OA
BRANCH  18  25
ATOM     25  C   UNL A   1      34.258  21.006  25.540  1.00  0.00    -0.021 A 
ATOM     26  C   UNL A   1      32.603  19.253  24.654  1.00  0.00     0.045 C 
ATOM     27  C   UNL A   1      33.956  19.754  24.978  1.00  0.00    -0.044 A 
ATOM     28  C   UNL A   1      34.970  18.827  24.645  1.00  0.00     0.004 A 
ATOM     29  C   UNL A   1      36.305  19.158  24.743  1.00  0.00     0.000 A 
ATOM     30  C   UNL A   1      35.632  21.333  25.566  1.00  0.00     0.008 A 
ATOM     31  C   UNL A   1      36.636  20.434  25.163  1.00  0.00     0.001 A 
ENDBRANCH  18  25
ENDBRANCH  16  17
ENDBRANCH  13  16
ENDBRANCH   7  12
ENDBRANCH   3   6
ENDBRANCH   1   2
BRANCH   1  32
ATOM     32  C   UNL A   1      32.389  30.448  26.990  1.00  0.00     0.042 C 
BRANCH  32  33
ATOM     33  C   UNL A   1      33.914  30.532  26.926  1.00  0.00     0.118 C 
BRANCH  33  34
ATOM     34  N   UNL A   1      34.529  31.516  27.811  1.00  0.00    -0.352 N 
ATOM     35  C   UNL A   1      35.582  31.414  28.709  1.00  0.00     0.251 C 
ATOM     36  H   UNL A   1      34.124  32.413  27.763  1.00  0.00     0.163 HD
ATOM     37  O   UNL A   1      35.781  32.380  29.444  1.00  0.00    -0.269 OA
BRANCH  35  38
ATOM     38  C   UNL A   1      36.558  30.284  28.672  1.00  0.00     0.039 A 
ATOM     39  C   UNL A   1      36.767  29.573  29.866  1.00  0.00     0.014 A 
ATOM     40  C   UNL A   1      37.465  30.128  27.633  1.00  0.00     0.014 A 
ATOM     41  C   UNL A   1      38.011  29.000  30.127  1.00  0.00     0.010 A 
ATOM     42  C   UNL A   1      38.729  29.663  27.927  1.00  0.00     0.010 A 
ATOM     43  C   UNL A   1      39.030  29.199  29.214  1.00  0.00    -0.014 A 
BRANCH  43  44
ATOM     44  C   UNL A   1      40.412  28.792  29.388  1.00  0.00     0.031 A 
ATOM     45  C   UNL A   1      40.668  27.360  29.109  1.00  0.00     0.074 A 
ATOM     46  C   UNL A   1      41.408  29.709  29.498  1.00  0.00     0.049 A 
ATOM     47  N   UNL A   1      41.817  26.798  29.196  1.00  0.00    -0.248 NA
ATOM     48  C   UNL A   1      39.595  26.424  28.753  1.00  0.00     0.031 C 
ATOM     49  C   UNL A   1      42.781  29.559  29.014  1.00  0.00     0.029 A 
ATOM     50  N   UNL A   1      41.452  30.964  30.112  1.00  0.00    -0.354 N 
ATOM     51  C   UNL A   1      41.696  25.537  28.655  1.00  0.00     0.074 A 
ATOM     52  C   UNL A   1      40.285  25.304  28.528  1.00  0.00     0.031 C 
ATOM     53  C   UNL A   1      43.554  30.510  29.570  1.00  0.00     0.029 A 
ATOM     54  C   UNL A   1      42.750  31.151  30.593  1.00  0.00     0.049 A 
ATOM     55  H   UNL A   1      40.706  31.600  30.189  1.00  0.00     0.167 HD
ATOM     56  C   UNL A   1      42.829  24.910  28.247  1.00  0.00     0.034 A 
ATOM     57  C   UNL A   1      43.072  31.235  31.921  1.00  0.00     0.034 A 
ATOM     58  C   UNL A   1      44.002  25.643  28.746  1.00  0.00     0.049 A 
ATOM     59  C   UNL A   1      44.075  30.179  32.332  1.00  0.00     0.074 A 
ATOM     60  C   UNL A   1      44.817  26.605  28.177  1.00  0.00     0.029 A 
ATOM     61  N   UNL A   1      44.227  25.697  30.121  1.00  0.00    -0.354 N 
ATOM     62  N   UNL A   1      44.367  29.144  31.596  1.00  0.00    -0.248 NA
ATOM     63  C   UNL A   1      44.815  30.187  33.591  1.00  0.00     0.031 C 
ATOM     64  C   UNL A   1      45.455  27.312  29.236  1.00  0.00     0.029 A 
ATOM     65  C   UNL A   1      45.082  26.742  30.445  1.00  0.00     0.049 A 
ATOM     66  H   UNL A   1      43.831  25.078  30.775  1.00  0.00     0.167 HD
ATOM     67  C   UNL A   1      45.176  28.293  32.286  1.00  0.00     0.074 A 
ATOM     68  C   UNL A   1      45.510  29.041  33.489  1.00  0.00     0.031 C 
ATOM     69  C   UNL A   1      45.423  27.022  31.842  1.00  0.00     0.034 A 
BRANCH  56  70
ATOM     70  C   UNL A   1      42.921  23.777  27.238  1.00  0.00     0.023 A 
ATOM     71  C   UNL A   1      43.560  24.085  26.015  1.00  0.00     0.012 A 
ATOM     72  C   UNL A   1      42.345  22.481  27.324  1.00  0.00     0.148 A 
ATOM     73  C   UNL A   1      43.605  23.188  24.942  1.00  0.00     0.002 A 
ATOM     74  C   UNL A   1      42.433  21.565  26.269  1.00  0.00     0.091 A 
ATOM     75  F   UNL A   1      41.635  22.124  28.394  1.00  0.00    -0.205 F 
ATOM     76  C   UNL A   1      43.049  21.924  25.070  1.00  0.00     0.022 A 
BRANCH  74  77
ATOM     77  S   UNL A   1      41.764  19.891  26.366  1.00  0.00     0.127 S 
ATOM     78  O   UNL A   1      40.326  20.127  26.230  1.00  0.00    -0.237 OA
ATOM     79  O   UNL A   1      42.383  19.239  25.214  1.00  0.00    -0.237 OA
ATOM     80  O   UNL A   1      42.176  19.353  27.657  1.00  0.00    -0.744 OA
ENDBRANCH  74  77
ENDBRANCH  56  70
BRANCH  57  81
ATOM     81  C   UNL A   1      41.960  31.730  32.786  1.00  0.00     0.023 A 
ATOM     82  C   UNL A   1      41.624  33.096  32.665  1.00  0.00     0.012 A 
ATOM     83  C   UNL A   1      40.999  30.833  33.298  1.00  0.00     0.148 A 
ATOM     84  C   UNL A   1      40.312  33.521  32.865  1.00  0.00     0.002 A 
ATOM     85  C   UNL A   1      39.686  31.264  33.472  1.00  0.00     0.091 A 
ATOM     86  F   UNL A   1      41.363  29.564  33.521  1.00  0.00    -0.205 F 
ATOM     87  C   UNL A   1      39.332  32.595  33.202  1.00  0.00     0.022 A 
BRANCH  85  88
ATOM     88  S   UNL A   1      38.352  30.133  33.892  1.00  0.00     0.127 S 
ATOM     89  O   UNL A   1      38.342  30.215  35.349  1.00  0.00    -0.237 OA
ATOM     90  O   UNL A   1      37.202  30.757  33.237  1.00  0.00    -0.237 OA
ATOM     91  O   UNL A   1      38.742  28.854  33.322  1.00  0.00    -0.744 OA
ENDBRANCH  85  88
ENDBRANCH  57  81
BRANCH  69  92
ATOM     92  C   UNL A   1      46.010  25.934  32.718  1.00  0.00     0.023 A 
ATOM     93  C   UNL A   1      47.399  25.824  32.942  1.00  0.00     0.012 A 
ATOM     94  C   UNL A   1      45.183  25.056  33.459  1.00  0.00     0.148 A 
ATOM     95  C   UNL A   1      47.950  24.823  33.742  1.00  0.00     0.002 A 
ATOM     96  C   UNL A   1      45.729  24.153  34.365  1.00  0.00     0.091 A 
ATOM     97  F   UNL A   1      43.854  25.075  33.280  1.00  0.00    -0.205 F 
ATOM     98  C   UNL A   1      47.112  23.995  34.468  1.00  0.00     0.022 A 
BRANCH  96  99
ATOM     99  S   UNL A   1      44.700  23.275  35.548  1.00  0.00     0.127 S 
ATOM    100  O   UNL A   1      44.064  22.268  34.702  1.00  0.00    -0.237 OA
ATOM    101  O   UNL A   1      45.692  22.748  36.487  1.00  0.00    -0.237 OA
ATOM    102  O   UNL A   1      43.819  24.287  36.117  1.00  0.00    -0.744 OA
ENDBRANCH  96  99
ENDBRANCH  69  92
ENDBRANCH  43  44
ENDBRANCH  35  38
ENDBRANCH  33  34
ENDBRANCH  32  33
ENDBRANCH   1  32
TORSDOF 17
ENDMDL
MODEL 2
REMARK VINA RESULT:     -13.4      2.637      3.744
REMARK SMILES Cc1ccccc1/C=C1\SC(=O)N(CC(=O)Nc2ccccc2C(=O)NCCCNC(=O)c2ccc(-c3c4nc(c(-c5cccc(S(=O)(=O)[O-])c5F)c5ccc([nH]5)c(-c5cccc(S(=O)(=O)[O-])c5F)c5nc(c(-c6cccc(S(=O)(=O)[O-])c6F)c6ccc3[nH]6)C=C5)C=C4)cc2)C1=O
REMARK SMILES IDX 27 1 26 2 24 3 25 4 23 6 18 7 19 8 20 9 22 10 21 11 17 12
REMARK SMILES IDX 15 13 16 14 14 16 13 17 8 18 9 19 10 20 96 21 11 22 97 23
REMARK SMILES IDX 12 24 7 25 1 26 2 27 3 28 4 29 6 30 5 31 28 32 29 33 30 34
REMARK SMILES IDX 31 35 32 37 33 38 34 39 95 40 35 41 94 42 36 43 37 44 38 45
REMARK SMILES IDX 88 46 39 47 93 48 87 49 89 50 40 51 92 52 86 53 85 54 41 56
REMARK SMILES IDX 73 57 53 58 72 59 54 60 57 61 71 62 90 63 55 64 56 65 70 67
REMARK SMILES IDX 91 68 58 69 42 70 43 71 51 72 44 73 46 74 52 75 45 76 47 77
REMARK SMILES IDX 48 78 49 79 50 80 74 81 75 82 83 83 76 84 78 85 84 86 77 87
REMARK SMILES IDX 79 88 80 89 81 90 82 91 59 92 60 93 68 94 61 95 63 96 69 97
REMARK SMILES IDX 62 98 64 99 65 100 66 101 67 102
REMARK H PARENT 26 5 17 15 30 36 89 55 57 66
REMARK Flexibility Score: inf
ROOT
ATOM      1  C   UNL A   1      34.389  29.286  26.895  1.00  0.00     0.118 C 
ENDROOT
BRANCH   1   2
ATOM      2  N   UNL A   1      33.211  28.880  27.667  1.00  0.00    -0.352 N 
ATOM      3  C   UNL A   1      31.977  28.311  27.425  1.00  0.00     0.253 C 
ATOM      4  O   UNL A   1      31.350  27.867  28.386  1.00  0.00    -0.269 OA
ATOM      5  H   UNL A   1      33.334  29.063  28.627  1.00  0.00     0.163 HD
BRANCH   3   6
ATOM      6  C   UNL A   1      31.355  28.174  26.091  1.00  0.00     0.063 A 
ATOM      7  C   UNL A   1      30.739  26.984  25.624  1.00  0.00     0.054 A 
ATOM      8  C   UNL A   1      30.399  26.904  24.254  1.00  0.00     0.027 A 
ATOM      9  C   UNL A   1      30.640  27.945  23.360  1.00  0.00     0.002 A 
ATOM     10  C   UNL A   1      31.667  29.168  25.144  1.00  0.00     0.016 A 
ATOM     11  C   UNL A   1      31.293  29.076  23.805  1.00  0.00     0.001 A 
BRANCH   7  12
ATOM     12  N   UNL A   1      30.614  25.729  26.261  1.00  0.00    -0.324 N 
ATOM     13  C   UNL A   1      31.391  24.679  26.632  1.00  0.00     0.244 C 
ATOM     14  O   UNL A   1      30.779  23.733  27.152  1.00  0.00    -0.273 OA
ATOM     15  H   UNL A   1      29.677  25.566  26.512  1.00  0.00     0.170 HD
BRANCH  13  16
ATOM     16  C   UNL A   1      32.907  24.695  26.692  1.00  0.00     0.230 C 
BRANCH  16  17
ATOM     17  N   UNL A   1      33.603  23.629  26.032  1.00  0.00    -0.259 N 
ATOM     18  C   UNL A   1      34.109  20.205  25.593  1.00  0.00     0.029 C 
ATOM     19  C   UNL A   1      34.482  21.503  25.579  1.00  0.00     0.083 C 
ATOM     20  S   UNL A   1      35.068  22.493  24.314  1.00  0.00    -0.022 SA
ATOM     21  C   UNL A   1      33.965  22.439  26.644  1.00  0.00     0.268 C 
ATOM     22  C   UNL A   1      34.106  23.854  24.782  1.00  0.00     0.294 C 
ATOM     23  O   UNL A   1      33.842  22.156  27.826  1.00  0.00    -0.268 OA
ATOM     24  O   UNL A   1      33.932  24.818  24.070  1.00  0.00    -0.261 OA
BRANCH  18  25
ATOM     25  C   UNL A   1      33.884  19.167  24.524  1.00  0.00    -0.021 A 
ATOM     26  C   UNL A   1      32.068  20.241  23.058  1.00  0.00     0.045 C 
ATOM     27  C   UNL A   1      32.915  19.114  23.508  1.00  0.00    -0.044 A 
ATOM     28  C   UNL A   1      32.662  17.926  22.785  1.00  0.00     0.004 A 
ATOM     29  C   UNL A   1      33.441  16.801  22.960  1.00  0.00     0.000 A 
ATOM     30  C   UNL A   1      34.700  18.019  24.630  1.00  0.00     0.008 A 
ATOM     31  C   UNL A   1      34.493  16.864  23.856  1.00  0.00     0.001 A 
ENDBRANCH  18  25
ENDBRANCH  16  17
ENDBRANCH  13  16
ENDBRANCH   7  12
ENDBRANCH   3   6
ENDBRANCH   1   2
BRANCH   1  32
ATOM     32  C   UNL A   1      35.139  30.533  27.358  1.00  0.00     0.042 C 
BRANCH  32  33
ATOM     33  C   UNL A   1      34.433  31.341  28.446  1.00  0.00     0.118 C 
BRANCH  33  34
ATOM     34  N   UNL A   1      34.239  32.758  28.154  1.00  0.00    -0.352 N 
ATOM     35  C   UNL A   1      34.817  33.896  28.698  1.00  0.00     0.251 C 
ATOM     36  H   UNL A   1      33.581  32.938  27.443  1.00  0.00     0.163 HD
ATOM     37  O   UNL A   1      34.338  34.978  28.360  1.00  0.00    -0.269 OA
BRANCH  35  38
ATOM     38  C   UNL A   1      36.076  33.849  29.500  1.00  0.00     0.039 A 
ATOM     39  C   UNL A   1      37.280  34.122  28.828  1.00  0.00     0.014 A 
ATOM     40  C   UNL A   1      36.130  33.249  30.752  1.00  0.00     0.014 A 
ATOM     41  C   UNL A   1      38.464  33.513  29.241  1.00  0.00     0.010 A 
ATOM     42  C   UNL A   1      37.270  32.557  31.100  1.00  0.00     0.010 A 
ATOM     43  C   UNL A   1      38.405  32.603  30.281  1.00  0.00    -0.014 A 
BRANCH  43  44
ATOM     44  C   UNL A   1      39.507  31.783  30.749  1.00  0.00     0.031 A 
ATOM     45  C   UNL A   1      39.618  30.467  30.078  1.00  0.00     0.074 A 
ATOM     46  C   UNL A   1      40.504  32.309  31.505  1.00  0.00     0.049 A 
ATOM     47  N   UNL A   1      40.522  29.595  30.336  1.00  0.00    -0.248 NA
ATOM     48  C   UNL A   1      38.650  30.011  29.073  1.00  0.00     0.031 C 
ATOM     49  C   UNL A   1      41.911  31.903  31.489  1.00  0.00     0.029 A 
ATOM     50  N   UNL A   1      40.496  33.286  32.505  1.00  0.00    -0.354 N 
ATOM     51  C   UNL A   1      40.431  28.615  29.371  1.00  0.00     0.074 A 
ATOM     52  C   UNL A   1      39.179  28.842  28.706  1.00  0.00     0.031 C 
ATOM     53  C   UNL A   1      42.531  32.406  32.572  1.00  0.00     0.029 A 
ATOM     54  C   UNL A   1      41.493  32.955  33.425  1.00  0.00     0.049 A 
ATOM     55  H   UNL A   1      39.898  34.065  32.551  1.00  0.00     0.167 HD
ATOM     56  C   UNL A   1      41.513  27.821  29.170  1.00  0.00     0.034 A 
ATOM     57  C   UNL A   1      41.251  32.584  34.720  1.00  0.00     0.034 A 
ATOM     58  C   UNL A   1      42.479  28.022  30.260  1.00  0.00     0.049 A 
ATOM     59  C   UNL A   1      41.810  31.214  35.036  1.00  0.00     0.074 A 
ATOM     60  C   UNL A   1      43.601  28.823  30.380  1.00  0.00     0.029 A 
ATOM     61  N   UNL A   1      42.126  27.640  31.553  1.00  0.00    -0.354 N 
ATOM     62  N   UNL A   1      42.206  30.374  34.120  1.00  0.00    -0.248 NA
ATOM     63  C   UNL A   1      41.958  30.671  36.383  1.00  0.00     0.031 C 
ATOM     64  C   UNL A   1      43.853  29.006  31.770  1.00  0.00     0.029 A 
ATOM     65  C   UNL A   1      42.930  28.267  32.495  1.00  0.00     0.049 A 
ATOM     66  H   UNL A   1      41.401  27.010  31.769  1.00  0.00     0.167 HD
ATOM     67  C   UNL A   1      42.510  29.174  34.688  1.00  0.00     0.074 A 
ATOM     68  C   UNL A   1      42.437  29.444  36.115  1.00  0.00     0.031 C 
ATOM     69  C   UNL A   1      42.707  28.052  33.927  1.00  0.00     0.034 A 
BRANCH  56  70
ATOM     70  C   UNL A   1      41.825  27.021  27.915  1.00  0.00     0.023 A 
ATOM     71  C   UNL A   1      41.944  27.766  26.719  1.00  0.00     0.012 A 
ATOM     72  C   UNL A   1      41.900  25.610  27.773  1.00  0.00     0.148 A 
ATOM     73  C   UNL A   1      42.098  27.160  25.467  1.00  0.00     0.002 A 
ATOM     74  C   UNL A   1      42.104  25.006  26.527  1.00  0.00     0.091 A 
ATOM     75  F   UNL A   1      41.702  24.812  28.822  1.00  0.00    -0.205 F 
ATOM     76  C   UNL A   1      42.186  25.780  25.369  1.00  0.00     0.022 A 
BRANCH  74  77
ATOM     77  S   UNL A   1      42.261  23.219  26.319  1.00  0.00     0.127 S 
ATOM     78  O   UNL A   1      42.816  23.114  24.969  1.00  0.00    -0.237 OA
ATOM     79  O   UNL A   1      43.193  22.860  27.387  1.00  0.00    -0.237 OA
ATOM     80  O   UNL A   1      40.922  22.663  26.476  1.00  0.00    -0.744 OA
ENDBRANCH  74  77
ENDBRANCH  56  70
BRANCH  57  81
ATOM     81  C   UNL A   1      39.978  33.129  35.280  1.00  0.00     0.023 A 
ATOM     82  C   UNL A   1      38.793  32.814  34.580  1.00  0.00     0.012 A 
ATOM     83  C   UNL A   1      39.892  33.491  36.640  1.00  0.00     0.148 A 
ATOM     84  C   UNL A   1      37.586  32.675  35.263  1.00  0.00     0.002 A 
ATOM     85  C   UNL A   1      38.686  33.327  37.317  1.00  0.00     0.091 A 
ATOM     86  F   UNL A   1      41.003  33.904  37.264  1.00  0.00    -0.205 F 
ATOM     87  C   UNL A   1      37.547  32.866  36.639  1.00  0.00     0.022 A 
BRANCH  85  88
ATOM     88  S   UNL A   1      38.547  33.537  39.098  1.00  0.00     0.127 S 
ATOM     89  O   UNL A   1      37.165  33.133  39.336  1.00  0.00    -0.237 OA
ATOM     90  O   UNL A   1      39.553  32.600  39.598  1.00  0.00    -0.237 OA
ATOM     91  O   UNL A   1      38.859  34.936  39.343  1.00  0.00    -0.744 OA
ENDBRANCH  85  88
ENDBRANCH  57  81
BRANCH  69  92
ATOM     92  C   UNL A   1      42.697  26.648  34.498  1.00  0.00     0.023 A 
ATOM     93  C   UNL A   1      41.586  26.137  35.201  1.00  0.00     0.012 A 
ATOM     94  C   UNL A   1      43.751  25.739  34.239  1.00  0.00     0.148 A 
ATOM     95  C   UNL A   1      41.570  24.848  35.735  1.00  0.00     0.002 A 
ATOM     96  C   UNL A   1      43.669  24.413  34.652  1.00  0.00     0.091 A 
ATOM     97  F   UNL A   1      44.857  26.156  33.606  1.00  0.00    -0.205 F 
ATOM     98  C   UNL A   1      42.607  23.979  35.447  1.00  0.00     0.022 A 
BRANCH  96  99
ATOM     99  S   UNL A   1      44.822  23.174  34.052  1.00  0.00     0.127 S 
ATOM    100  O   UNL A   1      46.075  23.609  34.664  1.00  0.00    -0.237 OA
ATOM    101  O   UNL A   1      44.265  21.940  34.609  1.00  0.00    -0.237 OA
ATOM    102  O   UNL A   1      44.754  23.255  32.599  1.00  0.00    -0.744 OA
ENDBRANCH  96  99
ENDBRANCH  69  92
ENDBRANCH  43  44
ENDBRANCH  35  38
ENDBRANCH  33  34
ENDBRANCH  32  33
ENDBRANCH   1  32
TORSDOF 17
ENDMDL
MODEL 3
REMARK VINA RESULT:     -12.7      2.797      3.738
REMARK SMILES Cc1ccccc1/C=C1\SC(=O)N(CC(=O)Nc2ccccc2C(=O)NCCCNC(=O)c2ccc(-c3c4nc(c(-c5cccc(S(=O)(=O)[O-])c5F)c5ccc([nH]5)c(-c5cccc(S(=O)(=O)[O-])c5F)c5nc(c(-c6cccc(S(=O)(=O)[O-])c6F)c6ccc3[nH]6)C=C5)C=C4)cc2)C1=O
REMARK SMILES IDX 27 1 26 2 24 3 25 4 23 6 18 7 19 8 20 9 22 10 21 11 17 12
REMARK SMILES IDX 15 13 16 14 14 16 13 17 8 18 9 19 10 20 96 21 11 22 97 23
REMARK SMILES IDX 12 24 7 25 1 26 2 27 3 28 4 29 6 30 5 31 28 32 29 33 30 34
REMARK SMILES IDX 31 35 32 37 33 38 34 39 95 40 35 41 94 42 36 43 37 44 38 45
REMARK SMILES IDX 88 46 39 47 93 48 87 49 89 50 40 51 92 52 86 53 85 54 41 56
REMARK SMILES IDX 73 57 53 58 72 59 54 60 57 61 71 62 90 63 55 64 56 65 70 67
REMARK SMILES IDX 91 68 58 69 42 70 43 71 51 72 44 73 46 74 52 75 45 76 47 77
REMARK SMILES IDX 48 78 49 79 50 80 74 81 75 82 83 83 76 84 78 85 84 86 77 87
REMARK SMILES IDX 79 88 80 89 81 90 82 91 59 92 60 93 68 94 61 95 63 96 69 97
REMARK SMILES IDX 62 98 64 99 65 100 66 101 67 102
REMARK H PARENT 26 5 17 15 30 36 89 55 57 66
REMARK Flexibility Score: inf
ROOT
ATOM      1  C   UNL A   1      34.628  29.245  27.685  1.00  0.00     0.118 C 
ENDROOT
BRANCH   1   2
ATOM      2  N   UNL A   1      34.343  28.629  26.385  1.00  0.00    -0.352 N 
ATOM      3  C   UNL A   1      33.458  28.810  25.341  1.00  0.00     0.253 C 
ATOM      4  O   UNL A   1      33.705  28.248  24.275  1.00  0.00    -0.269 OA
ATOM      5  H   UNL A   1      34.952  27.876  26.207  1.00  0.00     0.163 HD
BRANCH   3   6
ATOM      6  C   UNL A   1      32.241  29.647  25.397  1.00  0.00     0.063 A 
ATOM      7  C   UNL A   1      31.151  29.518  24.499  1.00  0.00     0.054 A 
ATOM      8  C   UNL A   1      30.161  30.528  24.504  1.00  0.00     0.027 A 
ATOM      9  C   UNL A   1      30.218  31.629  25.356  1.00  0.00     0.002 A 
ATOM     10  C   UNL A   1      32.315  30.817  26.178  1.00  0.00     0.016 A 
ATOM     11  C   UNL A   1      31.310  31.781  26.186  1.00  0.00     0.001 A 
BRANCH   7  12
ATOM     12  N   UNL A   1      30.994  28.648  23.397  1.00  0.00    -0.324 N 
ATOM     13  C   UNL A   1      30.667  27.355  23.142  1.00  0.00     0.244 C 
ATOM     14  O   UNL A   1      30.712  27.030  21.945  1.00  0.00    -0.273 OA
ATOM     15  H   UNL A   1      31.178  29.126  22.556  1.00  0.00     0.170 HD
BRANCH  13  16
ATOM     16  C   UNL A   1      30.029  26.406  24.138  1.00  0.00     0.230 C 
BRANCH  16  17
ATOM     17  N   UNL A   1      30.828  25.311  24.609  1.00  0.00    -0.259 N 
ATOM     18  C   UNL A   1      32.917  22.609  23.899  1.00  0.00     0.029 C 
ATOM     19  C   UNL A   1      32.021  23.293  24.642  1.00  0.00     0.083 C 
ATOM     20  S   UNL A   1      32.096  23.868  26.251  1.00  0.00    -0.022 SA
ATOM     21  C   UNL A   1      30.939  24.092  23.958  1.00  0.00     0.268 C 
ATOM     22  C   UNL A   1      31.372  25.390  25.860  1.00  0.00     0.294 C 
ATOM     23  O   UNL A   1      30.322  23.731  22.968  1.00  0.00    -0.268 OA
ATOM     24  O   UNL A   1      31.384  26.343  26.609  1.00  0.00    -0.261 OA
BRANCH  18  25
ATOM     25  C   UNL A   1      34.364  22.232  24.086  1.00  0.00    -0.021 A 
ATOM     26  C   UNL A   1      34.218  19.797  24.894  1.00  0.00     0.045 C 
ATOM     27  C   UNL A   1      34.928  21.071  24.642  1.00  0.00    -0.044 A 
ATOM     28  C   UNL A   1      36.291  21.011  25.012  1.00  0.00     0.004 A 
ATOM     29  C   UNL A   1      37.155  22.049  24.731  1.00  0.00     0.000 A 
ATOM     30  C   UNL A   1      35.291  23.245  23.756  1.00  0.00     0.008 A 
ATOM     31  C   UNL A   1      36.660  23.153  24.059  1.00  0.00     0.001 A 
ENDBRANCH  18  25
ENDBRANCH  16  17
ENDBRANCH  13  16
ENDBRANCH   7  12
ENDBRANCH   3   6
ENDBRANCH   1   2
BRANCH   1  32
ATOM     32  C   UNL A   1      35.176  30.669  27.683  1.00  0.00     0.042 C 
BRANCH  32  33
ATOM     33  C   UNL A   1      34.617  31.576  28.779  1.00  0.00     0.118 C 
BRANCH  33  34
ATOM     34  N   UNL A   1      34.517  32.991  28.437  1.00  0.00    -0.352 N 
ATOM     35  C   UNL A   1      35.181  34.105  28.929  1.00  0.00     0.251 C 
ATOM     36  H   UNL A   1      33.860  33.191  27.730  1.00  0.00     0.163 HD
ATOM     37  O   UNL A   1      34.773  35.205  28.559  1.00  0.00    -0.269 OA
BRANCH  35  38
ATOM     38  C   UNL A   1      36.449  33.999  29.712  1.00  0.00     0.039 A 
ATOM     39  C   UNL A   1      37.653  34.237  29.027  1.00  0.00     0.014 A 
ATOM     40  C   UNL A   1      36.498  33.379  30.954  1.00  0.00     0.014 A 
ATOM     41  C   UNL A   1      38.819  33.579  29.415  1.00  0.00     0.010 A 
ATOM     42  C   UNL A   1      37.615  32.639  31.276  1.00  0.00     0.010 A 
ATOM     43  C   UNL A   1      38.740  32.656  30.442  1.00  0.00    -0.014 A 
BRANCH  43  44
ATOM     44  C   UNL A   1      39.817  31.788  30.882  1.00  0.00     0.031 A 
ATOM     45  C   UNL A   1      39.866  30.477  30.194  1.00  0.00     0.074 A 
ATOM     46  C   UNL A   1      40.846  32.266  31.628  1.00  0.00     0.049 A 
ATOM     47  N   UNL A   1      40.740  29.568  30.427  1.00  0.00    -0.248 NA
ATOM     48  C   UNL A   1      38.865  30.071  29.201  1.00  0.00     0.031 C 
ATOM     49  C   UNL A   1      42.236  31.807  31.583  1.00  0.00     0.029 A 
ATOM     50  N   UNL A   1      40.892  33.231  32.638  1.00  0.00    -0.354 N 
ATOM     51  C   UNL A   1      40.595  28.604  29.453  1.00  0.00     0.074 A 
ATOM     52  C   UNL A   1      39.343  28.887  28.811  1.00  0.00     0.031 C 
ATOM     53  C   UNL A   1      42.892  32.273  32.661  1.00  0.00     0.029 A 
ATOM     54  C   UNL A   1      41.890  32.851  33.538  1.00  0.00     0.049 A 
ATOM     55  H   UNL A   1      40.325  34.032  32.703  1.00  0.00     0.167 HD
ATOM     56  C   UNL A   1      41.643  27.771  29.225  1.00  0.00     0.034 A 
ATOM     57  C   UNL A   1      41.654  32.474  34.833  1.00  0.00     0.034 A 
ATOM     58  C   UNL A   1      42.634  27.922  30.300  1.00  0.00     0.049 A 
ATOM     59  C   UNL A   1      42.165  31.079  35.123  1.00  0.00     0.074 A 
ATOM     60  C   UNL A   1      43.787  28.678  30.411  1.00  0.00     0.029 A 
ATOM     61  N   UNL A   1      42.286  27.538  31.595  1.00  0.00    -0.354 N 
ATOM     62  N   UNL A   1      42.514  30.236  34.192  1.00  0.00    -0.248 NA
ATOM     63  C   UNL A   1      42.314  30.515  36.462  1.00  0.00     0.031 C 
ATOM     64  C   UNL A   1      44.069  28.834  31.799  1.00  0.00     0.029 A 
ATOM     65  C   UNL A   1      43.129  28.122  32.531  1.00  0.00     0.049 A 
ATOM     66  H   UNL A   1      41.542  26.934  31.816  1.00  0.00     0.167 HD
ATOM     67  C   UNL A   1      42.781  29.018  34.740  1.00  0.00     0.074 A 
ATOM     68  C   UNL A   1      42.742  29.274  36.172  1.00  0.00     0.031 C 
ATOM     69  C   UNL A   1      42.922  27.899  33.964  1.00  0.00     0.034 A 
BRANCH  56  70
ATOM     70  C   UNL A   1      41.903  26.976  27.956  1.00  0.00     0.023 A 
ATOM     71  C   UNL A   1      41.972  27.724  26.758  1.00  0.00     0.012 A 
ATOM     72  C   UNL A   1      41.973  25.565  27.807  1.00  0.00     0.148 A 
ATOM     73  C   UNL A   1      42.075  27.122  25.499  1.00  0.00     0.002 A 
ATOM     74  C   UNL A   1      42.126  24.964  26.552  1.00  0.00     0.091 A 
ATOM     75  F   UNL A   1      41.820  24.764  28.861  1.00  0.00    -0.205 F 
ATOM     76  C   UNL A   1      42.160  25.742  25.394  1.00  0.00     0.022 A 
BRANCH  74  77
ATOM     77  S   UNL A   1      42.276  23.178  26.333  1.00  0.00     0.127 S 
ATOM     78  O   UNL A   1      42.773  23.077  24.960  1.00  0.00    -0.237 OA
ATOM     79  O   UNL A   1      43.254  22.818  27.359  1.00  0.00    -0.237 OA
ATOM     80  O   UNL A   1      40.946  22.620  26.545  1.00  0.00    -0.744 OA
ENDBRANCH  74  77
ENDBRANCH  56  70
BRANCH  57  81
ATOM     81  C   UNL A   1      40.413  33.061  35.420  1.00  0.00     0.023 A 
ATOM     82  C   UNL A   1      39.300  32.200  35.535  1.00  0.00     0.012 A 
ATOM     83  C   UNL A   1      40.483  34.202  36.245  1.00  0.00     0.148 A 
ATOM     84  C   UNL A   1      38.384  32.366  36.573  1.00  0.00     0.002 A 
ATOM     85  C   UNL A   1      39.576  34.345  37.292  1.00  0.00     0.091 A 
ATOM     86  F   UNL A   1      41.479  35.076  36.047  1.00  0.00    -0.205 F 
ATOM     87  C   UNL A   1      38.561  33.396  37.489  1.00  0.00     0.022 A 
BRANCH  85  88
ATOM     88  S   UNL A   1      39.736  35.638  38.532  1.00  0.00     0.127 S 
ATOM     89  O   UNL A   1      41.078  35.389  39.048  1.00  0.00    -0.237 OA
ATOM     90  O   UNL A   1      39.605  36.853  37.729  1.00  0.00    -0.237 OA
ATOM     91  O   UNL A   1      38.639  35.414  39.461  1.00  0.00    -0.744 OA
ENDBRANCH  85  88
ENDBRANCH  57  81
BRANCH  69  92
ATOM     92  C   UNL A   1      42.867  26.490  34.518  1.00  0.00     0.023 A 
ATOM     93  C   UNL A   1      41.723  25.992  35.176  1.00  0.00     0.012 A 
ATOM     94  C   UNL A   1      43.914  25.565  34.288  1.00  0.00     0.148 A 
ATOM     95  C   UNL A   1      41.665  24.698  35.696  1.00  0.00     0.002 A 
ATOM     96  C   UNL A   1      43.793  24.237  34.683  1.00  0.00     0.091 A 
ATOM     97  F   UNL A   1      45.048  25.968  33.698  1.00  0.00    -0.205 F 
ATOM     98  C   UNL A   1      42.696  23.813  35.435  1.00  0.00     0.022 A 
BRANCH  96  99
ATOM     99  S   UNL A   1      44.945  22.983  34.111  1.00  0.00     0.127 S 
ATOM    100  O   UNL A   1      44.790  23.072  32.661  1.00  0.00    -0.237 OA
ATOM    101  O   UNL A   1      46.223  23.483  34.621  1.00  0.00    -0.237 OA
ATOM    102  O   UNL A   1      44.502  21.741  34.730  1.00  0.00    -0.744 OA
ENDBRANCH  96  99
ENDBRANCH  69  92
ENDBRANCH  43  44
ENDBRANCH  35  38
ENDBRANCH  33  34
ENDBRANCH  32  33
ENDBRANCH   1  32
TORSDOF 17
ENDMDL
