MODEL 1
REMARK VINA RESULT:     -12.5      0.000      0.000
REMARK SMILES O=C(NCc1ccc(C(=O)NCCCNC(=O)c2ccc(-c3c4nc(c(-c5cccc(S(=O)(=O)[O-])c5F)c5ccc([nH]5)c(-c5cccc(S(=O)(=O)[O-])c5F)c5nc(c(-c6cccc(S(=O)(=O)[O-])c6F)c6ccc3[nH]6)C=C5)C=C4)cc2)cc1)Nc1ccccc1Br
REMARK SMILES IDX 13 1 12 2 11 3 9 4 10 5 8 7 5 8 6 9 82 10 7 11 81 12 4 13
REMARK SMILES IDX 3 14 1 15 2 16 83 17 84 20 85 21 89 22 86 23 88 24 90 25
REMARK SMILES IDX 87 26 14 27 15 28 16 29 17 31 18 32 19 33 80 34 20 35 79 36
REMARK SMILES IDX 21 37 22 38 23 39 73 40 24 41 78 42 72 43 74 44 25 45 77 46
REMARK SMILES IDX 71 47 70 48 26 50 58 51 38 52 57 53 39 54 42 55 56 56 75 57
REMARK SMILES IDX 40 58 41 59 55 61 76 62 43 63 27 64 28 65 36 66 29 67 31 68
REMARK SMILES IDX 37 69 30 70 32 71 33 72 34 73 35 74 59 75 60 76 68 77 61 78
REMARK SMILES IDX 63 79 69 80 62 81 64 82 65 83 66 84 67 85 44 86 45 87 53 88
REMARK SMILES IDX 46 89 48 90 54 91 47 92 49 93 50 94 51 95 52 96
REMARK H PARENT 11 6 3 18 83 19 15 30 74 49 42 60
REMARK Flexibility Score: inf
ROOT
ATOM      1  C   UNL A   1      31.452  32.294  26.687  1.00  0.00     0.042 C 
ENDROOT
BRANCH   1   2
ATOM      2  C   UNL A   1      31.581  30.815  26.322  1.00  0.00     0.118 C 
BRANCH   2   3
ATOM      3  N   UNL A   1      32.837  30.258  26.792  1.00  0.00    -0.352 N 
ATOM      4  C   UNL A   1      33.431  29.039  26.586  1.00  0.00     0.251 C 
ATOM      5  O   UNL A   1      34.577  28.880  27.010  1.00  0.00    -0.269 OA
ATOM      6  H   UNL A   1      33.357  30.867  27.364  1.00  0.00     0.163 HD
BRANCH   4   7
ATOM      7  C   UNL A   1      32.786  27.939  25.822  1.00  0.00     0.039 A 
ATOM      8  C   UNL A   1      31.597  25.945  24.215  1.00  0.00    -0.029 A 
ATOM      9  C   UNL A   1      32.355  26.968  23.632  1.00  0.00     0.006 A 
ATOM     10  C   UNL A   1      31.493  25.894  25.611  1.00  0.00     0.006 A 
ATOM     11  C   UNL A   1      32.941  27.955  24.428  1.00  0.00     0.014 A 
ATOM     12  C   UNL A   1      32.096  26.875  26.407  1.00  0.00     0.014 A 
BRANCH   8  13
ATOM     13  C   UNL A   1      30.931  24.904  23.359  1.00  0.00     0.153 C 
BRANCH  13  14
ATOM     14  N   UNL A   1      31.823  24.401  22.339  1.00  0.00    -0.334 N 
ATOM     15  O   UNL A   1      33.514  23.329  21.391  1.00  0.00    -0.248 OA
ATOM     16  C   UNL A   1      32.919  23.603  22.429  1.00  0.00     0.319 C 
ATOM     17  N   UNL A   1      33.217  23.118  23.670  1.00  0.00    -0.307 N 
ATOM     18  H   UNL A   1      31.598  24.685  21.424  1.00  0.00     0.165 HD
ATOM     19  H   UNL A   1      32.543  23.248  24.375  1.00  0.00     0.171 HD
BRANCH  17  20
ATOM     20  C   UNL A   1      34.407  22.444  24.035  1.00  0.00     0.057 A 
ATOM     21  C   UNL A   1      35.599  23.137  23.764  1.00  0.00     0.027 A 
ATOM     22  C   UNL A   1      34.491  21.157  24.595  1.00  0.00     0.041 A 
ATOM     23  C   UNL A   1      36.841  22.603  24.114  1.00  0.00     0.002 A 
ATOM     24  C   UNL A   1      35.742  20.629  24.948  1.00  0.00     0.018 A 
ATOM     25  Br  UNL A   1      33.026  19.946  24.710  1.00  0.00    -0.049 Br
ATOM     26  C   UNL A   1      36.911  21.355  24.721  1.00  0.00     0.001 A 
ENDBRANCH  17  20
ENDBRANCH  13  14
ENDBRANCH   8  13
ENDBRANCH   4   7
ENDBRANCH   2   3
ENDBRANCH   1   2
BRANCH   1  27
ATOM     27  C   UNL A   1      32.744  32.911  27.218  1.00  0.00     0.118 C 
BRANCH  27  28
ATOM     28  N   UNL A   1      32.544  34.270  27.705  1.00  0.00    -0.352 N 
ATOM     29  C   UNL A   1      33.123  34.919  28.767  1.00  0.00     0.251 C 
ATOM     30  H   UNL A   1      31.894  34.803  27.193  1.00  0.00     0.163 HD
ATOM     31  O   UNL A   1      32.657  35.994  29.137  1.00  0.00    -0.269 OA
BRANCH  29  32
ATOM     32  C   UNL A   1      34.291  34.340  29.469  1.00  0.00     0.039 A 
ATOM     33  C   UNL A   1      34.079  33.630  30.656  1.00  0.00     0.014 A 
ATOM     34  C   UNL A   1      35.592  34.532  28.998  1.00  0.00     0.014 A 
ATOM     35  C   UNL A   1      35.163  33.077  31.343  1.00  0.00     0.010 A 
ATOM     36  C   UNL A   1      36.667  33.926  29.648  1.00  0.00     0.010 A 
ATOM     37  C   UNL A   1      36.465  33.201  30.832  1.00  0.00    -0.014 A 
BRANCH  37  38
ATOM     38  C   UNL A   1      37.625  32.575  31.516  1.00  0.00     0.031 A 
ATOM     39  C   UNL A   1      38.357  31.425  30.878  1.00  0.00     0.074 A 
ATOM     40  C   UNL A   1      37.963  32.983  32.756  1.00  0.00     0.049 A 
ATOM     41  N   UNL A   1      39.347  30.713  31.351  1.00  0.00    -0.248 NA
ATOM     42  C   UNL A   1      37.900  31.002  29.544  1.00  0.00     0.031 C 
ATOM     43  C   UNL A   1      37.280  34.034  33.514  1.00  0.00     0.029 A 
ATOM     44  N   UNL A   1      38.945  32.544  33.608  1.00  0.00    -0.354 N 
ATOM     45  C   UNL A   1      39.606  29.737  30.396  1.00  0.00     0.074 A 
ATOM     46  C   UNL A   1      38.651  29.931  29.326  1.00  0.00     0.031 C 
ATOM     47  C   UNL A   1      37.859  34.154  34.719  1.00  0.00     0.029 A 
ATOM     48  C   UNL A   1      38.937  33.177  34.830  1.00  0.00     0.049 A 
ATOM     49  H   UNL A   1      39.592  31.842  33.369  1.00  0.00     0.167 HD
ATOM     50  C   UNL A   1      40.568  28.784  30.395  1.00  0.00     0.034 A 
ATOM     51  C   UNL A   1      39.707  32.987  35.920  1.00  0.00     0.034 A 
ATOM     52  C   UNL A   1      41.550  28.628  31.434  1.00  0.00     0.049 A 
ATOM     53  C   UNL A   1      40.806  31.961  35.868  1.00  0.00     0.074 A 
ATOM     54  C   UNL A   1      42.624  27.758  31.480  1.00  0.00     0.029 A 
ATOM     55  N   UNL A   1      41.576  29.358  32.612  1.00  0.00    -0.354 N 
ATOM     56  N   UNL A   1      41.141  31.160  34.885  1.00  0.00    -0.248 NA
ATOM     57  C   UNL A   1      41.660  31.840  37.059  1.00  0.00     0.031 C 
ATOM     58  C   UNL A   1      43.293  27.953  32.694  1.00  0.00     0.029 A 
ATOM     59  C   UNL A   1      42.645  28.957  33.395  1.00  0.00     0.049 A 
ATOM     60  H   UNL A   1      40.930  30.060  32.857  1.00  0.00     0.167 HD
ATOM     61  C   UNL A   1      42.261  30.465  35.325  1.00  0.00     0.074 A 
ATOM     62  C   UNL A   1      42.562  30.955  36.654  1.00  0.00     0.031 C 
ATOM     63  C   UNL A   1      42.967  29.494  34.692  1.00  0.00     0.034 A 
BRANCH  50  64
ATOM     64  C   UNL A   1      40.649  27.870  29.199  1.00  0.00     0.023 A 
ATOM     65  C   UNL A   1      39.780  26.762  29.117  1.00  0.00     0.012 A 
ATOM     66  C   UNL A   1      41.530  28.137  28.133  1.00  0.00     0.148 A 
ATOM     67  C   UNL A   1      39.809  25.916  28.009  1.00  0.00     0.002 A 
ATOM     68  C   UNL A   1      41.525  27.312  27.014  1.00  0.00     0.091 A 
ATOM     69  F   UNL A   1      42.364  29.181  28.238  1.00  0.00    -0.205 F 
ATOM     70  C   UNL A   1      40.673  26.196  26.954  1.00  0.00     0.022 A 
BRANCH  68  71
ATOM     71  S   UNL A   1      42.546  27.632  25.571  1.00  0.00     0.127 S 
ATOM     72  O   UNL A   1      42.049  28.938  25.140  1.00  0.00    -0.237 OA
ATOM     73  O   UNL A   1      43.893  27.651  26.143  1.00  0.00    -0.237 OA
ATOM     74  O   UNL A   1      42.295  26.530  24.652  1.00  0.00    -0.744 OA
ENDBRANCH  68  71
ENDBRANCH  50  64
BRANCH  51  75
ATOM     75  C   UNL A   1      39.513  33.845  37.123  1.00  0.00     0.023 A 
ATOM     76  C   UNL A   1      39.942  35.186  37.087  1.00  0.00     0.012 A 
ATOM     77  C   UNL A   1      38.872  33.359  38.279  1.00  0.00     0.148 A 
ATOM     78  C   UNL A   1      39.762  36.020  38.190  1.00  0.00     0.002 A 
ATOM     79  C   UNL A   1      38.647  34.211  39.356  1.00  0.00     0.091 A 
ATOM     80  F   UNL A   1      38.483  32.077  38.300  1.00  0.00    -0.205 F 
ATOM     81  C   UNL A   1      39.106  35.537  39.320  1.00  0.00     0.022 A 
BRANCH  79  82
ATOM     82  S   UNL A   1      37.690  33.712  40.791  1.00  0.00     0.127 S 
ATOM     83  O   UNL A   1      36.495  33.148  40.174  1.00  0.00    -0.237 OA
ATOM     84  O   UNL A   1      38.577  32.735  41.425  1.00  0.00    -0.237 OA
ATOM     85  O   UNL A   1      37.493  34.929  41.569  1.00  0.00    -0.744 OA
ENDBRANCH  79  82
ENDBRANCH  51  75
BRANCH  63  86
ATOM     86  C   UNL A   1      44.155  28.913  35.411  1.00  0.00     0.023 A 
ATOM     87  C   UNL A   1      45.430  29.483  35.224  1.00  0.00     0.012 A 
ATOM     88  C   UNL A   1      43.996  27.857  36.330  1.00  0.00     0.148 A 
ATOM     89  C   UNL A   1      46.534  28.991  35.920  1.00  0.00     0.002 A 
ATOM     90  C   UNL A   1      45.093  27.403  37.053  1.00  0.00     0.091 A 
ATOM     91  F   UNL A   1      42.779  27.314  36.478  1.00  0.00    -0.205 F 
ATOM     92  C   UNL A   1      46.363  27.962  36.843  1.00  0.00     0.022 A 
BRANCH  90  93
ATOM     93  S   UNL A   1      44.947  26.145  38.328  1.00  0.00     0.127 S 
ATOM     94  O   UNL A   1      44.034  26.784  39.274  1.00  0.00    -0.237 OA
ATOM     95  O   UNL A   1      44.371  25.018  37.591  1.00  0.00    -0.237 OA
ATOM     96  O   UNL A   1      46.299  25.914  38.818  1.00  0.00    -0.744 OA
ENDBRANCH  90  93
ENDBRANCH  63  86
ENDBRANCH  37  38
ENDBRANCH  29  32
ENDBRANCH  27  28
ENDBRANCH   1  27
TORSDOF 16
ENDMDL
MODEL 2
REMARK VINA RESULT:     -12.5      3.830      8.862
REMARK SMILES O=C(NCc1ccc(C(=O)NCCCNC(=O)c2ccc(-c3c4nc(c(-c5cccc(S(=O)(=O)[O-])c5F)c5ccc([nH]5)c(-c5cccc(S(=O)(=O)[O-])c5F)c5nc(c(-c6cccc(S(=O)(=O)[O-])c6F)c6ccc3[nH]6)C=C5)C=C4)cc2)cc1)Nc1ccccc1Br
REMARK SMILES IDX 13 1 12 2 11 3 9 4 10 5 8 7 5 8 6 9 82 10 7 11 81 12 4 13
REMARK SMILES IDX 3 14 1 15 2 16 83 17 84 20 85 21 89 22 86 23 88 24 90 25
REMARK SMILES IDX 87 26 14 27 15 28 16 29 17 31 18 32 19 33 80 34 20 35 79 36
REMARK SMILES IDX 21 37 22 38 23 39 73 40 24 41 78 42 72 43 74 44 25 45 77 46
REMARK SMILES IDX 71 47 70 48 26 50 58 51 38 52 57 53 39 54 42 55 56 56 75 57
REMARK SMILES IDX 40 58 41 59 55 61 76 62 43 63 27 64 28 65 36 66 29 67 31 68
REMARK SMILES IDX 37 69 30 70 32 71 33 72 34 73 35 74 59 75 60 76 68 77 61 78
REMARK SMILES IDX 63 79 69 80 62 81 64 82 65 83 66 84 67 85 44 86 45 87 53 88
REMARK SMILES IDX 46 89 48 90 54 91 47 92 49 93 50 94 51 95 52 96
REMARK H PARENT 11 6 3 18 83 19 15 30 74 49 42 60
REMARK Flexibility Score: inf
ROOT
ATOM      1  C   UNL A   1      33.105  28.900  24.903  1.00  0.00     0.042 C 
ENDROOT
BRANCH   1   2
ATOM      2  C   UNL A   1      31.792  29.678  24.991  1.00  0.00     0.118 C 
BRANCH   2   3
ATOM      3  N   UNL A   1      31.179  29.840  23.684  1.00  0.00    -0.352 N 
ATOM      4  C   UNL A   1      30.633  28.934  22.811  1.00  0.00     0.251 C 
ATOM      5  O   UNL A   1      30.060  29.374  21.812  1.00  0.00    -0.269 OA
ATOM      6  H   UNL A   1      31.151  30.771  23.367  1.00  0.00     0.163 HD
BRANCH   4   7
ATOM      7  C   UNL A   1      30.641  27.466  23.051  1.00  0.00     0.039 A 
ATOM      8  C   UNL A   1      30.768  24.663  23.359  1.00  0.00    -0.029 A 
ATOM      9  C   UNL A   1      31.636  25.321  22.479  1.00  0.00     0.006 A 
ATOM     10  C   UNL A   1      29.883  25.427  24.129  1.00  0.00     0.006 A 
ATOM     11  C   UNL A   1      31.570  26.708  22.326  1.00  0.00     0.014 A 
ATOM     12  C   UNL A   1      29.831  26.819  23.986  1.00  0.00     0.014 A 
BRANCH   8  13
ATOM     13  C   UNL A   1      30.809  23.166  23.497  1.00  0.00     0.153 C 
BRANCH  13  14
ATOM     14  N   UNL A   1      31.261  22.763  24.809  1.00  0.00    -0.334 N 
ATOM     15  O   UNL A   1      32.596  22.049  26.426  1.00  0.00    -0.248 OA
ATOM     16  C   UNL A   1      32.480  22.347  25.241  1.00  0.00     0.319 C 
ATOM     17  N   UNL A   1      33.491  22.369  24.323  1.00  0.00    -0.307 N 
ATOM     18  H   UNL A   1      30.568  22.795  25.507  1.00  0.00     0.165 HD
ATOM     19  H   UNL A   1      33.309  22.823  23.469  1.00  0.00     0.171 HD
BRANCH  17  20
ATOM     20  C   UNL A   1      34.776  21.799  24.489  1.00  0.00     0.057 A 
ATOM     21  C   UNL A   1      35.853  22.688  24.333  1.00  0.00     0.027 A 
ATOM     22  C   UNL A   1      35.054  20.446  24.752  1.00  0.00     0.041 A 
ATOM     23  C   UNL A   1      37.172  22.264  24.514  1.00  0.00     0.002 A 
ATOM     24  C   UNL A   1      36.381  20.029  24.937  1.00  0.00     0.018 A 
ATOM     25  Br  UNL A   1      33.760  19.053  24.653  1.00  0.00    -0.049 Br
ATOM     26  C   UNL A   1      37.434  20.936  24.832  1.00  0.00     0.001 A 
ENDBRANCH  17  20
ENDBRANCH  13  14
ENDBRANCH   8  13
ENDBRANCH   4   7
ENDBRANCH   2   3
ENDBRANCH   1   2
BRANCH   1  27
ATOM     27  C   UNL A   1      34.006  29.076  26.124  1.00  0.00     0.118 C 
BRANCH  27  28
ATOM     28  N   UNL A   1      33.825  30.376  26.758  1.00  0.00    -0.352 N 
ATOM     29  C   UNL A   1      34.524  30.960  27.784  1.00  0.00     0.251 C 
ATOM     30  H   UNL A   1      33.087  30.917  26.394  1.00  0.00     0.163 HD
ATOM     31  O   UNL A   1      34.074  31.973  28.314  1.00  0.00    -0.269 OA
BRANCH  29  32
ATOM     32  C   UNL A   1      35.802  30.384  28.260  1.00  0.00     0.039 A 
ATOM     33  C   UNL A   1      36.953  30.569  27.486  1.00  0.00     0.014 A 
ATOM     34  C   UNL A   1      35.867  29.624  29.430  1.00  0.00     0.014 A 
ATOM     35  C   UNL A   1      38.173  30.032  27.908  1.00  0.00     0.010 A 
ATOM     36  C   UNL A   1      37.095  29.143  29.883  1.00  0.00     0.010 A 
ATOM     37  C   UNL A   1      38.259  29.333  29.123  1.00  0.00    -0.014 A 
BRANCH  37  38
ATOM     38  C   UNL A   1      39.554  28.801  29.617  1.00  0.00     0.031 A 
ATOM     39  C   UNL A   1      40.294  29.503  30.723  1.00  0.00     0.074 A 
ATOM     40  C   UNL A   1      40.109  27.736  29.005  1.00  0.00     0.049 A 
ATOM     41  N   UNL A   1      41.463  29.225  31.240  1.00  0.00    -0.248 NA
ATOM     42  C   UNL A   1      39.648  30.689  31.310  1.00  0.00     0.031 C 
ATOM     43  C   UNL A   1      39.529  27.017  27.868  1.00  0.00     0.029 A 
ATOM     44  N   UNL A   1      41.300  27.091  29.233  1.00  0.00    -0.354 N 
ATOM     45  C   UNL A   1      41.711  30.218  32.181  1.00  0.00     0.074 A 
ATOM     46  C   UNL A   1      40.582  31.122  32.146  1.00  0.00     0.031 C 
ATOM     47  C   UNL A   1      40.365  26.036  27.495  1.00  0.00     0.029 A 
ATOM     48  C   UNL A   1      41.550  26.068  28.347  1.00  0.00     0.049 A 
ATOM     49  H   UNL A   1      41.916  27.338  29.959  1.00  0.00     0.167 HD
ATOM     50  C   UNL A   1      42.767  30.350  33.017  1.00  0.00     0.034 A 
ATOM     51  C   UNL A   1      42.616  25.251  28.231  1.00  0.00     0.034 A 
ATOM     52  C   UNL A   1      43.862  29.420  33.087  1.00  0.00     0.049 A 
ATOM     53  C   UNL A   1      43.748  25.384  29.212  1.00  0.00     0.074 A 
ATOM     54  C   UNL A   1      44.930  29.412  33.966  1.00  0.00     0.029 A 
ATOM     55  N   UNL A   1      44.030  28.333  32.243  1.00  0.00    -0.354 N 
ATOM     56  N   UNL A   1      43.884  26.229  30.205  1.00  0.00    -0.248 NA
ATOM     57  C   UNL A   1      44.856  24.426  29.083  1.00  0.00     0.031 C 
ATOM     58  C   UNL A   1      45.753  28.326  33.644  1.00  0.00     0.029 A 
ATOM     59  C   UNL A   1      45.187  27.648  32.576  1.00  0.00     0.049 A 
ATOM     60  H   UNL A   1      43.418  28.084  31.514  1.00  0.00     0.167 HD
ATOM     61  C   UNL A   1      45.073  25.885  30.838  1.00  0.00     0.074 A 
ATOM     62  C   UNL A   1      45.608  24.740  30.130  1.00  0.00     0.031 C 
ATOM     63  C   UNL A   1      45.677  26.476  31.900  1.00  0.00     0.034 A 
BRANCH  50  64
ATOM     64  C   UNL A   1      42.763  31.514  33.975  1.00  0.00     0.023 A 
ATOM     65  C   UNL A   1      43.300  32.751  33.562  1.00  0.00     0.012 A 
ATOM     66  C   UNL A   1      42.174  31.408  35.250  1.00  0.00     0.148 A 
ATOM     67  C   UNL A   1      43.283  33.855  34.413  1.00  0.00     0.002 A 
ATOM     68  C   UNL A   1      42.124  32.524  36.078  1.00  0.00     0.091 A 
ATOM     69  F   UNL A   1      41.688  30.220  35.635  1.00  0.00    -0.205 F 
ATOM     70  C   UNL A   1      42.686  33.744  35.667  1.00  0.00     0.022 A 
BRANCH  68  71
ATOM     71  S   UNL A   1      41.310  32.506  37.680  1.00  0.00     0.127 S 
ATOM     72  O   UNL A   1      41.359  33.918  38.053  1.00  0.00    -0.237 OA
ATOM     73  O   UNL A   1      39.974  32.010  37.343  1.00  0.00    -0.237 OA
ATOM     74  O   UNL A   1      42.094  31.608  38.516  1.00  0.00    -0.744 OA
ENDBRANCH  68  71
ENDBRANCH  50  64
BRANCH  51  75
ATOM     75  C   UNL A   1      42.621  24.184  27.191  1.00  0.00     0.023 A 
ATOM     76  C   UNL A   1      43.261  24.427  25.960  1.00  0.00     0.012 A 
ATOM     77  C   UNL A   1      42.039  22.923  27.425  1.00  0.00     0.148 A 
ATOM     78  C   UNL A   1      43.297  23.444  24.970  1.00  0.00     0.002 A 
ATOM     79  C   UNL A   1      42.125  21.929  26.456  1.00  0.00     0.091 A 
ATOM     80  F   UNL A   1      41.423  22.715  28.597  1.00  0.00    -0.205 F 
ATOM     81  C   UNL A   1      42.739  22.193  25.221  1.00  0.00     0.022 A 
BRANCH  79  82
ATOM     82  S   UNL A   1      41.558  20.251  26.748  1.00  0.00     0.127 S 
ATOM     83  O   UNL A   1      40.131  20.451  26.976  1.00  0.00    -0.237 OA
ATOM     84  O   UNL A   1      41.894  19.591  25.485  1.00  0.00    -0.237 OA
ATOM     85  O   UNL A   1      42.327  19.774  27.891  1.00  0.00    -0.744 OA
ENDBRANCH  79  82
ENDBRANCH  51  75
BRANCH  63  86
ATOM     86  C   UNL A   1      46.972  25.881  32.386  1.00  0.00     0.023 A 
ATOM     87  C   UNL A   1      46.966  25.013  33.497  1.00  0.00     0.012 A 
ATOM     88  C   UNL A   1      48.177  26.116  31.697  1.00  0.00     0.148 A 
ATOM     89  C   UNL A   1      48.147  24.412  33.931  1.00  0.00     0.002 A 
ATOM     90  C   UNL A   1      49.342  25.478  32.109  1.00  0.00     0.091 A 
ATOM     91  F   UNL A   1      48.166  26.961  30.656  1.00  0.00    -0.205 F 
ATOM     92  C   UNL A   1      49.330  24.633  33.230  1.00  0.00     0.022 A 
BRANCH  90  93
ATOM     93  S   UNL A   1      50.890  25.633  31.209  1.00  0.00     0.127 S 
ATOM     94  O   UNL A   1      51.746  24.689  31.924  1.00  0.00    -0.237 OA
ATOM     95  O   UNL A   1      50.510  25.212  29.859  1.00  0.00    -0.237 OA
ATOM     96  O   UNL A   1      51.274  27.034  31.316  1.00  0.00    -0.744 OA
ENDBRANCH  90  93
ENDBRANCH  63  86
ENDBRANCH  37  38
ENDBRANCH  29  32
ENDBRANCH  27  28
ENDBRANCH   1  27
TORSDOF 16
ENDMDL
MODEL 3
REMARK VINA RESULT:     -12.4      2.425      7.906
REMARK SMILES O=C(NCc1ccc(C(=O)NCCCNC(=O)c2ccc(-c3c4nc(c(-c5cccc(S(=O)(=O)[O-])c5F)c5ccc([nH]5)c(-c5cccc(S(=O)(=O)[O-])c5F)c5nc(c(-c6cccc(S(=O)(=O)[O-])c6F)c6ccc3[nH]6)C=C5)C=C4)cc2)cc1)Nc1ccccc1Br
REMARK SMILES IDX 13 1 12 2 11 3 9 4 10 5 8 7 5 8 6 9 82 10 7 11 81 12 4 13
REMARK SMILES IDX 3 14 1 15 2 16 83 17 84 20 85 21 89 22 86 23 88 24 90 25
REMARK SMILES IDX 87 26 14 27 15 28 16 29 17 31 18 32 19 33 80 34 20 35 79 36
REMARK SMILES IDX 21 37 22 38 23 39 73 40 24 41 78 42 72 43 74 44 25 45 77 46
REMARK SMILES IDX 71 47 70 48 26 50 58 51 38 52 57 53 39 54 42 55 56 56 75 57
REMARK SMILES IDX 40 58 41 59 55 61 76 62 43 63 27 64 28 65 36 66 29 67 31 68
REMARK SMILES IDX 37 69 30 70 32 71 33 72 34 73 35 74 59 75 60 76 68 77 61 78
REMARK SMILES IDX 63 79 69 80 62 81 64 82 65 83 66 84 67 85 44 86 45 87 53 88
REMARK SMILES IDX 46 89 48 90 54 91 47 92 49 93 50 94 51 95 52 96
REMARK H PARENT 11 6 3 18 83 19 15 30 74 49 42 60
REMARK Flexibility Score: inf
ROOT
ATOM      1  C   UNL A   1      31.546  30.062  25.014  1.00  0.00     0.042 C 
ENDROOT
BRANCH   1   2
ATOM      2  C   UNL A   1      30.245  30.767  24.633  1.00  0.00     0.118 C 
BRANCH   2   3
ATOM      3  N   UNL A   1      29.984  30.674  23.208  1.00  0.00    -0.352 N 
ATOM      4  C   UNL A   1      29.806  29.596  22.378  1.00  0.00     0.251 C 
ATOM      5  O   UNL A   1      29.468  29.817  21.214  1.00  0.00    -0.269 OA
ATOM      6  H   UNL A   1      29.924  31.545  22.753  1.00  0.00     0.163 HD
BRANCH   4   7
ATOM      7  C   UNL A   1      29.935  28.187  22.837  1.00  0.00     0.039 A 
ATOM      8  C   UNL A   1      30.334  25.500  23.604  1.00  0.00    -0.029 A 
ATOM      9  C   UNL A   1      31.337  26.200  22.922  1.00  0.00     0.006 A 
ATOM     10  C   UNL A   1      29.158  26.176  23.953  1.00  0.00     0.006 A 
ATOM     11  C   UNL A   1      31.137  27.529  22.542  1.00  0.00     0.014 A 
ATOM     12  C   UNL A   1      28.968  27.513  23.585  1.00  0.00     0.014 A 
BRANCH   8  13
ATOM     13  C   UNL A   1      30.529  24.057  23.980  1.00  0.00     0.153 C 
BRANCH  13  14
ATOM     14  N   UNL A   1      31.188  23.316  22.931  1.00  0.00    -0.334 N 
ATOM     15  O   UNL A   1      32.721  22.121  21.867  1.00  0.00    -0.248 OA
ATOM     16  C   UNL A   1      32.387  22.676  22.910  1.00  0.00     0.319 C 
ATOM     17  N   UNL A   1      33.082  22.650  24.085  1.00  0.00    -0.307 N 
ATOM     18  H   UNL A   1      30.683  23.265  22.087  1.00  0.00     0.165 HD
ATOM     19  H   UNL A   1      32.608  22.954  24.892  1.00  0.00     0.171 HD
BRANCH  17  20
ATOM     20  C   UNL A   1      34.422  22.224  24.248  1.00  0.00     0.057 A 
ATOM     21  C   UNL A   1      35.401  23.155  23.861  1.00  0.00     0.027 A 
ATOM     22  C   UNL A   1      34.840  20.966  24.716  1.00  0.00     0.041 A 
ATOM     23  C   UNL A   1      36.762  22.878  24.011  1.00  0.00     0.002 A 
ATOM     24  C   UNL A   1      36.209  20.697  24.868  1.00  0.00     0.018 A 
ATOM     25  Br  UNL A   1      33.678  19.477  24.955  1.00  0.00    -0.049 Br
ATOM     26  C   UNL A   1      37.165  21.654  24.530  1.00  0.00     0.001 A 
ENDBRANCH  17  20
ENDBRANCH  13  14
ENDBRANCH   8  13
ENDBRANCH   4   7
ENDBRANCH   2   3
ENDBRANCH   1   2
BRANCH   1  27
ATOM     27  C   UNL A   1      32.076  30.453  26.393  1.00  0.00     0.118 C 
BRANCH  27  28
ATOM     28  N   UNL A   1      32.092  31.897  26.586  1.00  0.00    -0.352 N 
ATOM     29  C   UNL A   1      32.891  32.669  27.391  1.00  0.00     0.251 C 
ATOM     30  H   UNL A   1      31.426  32.394  26.058  1.00  0.00     0.163 HD
ATOM     31  O   UNL A   1      32.599  33.849  27.570  1.00  0.00    -0.269 OA
BRANCH  29  32
ATOM     32  C   UNL A   1      34.090  32.098  28.046  1.00  0.00     0.039 A 
ATOM     33  C   UNL A   1      35.152  32.951  28.367  1.00  0.00     0.014 A 
ATOM     34  C   UNL A   1      34.200  30.728  28.298  1.00  0.00     0.014 A 
ATOM     35  C   UNL A   1      36.298  32.439  28.981  1.00  0.00     0.010 A 
ATOM     36  C   UNL A   1      35.316  30.228  28.967  1.00  0.00     0.010 A 
ATOM     37  C   UNL A   1      36.381  31.076  29.307  1.00  0.00    -0.014 A 
BRANCH  37  38
ATOM     38  C   UNL A   1      37.567  30.520  30.007  1.00  0.00     0.031 A 
ATOM     39  C   UNL A   1      37.902  30.963  31.406  1.00  0.00     0.074 A 
ATOM     40  C   UNL A   1      38.394  29.685  29.348  1.00  0.00     0.049 A 
ATOM     41  N   UNL A   1      38.928  30.639  32.150  1.00  0.00    -0.248 NA
ATOM     42  C   UNL A   1      36.979  31.916  32.044  1.00  0.00     0.031 C 
ATOM     43  C   UNL A   1      38.221  29.244  27.963  1.00  0.00     0.029 A 
ATOM     44  N   UNL A   1      39.562  29.082  29.745  1.00  0.00    -0.354 N 
ATOM     45  C   UNL A   1      38.796  31.373  33.323  1.00  0.00     0.074 A 
ATOM     46  C   UNL A   1      37.604  32.181  33.183  1.00  0.00     0.031 C 
ATOM     47  C   UNL A   1      39.247  28.446  27.623  1.00  0.00     0.029 A 
ATOM     48  C   UNL A   1      40.161  28.337  28.756  1.00  0.00     0.049 A 
ATOM     49  H   UNL A   1      39.936  29.174  30.651  1.00  0.00     0.167 HD
ATOM     50  C   UNL A   1      39.579  31.356  34.428  1.00  0.00     0.034 A 
ATOM     51  C   UNL A   1      41.320  27.648  28.757  1.00  0.00     0.034 A 
ATOM     52  C   UNL A   1      40.733  30.512  34.586  1.00  0.00     0.049 A 
ATOM     53  C   UNL A   1      42.138  27.599  30.018  1.00  0.00     0.074 A 
ATOM     54  C   UNL A   1      41.534  30.350  35.701  1.00  0.00     0.029 A 
ATOM     55  N   UNL A   1      41.251  29.689  33.598  1.00  0.00    -0.354 N 
ATOM     56  N   UNL A   1      41.906  28.171  31.176  1.00  0.00    -0.248 NA
ATOM     57  C   UNL A   1      43.359  26.780  29.988  1.00  0.00     0.031 C 
ATOM     58  C   UNL A   1      42.547  29.437  35.383  1.00  0.00     0.029 A 
ATOM     59  C   UNL A   1      42.365  29.019  34.074  1.00  0.00     0.049 A 
ATOM     60  H   UNL A   1      40.882  29.595  32.690  1.00  0.00     0.167 HD
ATOM     61  C   UNL A   1      42.929  27.754  32.019  1.00  0.00     0.074 A 
ATOM     62  C   UNL A   1      43.772  26.865  31.246  1.00  0.00     0.031 C 
ATOM     63  C   UNL A   1      43.160  28.092  33.312  1.00  0.00     0.034 A 
BRANCH  50  64
ATOM     64  C   UNL A   1      39.178  32.234  35.585  1.00  0.00     0.023 A 
ATOM     65  C   UNL A   1      38.319  31.719  36.578  1.00  0.00     0.012 A 
ATOM     66  C   UNL A   1      39.696  33.537  35.728  1.00  0.00     0.148 A 
ATOM     67  C   UNL A   1      37.954  32.496  37.677  1.00  0.00     0.002 A 
ATOM     68  C   UNL A   1      39.360  34.291  36.847  1.00  0.00     0.091 A 
ATOM     69  F   UNL A   1      40.493  34.017  34.765  1.00  0.00    -0.205 F 
ATOM     70  C   UNL A   1      38.482  33.777  37.816  1.00  0.00     0.022 A 
BRANCH  68  71
ATOM     71  S   UNL A   1      40.047  35.921  37.158  1.00  0.00     0.127 S 
ATOM     72  O   UNL A   1      39.355  36.304  38.387  1.00  0.00    -0.237 OA
ATOM     73  O   UNL A   1      41.472  35.630  37.326  1.00  0.00    -0.237 OA
ATOM     74  O   UNL A   1      39.729  36.720  35.983  1.00  0.00    -0.744 OA
ENDBRANCH  68  71
ENDBRANCH  50  64
BRANCH  51  75
ATOM     75  C   UNL A   1      41.729  26.884  27.545  1.00  0.00     0.023 A 
ATOM     76  C   UNL A   1      42.310  27.573  26.463  1.00  0.00     0.012 A 
ATOM     77  C   UNL A   1      41.589  25.485  27.473  1.00  0.00     0.148 A 
ATOM     78  C   UNL A   1      42.718  26.886  25.319  1.00  0.00     0.002 A 
ATOM     79  C   UNL A   1      42.046  24.799  26.353  1.00  0.00     0.091 A 
ATOM     80  F   UNL A   1      41.021  24.849  28.507  1.00  0.00    -0.205 F 
ATOM     81  C   UNL A   1      42.596  25.499  25.267  1.00  0.00     0.022 A 
BRANCH  79  82
ATOM     82  S   UNL A   1      42.056  23.006  26.261  1.00  0.00     0.127 S 
ATOM     83  O   UNL A   1      40.633  22.694  26.333  1.00  0.00    -0.237 OA
ATOM     84  O   UNL A   1      42.674  22.770  24.955  1.00  0.00    -0.237 OA
ATOM     85  O   UNL A   1      42.865  22.563  27.390  1.00  0.00    -0.744 OA
ENDBRANCH  79  82
ENDBRANCH  51  75
BRANCH  63  86
ATOM     86  C   UNL A   1      44.356  27.478  33.991  1.00  0.00     0.023 A 
ATOM     87  C   UNL A   1      45.602  28.133  33.935  1.00  0.00     0.012 A 
ATOM     88  C   UNL A   1      44.227  26.298  34.750  1.00  0.00     0.148 A 
ATOM     89  C   UNL A   1      46.709  27.606  34.600  1.00  0.00     0.002 A 
ATOM     90  C   UNL A   1      45.324  25.804  35.447  1.00  0.00     0.091 A 
ATOM     91  F   UNL A   1      43.038  25.679  34.774  1.00  0.00    -0.205 F 
ATOM     92  C   UNL A   1      46.567  26.452  35.365  1.00  0.00     0.022 A 
BRANCH  90  93
ATOM     93  S   UNL A   1      45.208  24.376  36.530  1.00  0.00     0.127 S 
ATOM     94  O   UNL A   1      46.588  24.238  36.992  1.00  0.00    -0.237 OA
ATOM     95  O   UNL A   1      44.265  24.834  37.553  1.00  0.00    -0.237 OA
ATOM     96  O   UNL A   1      44.711  23.286  35.701  1.00  0.00    -0.744 OA
ENDBRANCH  90  93
ENDBRANCH  63  86
ENDBRANCH  37  38
ENDBRANCH  29  32
ENDBRANCH  27  28
ENDBRANCH   1  27
TORSDOF 16
ENDMDL
