MODEL 1
REMARK VINA RESULT:     -13.9      0.000      0.000
REMARK SMILES Cc1cc(C(=O)NCCCNC(=O)c2ccc(-c3c4nc(c(-c5cccc(S(=O)(=O)[O-])c5F)c5ccc([nH]5)c(-c5cccc(S(=O)(=O)[O-])c5F)c5nc(c(-c6cccc(S(=O)(=O)[O-])c6F)c6ccc3[nH]6)C=C5)C=C4)cc2)ccc1NC(=O)N1C[C@@H](C)[C@H](C)C1
REMARK SMILES IDX 10 1 9 2 8 3 7 4 5 5 6 6 4 8 1 9 2 10 3 11 79 12 78 13 77 14
REMARK SMILES IDX 80 15 81 16 82 18 83 19 84 20 89 21 85 22 87 23 86 24 88 25
REMARK SMILES IDX 11 26 12 27 13 29 14 30 15 31 76 32 16 33 75 34 17 35 18 36
REMARK SMILES IDX 19 37 69 38 20 39 74 40 68 41 70 42 21 43 73 44 67 45 66 46
REMARK SMILES IDX 22 48 54 49 34 50 53 51 35 52 38 53 52 54 71 55 36 56 37 57
REMARK SMILES IDX 51 59 72 60 39 61 23 62 24 63 32 64 25 65 27 66 33 67 26 68
REMARK SMILES IDX 28 69 29 70 30 71 31 72 55 73 56 74 64 75 57 76 59 77 65 78
REMARK SMILES IDX 58 79 60 80 61 81 62 82 63 83 40 84 41 85 49 86 42 87 44 88
REMARK SMILES IDX 50 89 43 90 45 91 46 92 47 93 48 94
REMARK H PARENT 7 7 80 17 11 28 70 47 38 58
REMARK Flexibility Score: inf
ROOT
ATOM      1  C   UNL A   1      34.446  30.533  27.599  1.00  0.00     0.118 C 
ENDROOT
BRANCH   1   2
ATOM      2  C   UNL A   1      33.079  31.185  27.457  1.00  0.00     0.042 C 
BRANCH   2   3
ATOM      3  C   UNL A   1      32.213  30.618  26.330  1.00  0.00     0.118 C 
BRANCH   3   4
ATOM      4  N   UNL A   1      32.905  30.387  25.067  1.00  0.00    -0.352 N 
ATOM      5  C   UNL A   1      32.948  29.244  24.289  1.00  0.00     0.251 C 
ATOM      6  O   UNL A   1      33.269  29.308  23.106  1.00  0.00    -0.269 OA
ATOM      7  H   UNL A   1      33.414  31.155  24.718  1.00  0.00     0.163 HD
BRANCH   5   8
ATOM      8  C   UNL A   1      32.566  27.927  24.858  1.00  0.00     0.040 A 
ATOM      9  C   UNL A   1      29.503  25.709  25.084  1.00  0.00     0.046 C 
ATOM     10  C   UNL A   1      30.861  26.264  25.414  1.00  0.00    -0.027 A 
ATOM     11  C   UNL A   1      31.251  27.462  24.771  1.00  0.00     0.019 A 
ATOM     12  C   UNL A   1      31.793  25.613  26.242  1.00  0.00     0.045 A 
ATOM     13  C   UNL A   1      33.138  25.970  26.129  1.00  0.00     0.027 A 
ATOM     14  C   UNL A   1      33.522  27.089  25.407  1.00  0.00     0.016 A 
BRANCH  12  15
ATOM     15  N   UNL A   1      31.412  24.593  27.137  1.00  0.00    -0.308 N 
ATOM     16  C   UNL A   1      31.218  23.262  26.879  1.00  0.00     0.321 C 
ATOM     17  H   UNL A   1      31.265  24.874  28.069  1.00  0.00     0.171 HD
ATOM     18  O   UNL A   1      30.392  22.638  27.545  1.00  0.00    -0.248 OA
ATOM     19  N   UNL A   1      31.975  22.660  25.902  1.00  0.00    -0.324 N 
ATOM     20  C   UNL A   1      31.479  21.521  25.154  1.00  0.00     0.125 C 
ATOM     21  C   UNL A   1      33.426  22.782  25.785  1.00  0.00     0.125 C 
ATOM     22  C   UNL A   1      32.719  20.727  24.751  1.00  0.00     0.010 C 
ATOM     23  C   UNL A   1      33.825  21.797  24.679  1.00  0.00     0.010 C 
ATOM     24  C   UNL A   1      32.533  19.974  23.441  1.00  0.00     0.010 C 
ATOM     25  C   UNL A   1      35.227  21.218  24.857  1.00  0.00     0.010 C 
ENDBRANCH  12  15
ENDBRANCH   5   8
ENDBRANCH   3   4
ENDBRANCH   2   3
ENDBRANCH   1   2
BRANCH   1  26
ATOM     26  N   UNL A   1      35.431  31.485  28.129  1.00  0.00    -0.352 N 
ATOM     27  C   UNL A   1      36.754  31.277  28.472  1.00  0.00     0.251 C 
ATOM     28  H   UNL A   1      35.101  32.404  28.258  1.00  0.00     0.163 HD
ATOM     29  O   UNL A   1      37.450  32.206  28.870  1.00  0.00    -0.269 OA
BRANCH  27  30
ATOM     30  C   UNL A   1      37.307  29.929  28.251  1.00  0.00     0.039 A 
ATOM     31  C   UNL A   1      37.361  29.073  29.352  1.00  0.00     0.014 A 
ATOM     32  C   UNL A   1      38.097  29.720  27.124  1.00  0.00     0.014 A 
ATOM     33  C   UNL A   1      38.414  28.172  29.444  1.00  0.00     0.010 A 
ATOM     34  C   UNL A   1      39.189  28.887  27.253  1.00  0.00     0.010 A 
ATOM     35  C   UNL A   1      39.387  28.184  28.448  1.00  0.00    -0.014 A 
BRANCH  35  36
ATOM     36  C   UNL A   1      40.658  27.488  28.566  1.00  0.00     0.031 A 
ATOM     37  C   UNL A   1      40.682  26.027  28.430  1.00  0.00     0.074 A 
ATOM     38  C   UNL A   1      41.809  28.169  28.759  1.00  0.00     0.049 A 
ATOM     39  N   UNL A   1      41.627  25.274  28.874  1.00  0.00    -0.248 NA
ATOM     40  C   UNL A   1      39.575  25.298  27.831  1.00  0.00     0.031 C 
ATOM     41  C   UNL A   1      43.169  27.669  28.603  1.00  0.00     0.029 A 
ATOM     42  N   UNL A   1      41.966  29.403  29.390  1.00  0.00    -0.354 N 
ATOM     43  C   UNL A   1      41.410  24.013  28.365  1.00  0.00     0.074 A 
ATOM     44  C   UNL A   1      40.068  24.059  27.835  1.00  0.00     0.031 C 
ATOM     45  C   UNL A   1      43.991  28.418  29.354  1.00  0.00     0.029 A 
ATOM     46  C   UNL A   1      43.159  29.312  30.138  1.00  0.00     0.049 A 
ATOM     47  H   UNL A   1      41.367  30.182  29.326  1.00  0.00     0.167 HD
ATOM     48  C   UNL A   1      42.460  23.145  28.312  1.00  0.00     0.034 A 
ATOM     49  C   UNL A   1      43.225  29.492  31.490  1.00  0.00     0.034 A 
ATOM     50  C   UNL A   1      43.632  23.685  29.030  1.00  0.00     0.049 A 
ATOM     51  C   UNL A   1      43.811  28.296  32.234  1.00  0.00     0.074 A 
ATOM     52  C   UNL A   1      44.816  24.290  28.636  1.00  0.00     0.029 A 
ATOM     53  N   UNL A   1      43.545  23.885  30.402  1.00  0.00    -0.354 N 
ATOM     54  N   UNL A   1      44.255  27.205  31.670  1.00  0.00    -0.248 NA
ATOM     55  C   UNL A   1      43.807  28.199  33.692  1.00  0.00     0.031 C 
ATOM     56  C   UNL A   1      45.428  24.872  29.787  1.00  0.00     0.029 A 
ATOM     57  C   UNL A   1      44.631  24.603  30.884  1.00  0.00     0.049 A 
ATOM     58  H   UNL A   1      42.805  23.557  30.962  1.00  0.00     0.167 HD
ATOM     59  C   UNL A   1      44.416  26.226  32.625  1.00  0.00     0.074 A 
ATOM     60  C   UNL A   1      44.133  26.911  33.876  1.00  0.00     0.031 C 
ATOM     61  C   UNL A   1      44.686  24.917  32.310  1.00  0.00     0.034 A 
BRANCH  48  62
ATOM     62  C   UNL A   1      42.541  21.953  27.364  1.00  0.00     0.023 A 
ATOM     63  C   UNL A   1      41.669  20.869  27.614  1.00  0.00     0.012 A 
ATOM     64  C   UNL A   1      43.459  21.760  26.305  1.00  0.00     0.148 A 
ATOM     65  C   UNL A   1      41.777  19.643  26.944  1.00  0.00     0.002 A 
ATOM     66  C   UNL A   1      43.616  20.518  25.681  1.00  0.00     0.091 A 
ATOM     67  F   UNL A   1      44.138  22.794  25.811  1.00  0.00    -0.205 F 
ATOM     68  C   UNL A   1      42.777  19.453  26.005  1.00  0.00     0.022 A 
BRANCH  66  69
ATOM     69  S   UNL A   1      44.937  20.191  24.497  1.00  0.00     0.127 S 
ATOM     70  O   UNL A   1      44.740  18.769  24.204  1.00  0.00    -0.237 OA
ATOM     71  O   UNL A   1      44.602  21.091  23.396  1.00  0.00    -0.237 OA
ATOM     72  O   UNL A   1      46.188  20.486  25.185  1.00  0.00    -0.744 OA
ENDBRANCH  66  69
ENDBRANCH  48  62
BRANCH  49  73
ATOM     73  C   UNL A   1      42.128  30.367  32.014  1.00  0.00     0.023 A 
ATOM     74  C   UNL A   1      42.035  31.676  31.477  1.00  0.00     0.012 A 
ATOM     75  C   UNL A   1      41.000  29.816  32.640  1.00  0.00     0.148 A 
ATOM     76  C   UNL A   1      40.800  32.318  31.378  1.00  0.00     0.002 A 
ATOM     77  C   UNL A   1      39.779  30.478  32.566  1.00  0.00     0.091 A 
ATOM     78  F   UNL A   1      41.094  28.618  33.229  1.00  0.00    -0.205 F 
ATOM     79  C   UNL A   1      39.661  31.696  31.882  1.00  0.00     0.022 A 
BRANCH  77  80
ATOM     80  S   UNL A   1      38.310  29.707  33.250  1.00  0.00     0.127 S 
ATOM     81  O   UNL A   1      38.459  30.005  34.671  1.00  0.00    -0.237 OA
ATOM     82  O   UNL A   1      37.228  30.426  32.580  1.00  0.00    -0.237 OA
ATOM     83  O   UNL A   1      38.431  28.310  32.857  1.00  0.00    -0.744 OA
ENDBRANCH  77  80
ENDBRANCH  49  73
BRANCH  61  84
ATOM     84  C   UNL A   1      44.945  23.795  33.318  1.00  0.00     0.023 A 
ATOM     85  C   UNL A   1      43.914  22.964  33.799  1.00  0.00     0.012 A 
ATOM     86  C   UNL A   1      46.227  23.579  33.896  1.00  0.00     0.148 A 
ATOM     87  C   UNL A   1      44.154  21.890  34.666  1.00  0.00     0.002 A 
ATOM     88  C   UNL A   1      46.463  22.530  34.784  1.00  0.00     0.091 A 
ATOM     89  F   UNL A   1      47.228  24.427  33.637  1.00  0.00    -0.205 F 
ATOM     90  C   UNL A   1      45.435  21.659  35.143  1.00  0.00     0.022 A 
BRANCH  88  91
ATOM     91  S   UNL A   1      48.068  22.251  35.549  1.00  0.00     0.127 S 
ATOM     92  O   UNL A   1      48.241  23.480  36.322  1.00  0.00    -0.237 OA
ATOM     93  O   UNL A   1      47.816  21.055  36.354  1.00  0.00    -0.237 OA
ATOM     94  O   UNL A   1      49.014  22.062  34.458  1.00  0.00    -0.744 OA
ENDBRANCH  88  91
ENDBRANCH  61  84
ENDBRANCH  35  36
ENDBRANCH  27  30
ENDBRANCH   1  26
TORSDOF 14
ENDMDL
MODEL 2
REMARK VINA RESULT:     -13.9      1.435      1.878
REMARK SMILES Cc1cc(C(=O)NCCCNC(=O)c2ccc(-c3c4nc(c(-c5cccc(S(=O)(=O)[O-])c5F)c5ccc([nH]5)c(-c5cccc(S(=O)(=O)[O-])c5F)c5nc(c(-c6cccc(S(=O)(=O)[O-])c6F)c6ccc3[nH]6)C=C5)C=C4)cc2)ccc1NC(=O)N1C[C@@H](C)[C@H](C)C1
REMARK SMILES IDX 10 1 9 2 8 3 7 4 5 5 6 6 4 8 1 9 2 10 3 11 79 12 78 13 77 14
REMARK SMILES IDX 80 15 81 16 82 18 83 19 84 20 89 21 85 22 87 23 86 24 88 25
REMARK SMILES IDX 11 26 12 27 13 29 14 30 15 31 76 32 16 33 75 34 17 35 18 36
REMARK SMILES IDX 19 37 69 38 20 39 74 40 68 41 70 42 21 43 73 44 67 45 66 46
REMARK SMILES IDX 22 48 54 49 34 50 53 51 35 52 38 53 52 54 71 55 36 56 37 57
REMARK SMILES IDX 51 59 72 60 39 61 23 62 24 63 32 64 25 65 27 66 33 67 26 68
REMARK SMILES IDX 28 69 29 70 30 71 31 72 55 73 56 74 64 75 57 76 59 77 65 78
REMARK SMILES IDX 58 79 60 80 61 81 62 82 63 83 40 84 41 85 49 86 42 87 44 88
REMARK SMILES IDX 50 89 43 90 45 91 46 92 47 93 48 94
REMARK H PARENT 7 7 80 17 11 28 70 47 38 58
REMARK Flexibility Score: inf
ROOT
ATOM      1  C   UNL A   1      34.341  30.517  27.722  1.00  0.00     0.118 C 
ENDROOT
BRANCH   1   2
ATOM      2  C   UNL A   1      33.161  31.199  27.046  1.00  0.00     0.042 C 
BRANCH   2   3
ATOM      3  C   UNL A   1      32.052  30.252  26.584  1.00  0.00     0.118 C 
BRANCH   3   4
ATOM      4  N   UNL A   1      31.206  30.759  25.509  1.00  0.00    -0.352 N 
ATOM      5  C   UNL A   1      30.633  30.077  24.450  1.00  0.00     0.251 C 
ATOM      6  O   UNL A   1      29.680  30.557  23.844  1.00  0.00    -0.269 OA
ATOM      7  H   UNL A   1      31.015  31.724  25.542  1.00  0.00     0.163 HD
BRANCH   5   8
ATOM      8  C   UNL A   1      31.133  28.736  24.056  1.00  0.00     0.040 A 
ATOM      9  C   UNL A   1      33.905  27.241  21.951  1.00  0.00     0.046 C 
ATOM     10  C   UNL A   1      32.607  27.327  22.705  1.00  0.00    -0.027 A 
ATOM     11  C   UNL A   1      32.207  28.601  23.172  1.00  0.00     0.019 A 
ATOM     12  C   UNL A   1      31.827  26.210  23.054  1.00  0.00     0.045 A 
ATOM     13  C   UNL A   1      30.914  26.343  24.101  1.00  0.00     0.027 A 
ATOM     14  C   UNL A   1      30.605  27.589  24.625  1.00  0.00     0.016 A 
BRANCH  12  15
ATOM     15  N   UNL A   1      31.977  24.966  22.409  1.00  0.00    -0.308 N 
ATOM     16  C   UNL A   1      33.051  24.115  22.438  1.00  0.00     0.321 C 
ATOM     17  H   UNL A   1      31.210  24.669  21.867  1.00  0.00     0.171 HD
ATOM     18  O   UNL A   1      33.279  23.407  21.457  1.00  0.00    -0.248 OA
ATOM     19  N   UNL A   1      33.820  24.059  23.575  1.00  0.00    -0.324 N 
ATOM     20  C   UNL A   1      35.227  23.709  23.521  1.00  0.00     0.125 C 
ATOM     21  C   UNL A   1      33.291  23.923  24.929  1.00  0.00     0.125 C 
ATOM     22  C   UNL A   1      35.539  23.067  24.870  1.00  0.00     0.010 C 
ATOM     23  C   UNL A   1      34.519  23.718  25.823  1.00  0.00     0.010 C 
ATOM     24  C   UNL A   1      36.982  23.284  25.303  1.00  0.00     0.010 C 
ATOM     25  C   UNL A   1      34.236  22.870  27.061  1.00  0.00     0.010 C 
ENDBRANCH  12  15
ENDBRANCH   5   8
ENDBRANCH   3   4
ENDBRANCH   2   3
ENDBRANCH   1   2
BRANCH   1  26
ATOM     26  N   UNL A   1      35.332  31.504  28.172  1.00  0.00    -0.352 N 
ATOM     27  C   UNL A   1      36.674  31.330  28.458  1.00  0.00     0.251 C 
ATOM     28  H   UNL A   1      34.991  32.421  28.286  1.00  0.00     0.163 HD
ATOM     29  O   UNL A   1      37.370  32.284  28.791  1.00  0.00    -0.269 OA
BRANCH  27  30
ATOM     30  C   UNL A   1      37.241  29.986  28.255  1.00  0.00     0.039 A 
ATOM     31  C   UNL A   1      37.325  29.153  29.373  1.00  0.00     0.014 A 
ATOM     32  C   UNL A   1      38.013  29.763  27.118  1.00  0.00     0.014 A 
ATOM     33  C   UNL A   1      38.392  28.268  29.464  1.00  0.00     0.010 A 
ATOM     34  C   UNL A   1      39.118  28.947  27.245  1.00  0.00     0.010 A 
ATOM     35  C   UNL A   1      39.347  28.271  28.451  1.00  0.00    -0.014 A 
BRANCH  35  36
ATOM     36  C   UNL A   1      40.628  27.596  28.560  1.00  0.00     0.031 A 
ATOM     37  C   UNL A   1      40.675  26.136  28.416  1.00  0.00     0.074 A 
ATOM     38  C   UNL A   1      41.770  28.292  28.753  1.00  0.00     0.049 A 
ATOM     39  N   UNL A   1      41.633  25.395  28.852  1.00  0.00    -0.248 NA
ATOM     40  C   UNL A   1      39.578  25.393  27.816  1.00  0.00     0.031 C 
ATOM     41  C   UNL A   1      43.137  27.815  28.589  1.00  0.00     0.029 A 
ATOM     42  N   UNL A   1      41.910  29.526  29.390  1.00  0.00    -0.354 N 
ATOM     43  C   UNL A   1      41.435  24.134  28.337  1.00  0.00     0.074 A 
ATOM     44  C   UNL A   1      40.090  24.161  27.812  1.00  0.00     0.031 C 
ATOM     45  C   UNL A   1      43.950  28.572  29.342  1.00  0.00     0.029 A 
ATOM     46  C   UNL A   1      43.107  29.449  30.134  1.00  0.00     0.049 A 
ATOM     47  H   UNL A   1      41.298  30.296  29.333  1.00  0.00     0.167 HD
ATOM     48  C   UNL A   1      42.498  23.282  28.276  1.00  0.00     0.034 A 
ATOM     49  C   UNL A   1      43.175  29.623  31.487  1.00  0.00     0.034 A 
ATOM     50  C   UNL A   1      43.663  23.837  28.992  1.00  0.00     0.049 A 
ATOM     51  C   UNL A   1      43.782  28.431  32.221  1.00  0.00     0.074 A 
ATOM     52  C   UNL A   1      44.837  24.462  28.598  1.00  0.00     0.029 A 
ATOM     53  N   UNL A   1      43.578  24.027  30.366  1.00  0.00    -0.354 N 
ATOM     54  N   UNL A   1      44.241  27.351  31.650  1.00  0.00    -0.248 NA
ATOM     55  C   UNL A   1      43.785  28.327  33.679  1.00  0.00     0.031 C 
ATOM     56  C   UNL A   1      45.443  25.047  29.749  1.00  0.00     0.029 A 
ATOM     57  C   UNL A   1      44.654  24.759  30.848  1.00  0.00     0.049 A 
ATOM     58  H   UNL A   1      42.846  23.685  30.926  1.00  0.00     0.167 HD
ATOM     59  C   UNL A   1      44.421  26.370  32.598  1.00  0.00     0.074 A 
ATOM     60  C   UNL A   1      44.132  27.043  33.855  1.00  0.00     0.031 C 
ATOM     61  C   UNL A   1      44.710  25.066  32.275  1.00  0.00     0.034 A 
BRANCH  48  62
ATOM     62  C   UNL A   1      42.593  22.097  27.320  1.00  0.00     0.023 A 
ATOM     63  C   UNL A   1      41.723  21.008  27.553  1.00  0.00     0.012 A 
ATOM     64  C   UNL A   1      43.524  21.915  26.270  1.00  0.00     0.148 A 
ATOM     65  C   UNL A   1      41.842  19.787  26.877  1.00  0.00     0.002 A 
ATOM     66  C   UNL A   1      43.693  20.677  25.641  1.00  0.00     0.091 A 
ATOM     67  F   UNL A   1      44.205  22.954  25.791  1.00  0.00    -0.205 F 
ATOM     68  C   UNL A   1      42.854  19.607  25.947  1.00  0.00     0.022 A 
BRANCH  66  69
ATOM     69  S   UNL A   1      45.028  20.363  24.469  1.00  0.00     0.127 S 
ATOM     70  O   UNL A   1      46.206  20.794  25.226  1.00  0.00    -0.237 OA
ATOM     71  O   UNL A   1      44.933  18.919  24.264  1.00  0.00    -0.237 OA
ATOM     72  O   UNL A   1      44.746  21.179  23.295  1.00  0.00    -0.744 OA
ENDBRANCH  66  69
ENDBRANCH  48  62
BRANCH  49  73
ATOM     73  C   UNL A   1      42.066  30.478  32.019  1.00  0.00     0.023 A 
ATOM     74  C   UNL A   1      41.967  31.796  31.508  1.00  0.00     0.012 A 
ATOM     75  C   UNL A   1      40.938  29.904  32.625  1.00  0.00     0.148 A 
ATOM     76  C   UNL A   1      40.727  32.430  31.412  1.00  0.00     0.002 A 
ATOM     77  C   UNL A   1      39.713  30.557  32.554  1.00  0.00     0.091 A 
ATOM     78  F   UNL A   1      41.038  28.695  33.189  1.00  0.00    -0.205 F 
ATOM     79  C   UNL A   1      39.590  31.788  31.894  1.00  0.00     0.022 A 
BRANCH  77  80
ATOM     80  S   UNL A   1      38.244  29.761  33.210  1.00  0.00     0.127 S 
ATOM     81  O   UNL A   1      38.388  30.015  34.639  1.00  0.00    -0.237 OA
ATOM     82  O   UNL A   1      37.161  30.496  32.559  1.00  0.00    -0.237 OA
ATOM     83  O   UNL A   1      38.372  28.377  32.774  1.00  0.00    -0.744 OA
ENDBRANCH  77  80
ENDBRANCH  49  73
BRANCH  61  84
ATOM     84  C   UNL A   1      44.990  23.943  33.276  1.00  0.00     0.023 A 
ATOM     85  C   UNL A   1      43.978  23.078  33.739  1.00  0.00     0.012 A 
ATOM     86  C   UNL A   1      46.272  23.758  33.865  1.00  0.00     0.148 A 
ATOM     87  C   UNL A   1      44.240  22.004  34.599  1.00  0.00     0.002 A 
ATOM     88  C   UNL A   1      46.528  22.709  34.747  1.00  0.00     0.091 A 
ATOM     89  F   UNL A   1      47.251  24.636  33.625  1.00  0.00    -0.205 F 
ATOM     90  C   UNL A   1      45.521  21.805  35.087  1.00  0.00     0.022 A 
BRANCH  88  91
ATOM     91  S   UNL A   1      48.132  22.467  35.527  1.00  0.00     0.127 S 
ATOM     92  O   UNL A   1      48.242  23.673  36.348  1.00  0.00    -0.237 OA
ATOM     93  O   UNL A   1      47.919  21.233  36.283  1.00  0.00    -0.237 OA
ATOM     94  O   UNL A   1      49.101  22.359  34.445  1.00  0.00    -0.744 OA
ENDBRANCH  88  91
ENDBRANCH  61  84
ENDBRANCH  35  36
ENDBRANCH  27  30
ENDBRANCH   1  26
TORSDOF 14
ENDMDL
MODEL 3
REMARK VINA RESULT:     -13.7      4.334     10.677
REMARK SMILES Cc1cc(C(=O)NCCCNC(=O)c2ccc(-c3c4nc(c(-c5cccc(S(=O)(=O)[O-])c5F)c5ccc([nH]5)c(-c5cccc(S(=O)(=O)[O-])c5F)c5nc(c(-c6cccc(S(=O)(=O)[O-])c6F)c6ccc3[nH]6)C=C5)C=C4)cc2)ccc1NC(=O)N1C[C@@H](C)[C@H](C)C1
REMARK SMILES IDX 10 1 9 2 8 3 7 4 5 5 6 6 4 8 1 9 2 10 3 11 79 12 78 13 77 14
REMARK SMILES IDX 80 15 81 16 82 18 83 19 84 20 89 21 85 22 87 23 86 24 88 25
REMARK SMILES IDX 11 26 12 27 13 29 14 30 15 31 76 32 16 33 75 34 17 35 18 36
REMARK SMILES IDX 19 37 69 38 20 39 74 40 68 41 70 42 21 43 73 44 67 45 66 46
REMARK SMILES IDX 22 48 54 49 34 50 53 51 35 52 38 53 52 54 71 55 36 56 37 57
REMARK SMILES IDX 51 59 72 60 39 61 23 62 24 63 32 64 25 65 27 66 33 67 26 68
REMARK SMILES IDX 28 69 29 70 30 71 31 72 55 73 56 74 64 75 57 76 59 77 65 78
REMARK SMILES IDX 58 79 60 80 61 81 62 82 63 83 40 84 41 85 49 86 42 87 44 88
REMARK SMILES IDX 50 89 43 90 45 91 46 92 47 93 48 94
REMARK H PARENT 7 7 80 17 11 28 70 47 38 58
REMARK Flexibility Score: inf
ROOT
ATOM      1  C   UNL A   1      38.684  22.694  26.131  1.00  0.00     0.118 C 
ENDROOT
BRANCH   1   2
ATOM      2  C   UNL A   1      38.329  21.275  25.712  1.00  0.00     0.042 C 
BRANCH   2   3
ATOM      3  C   UNL A   1      37.113  21.164  24.791  1.00  0.00     0.118 C 
BRANCH   3   4
ATOM      4  N   UNL A   1      36.353  19.924  24.908  1.00  0.00    -0.352 N 
ATOM      5  C   UNL A   1      34.985  19.728  24.847  1.00  0.00     0.251 C 
ATOM      6  O   UNL A   1      34.527  18.614  24.611  1.00  0.00    -0.269 OA
ATOM      7  H   UNL A   1      36.890  19.112  25.050  1.00  0.00     0.163 HD
BRANCH   5   8
ATOM      8  C   UNL A   1      34.049  20.866  25.022  1.00  0.00     0.040 A 
ATOM      9  C   UNL A   1      32.470  22.838  27.845  1.00  0.00     0.046 C 
ATOM     10  C   UNL A   1      32.672  22.285  26.462  1.00  0.00    -0.027 A 
ATOM     11  C   UNL A   1      33.652  21.280  26.297  1.00  0.00     0.019 A 
ATOM     12  C   UNL A   1      32.017  22.777  25.319  1.00  0.00     0.045 A 
ATOM     13  C   UNL A   1      32.583  22.515  24.070  1.00  0.00     0.027 A 
ATOM     14  C   UNL A   1      33.617  21.603  23.932  1.00  0.00     0.016 A 
BRANCH  12  15
ATOM     15  N   UNL A   1      30.844  23.554  25.407  1.00  0.00    -0.308 N 
ATOM     16  C   UNL A   1      30.692  24.811  25.930  1.00  0.00     0.321 C 
ATOM     17  H   UNL A   1      30.027  23.138  25.047  1.00  0.00     0.171 HD
ATOM     18  O   UNL A   1      29.616  25.120  26.441  1.00  0.00    -0.248 OA
ATOM     19  N   UNL A   1      31.740  25.696  25.838  1.00  0.00    -0.324 N 
ATOM     20  C   UNL A   1      31.930  26.748  26.818  1.00  0.00     0.125 C 
ATOM     21  C   UNL A   1      32.494  25.966  24.616  1.00  0.00     0.125 C 
ATOM     22  C   UNL A   1      32.640  27.875  26.073  1.00  0.00     0.010 C 
ATOM     23  C   UNL A   1      33.415  27.141  24.963  1.00  0.00     0.010 C 
ATOM     24  C   UNL A   1      33.540  28.702  26.981  1.00  0.00     0.010 C 
ATOM     25  C   UNL A   1      33.735  28.036  23.768  1.00  0.00     0.010 C 
ENDBRANCH  12  15
ENDBRANCH   5   8
ENDBRANCH   3   4
ENDBRANCH   2   3
ENDBRANCH   1   2
BRANCH   1  26
ATOM     26  N   UNL A   1      39.966  22.727  26.847  1.00  0.00    -0.352 N 
ATOM     27  C   UNL A   1      40.561  23.771  27.531  1.00  0.00     0.251 C 
ATOM     28  H   UNL A   1      40.475  21.884  26.838  1.00  0.00     0.163 HD
ATOM     29  O   UNL A   1      41.632  23.610  28.109  1.00  0.00    -0.269 OA
BRANCH  27  30
ATOM     30  C   UNL A   1      39.815  25.039  27.614  1.00  0.00     0.039 A 
ATOM     31  C   UNL A   1      40.254  26.091  26.808  1.00  0.00     0.014 A 
ATOM     32  C   UNL A   1      39.016  25.259  28.733  1.00  0.00     0.014 A 
ATOM     33  C   UNL A   1      40.133  27.390  27.286  1.00  0.00     0.010 A 
ATOM     34  C   UNL A   1      38.972  26.539  29.246  1.00  0.00     0.010 A 
ATOM     35  C   UNL A   1      39.607  27.583  28.560  1.00  0.00    -0.014 A 
BRANCH  35  36
ATOM     36  C   UNL A   1      39.676  28.850  29.269  1.00  0.00     0.031 A 
ATOM     37  C   UNL A   1      38.727  29.912  28.915  1.00  0.00     0.074 A 
ATOM     38  C   UNL A   1      40.569  29.045  30.263  1.00  0.00     0.049 A 
ATOM     39  N   UNL A   1      38.908  31.160  29.174  1.00  0.00    -0.248 NA
ATOM     40  C   UNL A   1      37.513  29.632  28.165  1.00  0.00     0.031 C 
ATOM     41  C   UNL A   1      40.574  30.115  31.252  1.00  0.00     0.029 A 
ATOM     42  N   UNL A   1      41.814  28.431  30.414  1.00  0.00    -0.354 N 
ATOM     43  C   UNL A   1      37.722  31.805  28.901  1.00  0.00     0.074 A 
ATOM     44  C   UNL A   1      36.942  30.838  28.166  1.00  0.00     0.031 C 
ATOM     45  C   UNL A   1      41.827  30.278  31.704  1.00  0.00     0.029 A 
ATOM     46  C   UNL A   1      42.686  29.429  30.899  1.00  0.00     0.049 A 
ATOM     47  H   UNL A   1      42.039  27.492  30.223  1.00  0.00     0.167 HD
ATOM     48  C   UNL A   1      37.495  33.018  29.479  1.00  0.00     0.034 A 
ATOM     49  C   UNL A   1      43.829  29.817  30.259  1.00  0.00     0.034 A 
ATOM     50  C   UNL A   1      38.707  33.519  30.157  1.00  0.00     0.049 A 
ATOM     51  C   UNL A   1      43.866  31.308  29.937  1.00  0.00     0.074 A 
ATOM     52  C   UNL A   1      39.125  33.577  31.478  1.00  0.00     0.029 A 
ATOM     53  N   UNL A   1      39.829  33.816  29.393  1.00  0.00    -0.354 N 
ATOM     54  N   UNL A   1      42.940  32.170  30.259  1.00  0.00    -0.248 NA
ATOM     55  C   UNL A   1      44.905  31.904  29.100  1.00  0.00     0.031 C 
ATOM     56  C   UNL A   1      40.517  33.892  31.495  1.00  0.00     0.029 A 
ATOM     57  C   UNL A   1      40.942  34.050  30.189  1.00  0.00     0.049 A 
ATOM     58  H   UNL A   1      39.833  33.855  28.410  1.00  0.00     0.167 HD
ATOM     59  C   UNL A   1      43.134  33.338  29.558  1.00  0.00     0.074 A 
ATOM     60  C   UNL A   1      44.390  33.119  28.857  1.00  0.00     0.031 C 
ATOM     61  C   UNL A   1      42.214  34.358  29.541  1.00  0.00     0.034 A 
BRANCH  48  62
ATOM     62  C   UNL A   1      36.109  33.617  29.700  1.00  0.00     0.023 A 
ATOM     63  C   UNL A   1      35.400  34.046  28.555  1.00  0.00     0.012 A 
ATOM     64  C   UNL A   1      35.477  33.882  30.938  1.00  0.00     0.148 A 
ATOM     65  C   UNL A   1      34.214  34.786  28.634  1.00  0.00     0.002 A 
ATOM     66  C   UNL A   1      34.330  34.678  31.026  1.00  0.00     0.091 A 
ATOM     67  F   UNL A   1      35.914  33.297  32.052  1.00  0.00    -0.205 F 
ATOM     68  C   UNL A   1      33.698  35.137  29.871  1.00  0.00     0.022 A 
BRANCH  66  69
ATOM     69  S   UNL A   1      33.648  35.220  32.605  1.00  0.00     0.127 S 
ATOM     70  O   UNL A   1      32.620  36.173  32.183  1.00  0.00    -0.237 OA
ATOM     71  O   UNL A   1      33.128  33.975  33.167  1.00  0.00    -0.237 OA
ATOM     72  O   UNL A   1      34.750  35.824  33.343  1.00  0.00    -0.744 OA
ENDBRANCH  66  69
ENDBRANCH  48  62
BRANCH  49  73
ATOM     73  C   UNL A   1      44.400  28.742  29.386  1.00  0.00     0.023 A 
ATOM     74  C   UNL A   1      44.773  27.529  30.018  1.00  0.00     0.012 A 
ATOM     75  C   UNL A   1      44.170  28.736  28.002  1.00  0.00     0.148 A 
ATOM     76  C   UNL A   1      44.705  26.318  29.329  1.00  0.00     0.002 A 
ATOM     77  C   UNL A   1      44.137  27.528  27.315  1.00  0.00     0.091 A 
ATOM     78  F   UNL A   1      43.902  29.887  27.375  1.00  0.00    -0.205 F 
ATOM     79  C   UNL A   1      44.340  26.313  27.985  1.00  0.00     0.022 A 
BRANCH  77  80
ATOM     80  S   UNL A   1      43.710  27.510  25.572  1.00  0.00     0.127 S 
ATOM     81  O   UNL A   1      42.650  28.512  25.521  1.00  0.00    -0.237 OA
ATOM     82  O   UNL A   1      44.962  27.904  24.930  1.00  0.00    -0.237 OA
ATOM     83  O   UNL A   1      43.320  26.130  25.321  1.00  0.00    -0.744 OA
ENDBRANCH  77  80
ENDBRANCH  49  73
BRANCH  61  84
ATOM     84  C   UNL A   1      42.395  35.708  28.842  1.00  0.00     0.023 A 
ATOM     85  C   UNL A   1      41.949  35.939  27.526  1.00  0.00     0.012 A 
ATOM     86  C   UNL A   1      43.102  36.784  29.448  1.00  0.00     0.148 A 
ATOM     87  C   UNL A   1      42.046  37.191  26.906  1.00  0.00     0.002 A 
ATOM     88  C   UNL A   1      43.229  38.022  28.820  1.00  0.00     0.091 A 
ATOM     89  F   UNL A   1      43.715  36.603  30.622  1.00  0.00    -0.205 F 
ATOM     90  C   UNL A   1      42.668  38.241  27.562  1.00  0.00     0.022 A 
BRANCH  88  91
ATOM     91  S   UNL A   1      44.139  39.391  29.553  1.00  0.00     0.127 S 
ATOM     92  O   UNL A   1      45.469  38.803  29.717  1.00  0.00    -0.237 OA
ATOM     93  O   UNL A   1      44.049  40.410  28.507  1.00  0.00    -0.237 OA
ATOM     94  O   UNL A   1      43.449  39.727  30.790  1.00  0.00    -0.744 OA
ENDBRANCH  88  91
ENDBRANCH  61  84
ENDBRANCH  35  36
ENDBRANCH  27  30
ENDBRANCH   1  26
TORSDOF 14
ENDMDL
