MODEL 1
REMARK VINA RESULT:     -13.1      0.000      0.000
REMARK SMILES O=C(NCCCNC(=O)[C@H]1CCCCN1c1cc(-c2ccccc2)nc(-c2cccc(Cl)c2)n1)c1ccc(-c2c3nc(c(-c4cccc(S(=O)(=O)[O-])c4F)c4ccc([nH]4)c(-c4cccc(S(=O)(=O)[O-])c4F)c4nc(c(-c5cccc(S(=O)(=O)[O-])c5F)c5ccc2[nH]5)C=C4)C=C3)cc1
REMARK SMILES IDX 4 1 3 2 1 3 2 4 35 6 36 7 97 8 37 9 96 10 38 11 39 12 40 13
REMARK SMILES IDX 90 14 41 15 95 16 89 17 91 18 42 19 94 20 88 21 87 22 43 24
REMARK SMILES IDX 75 25 55 26 74 27 56 28 59 29 73 30 92 31 57 32 58 33 72 35
REMARK SMILES IDX 93 36 60 37 44 38 45 39 53 40 46 41 48 42 54 43 47 44 49 45
REMARK SMILES IDX 50 46 51 47 52 48 76 49 77 50 85 51 78 52 80 53 86 54 79 55
REMARK SMILES IDX 81 56 82 57 83 58 84 59 61 60 62 61 70 62 63 63 65 64 71 65
REMARK SMILES IDX 64 66 66 67 67 68 68 69 69 70 5 71 6 72 7 73 8 74 9 76 10 77
REMARK SMILES IDX 11 78 15 79 12 80 14 81 13 82 16 83 17 84 34 85 18 86 26 87
REMARK SMILES IDX 25 88 19 89 20 90 24 91 21 92 23 93 22 94 27 95 28 96 33 97
REMARK SMILES IDX 29 98 31 99 30 100 32 101
REMARK H PARENT 3 5 91 23 59 34 7 75
REMARK Flexibility Score: inf
ROOT
ATOM      1  C   UNL A   1      33.638  28.940  24.951  1.00  0.00     0.118 C 
ENDROOT
BRANCH   1   2
ATOM      2  N   UNL A   1      32.915  30.065  25.525  1.00  0.00    -0.352 N 
ATOM      3  O   UNL A   1      32.293  31.552  27.087  1.00  0.00    -0.269 OA
ATOM      4  C   UNL A   1      33.154  30.774  26.675  1.00  0.00     0.251 C 
ATOM      5  H   UNL A   1      32.133  30.364  25.008  1.00  0.00     0.163 HD
BRANCH   4   6
ATOM      6  C   UNL A   1      34.416  30.594  27.421  1.00  0.00     0.039 A 
ATOM      7  C   UNL A   1      35.294  31.665  27.621  1.00  0.00     0.014 A 
ATOM      8  C   UNL A   1      34.707  29.340  27.962  1.00  0.00     0.014 A 
ATOM      9  C   UNL A   1      36.518  31.453  28.251  1.00  0.00     0.010 A 
ATOM     10  C   UNL A   1      35.901  29.147  28.658  1.00  0.00     0.010 A 
ATOM     11  C   UNL A   1      36.830  30.193  28.782  1.00  0.00    -0.014 A 
BRANCH  11  12
ATOM     12  C   UNL A   1      38.104  29.978  29.512  1.00  0.00     0.031 A 
ATOM     13  C   UNL A   1      39.187  29.118  28.923  1.00  0.00     0.074 A 
ATOM     14  C   UNL A   1      38.255  30.507  30.741  1.00  0.00     0.049 A 
ATOM     15  N   UNL A   1      40.319  28.737  29.456  1.00  0.00    -0.248 NA
ATOM     16  C   UNL A   1      38.963  28.610  27.561  1.00  0.00     0.031 C 
ATOM     17  C   UNL A   1      37.260  31.332  31.428  1.00  0.00     0.029 A 
ATOM     18  N   UNL A   1      39.282  30.399  31.645  1.00  0.00    -0.354 N 
ATOM     19  C   UNL A   1      40.920  27.905  28.520  1.00  0.00     0.074 A 
ATOM     20  C   UNL A   1      40.024  27.835  27.384  1.00  0.00     0.031 C 
ATOM     21  C   UNL A   1      37.716  31.639  32.651  1.00  0.00     0.029 A 
ATOM     22  C   UNL A   1      39.005  30.988  32.855  1.00  0.00     0.049 A 
ATOM     23  H   UNL A   1      40.132  29.942  31.445  1.00  0.00     0.167 HD
ATOM     24  C   UNL A   1      42.111  27.263  28.598  1.00  0.00     0.034 A 
ATOM     25  C   UNL A   1      39.688  30.972  34.016  1.00  0.00     0.034 A 
ATOM     26  C   UNL A   1      42.999  27.351  29.726  1.00  0.00     0.049 A 
ATOM     27  C   UNL A   1      41.003  30.252  34.083  1.00  0.00     0.074 A 
ATOM     28  C   UNL A   1      44.259  26.799  29.873  1.00  0.00     0.029 A 
ATOM     29  N   UNL A   1      42.714  28.015  30.910  1.00  0.00    -0.354 N 
ATOM     30  N   UNL A   1      41.615  29.570  33.146  1.00  0.00    -0.248 NA
ATOM     31  C   UNL A   1      41.738  30.322  35.354  1.00  0.00     0.031 C 
ATOM     32  C   UNL A   1      44.717  27.093  31.162  1.00  0.00     0.029 A 
ATOM     33  C   UNL A   1      43.764  27.872  31.800  1.00  0.00     0.049 A 
ATOM     34  H   UNL A   1      41.885  28.515  31.091  1.00  0.00     0.167 HD
ATOM     35  C   UNL A   1      42.823  29.164  33.696  1.00  0.00     0.074 A 
ATOM     36  C   UNL A   1      42.859  29.679  35.050  1.00  0.00     0.031 C 
ATOM     37  C   UNL A   1      43.812  28.432  33.128  1.00  0.00     0.034 A 
BRANCH  24  38
ATOM     38  C   UNL A   1      42.522  26.409  27.425  1.00  0.00     0.023 A 
ATOM     39  C   UNL A   1      42.882  27.013  26.203  1.00  0.00     0.012 A 
ATOM     40  C   UNL A   1      42.586  25.006  27.544  1.00  0.00     0.148 A 
ATOM     41  C   UNL A   1      43.248  26.235  25.105  1.00  0.00     0.002 A 
ATOM     42  C   UNL A   1      42.998  24.240  26.460  1.00  0.00     0.091 A 
ATOM     43  F   UNL A   1      42.224  24.444  28.706  1.00  0.00    -0.205 F 
ATOM     44  C   UNL A   1      43.314  24.850  25.236  1.00  0.00     0.022 A 
BRANCH  42  45
ATOM     45  S   UNL A   1      43.195  22.456  26.560  1.00  0.00     0.127 S 
ATOM     46  O   UNL A   1      42.656  22.027  25.271  1.00  0.00    -0.237 OA
ATOM     47  O   UNL A   1      44.645  22.312  26.694  1.00  0.00    -0.237 OA
ATOM     48  O   UNL A   1      42.437  22.038  27.731  1.00  0.00    -0.744 OA
ENDBRANCH  42  45
ENDBRANCH  24  38
BRANCH  25  49
ATOM     49  C   UNL A   1      39.128  31.690  35.195  1.00  0.00     0.023 A 
ATOM     50  C   UNL A   1      38.259  31.015  36.071  1.00  0.00     0.012 A 
ATOM     51  C   UNL A   1      39.525  33.009  35.493  1.00  0.00     0.148 A 
ATOM     52  C   UNL A   1      37.780  31.648  37.218  1.00  0.00     0.002 A 
ATOM     53  C   UNL A   1      39.090  33.612  36.666  1.00  0.00     0.091 A 
ATOM     54  F   UNL A   1      40.353  33.630  34.641  1.00  0.00    -0.205 F 
ATOM     55  C   UNL A   1      38.205  32.939  37.523  1.00  0.00     0.022 A 
BRANCH  53  56
ATOM     56  S   UNL A   1      39.691  35.214  37.211  1.00  0.00     0.127 S 
ATOM     57  O   UNL A   1      41.130  34.978  37.305  1.00  0.00    -0.237 OA
ATOM     58  O   UNL A   1      39.279  36.078  36.104  1.00  0.00    -0.237 OA
ATOM     59  O   UNL A   1      39.016  35.484  38.472  1.00  0.00    -0.744 OA
ENDBRANCH  53  56
ENDBRANCH  25  49
BRANCH  37  60
ATOM     60  C   UNL A   1      45.060  28.182  33.933  1.00  0.00     0.023 A 
ATOM     61  C   UNL A   1      46.114  29.115  33.918  1.00  0.00     0.012 A 
ATOM     62  C   UNL A   1      45.130  27.069  34.795  1.00  0.00     0.148 A 
ATOM     63  C   UNL A   1      47.227  28.935  34.739  1.00  0.00     0.002 A 
ATOM     64  C   UNL A   1      46.216  26.925  35.648  1.00  0.00     0.091 A 
ATOM     65  F   UNL A   1      44.123  26.183  34.777  1.00  0.00    -0.205 F 
ATOM     66  C   UNL A   1      47.271  27.851  35.615  1.00  0.00     0.022 A 
BRANCH  64  67
ATOM     67  S   UNL A   1      46.309  25.621  36.880  1.00  0.00     0.127 S 
ATOM     68  O   UNL A   1      47.596  25.904  37.516  1.00  0.00    -0.237 OA
ATOM     69  O   UNL A   1      45.142  25.902  37.715  1.00  0.00    -0.237 OA
ATOM     70  O   UNL A   1      46.244  24.365  36.146  1.00  0.00    -0.744 OA
ENDBRANCH  64  67
ENDBRANCH  37  60
ENDBRANCH  11  12
ENDBRANCH   4   6
ENDBRANCH   1   2
BRANCH   1  71
ATOM     71  C   UNL A   1      33.578  28.921  23.424  1.00  0.00     0.042 C 
BRANCH  71  72
ATOM     72  C   UNL A   1      33.741  27.532  22.815  1.00  0.00     0.117 C 
BRANCH  72  73
ATOM     73  N   UNL A   1      32.457  26.885  22.621  1.00  0.00    -0.354 N 
ATOM     74  C   UNL A   1      31.929  25.783  23.226  1.00  0.00     0.242 C 
ATOM     75  H   UNL A   1      31.876  27.309  21.949  1.00  0.00     0.163 HD
ATOM     76  O   UNL A   1      30.864  25.362  22.764  1.00  0.00    -0.273 OA
BRANCH  74  77
ATOM     77  C   UNL A   1      32.623  25.173  24.474  1.00  0.00     0.173 C 
ATOM     78  C   UNL A   1      32.178  25.940  25.726  1.00  0.00     0.035 C 
ATOM     79  N   UNL A   1      32.299  23.747  24.615  1.00  0.00    -0.344 N 
ATOM     80  C   UNL A   1      30.726  25.627  26.097  1.00  0.00     0.004 C 
ATOM     81  C   UNL A   1      30.958  23.344  25.012  1.00  0.00     0.119 C 
ATOM     82  C   UNL A   1      30.514  24.122  26.251  1.00  0.00     0.022 C 
BRANCH  79  83
ATOM     83  C   UNL A   1      33.330  22.841  24.737  1.00  0.00     0.133 A 
ATOM     84  C   UNL A   1      34.574  23.294  25.124  1.00  0.00     0.076 A 
ATOM     85  N   UNL A   1      33.099  21.541  24.497  1.00  0.00    -0.211 NA
ATOM     86  C   UNL A   1      35.576  22.358  25.272  1.00  0.00     0.076 A 
ATOM     87  C   UNL A   1      34.141  20.700  24.642  1.00  0.00     0.162 A 
ATOM     88  N   UNL A   1      35.381  21.051  25.021  1.00  0.00    -0.228 NA
BRANCH  86  89
ATOM     89  C   UNL A   1      36.916  22.744  25.721  1.00  0.00     0.000 A 
ATOM     90  C   UNL A   1      37.965  21.811  25.748  1.00  0.00     0.010 A 
ATOM     91  C   UNL A   1      37.191  24.065  26.115  1.00  0.00     0.010 A 
ATOM     92  C   UNL A   1      39.253  22.193  26.131  1.00  0.00     0.001 A 
ATOM     93  C   UNL A   1      38.476  24.444  26.508  1.00  0.00     0.001 A 
ATOM     94  C   UNL A   1      39.508  23.509  26.510  1.00  0.00     0.000 A 
ENDBRANCH  86  89
BRANCH  87  95
ATOM     95  C   UNL A   1      33.913  19.282  24.344  1.00  0.00     0.021 A 
ATOM     96  C   UNL A   1      32.877  18.878  23.483  1.00  0.00     0.012 A 
ATOM     97  C   UNL A   1      34.733  18.287  24.906  1.00  0.00     0.032 A 
ATOM     98  C   UNL A   1      32.669  17.527  23.185  1.00  0.00     0.002 A 
ATOM     99  C   UNL A   1      34.510  16.940  24.622  1.00  0.00     0.041 A 
ATOM    100  C   UNL A   1      33.484  16.556  23.761  1.00  0.00     0.020 A 
ATOM    101  Cl  UNL A   1      35.506  15.736  25.345  1.00  0.00    -0.084 Cl
ENDBRANCH  87  95
ENDBRANCH  79  83
ENDBRANCH  74  77
ENDBRANCH  72  73
ENDBRANCH  71  72
ENDBRANCH   1  71
TORSDOF 16
ENDMDL
MODEL 2
REMARK VINA RESULT:     -13.1      0.407      7.461
REMARK SMILES O=C(NCCCNC(=O)[C@H]1CCCCN1c1cc(-c2ccccc2)nc(-c2cccc(Cl)c2)n1)c1ccc(-c2c3nc(c(-c4cccc(S(=O)(=O)[O-])c4F)c4ccc([nH]4)c(-c4cccc(S(=O)(=O)[O-])c4F)c4nc(c(-c5cccc(S(=O)(=O)[O-])c5F)c5ccc2[nH]5)C=C4)C=C3)cc1
REMARK SMILES IDX 4 1 3 2 1 3 2 4 35 6 36 7 97 8 37 9 96 10 38 11 39 12 40 13
REMARK SMILES IDX 90 14 41 15 95 16 89 17 91 18 42 19 94 20 88 21 87 22 43 24
REMARK SMILES IDX 75 25 55 26 74 27 56 28 59 29 73 30 92 31 57 32 58 33 72 35
REMARK SMILES IDX 93 36 60 37 44 38 45 39 53 40 46 41 48 42 54 43 47 44 49 45
REMARK SMILES IDX 50 46 51 47 52 48 76 49 77 50 85 51 78 52 80 53 86 54 79 55
REMARK SMILES IDX 81 56 82 57 83 58 84 59 61 60 62 61 70 62 63 63 65 64 71 65
REMARK SMILES IDX 64 66 66 67 67 68 68 69 69 70 5 71 6 72 7 73 8 74 9 76 10 77
REMARK SMILES IDX 11 78 15 79 12 80 14 81 13 82 16 83 17 84 34 85 18 86 26 87
REMARK SMILES IDX 25 88 19 89 20 90 24 91 21 92 23 93 22 94 27 95 28 96 33 97
REMARK SMILES IDX 29 98 31 99 30 100 32 101
REMARK H PARENT 3 5 91 23 59 34 7 75
REMARK Flexibility Score: inf
ROOT
ATOM      1  C   UNL A   1      33.397  29.188  25.289  1.00  0.00     0.118 C 
ENDROOT
BRANCH   1   2
ATOM      2  N   UNL A   1      32.987  30.494  25.783  1.00  0.00    -0.352 N 
ATOM      3  O   UNL A   1      32.797  32.200  27.230  1.00  0.00    -0.269 OA
ATOM      4  C   UNL A   1      33.430  31.207  26.867  1.00  0.00     0.251 C 
ATOM      5  H   UNL A   1      32.282  30.935  25.256  1.00  0.00     0.163 HD
BRANCH   4   6
ATOM      6  C   UNL A   1      34.638  30.782  27.605  1.00  0.00     0.039 A 
ATOM      7  C   UNL A   1      34.797  29.457  28.022  1.00  0.00     0.014 A 
ATOM      8  C   UNL A   1      35.645  31.719  27.848  1.00  0.00     0.014 A 
ATOM      9  C   UNL A   1      35.901  29.097  28.791  1.00  0.00     0.010 A 
ATOM     10  C   UNL A   1      36.786  31.338  28.556  1.00  0.00     0.010 A 
ATOM     11  C   UNL A   1      36.910  30.033  29.059  1.00  0.00    -0.014 A 
BRANCH  11  12
ATOM     12  C   UNL A   1      38.120  29.640  29.823  1.00  0.00     0.031 A 
ATOM     13  C   UNL A   1      38.369  30.189  31.199  1.00  0.00     0.074 A 
ATOM     14  C   UNL A   1      39.030  28.835  29.243  1.00  0.00     0.049 A 
ATOM     15  N   UNL A   1      39.414  30.039  31.971  1.00  0.00    -0.248 NA
ATOM     16  C   UNL A   1      37.310  31.029  31.779  1.00  0.00     0.031 C 
ATOM     17  C   UNL A   1      38.912  28.265  27.899  1.00  0.00     0.029 A 
ATOM     18  N   UNL A   1      40.248  28.388  29.689  1.00  0.00    -0.354 N 
ATOM     19  C   UNL A   1      39.164  30.803  33.104  1.00  0.00     0.074 A 
ATOM     20  C   UNL A   1      37.867  31.419  32.917  1.00  0.00     0.031 C 
ATOM     21  C   UNL A   1      40.019  27.561  27.623  1.00  0.00     0.029 A 
ATOM     22  C   UNL A   1      40.946  27.676  28.744  1.00  0.00     0.049 A 
ATOM     23  H   UNL A   1      40.588  28.562  30.598  1.00  0.00     0.167 HD
ATOM     24  C   UNL A   1      39.942  30.970  34.201  1.00  0.00     0.034 A 
ATOM     25  C   UNL A   1      42.209  27.205  28.753  1.00  0.00     0.034 A 
ATOM     26  C   UNL A   1      41.223  30.342  34.381  1.00  0.00     0.049 A 
ATOM     27  C   UNL A   1      43.055  27.405  29.976  1.00  0.00     0.074 A 
ATOM     28  C   UNL A   1      42.056  30.389  35.486  1.00  0.00     0.029 A 
ATOM     29  N   UNL A   1      41.870  29.570  33.427  1.00  0.00    -0.354 N 
ATOM     30  N   UNL A   1      42.756  28.028  31.090  1.00  0.00    -0.248 NA
ATOM     31  C   UNL A   1      44.401  26.813  29.961  1.00  0.00     0.031 C 
ATOM     32  C   UNL A   1      43.224  29.682  35.181  1.00  0.00     0.029 A 
ATOM     33  C   UNL A   1      43.098  29.151  33.908  1.00  0.00     0.049 A 
ATOM     34  H   UNL A   1      41.508  29.353  32.537  1.00  0.00     0.167 HD
ATOM     35  C   UNL A   1      43.856  27.870  31.923  1.00  0.00     0.074 A 
ATOM     36  C   UNL A   1      44.828  27.089  31.187  1.00  0.00     0.031 C 
ATOM     37  C   UNL A   1      44.039  28.331  33.185  1.00  0.00     0.034 A 
BRANCH  24  38
ATOM     38  C   UNL A   1      39.423  31.871  35.294  1.00  0.00     0.023 A 
ATOM     39  C   UNL A   1      38.489  31.381  36.229  1.00  0.00     0.012 A 
ATOM     40  C   UNL A   1      39.889  33.195  35.417  1.00  0.00     0.148 A 
ATOM     41  C   UNL A   1      37.988  32.206  37.234  1.00  0.00     0.002 A 
ATOM     42  C   UNL A   1      39.421  33.997  36.451  1.00  0.00     0.091 A 
ATOM     43  F   UNL A   1      40.763  33.654  34.510  1.00  0.00    -0.205 F 
ATOM     44  C   UNL A   1      38.460  33.511  37.350  1.00  0.00     0.022 A 
BRANCH  42  45
ATOM     45  S   UNL A   1      40.035  35.664  36.730  1.00  0.00     0.127 S 
ATOM     46  O   UNL A   1      39.525  36.366  35.554  1.00  0.00    -0.237 OA
ATOM     47  O   UNL A   1      39.382  36.027  37.988  1.00  0.00    -0.237 OA
ATOM     48  O   UNL A   1      41.484  35.545  36.814  1.00  0.00    -0.744 OA
ENDBRANCH  42  45
ENDBRANCH  24  38
BRANCH  25  49
ATOM     49  C   UNL A   1      42.720  26.479  27.558  1.00  0.00     0.023 A 
ATOM     50  C   UNL A   1      43.326  27.199  26.514  1.00  0.00     0.012 A 
ATOM     51  C   UNL A   1      42.682  25.072  27.498  1.00  0.00     0.148 A 
ATOM     52  C   UNL A   1      43.874  26.531  25.419  1.00  0.00     0.002 A 
ATOM     53  C   UNL A   1      43.281  24.410  26.433  1.00  0.00     0.091 A 
ATOM     54  F   UNL A   1      42.098  24.409  28.506  1.00  0.00    -0.205 F 
ATOM     55  C   UNL A   1      43.863  25.138  25.384  1.00  0.00     0.022 A 
BRANCH  53  56
ATOM     56  S   UNL A   1      43.439  22.622  26.369  1.00  0.00     0.127 S 
ATOM     57  O   UNL A   1      44.890  22.452  26.340  1.00  0.00    -0.237 OA
ATOM     58  O   UNL A   1      42.795  22.223  27.620  1.00  0.00    -0.237 OA
ATOM     59  O   UNL A   1      42.735  22.204  25.165  1.00  0.00    -0.744 OA
ENDBRANCH  53  56
ENDBRANCH  25  49
BRANCH  37  60
ATOM     60  C   UNL A   1      45.313  27.961  33.896  1.00  0.00     0.023 A 
ATOM     61  C   UNL A   1      46.419  28.831  33.873  1.00  0.00     0.012 A 
ATOM     62  C   UNL A   1      45.364  26.794  34.685  1.00  0.00     0.148 A 
ATOM     63  C   UNL A   1      47.564  28.537  34.613  1.00  0.00     0.002 A 
ATOM     64  C   UNL A   1      46.487  26.535  35.461  1.00  0.00     0.091 A 
ATOM     65  F   UNL A   1      44.306  25.970  34.676  1.00  0.00    -0.205 F 
ATOM     66  C   UNL A   1      47.593  27.400  35.418  1.00  0.00     0.022 A 
BRANCH  64  67
ATOM     67  S   UNL A   1      46.571  25.153  36.606  1.00  0.00     0.127 S 
ATOM     68  O   UNL A   1      46.290  24.019  35.725  1.00  0.00    -0.237 OA
ATOM     69  O   UNL A   1      47.952  25.230  37.080  1.00  0.00    -0.237 OA
ATOM     70  O   UNL A   1      45.563  25.410  37.625  1.00  0.00    -0.744 OA
ENDBRANCH  64  67
ENDBRANCH  37  60
ENDBRANCH  11  12
ENDBRANCH   4   6
ENDBRANCH   1   2
BRANCH   1  71
ATOM     71  C   UNL A   1      33.290  29.073  23.769  1.00  0.00     0.042 C 
BRANCH  71  72
ATOM     72  C   UNL A   1      33.661  27.698  23.223  1.00  0.00     0.117 C 
BRANCH  72  73
ATOM     73  N   UNL A   1      32.480  26.934  22.868  1.00  0.00    -0.354 N 
ATOM     74  C   UNL A   1      32.048  25.723  23.324  1.00  0.00     0.242 C 
ATOM     75  H   UNL A   1      31.901  27.355  22.193  1.00  0.00     0.163 HD
ATOM     76  O   UNL A   1      31.077  25.233  22.740  1.00  0.00    -0.273 OA
BRANCH  74  77
ATOM     77  C   UNL A   1      32.723  25.071  24.561  1.00  0.00     0.173 C 
ATOM     78  C   UNL A   1      32.261  25.798  25.830  1.00  0.00     0.035 C 
ATOM     79  N   UNL A   1      32.397  23.642  24.650  1.00  0.00    -0.344 N 
ATOM     80  C   UNL A   1      30.803  25.475  26.170  1.00  0.00     0.004 C 
ATOM     81  C   UNL A   1      31.049  23.228  25.015  1.00  0.00     0.119 C 
ATOM     82  C   UNL A   1      30.587  23.966  26.271  1.00  0.00     0.022 C 
BRANCH  79  83
ATOM     83  C   UNL A   1      33.425  22.731  24.758  1.00  0.00     0.133 A 
ATOM     84  C   UNL A   1      34.674  23.177  25.137  1.00  0.00     0.076 A 
ATOM     85  N   UNL A   1      33.186  21.433  24.512  1.00  0.00    -0.211 NA
ATOM     86  C   UNL A   1      35.673  22.236  25.272  1.00  0.00     0.076 A 
ATOM     87  C   UNL A   1      34.227  20.587  24.642  1.00  0.00     0.162 A 
ATOM     88  N   UNL A   1      35.471  20.932  25.014  1.00  0.00    -0.228 NA
BRANCH  86  89
ATOM     89  C   UNL A   1      37.019  22.614  25.712  1.00  0.00     0.000 A 
ATOM     90  C   UNL A   1      37.291  23.915  26.162  1.00  0.00     0.010 A 
ATOM     91  C   UNL A   1      38.065  21.676  25.717  1.00  0.00     0.010 A 
ATOM     92  C   UNL A   1      38.563  24.261  26.627  1.00  0.00     0.001 A 
ATOM     93  C   UNL A   1      39.339  22.023  26.171  1.00  0.00     0.001 A 
ATOM     94  C   UNL A   1      39.585  23.314  26.632  1.00  0.00     0.000 A 
ENDBRANCH  86  89
BRANCH  87  95
ATOM     95  C   UNL A   1      33.991  19.172  24.337  1.00  0.00     0.021 A 
ATOM     96  C   UNL A   1      32.939  18.778  23.490  1.00  0.00     0.012 A 
ATOM     97  C   UNL A   1      34.818  18.172  24.876  1.00  0.00     0.032 A 
ATOM     98  C   UNL A   1      32.723  17.430  23.186  1.00  0.00     0.002 A 
ATOM     99  C   UNL A   1      34.587  16.827  24.586  1.00  0.00     0.041 A 
ATOM    100  C   UNL A   1      33.545  16.452  23.740  1.00  0.00     0.020 A 
ATOM    101  Cl  UNL A   1      35.593  15.615  25.282  1.00  0.00    -0.084 Cl
ENDBRANCH  87  95
ENDBRANCH  79  83
ENDBRANCH  74  77
ENDBRANCH  72  73
ENDBRANCH  71  72
ENDBRANCH   1  71
TORSDOF 16
ENDMDL
MODEL 3
REMARK VINA RESULT:     -13.1      1.586      7.853
REMARK SMILES O=C(NCCCNC(=O)[C@H]1CCCCN1c1cc(-c2ccccc2)nc(-c2cccc(Cl)c2)n1)c1ccc(-c2c3nc(c(-c4cccc(S(=O)(=O)[O-])c4F)c4ccc([nH]4)c(-c4cccc(S(=O)(=O)[O-])c4F)c4nc(c(-c5cccc(S(=O)(=O)[O-])c5F)c5ccc2[nH]5)C=C4)C=C3)cc1
REMARK SMILES IDX 4 1 3 2 1 3 2 4 35 6 36 7 97 8 37 9 96 10 38 11 39 12 40 13
REMARK SMILES IDX 90 14 41 15 95 16 89 17 91 18 42 19 94 20 88 21 87 22 43 24
REMARK SMILES IDX 75 25 55 26 74 27 56 28 59 29 73 30 92 31 57 32 58 33 72 35
REMARK SMILES IDX 93 36 60 37 44 38 45 39 53 40 46 41 48 42 54 43 47 44 49 45
REMARK SMILES IDX 50 46 51 47 52 48 76 49 77 50 85 51 78 52 80 53 86 54 79 55
REMARK SMILES IDX 81 56 82 57 83 58 84 59 61 60 62 61 70 62 63 63 65 64 71 65
REMARK SMILES IDX 64 66 66 67 67 68 68 69 69 70 5 71 6 72 7 73 8 74 9 76 10 77
REMARK SMILES IDX 11 78 15 79 12 80 14 81 13 82 16 83 17 84 34 85 18 86 26 87
REMARK SMILES IDX 25 88 19 89 20 90 24 91 21 92 23 93 22 94 27 95 28 96 33 97
REMARK SMILES IDX 29 98 31 99 30 100 32 101
REMARK H PARENT 3 5 91 23 59 34 7 75
REMARK Flexibility Score: inf
ROOT
ATOM      1  C   UNL A   1      32.969  29.224  25.521  1.00  0.00     0.118 C 
ENDROOT
BRANCH   1   2
ATOM      2  N   UNL A   1      32.589  30.586  25.867  1.00  0.00    -0.352 N 
ATOM      3  O   UNL A   1      32.433  32.442  27.121  1.00  0.00    -0.269 OA
ATOM      4  C   UNL A   1      33.044  31.401  26.872  1.00  0.00     0.251 C 
ATOM      5  H   UNL A   1      31.897  30.983  25.291  1.00  0.00     0.163 HD
BRANCH   4   6
ATOM      6  C   UNL A   1      34.237  31.030  27.660  1.00  0.00     0.039 A 
ATOM      7  C   UNL A   1      35.201  31.985  28.001  1.00  0.00     0.014 A 
ATOM      8  C   UNL A   1      34.373  29.711  28.098  1.00  0.00     0.014 A 
ATOM      9  C   UNL A   1      36.359  31.597  28.668  1.00  0.00     0.010 A 
ATOM     10  C   UNL A   1      35.500  29.339  28.832  1.00  0.00     0.010 A 
ATOM     11  C   UNL A   1      36.517  30.271  29.097  1.00  0.00    -0.014 A 
BRANCH  11  12
ATOM     12  C   UNL A   1      37.719  29.865  29.866  1.00  0.00     0.031 A 
ATOM     13  C   UNL A   1      37.940  30.370  31.264  1.00  0.00     0.074 A 
ATOM     14  C   UNL A   1      38.647  29.090  29.274  1.00  0.00     0.049 A 
ATOM     15  N   UNL A   1      38.974  30.204  32.047  1.00  0.00    -0.248 NA
ATOM     16  C   UNL A   1      36.863  31.178  31.856  1.00  0.00     0.031 C 
ATOM     17  C   UNL A   1      38.557  28.565  27.910  1.00  0.00     0.029 A 
ATOM     18  N   UNL A   1      39.863  28.641  29.725  1.00  0.00    -0.354 N 
ATOM     19  C   UNL A   1      38.698  30.926  33.202  1.00  0.00     0.074 A 
ATOM     20  C   UNL A   1      37.397  31.535  33.015  1.00  0.00     0.031 C 
ATOM     21  C   UNL A   1      39.676  27.882  27.629  1.00  0.00     0.029 A 
ATOM     22  C   UNL A   1      40.584  27.970  28.767  1.00  0.00     0.049 A 
ATOM     23  H   UNL A   1      40.187  28.787  30.644  1.00  0.00     0.167 HD
ATOM     24  C   UNL A   1      39.457  31.065  34.316  1.00  0.00     0.034 A 
ATOM     25  C   UNL A   1      41.851  27.512  28.781  1.00  0.00     0.034 A 
ATOM     26  C   UNL A   1      40.742  30.444  34.496  1.00  0.00     0.049 A 
ATOM     27  C   UNL A   1      42.676  27.680  30.024  1.00  0.00     0.074 A 
ATOM     28  C   UNL A   1      41.557  30.463  35.614  1.00  0.00     0.029 A 
ATOM     29  N   UNL A   1      41.412  29.713  33.526  1.00  0.00    -0.354 N 
ATOM     30  N   UNL A   1      42.353  28.261  31.153  1.00  0.00    -0.248 NA
ATOM     31  C   UNL A   1      44.028  27.103  30.010  1.00  0.00     0.031 C 
ATOM     32  C   UNL A   1      42.738  29.779  35.305  1.00  0.00     0.029 A 
ATOM     33  C   UNL A   1      42.638  29.291  34.012  1.00  0.00     0.049 A 
ATOM     34  H   UNL A   1      41.067  29.522  32.624  1.00  0.00     0.167 HD
ATOM     35  C   UNL A   1      43.441  28.086  31.998  1.00  0.00     0.074 A 
ATOM     36  C   UNL A   1      44.434  27.342  31.251  1.00  0.00     0.031 C 
ATOM     37  C   UNL A   1      43.599  28.506  33.277  1.00  0.00     0.034 A 
BRANCH  24  38
ATOM     38  C   UNL A   1      38.911  31.922  35.430  1.00  0.00     0.023 A 
ATOM     39  C   UNL A   1      39.011  33.326  35.356  1.00  0.00     0.012 A 
ATOM     40  C   UNL A   1      38.266  31.336  36.539  1.00  0.00     0.148 A 
ATOM     41  C   UNL A   1      38.526  34.130  36.387  1.00  0.00     0.002 A 
ATOM     42  C   UNL A   1      37.742  32.146  37.539  1.00  0.00     0.091 A 
ATOM     43  F   UNL A   1      38.194  29.999  36.606  1.00  0.00    -0.205 F 
ATOM     44  C   UNL A   1      37.884  33.541  37.473  1.00  0.00     0.022 A 
BRANCH  42  45
ATOM     45  S   UNL A   1      36.825  31.482  38.935  1.00  0.00     0.127 S 
ATOM     46  O   UNL A   1      37.815  31.572  40.007  1.00  0.00    -0.237 OA
ATOM     47  O   UNL A   1      35.712  32.425  39.051  1.00  0.00    -0.237 OA
ATOM     48  O   UNL A   1      36.435  30.132  38.549  1.00  0.00    -0.744 OA
ENDBRANCH  42  45
ENDBRANCH  24  38
BRANCH  25  49
ATOM     49  C   UNL A   1      42.389  26.832  27.571  1.00  0.00     0.023 A 
ATOM     50  C   UNL A   1      42.850  27.603  26.488  1.00  0.00     0.012 A 
ATOM     51  C   UNL A   1      42.523  25.430  27.529  1.00  0.00     0.148 A 
ATOM     52  C   UNL A   1      43.423  26.987  25.375  1.00  0.00     0.002 A 
ATOM     53  C   UNL A   1      43.145  24.828  26.443  1.00  0.00     0.091 A 
ATOM     54  F   UNL A   1      42.074  24.719  28.573  1.00  0.00    -0.205 F 
ATOM     55  C   UNL A   1      43.582  25.603  25.357  1.00  0.00     0.022 A 
BRANCH  53  56
ATOM     56  S   UNL A   1      43.519  23.072  26.392  1.00  0.00     0.127 S 
ATOM     57  O   UNL A   1      44.979  23.076  26.442  1.00  0.00    -0.237 OA
ATOM     58  O   UNL A   1      42.861  22.594  27.607  1.00  0.00    -0.237 OA
ATOM     59  O   UNL A   1      42.937  22.577  25.153  1.00  0.00    -0.744 OA
ENDBRANCH  53  56
ENDBRANCH  25  49
BRANCH  37  60
ATOM     60  C   UNL A   1      44.866  28.125  33.996  1.00  0.00     0.023 A 
ATOM     61  C   UNL A   1      45.965  29.005  34.012  1.00  0.00     0.012 A 
ATOM     62  C   UNL A   1      44.915  26.938  34.753  1.00  0.00     0.148 A 
ATOM     63  C   UNL A   1      47.102  28.698  34.760  1.00  0.00     0.002 A 
ATOM     64  C   UNL A   1      46.029  26.665  35.537  1.00  0.00     0.091 A 
ATOM     65  F   UNL A   1      43.863  26.106  34.706  1.00  0.00    -0.205 F 
ATOM     66  C   UNL A   1      47.128  27.539  35.534  1.00  0.00     0.022 A 
BRANCH  64  67
ATOM     67  S   UNL A   1      46.108  25.253  36.644  1.00  0.00     0.127 S 
ATOM     68  O   UNL A   1      47.450  25.392  37.209  1.00  0.00    -0.237 OA
ATOM     69  O   UNL A   1      45.020  25.534  37.580  1.00  0.00    -0.237 OA
ATOM     70  O   UNL A   1      45.906  24.074  35.813  1.00  0.00    -0.744 OA
ENDBRANCH  64  67
ENDBRANCH  37  60
ENDBRANCH  11  12
ENDBRANCH   4   6
ENDBRANCH   1   2
BRANCH   1  71
ATOM     71  C   UNL A   1      33.000  28.989  24.011  1.00  0.00     0.042 C 
BRANCH  71  72
ATOM     72  C   UNL A   1      34.106  28.042  23.554  1.00  0.00     0.117 C 
BRANCH  72  73
ATOM     73  N   UNL A   1      33.661  27.198  22.461  1.00  0.00    -0.354 N 
ATOM     74  C   UNL A   1      33.392  25.861  22.437  1.00  0.00     0.242 C 
ATOM     75  H   UNL A   1      33.532  27.664  21.604  1.00  0.00     0.163 HD
ATOM     76  O   UNL A   1      33.167  25.368  21.328  1.00  0.00    -0.273 OA
BRANCH  74  77
ATOM     77  C   UNL A   1      33.308  25.061  23.765  1.00  0.00     0.173 C 
ATOM     78  C   UNL A   1      32.233  25.684  24.664  1.00  0.00     0.035 C 
ATOM     79  N   UNL A   1      32.997  23.647  23.512  1.00  0.00    -0.344 N 
ATOM     80  C   UNL A   1      30.822  25.403  24.139  1.00  0.00     0.004 C 
ATOM     81  C   UNL A   1      31.667  23.268  23.057  1.00  0.00     0.119 C 
ATOM     82  C   UNL A   1      30.599  23.904  23.947  1.00  0.00     0.022 C 
BRANCH  79  83
ATOM     83  C   UNL A   1      33.818  22.680  24.051  1.00  0.00     0.133 A 
ATOM     84  C   UNL A   1      33.375  21.374  24.086  1.00  0.00     0.076 A 
ATOM     85  N   UNL A   1      35.031  23.023  24.510  1.00  0.00    -0.211 NA
ATOM     86  C   UNL A   1      34.232  20.423  24.598  1.00  0.00     0.076 A 
ATOM     87  C   UNL A   1      35.792  22.035  25.017  1.00  0.00     0.162 A 
ATOM     88  N   UNL A   1      35.446  20.738  25.083  1.00  0.00    -0.228 NA
BRANCH  86  89
ATOM     89  C   UNL A   1      33.862  19.006  24.634  1.00  0.00     0.000 A 
ATOM     90  C   UNL A   1      32.575  18.607  25.029  1.00  0.00     0.010 A 
ATOM     91  C   UNL A   1      34.778  18.012  24.251  1.00  0.00     0.010 A 
ATOM     92  C   UNL A   1      32.208  17.259  25.017  1.00  0.00     0.001 A 
ATOM     93  C   UNL A   1      34.416  16.663  24.249  1.00  0.00     0.001 A 
ATOM     94  C   UNL A   1      33.129  16.288  24.626  1.00  0.00     0.000 A 
ENDBRANCH  86  89
BRANCH  87  95
ATOM     95  C   UNL A   1      37.105  22.401  25.559  1.00  0.00     0.021 A 
ATOM     96  C   UNL A   1      37.379  23.719  25.968  1.00  0.00     0.012 A 
ATOM     97  C   UNL A   1      38.123  21.441  25.694  1.00  0.00     0.032 A 
ATOM     98  C   UNL A   1      38.625  24.067  26.501  1.00  0.00     0.002 A 
ATOM     99  C   UNL A   1      39.370  21.795  26.207  1.00  0.00     0.041 A 
ATOM    100  C   UNL A   1      39.624  23.103  26.614  1.00  0.00     0.020 A 
ATOM    101  Cl  UNL A   1      40.612  20.610  26.335  1.00  0.00    -0.084 Cl
ENDBRANCH  87  95
ENDBRANCH  79  83
ENDBRANCH  74  77
ENDBRANCH  72  73
ENDBRANCH  71  72
ENDBRANCH   1  71
TORSDOF 16
ENDMDL
