MODEL 1
REMARK VINA RESULT:     -11.5      0.000      0.000
REMARK SMILES Cc1noc(C)c1[C@@H](C)NC(=O)N[C@H](CO)C(=O)NCCCNC(=O)c1ccc(-c2c3nc(c(-c4cccc(S(=O)(=O)[O-])c4F)c4ccc([nH]4)c(-c4cccc(S(=O)(=O)[O-])c4F)c4nc(c(-c5cccc(S(=O)(=O)[O-])c5F)c5ccc2[nH]5)C=C4)C=C3)cc1
REMARK SMILES IDX 21 1 20 2 19 3 17 4 18 5 14 7 13 8 10 9 11 10 12 12 8 14
REMARK SMILES IDX 9 15 7 16 1 17 2 18 3 19 4 20 5 21 6 22 15 23 16 24 22 26
REMARK SMILES IDX 23 27 24 28 25 30 26 31 27 32 88 33 28 34 87 35 29 36 30 37
REMARK SMILES IDX 31 38 81 39 32 40 86 41 80 42 82 43 33 44 85 45 79 46 78 47
REMARK SMILES IDX 34 49 66 50 46 51 65 52 47 53 50 54 64 55 83 56 48 57 49 58
REMARK SMILES IDX 63 60 84 61 51 62 35 63 36 64 44 65 37 66 39 67 45 68 38 69
REMARK SMILES IDX 40 70 41 71 42 72 43 73 67 74 68 75 76 76 69 77 71 78 77 79
REMARK SMILES IDX 70 80 72 81 73 82 74 83 75 84 52 85 53 86 61 87 54 88 56 89
REMARK SMILES IDX 62 90 55 91 57 92 58 93 59 94 60 95
REMARK H PARENT 19 6 10 11 13 13 16 25 23 29 82 48 50 59
REMARK Flexibility Score: inf
ROOT
ATOM      1  C   UNL A   1      31.787  28.793  26.390  1.00  0.00     0.042 C 
ENDROOT
BRANCH   1   2
ATOM      2  C   UNL A   1      32.455  27.426  26.598  1.00  0.00     0.117 C 
BRANCH   2   3
ATOM      3  N   UNL A   1      31.551  26.323  26.907  1.00  0.00    -0.354 N 
ATOM      4  C   UNL A   1      30.916  25.386  26.147  1.00  0.00     0.245 C 
ATOM      5  O   UNL A   1      30.487  24.398  26.762  1.00  0.00    -0.273 OA
ATOM      6  H   UNL A   1      31.357  26.239  27.868  1.00  0.00     0.163 HD
BRANCH   4   7
ATOM      7  C   UNL A   1      30.804  25.405  24.604  1.00  0.00     0.198 C 
BRANCH   7   8
ATOM      8  N   UNL A   1      30.151  26.530  23.944  1.00  0.00    -0.324 N 
ATOM      9  N   UNL A   1      31.674  27.598  22.488  1.00  0.00    -0.331 N 
ATOM     10  C   UNL A   1      30.469  27.430  23.021  1.00  0.00     0.315 C 
ATOM     11  H   UNL A   1      31.632  28.067  21.623  1.00  0.00     0.165 HD
ATOM     12  O   UNL A   1      29.543  28.122  22.595  1.00  0.00    -0.249 OA
ATOM     13  H   UNL A   1      29.230  26.655  24.270  1.00  0.00     0.166 HD
BRANCH   9  14
ATOM     14  C   UNL A   1      33.041  27.262  22.859  1.00  0.00     0.116 C 
ATOM     15  C   UNL A   1      33.967  28.293  22.217  1.00  0.00     0.036 C 
BRANCH  14  16
ATOM     16  C   UNL A   1      33.390  25.856  22.464  1.00  0.00     0.040 A 
ATOM     17  C   UNL A   1      34.564  24.847  24.608  1.00  0.00     0.071 C 
ATOM     18  C   UNL A   1      34.005  24.819  23.235  1.00  0.00     0.086 A 
ATOM     19  N   UNL A   1      34.085  23.679  22.541  1.00  0.00    -0.085 NA
ATOM     20  O   UNL A   1      33.560  23.940  21.307  1.00  0.00    -0.361 OA
ATOM     21  C   UNL A   1      33.132  25.224  21.255  1.00  0.00     0.139 A 
ATOM     22  C   UNL A   1      32.521  25.589  19.964  1.00  0.00     0.091 C 
ENDBRANCH  14  16
ENDBRANCH   9  14
ENDBRANCH   7   8
BRANCH   7  23
ATOM     23  C   UNL A   1      30.426  24.012  24.036  1.00  0.00     0.191 C 
BRANCH  23  24
ATOM     24  O   UNL A   1      30.727  23.858  22.648  1.00  0.00    -0.394 OA
ATOM     25  H   UNL A   1      31.191  24.649  22.328  1.00  0.00     0.210 HD
ENDBRANCH  23  24
ENDBRANCH   7  23
ENDBRANCH   4   7
ENDBRANCH   2   3
ENDBRANCH   1   2
BRANCH   1  26
ATOM     26  C   UNL A   1      32.536  29.806  25.515  1.00  0.00     0.118 C 
BRANCH  26  27
ATOM     27  N   UNL A   1      32.398  31.155  26.044  1.00  0.00    -0.352 N 
ATOM     28  C   UNL A   1      33.062  31.820  27.048  1.00  0.00     0.251 C 
ATOM     29  H   UNL A   1      31.700  31.690  25.602  1.00  0.00     0.163 HD
ATOM     30  O   UNL A   1      32.514  32.825  27.506  1.00  0.00    -0.269 OA
BRANCH  28  31
ATOM     31  C   UNL A   1      34.393  31.423  27.593  1.00  0.00     0.039 A 
ATOM     32  C   UNL A   1      34.546  30.103  28.048  1.00  0.00     0.014 A 
ATOM     33  C   UNL A   1      35.435  32.322  27.825  1.00  0.00     0.014 A 
ATOM     34  C   UNL A   1      35.707  29.697  28.726  1.00  0.00     0.010 A 
ATOM     35  C   UNL A   1      36.625  31.898  28.452  1.00  0.00     0.010 A 
ATOM     36  C   UNL A   1      36.770  30.589  28.938  1.00  0.00    -0.014 A 
BRANCH  36  37
ATOM     37  C   UNL A   1      37.993  30.153  29.689  1.00  0.00     0.031 A 
ATOM     38  C   UNL A   1      38.268  30.645  31.094  1.00  0.00     0.074 A 
ATOM     39  C   UNL A   1      38.880  29.309  29.120  1.00  0.00     0.049 A 
ATOM     40  N   UNL A   1      39.248  30.328  31.906  1.00  0.00    -0.248 NA
ATOM     41  C   UNL A   1      37.326  31.623  31.658  1.00  0.00     0.031 C 
ATOM     42  C   UNL A   1      38.791  28.782  27.758  1.00  0.00     0.029 A 
ATOM     43  N   UNL A   1      40.041  28.752  29.612  1.00  0.00    -0.354 N 
ATOM     44  C   UNL A   1      39.058  31.083  33.058  1.00  0.00     0.074 A 
ATOM     45  C   UNL A   1      37.882  31.895  32.831  1.00  0.00     0.031 C 
ATOM     46  C   UNL A   1      39.842  27.981  27.525  1.00  0.00     0.029 A 
ATOM     47  C   UNL A   1      40.700  27.951  28.707  1.00  0.00     0.049 A 
ATOM     48  H   UNL A   1      40.368  28.912  30.527  1.00  0.00     0.167 HD
ATOM     49  C   UNL A   1      39.773  31.091  34.212  1.00  0.00     0.034 A 
ATOM     50  C   UNL A   1      41.863  27.273  28.805  1.00  0.00     0.034 A 
ATOM     51  C   UNL A   1      40.928  30.268  34.466  1.00  0.00     0.049 A 
ATOM     52  C   UNL A   1      42.635  27.289  30.099  1.00  0.00     0.074 A 
ATOM     53  C   UNL A   1      41.661  30.154  35.636  1.00  0.00     0.029 A 
ATOM     54  N   UNL A   1      41.533  29.436  33.538  1.00  0.00    -0.354 N 
ATOM     55  N   UNL A   1      42.342  27.886  31.228  1.00  0.00    -0.248 NA
ATOM     56  C   UNL A   1      43.879  26.504  30.144  1.00  0.00     0.031 C 
ATOM     57  C   UNL A   1      42.731  29.284  35.404  1.00  0.00     0.029 A 
ATOM     58  C   UNL A   1      42.640  28.821  34.103  1.00  0.00     0.049 A 
ATOM     59  H   UNL A   1      41.223  29.301  32.614  1.00  0.00     0.167 HD
ATOM     60  C   UNL A   1      43.342  27.518  32.124  1.00  0.00     0.074 A 
ATOM     61  C   UNL A   1      44.236  26.630  31.414  1.00  0.00     0.031 C 
ATOM     62  C   UNL A   1      43.506  27.896  33.417  1.00  0.00     0.034 A 
BRANCH  49  63
ATOM     63  C   UNL A   1      39.303  31.995  35.327  1.00  0.00     0.023 A 
ATOM     64  C   UNL A   1      38.403  31.502  36.293  1.00  0.00     0.012 A 
ATOM     65  C   UNL A   1      39.811  33.304  35.463  1.00  0.00     0.148 A 
ATOM     66  C   UNL A   1      37.987  32.305  37.355  1.00  0.00     0.002 A 
ATOM     67  C   UNL A   1      39.428  34.083  36.549  1.00  0.00     0.091 A 
ATOM     68  F   UNL A   1      40.659  33.761  34.531  1.00  0.00    -0.205 F 
ATOM     69  C   UNL A   1      38.505  33.591  37.487  1.00  0.00     0.022 A 
BRANCH  67  70
ATOM     70  S   UNL A   1      40.102  35.719  36.860  1.00  0.00     0.127 S 
ATOM     71  O   UNL A   1      39.629  36.460  35.692  1.00  0.00    -0.237 OA
ATOM     72  O   UNL A   1      39.453  36.086  38.118  1.00  0.00    -0.237 OA
ATOM     73  O   UNL A   1      41.546  35.550  36.948  1.00  0.00    -0.744 OA
ENDBRANCH  67  70
ENDBRANCH  49  63
BRANCH  50  74
ATOM     74  C   UNL A   1      42.357  26.472  27.646  1.00  0.00     0.023 A 
ATOM     75  C   UNL A   1      43.175  27.081  26.674  1.00  0.00     0.012 A 
ATOM     76  C   UNL A   1      42.021  25.111  27.505  1.00  0.00     0.148 A 
ATOM     77  C   UNL A   1      43.622  26.358  25.566  1.00  0.00     0.002 A 
ATOM     78  C   UNL A   1      42.520  24.382  26.433  1.00  0.00     0.091 A 
ATOM     79  F   UNL A   1      41.228  24.554  28.431  1.00  0.00    -0.205 F 
ATOM     80  C   UNL A   1      43.304  25.008  25.451  1.00  0.00     0.022 A 
BRANCH  78  81
ATOM     81  S   UNL A   1      42.275  22.610  26.275  1.00  0.00     0.127 S 
ATOM     82  O   UNL A   1      40.822  22.511  26.209  1.00  0.00    -0.237 OA
ATOM     83  O   UNL A   1      42.973  22.321  25.022  1.00  0.00    -0.237 OA
ATOM     84  O   UNL A   1      42.898  22.018  27.455  1.00  0.00    -0.744 OA
ENDBRANCH  78  81
ENDBRANCH  50  74
BRANCH  62  85
ATOM     85  C   UNL A   1      44.675  27.322  34.180  1.00  0.00     0.023 A 
ATOM     86  C   UNL A   1      45.910  28.000  34.198  1.00  0.00     0.012 A 
ATOM     87  C   UNL A   1      44.528  26.141  34.937  1.00  0.00     0.148 A 
ATOM     88  C   UNL A   1      46.988  27.494  34.925  1.00  0.00     0.002 A 
ATOM     89  C   UNL A   1      45.590  25.671  35.700  1.00  0.00     0.091 A 
ATOM     90  F   UNL A   1      43.351  25.498  34.896  1.00  0.00    -0.205 F 
ATOM     91  C   UNL A   1      46.825  26.338  35.685  1.00  0.00     0.022 A 
BRANCH  89  92
ATOM     92  S   UNL A   1      45.446  24.245  36.784  1.00  0.00     0.127 S 
ATOM     93  O   UNL A   1      44.479  24.716  37.773  1.00  0.00    -0.237 OA
ATOM     94  O   UNL A   1      44.937  23.215  35.876  1.00  0.00    -0.237 OA
ATOM     95  O   UNL A   1      46.787  23.991  37.295  1.00  0.00    -0.744 OA
ENDBRANCH  89  92
ENDBRANCH  62  85
ENDBRANCH  36  37
ENDBRANCH  28  31
ENDBRANCH  26  27
ENDBRANCH   1  26
TORSDOF 18
ENDMDL
MODEL 2
REMARK VINA RESULT:     -11.4      4.827      9.822
REMARK SMILES Cc1noc(C)c1[C@@H](C)NC(=O)N[C@H](CO)C(=O)NCCCNC(=O)c1ccc(-c2c3nc(c(-c4cccc(S(=O)(=O)[O-])c4F)c4ccc([nH]4)c(-c4cccc(S(=O)(=O)[O-])c4F)c4nc(c(-c5cccc(S(=O)(=O)[O-])c5F)c5ccc2[nH]5)C=C4)C=C3)cc1
REMARK SMILES IDX 21 1 20 2 19 3 17 4 18 5 14 7 13 8 10 9 11 10 12 12 8 14
REMARK SMILES IDX 9 15 7 16 1 17 2 18 3 19 4 20 5 21 6 22 15 23 16 24 22 26
REMARK SMILES IDX 23 27 24 28 25 30 26 31 27 32 88 33 28 34 87 35 29 36 30 37
REMARK SMILES IDX 31 38 81 39 32 40 86 41 80 42 82 43 33 44 85 45 79 46 78 47
REMARK SMILES IDX 34 49 66 50 46 51 65 52 47 53 50 54 64 55 83 56 48 57 49 58
REMARK SMILES IDX 63 60 84 61 51 62 35 63 36 64 44 65 37 66 39 67 45 68 38 69
REMARK SMILES IDX 40 70 41 71 42 72 43 73 67 74 68 75 76 76 69 77 71 78 77 79
REMARK SMILES IDX 70 80 72 81 73 82 74 83 75 84 52 85 53 86 61 87 54 88 56 89
REMARK SMILES IDX 62 90 55 91 57 92 58 93 59 94 60 95
REMARK H PARENT 19 6 10 11 13 13 16 25 23 29 82 48 50 59
REMARK Flexibility Score: inf
ROOT
ATOM      1  C   UNL A   1      35.006  21.293  24.606  1.00  0.00     0.042 C 
ENDROOT
BRANCH   1   2
ATOM      2  C   UNL A   1      33.589  21.486  25.166  1.00  0.00     0.117 C 
BRANCH   2   3
ATOM      3  N   UNL A   1      33.514  21.878  26.569  1.00  0.00    -0.354 N 
ATOM      4  C   UNL A   1      32.585  22.545  27.311  1.00  0.00     0.245 C 
ATOM      5  O   UNL A   1      32.688  22.418  28.540  1.00  0.00    -0.273 OA
ATOM      6  H   UNL A   1      34.302  21.604  27.091  1.00  0.00     0.163 HD
BRANCH   4   7
ATOM      7  C   UNL A   1      31.375  23.327  26.745  1.00  0.00     0.198 C 
BRANCH   7   8
ATOM      8  N   UNL A   1      31.245  24.753  27.023  1.00  0.00    -0.324 N 
ATOM      9  N   UNL A   1      32.312  26.000  25.323  1.00  0.00    -0.331 N 
ATOM     10  C   UNL A   1      31.579  25.891  26.426  1.00  0.00     0.315 C 
ATOM     11  H   UNL A   1      32.173  26.864  24.873  1.00  0.00     0.165 HD
ATOM     12  O   UNL A   1      31.114  26.920  26.919  1.00  0.00    -0.249 OA
ATOM     13  H   UNL A   1      30.791  24.913  27.882  1.00  0.00     0.166 HD
BRANCH   9  14
ATOM     14  C   UNL A   1      33.267  25.163  24.611  1.00  0.00     0.116 C 
ATOM     15  C   UNL A   1      34.633  25.349  25.267  1.00  0.00     0.036 C 
BRANCH  14  16
ATOM     16  C   UNL A   1      33.289  25.479  23.144  1.00  0.00     0.040 A 
ATOM     17  C   UNL A   1      33.606  28.102  23.043  1.00  0.00     0.071 C 
ATOM     18  C   UNL A   1      33.475  26.735  22.483  1.00  0.00     0.086 A 
ATOM     19  N   UNL A   1      33.496  26.589  21.155  1.00  0.00    -0.085 NA
ATOM     20  O   UNL A   1      33.298  25.260  20.909  1.00  0.00    -0.361 OA
ATOM     21  C   UNL A   1      33.187  24.590  22.082  1.00  0.00     0.139 A 
ATOM     22  C   UNL A   1      33.000  23.137  21.914  1.00  0.00     0.091 C 
ENDBRANCH  14  16
ENDBRANCH   9  14
ENDBRANCH   7   8
BRANCH   7  23
ATOM     23  C   UNL A   1      30.056  22.519  26.872  1.00  0.00     0.191 C 
BRANCH  23  24
ATOM     24  O   UNL A   1      29.179  23.011  27.887  1.00  0.00    -0.394 OA
ATOM     25  H   UNL A   1      29.082  22.342  28.583  1.00  0.00     0.210 HD
ENDBRANCH  23  24
ENDBRANCH   7  23
ENDBRANCH   4   7
ENDBRANCH   2   3
ENDBRANCH   1   2
BRANCH   1  26
ATOM     26  C   UNL A   1      36.162  21.890  25.420  1.00  0.00     0.118 C 
BRANCH  26  27
ATOM     27  N   UNL A   1      37.231  20.918  25.597  1.00  0.00    -0.352 N 
ATOM     28  C   UNL A   1      38.570  21.066  25.868  1.00  0.00     0.251 C 
ATOM     29  H   UNL A   1      36.942  19.982  25.504  1.00  0.00     0.163 HD
ATOM     30  O   UNL A   1      39.297  20.098  25.629  1.00  0.00    -0.269 OA
BRANCH  28  31
ATOM     31  C   UNL A   1      39.189  22.295  26.449  1.00  0.00     0.039 A 
ATOM     32  C   UNL A   1      38.780  23.536  25.936  1.00  0.00     0.014 A 
ATOM     33  C   UNL A   1      40.256  22.275  27.348  1.00  0.00     0.014 A 
ATOM     34  C   UNL A   1      39.428  24.725  26.307  1.00  0.00     0.010 A 
ATOM     35  C   UNL A   1      40.867  23.475  27.765  1.00  0.00     0.010 A 
ATOM     36  C   UNL A   1      40.485  24.716  27.230  1.00  0.00    -0.014 A 
BRANCH  36  37
ATOM     37  C   UNL A   1      41.190  25.988  27.597  1.00  0.00     0.031 A 
ATOM     38  C   UNL A   1      42.631  26.227  27.203  1.00  0.00     0.074 A 
ATOM     39  C   UNL A   1      40.547  26.951  28.292  1.00  0.00     0.049 A 
ATOM     40  N   UNL A   1      43.377  27.289  27.391  1.00  0.00    -0.248 NA
ATOM     41  C   UNL A   1      43.329  25.130  26.514  1.00  0.00     0.031 C 
ATOM     42  C   UNL A   1      39.175  26.858  28.791  1.00  0.00     0.029 A 
ATOM     43  N   UNL A   1      40.966  28.195  28.711  1.00  0.00    -0.354 N 
ATOM     44  C   UNL A   1      44.631  26.981  26.874  1.00  0.00     0.074 A 
ATOM     45  C   UNL A   1      44.554  25.621  26.386  1.00  0.00     0.031 C 
ATOM     46  C   UNL A   1      38.865  27.991  29.442  1.00  0.00     0.029 A 
ATOM     47  C   UNL A   1      40.020  28.886  29.433  1.00  0.00     0.049 A 
ATOM     48  H   UNL A   1      41.860  28.556  28.512  1.00  0.00     0.167 HD
ATOM     49  C   UNL A   1      45.742  27.758  26.785  1.00  0.00     0.034 A 
ATOM     50  C   UNL A   1      40.067  30.096  30.029  1.00  0.00     0.034 A 
ATOM     51  C   UNL A   1      45.826  29.122  27.240  1.00  0.00     0.049 A 
ATOM     52  C   UNL A   1      41.308  30.943  29.909  1.00  0.00     0.074 A 
ATOM     53  C   UNL A   1      46.887  30.005  27.113  1.00  0.00     0.029 A 
ATOM     54  N   UNL A   1      44.828  29.798  27.922  1.00  0.00    -0.354 N 
ATOM     55  N   UNL A   1      42.424  30.688  29.272  1.00  0.00    -0.248 NA
ATOM     56  C   UNL A   1      41.280  32.264  30.558  1.00  0.00     0.031 C 
ATOM     57  C   UNL A   1      46.544  31.201  27.753  1.00  0.00     0.029 A 
ATOM     58  C   UNL A   1      45.254  31.079  28.240  1.00  0.00     0.049 A 
ATOM     59  H   UNL A   1      43.946  29.425  28.147  1.00  0.00     0.167 HD
ATOM     60  C   UNL A   1      43.212  31.827  29.411  1.00  0.00     0.074 A 
ATOM     61  C   UNL A   1      42.438  32.782  30.174  1.00  0.00     0.031 C 
ATOM     62  C   UNL A   1      44.470  32.052  28.956  1.00  0.00     0.034 A 
BRANCH  49  63
ATOM     63  C   UNL A   1      46.965  27.165  26.128  1.00  0.00     0.023 A 
ATOM     64  C   UNL A   1      47.154  27.316  24.739  1.00  0.00     0.012 A 
ATOM     65  C   UNL A   1      47.964  26.528  26.893  1.00  0.00     0.148 A 
ATOM     66  C   UNL A   1      48.295  26.813  24.116  1.00  0.00     0.002 A 
ATOM     67  C   UNL A   1      49.121  26.070  26.272  1.00  0.00     0.091 A 
ATOM     68  F   UNL A   1      47.766  26.384  28.211  1.00  0.00    -0.205 F 
ATOM     69  C   UNL A   1      49.282  26.198  24.883  1.00  0.00     0.022 A 
BRANCH  67  70
ATOM     70  S   UNL A   1      50.490  25.342  27.181  1.00  0.00     0.127 S 
ATOM     71  O   UNL A   1      51.415  25.004  26.099  1.00  0.00    -0.237 OA
ATOM     72  O   UNL A   1      50.924  26.454  28.026  1.00  0.00    -0.237 OA
ATOM     73  O   UNL A   1      49.936  24.207  27.905  1.00  0.00    -0.744 OA
ENDBRANCH  67  70
ENDBRANCH  49  63
BRANCH  50  74
ATOM     74  C   UNL A   1      38.875  30.611  30.764  1.00  0.00     0.023 A 
ATOM     75  C   UNL A   1      38.684  30.262  32.116  1.00  0.00     0.012 A 
ATOM     76  C   UNL A   1      37.933  31.445  30.132  1.00  0.00     0.148 A 
ATOM     77  C   UNL A   1      37.560  30.707  32.813  1.00  0.00     0.002 A 
ATOM     78  C   UNL A   1      36.849  31.935  30.850  1.00  0.00     0.091 A 
ATOM     79  F   UNL A   1      38.123  31.753  28.841  1.00  0.00    -0.205 F 
ATOM     80  C   UNL A   1      36.649  31.551  32.184  1.00  0.00     0.022 A 
BRANCH  78  81
ATOM     81  S   UNL A   1      35.700  33.133  30.164  1.00  0.00     0.127 S 
ATOM     82  O   UNL A   1      35.467  34.013  31.303  1.00  0.00    -0.237 OA
ATOM     83  O   UNL A   1      36.488  33.718  29.080  1.00  0.00    -0.237 OA
ATOM     84  O   UNL A   1      34.546  32.360  29.713  1.00  0.00    -0.744 OA
ENDBRANCH  78  81
ENDBRANCH  50  74
BRANCH  62  85
ATOM     85  C   UNL A   1      45.091  33.401  29.225  1.00  0.00     0.023 A 
ATOM     86  C   UNL A   1      45.867  33.603  30.384  1.00  0.00     0.012 A 
ATOM     87  C   UNL A   1      44.960  34.452  28.294  1.00  0.00     0.148 A 
ATOM     88  C   UNL A   1      46.471  34.838  30.628  1.00  0.00     0.002 A 
ATOM     89  C   UNL A   1      45.606  35.661  28.518  1.00  0.00     0.091 A 
ATOM     90  F   UNL A   1      44.203  34.248  27.205  1.00  0.00    -0.205 F 
ATOM     91  C   UNL A   1      46.351  35.861  29.691  1.00  0.00     0.022 A 
BRANCH  89  92
ATOM     92  S   UNL A   1      45.588  37.004  27.324  1.00  0.00     0.127 S 
ATOM     93  O   UNL A   1      46.315  38.051  28.040  1.00  0.00    -0.237 OA
ATOM     94  O   UNL A   1      46.312  36.423  26.192  1.00  0.00    -0.237 OA
ATOM     95  O   UNL A   1      44.184  37.290  27.061  1.00  0.00    -0.744 OA
ENDBRANCH  89  92
ENDBRANCH  62  85
ENDBRANCH  36  37
ENDBRANCH  28  31
ENDBRANCH  26  27
ENDBRANCH   1  26
TORSDOF 18
ENDMDL
MODEL 3
REMARK VINA RESULT:     -11.2      5.072     10.161
REMARK SMILES Cc1noc(C)c1[C@@H](C)NC(=O)N[C@H](CO)C(=O)NCCCNC(=O)c1ccc(-c2c3nc(c(-c4cccc(S(=O)(=O)[O-])c4F)c4ccc([nH]4)c(-c4cccc(S(=O)(=O)[O-])c4F)c4nc(c(-c5cccc(S(=O)(=O)[O-])c5F)c5ccc2[nH]5)C=C4)C=C3)cc1
REMARK SMILES IDX 21 1 20 2 19 3 17 4 18 5 14 7 13 8 10 9 11 10 12 12 8 14
REMARK SMILES IDX 9 15 7 16 1 17 2 18 3 19 4 20 5 21 6 22 15 23 16 24 22 26
REMARK SMILES IDX 23 27 24 28 25 30 26 31 27 32 88 33 28 34 87 35 29 36 30 37
REMARK SMILES IDX 31 38 81 39 32 40 86 41 80 42 82 43 33 44 85 45 79 46 78 47
REMARK SMILES IDX 34 49 66 50 46 51 65 52 47 53 50 54 64 55 83 56 48 57 49 58
REMARK SMILES IDX 63 60 84 61 51 62 35 63 36 64 44 65 37 66 39 67 45 68 38 69
REMARK SMILES IDX 40 70 41 71 42 72 43 73 67 74 68 75 76 76 69 77 71 78 77 79
REMARK SMILES IDX 70 80 72 81 73 82 74 83 75 84 52 85 53 86 61 87 54 88 56 89
REMARK SMILES IDX 62 90 55 91 57 92 58 93 59 94 60 95
REMARK H PARENT 19 6 10 11 13 13 16 25 23 29 82 48 50 59
REMARK Flexibility Score: inf
ROOT
ATOM      1  C   UNL A   1      37.138  20.056  24.638  1.00  0.00     0.042 C 
ENDROOT
BRANCH   1   2
ATOM      2  C   UNL A   1      35.653  20.266  24.967  1.00  0.00     0.117 C 
BRANCH   2   3
ATOM      3  N   UNL A   1      35.376  21.106  26.128  1.00  0.00    -0.354 N 
ATOM      4  C   UNL A   1      34.234  21.619  26.667  1.00  0.00     0.245 C 
ATOM      5  O   UNL A   1      34.325  22.015  27.838  1.00  0.00    -0.273 OA
ATOM      6  H   UNL A   1      36.187  21.355  26.627  1.00  0.00     0.163 HD
BRANCH   4   7
ATOM      7  C   UNL A   1      32.845  21.633  25.986  1.00  0.00     0.198 C 
BRANCH   7   8
ATOM      8  N   UNL A   1      31.734  22.324  26.630  1.00  0.00    -0.324 N 
ATOM      9  N   UNL A   1      31.700  24.588  25.956  1.00  0.00    -0.331 N 
ATOM     10  C   UNL A   1      31.200  23.539  26.599  1.00  0.00     0.315 C 
ATOM     11  H   UNL A   1      31.017  25.276  25.786  1.00  0.00     0.165 HD
ATOM     12  O   UNL A   1      30.119  23.673  27.177  1.00  0.00    -0.249 OA
ATOM     13  H   UNL A   1      31.254  21.732  27.253  1.00  0.00     0.166 HD
BRANCH   9  14
ATOM     14  C   UNL A   1      33.004  24.976  25.436  1.00  0.00     0.116 C 
ATOM     15  C   UNL A   1      33.363  26.332  26.040  1.00  0.00     0.036 C 
BRANCH  14  16
ATOM     16  C   UNL A   1      33.014  24.996  23.936  1.00  0.00     0.040 A 
ATOM     17  C   UNL A   1      31.110  26.713  23.290  1.00  0.00     0.071 C 
ATOM     18  C   UNL A   1      32.226  25.774  23.028  1.00  0.00     0.086 A 
ATOM     19  N   UNL A   1      32.583  25.552  21.759  1.00  0.00    -0.085 NA
ATOM     20  O   UNL A   1      33.578  24.616  21.795  1.00  0.00    -0.361 OA
ATOM     21  C   UNL A   1      33.851  24.290  23.082  1.00  0.00     0.139 A 
ATOM     22  C   UNL A   1      34.937  23.303  23.221  1.00  0.00     0.091 C 
ENDBRANCH  14  16
ENDBRANCH   9  14
ENDBRANCH   7   8
BRANCH   7  23
ATOM     23  C   UNL A   1      32.486  20.250  25.381  1.00  0.00     0.191 C 
BRANCH  23  24
ATOM     24  O   UNL A   1      32.689  19.160  26.283  1.00  0.00    -0.394 OA
ATOM     25  H   UNL A   1      31.997  19.170  26.964  1.00  0.00     0.210 HD
ENDBRANCH  23  24
ENDBRANCH   7  23
ENDBRANCH   4   7
ENDBRANCH   2   3
ENDBRANCH   1   2
BRANCH   1  26
ATOM     26  C   UNL A   1      38.144  20.965  25.358  1.00  0.00     0.118 C 
BRANCH  26  27
ATOM     27  N   UNL A   1      39.231  20.186  25.932  1.00  0.00    -0.352 N 
ATOM     28  C   UNL A   1      40.430  20.558  26.492  1.00  0.00     0.251 C 
ATOM     29  H   UNL A   1      39.080  19.214  25.917  1.00  0.00     0.163 HD
ATOM     30  O   UNL A   1      41.296  19.684  26.585  1.00  0.00    -0.269 OA
BRANCH  28  31
ATOM     31  C   UNL A   1      40.739  21.924  27.010  1.00  0.00     0.039 A 
ATOM     32  C   UNL A   1      40.367  23.022  26.218  1.00  0.00     0.014 A 
ATOM     33  C   UNL A   1      41.513  22.166  28.146  1.00  0.00     0.014 A 
ATOM     34  C   UNL A   1      40.767  24.326  26.549  1.00  0.00     0.010 A 
ATOM     35  C   UNL A   1      41.863  23.482  28.510  1.00  0.00     0.010 A 
ATOM     36  C   UNL A   1      41.522  24.580  27.705  1.00  0.00    -0.014 A 
BRANCH  36  37
ATOM     37  C   UNL A   1      41.969  25.974  28.034  1.00  0.00     0.031 A 
ATOM     38  C   UNL A   1      43.364  26.451  27.695  1.00  0.00     0.074 A 
ATOM     39  C   UNL A   1      41.128  26.835  28.645  1.00  0.00     0.049 A 
ATOM     40  N   UNL A   1      43.898  27.637  27.860  1.00  0.00    -0.248 NA
ATOM     41  C   UNL A   1      44.283  25.467  27.099  1.00  0.00     0.031 C 
ATOM     42  C   UNL A   1      39.769  26.520  29.085  1.00  0.00     0.029 A 
ATOM     43  N   UNL A   1      41.295  28.152  29.016  1.00  0.00    -0.354 N 
ATOM     44  C   UNL A   1      45.213  27.537  27.418  1.00  0.00     0.074 A 
ATOM     45  C   UNL A   1      45.406  26.165  27.001  1.00  0.00     0.031 C 
ATOM     46  C   UNL A   1      39.227  27.606  29.659  1.00  0.00     0.029 A 
ATOM     47  C   UNL A   1      40.203  28.693  29.655  1.00  0.00     0.049 A 
ATOM     48  H   UNL A   1      42.121  28.659  28.839  1.00  0.00     0.167 HD
ATOM     49  C   UNL A   1      46.171  28.496  27.339  1.00  0.00     0.034 A 
ATOM     50  C   UNL A   1      40.002  29.917  30.186  1.00  0.00     0.034 A 
ATOM     51  C   UNL A   1      45.987  29.872  27.722  1.00  0.00     0.049 A 
ATOM     52  C   UNL A   1      41.078  30.968  30.078  1.00  0.00     0.074 A 
ATOM     53  C   UNL A   1      46.880  30.925  27.597  1.00  0.00     0.029 A 
ATOM     54  N   UNL A   1      44.849  30.387  28.320  1.00  0.00    -0.354 N 
ATOM     55  N   UNL A   1      42.254  30.890  29.508  1.00  0.00    -0.248 NA
ATOM     56  C   UNL A   1      40.780  32.290  30.653  1.00  0.00     0.031 C 
ATOM     57  C   UNL A   1      46.296  32.067  28.155  1.00  0.00     0.029 A 
ATOM     58  C   UNL A   1      45.023  31.737  28.588  1.00  0.00     0.049 A 
ATOM     59  H   UNL A   1      44.036  29.872  28.525  1.00  0.00     0.167 HD
ATOM     60  C   UNL A   1      42.819  32.157  29.621  1.00  0.00     0.074 A 
ATOM     61  C   UNL A   1      41.847  32.990  30.295  1.00  0.00     0.031 C 
ATOM     62  C   UNL A   1      44.040  32.584  29.213  1.00  0.00     0.034 A 
BRANCH  49  63
ATOM     63  C   UNL A   1      47.515  28.104  26.772  1.00  0.00     0.023 A 
ATOM     64  C   UNL A   1      48.580  27.801  27.645  1.00  0.00     0.012 A 
ATOM     65  C   UNL A   1      47.703  27.960  25.382  1.00  0.00     0.148 A 
ATOM     66  C   UNL A   1      49.818  27.397  27.146  1.00  0.00     0.002 A 
ATOM     67  C   UNL A   1      48.925  27.512  24.893  1.00  0.00     0.091 A 
ATOM     68  F   UNL A   1      46.683  28.261  24.564  1.00  0.00    -0.205 F 
ATOM     69  C   UNL A   1      49.987  27.245  25.772  1.00  0.00     0.022 A 
BRANCH  67  70
ATOM     70  S   UNL A   1      49.221  27.199  23.148  1.00  0.00     0.127 S 
ATOM     71  O   UNL A   1      50.673  27.032  23.121  1.00  0.00    -0.237 OA
ATOM     72  O   UNL A   1      48.463  25.969  22.923  1.00  0.00    -0.237 OA
ATOM     73  O   UNL A   1      48.713  28.365  22.438  1.00  0.00    -0.744 OA
ENDBRANCH  67  70
ENDBRANCH  49  63
BRANCH  50  74
ATOM     74  C   UNL A   1      38.699  30.241  30.837  1.00  0.00     0.023 A 
ATOM     75  C   UNL A   1      38.440  29.789  32.146  1.00  0.00     0.012 A 
ATOM     76  C   UNL A   1      37.718  30.997  30.166  1.00  0.00     0.148 A 
ATOM     77  C   UNL A   1      37.216  30.054  32.761  1.00  0.00     0.002 A 
ATOM     78  C   UNL A   1      36.525  31.310  30.808  1.00  0.00     0.091 A 
ATOM     79  F   UNL A   1      37.975  31.405  28.916  1.00  0.00    -0.205 F 
ATOM     80  C   UNL A   1      36.264  30.823  32.097  1.00  0.00     0.022 A 
BRANCH  78  81
ATOM     81  S   UNL A   1      35.300  32.405  30.085  1.00  0.00     0.127 S 
ATOM     82  O   UNL A   1      34.844  31.631  28.936  1.00  0.00    -0.237 OA
ATOM     83  O   UNL A   1      34.329  32.529  31.172  1.00  0.00    -0.237 OA
ATOM     84  O   UNL A   1      36.010  33.642  29.774  1.00  0.00    -0.744 OA
ENDBRANCH  78  81
ENDBRANCH  50  74
BRANCH  62  85
ATOM     85  C   UNL A   1      44.395  34.034  29.438  1.00  0.00     0.023 A 
ATOM     86  C   UNL A   1      44.836  34.465  30.705  1.00  0.00     0.012 A 
ATOM     87  C   UNL A   1      44.356  34.957  28.372  1.00  0.00     0.148 A 
ATOM     88  C   UNL A   1      45.197  35.797  30.916  1.00  0.00     0.002 A 
ATOM     89  C   UNL A   1      44.766  36.269  28.577  1.00  0.00     0.091 A 
ATOM     90  F   UNL A   1      43.917  34.534  27.177  1.00  0.00    -0.205 F 
ATOM     91  C   UNL A   1      45.173  36.695  29.851  1.00  0.00     0.022 A 
BRANCH  89  92
ATOM     92  S   UNL A   1      44.859  37.472  27.246  1.00  0.00     0.127 S 
ATOM     93  O   UNL A   1      45.692  36.774  26.269  1.00  0.00    -0.237 OA
ATOM     94  O   UNL A   1      43.455  37.616  26.858  1.00  0.00    -0.237 OA
ATOM     95  O   UNL A   1      45.452  38.669  27.827  1.00  0.00    -0.744 OA
ENDBRANCH  89  92
ENDBRANCH  62  85
ENDBRANCH  36  37
ENDBRANCH  28  31
ENDBRANCH  26  27
ENDBRANCH   1  26
TORSDOF 18
ENDMDL
