MODEL 1
REMARK VINA RESULT:     -12.5      0.000      0.000
REMARK SMILES CC[C@@H](C)[C@H](NC(=O)N1CCn2c1nc1ccccc12)C(=O)N[C@H](C)C(=O)NCCCNC(=O)c1ccc(-c2c3nc(c(-c4cccc(S(=O)(=O)[O-])c4F)c4ccc([nH]4)c(-c4cccc(S(=O)(=O)[O-])c4F)c4nc(c(-c5cccc(S(=O)(=O)[O-])c5F)c5ccc2[nH]5)C=C4)C=C3)cc1
REMARK SMILES IDX 29 1 28 2 26 3 27 4 24 6 25 7 23 8 21 9 22 10 5 12 3 13 4 14
REMARK SMILES IDX 2 15 1 16 6 17 7 18 8 20 9 21 10 22 13 23 11 24 12 25 14 26
REMARK SMILES IDX 20 27 15 28 19 29 16 30 18 31 17 32 30 33 31 34 32 35 33 36
REMARK SMILES IDX 34 38 35 39 36 40 97 41 37 42 96 43 38 44 39 45 40 46 90 47
REMARK SMILES IDX 41 48 95 49 89 50 91 51 42 52 94 53 88 54 87 55 43 57 75 58
REMARK SMILES IDX 55 59 74 60 56 61 59 62 73 63 92 64 57 65 58 66 72 68 93 69
REMARK SMILES IDX 60 70 44 71 45 72 53 73 46 74 48 75 54 76 47 77 49 78 50 79
REMARK SMILES IDX 51 80 52 81 76 82 77 83 85 84 78 85 80 86 86 87 79 88 81 89
REMARK SMILES IDX 82 90 83 91 84 92 61 93 62 94 70 95 63 96 65 97 71 98 64 99
REMARK SMILES IDX 66 100 67 101 68 102 69 103
REMARK H PARENT 28 5 23 11 6 19 32 37 91 56 59 67
REMARK Flexibility Score: inf
ROOT
ATOM      1  C   UNL A   1      37.902  22.689  25.683  1.00  0.00     0.117 C 
ENDROOT
BRANCH   1   2
ATOM      2  N   UNL A   1      36.624  22.637  26.376  1.00  0.00    -0.354 N 
ATOM      3  C   UNL A   1      35.425  23.265  26.216  1.00  0.00     0.242 C 
ATOM      4  O   UNL A   1      34.502  22.782  26.893  1.00  0.00    -0.273 OA
ATOM      5  H   UNL A   1      36.625  22.006  27.131  1.00  0.00     0.163 HD
BRANCH   3   6
ATOM      6  C   UNL A   1      35.114  24.512  25.301  1.00  0.00     0.168 C 
ATOM      7  C   UNL A   1      34.773  24.100  23.865  1.00  0.00     0.041 C 
BRANCH   6   8
ATOM      8  N   UNL A   1      34.410  25.690  25.807  1.00  0.00    -0.343 N 
ATOM      9  C   UNL A   1      33.355  26.495  25.552  1.00  0.00     0.243 C 
ATOM     10  O   UNL A   1      33.015  27.106  26.583  1.00  0.00    -0.273 OA
ATOM     11  H   UNL A   1      34.865  26.011  26.619  1.00  0.00     0.164 HD
BRANCH   9  12
ATOM     12  C   UNL A   1      32.503  26.677  24.251  1.00  0.00     0.176 C 
BRANCH  12  13
ATOM     13  C   UNL A   1      33.019  27.662  23.150  1.00  0.00     0.018 C 
ATOM     14  C   UNL A   1      32.005  28.799  23.024  1.00  0.00     0.010 C 
BRANCH  13  15
ATOM     15  C   UNL A   1      33.465  26.886  21.902  1.00  0.00     0.002 C 
ATOM     16  C   UNL A   1      32.583  25.910  21.147  1.00  0.00     0.004 C 
ENDBRANCH  13  15
ENDBRANCH  12  13
BRANCH  12  17
ATOM     17  N   UNL A   1      31.055  26.831  24.429  1.00  0.00    -0.326 N 
ATOM     18  C   UNL A   1      30.185  25.777  24.441  1.00  0.00     0.324 C 
ATOM     19  H   UNL A   1      30.691  27.738  24.547  1.00  0.00     0.166 HD
ATOM     20  O   UNL A   1      29.116  25.919  23.840  1.00  0.00    -0.248 OA
BRANCH  18  21
ATOM     21  N   UNL A   1      30.545  24.607  25.028  1.00  0.00    -0.262 N 
ATOM     22  C   UNL A   1      30.448  24.324  26.477  1.00  0.00     0.152 C 
ATOM     23  C   UNL A   1      31.118  23.538  24.390  1.00  0.00     0.214 A 
ATOM     24  C   UNL A   1      31.176  22.983  26.671  1.00  0.00     0.148 C 
ATOM     25  N   UNL A   1      31.466  22.595  25.304  1.00  0.00    -0.308 N 
ATOM     26  N   UNL A   1      31.419  23.169  23.175  1.00  0.00    -0.212 NA
ATOM     27  C   UNL A   1      31.870  21.473  24.678  1.00  0.00     0.070 A 
ATOM     28  C   UNL A   1      31.804  21.841  23.329  1.00  0.00     0.091 A 
ATOM     29  C   UNL A   1      32.235  20.202  25.121  1.00  0.00     0.028 A 
ATOM     30  C   UNL A   1      32.089  20.871  22.356  1.00  0.00     0.031 A 
ATOM     31  C   UNL A   1      32.521  19.256  24.131  1.00  0.00     0.002 A 
ATOM     32  C   UNL A   1      32.441  19.579  22.772  1.00  0.00     0.002 A 
ENDBRANCH  18  21
ENDBRANCH  12  17
ENDBRANCH   9  12
ENDBRANCH   6   8
ENDBRANCH   3   6
ENDBRANCH   1   2
BRANCH   1  33
ATOM     33  C   UNL A   1      38.886  21.563  26.027  1.00  0.00     0.042 C 
BRANCH  33  34
ATOM     34  C   UNL A   1      40.110  21.871  26.880  1.00  0.00     0.118 C 
BRANCH  34  35
ATOM     35  N   UNL A   1      41.342  21.710  26.117  1.00  0.00    -0.352 N 
ATOM     36  C   UNL A   1      42.347  22.585  25.768  1.00  0.00     0.251 C 
ATOM     37  H   UNL A   1      41.484  20.793  25.785  1.00  0.00     0.163 HD
ATOM     38  O   UNL A   1      43.131  22.222  24.891  1.00  0.00    -0.269 OA
BRANCH  36  39
ATOM     39  C   UNL A   1      42.530  23.917  26.393  1.00  0.00     0.039 A 
ATOM     40  C   UNL A   1      43.474  24.829  25.918  1.00  0.00     0.014 A 
ATOM     41  C   UNL A   1      41.608  24.331  27.371  1.00  0.00     0.014 A 
ATOM     42  C   UNL A   1      43.519  26.125  26.440  1.00  0.00     0.010 A 
ATOM     43  C   UNL A   1      41.640  25.633  27.881  1.00  0.00     0.010 A 
ATOM     44  C   UNL A   1      42.590  26.539  27.409  1.00  0.00    -0.014 A 
BRANCH  44  45
ATOM     45  C   UNL A   1      42.596  27.970  27.770  1.00  0.00     0.031 A 
ATOM     46  C   UNL A   1      41.228  28.601  27.835  1.00  0.00     0.074 A 
ATOM     47  C   UNL A   1      43.581  28.457  28.556  1.00  0.00     0.049 A 
ATOM     48  N   UNL A   1      40.430  28.545  28.861  1.00  0.00    -0.248 NA
ATOM     49  C   UNL A   1      40.584  29.124  26.626  1.00  0.00     0.031 C 
ATOM     50  C   UNL A   1      44.063  27.801  29.777  1.00  0.00     0.029 A 
ATOM     51  N   UNL A   1      44.173  29.701  28.576  1.00  0.00    -0.354 N 
ATOM     52  C   UNL A   1      39.177  28.981  28.442  1.00  0.00     0.074 A 
ATOM     53  C   UNL A   1      39.324  29.323  27.045  1.00  0.00     0.031 C 
ATOM     54  C   UNL A   1      44.749  28.702  30.509  1.00  0.00     0.029 A 
ATOM     55  C   UNL A   1      44.842  29.961  29.772  1.00  0.00     0.049 A 
ATOM     56  H   UNL A   1      44.128  30.338  27.827  1.00  0.00     0.167 HD
ATOM     57  C   UNL A   1      38.090  29.060  29.262  1.00  0.00     0.034 A 
ATOM     58  C   UNL A   1      44.959  31.205  30.321  1.00  0.00     0.034 A 
ATOM     59  C   UNL A   1      38.351  28.740  30.633  1.00  0.00     0.049 A 
ATOM     60  C   UNL A   1      43.603  31.326  30.986  1.00  0.00     0.074 A 
ATOM     61  C   UNL A   1      38.161  27.680  31.491  1.00  0.00     0.029 A 
ATOM     62  N   UNL A   1      39.030  29.674  31.379  1.00  0.00    -0.354 N 
ATOM     63  N   UNL A   1      43.223  30.718  32.082  1.00  0.00    -0.248 NA
ATOM     64  C   UNL A   1      42.505  31.804  30.145  1.00  0.00     0.031 C 
ATOM     65  C   UNL A   1      39.135  27.851  32.527  1.00  0.00     0.029 A 
ATOM     66  C   UNL A   1      39.865  29.002  32.233  1.00  0.00     0.049 A 
ATOM     67  H   UNL A   1      38.935  30.651  31.311  1.00  0.00     0.167 HD
ATOM     68  C   UNL A   1      41.866  30.434  31.889  1.00  0.00     0.074 A 
ATOM     69  C   UNL A   1      41.487  31.147  30.684  1.00  0.00     0.031 C 
ATOM     70  C   UNL A   1      41.167  29.506  32.609  1.00  0.00     0.034 A 
BRANCH  57  71
ATOM     71  C   UNL A   1      36.787  29.683  28.901  1.00  0.00     0.023 A 
ATOM     72  C   UNL A   1      36.048  29.041  27.887  1.00  0.00     0.012 A 
ATOM     73  C   UNL A   1      36.382  30.957  29.342  1.00  0.00     0.148 A 
ATOM     74  C   UNL A   1      34.953  29.661  27.290  1.00  0.00     0.002 A 
ATOM     75  C   UNL A   1      35.277  31.571  28.746  1.00  0.00     0.091 A 
ATOM     76  F   UNL A   1      37.099  31.563  30.300  1.00  0.00    -0.205 F 
ATOM     77  C   UNL A   1      34.573  30.928  27.714  1.00  0.00     0.022 A 
BRANCH  75  78
ATOM     78  S   UNL A   1      34.689  33.214  29.188  1.00  0.00     0.127 S 
ATOM     79  O   UNL A   1      34.289  33.028  30.585  1.00  0.00    -0.237 OA
ATOM     80  O   UNL A   1      35.896  34.024  29.007  1.00  0.00    -0.237 OA
ATOM     81  O   UNL A   1      33.607  33.517  28.267  1.00  0.00    -0.744 OA
ENDBRANCH  75  78
ENDBRANCH  57  71
BRANCH  58  82
ATOM     82  C   UNL A   1      45.550  32.253  29.414  1.00  0.00     0.023 A 
ATOM     83  C   UNL A   1      46.780  32.830  29.826  1.00  0.00     0.012 A 
ATOM     84  C   UNL A   1      45.011  32.696  28.191  1.00  0.00     0.148 A 
ATOM     85  C   UNL A   1      47.510  33.687  29.000  1.00  0.00     0.002 A 
ATOM     86  C   UNL A   1      45.761  33.522  27.351  1.00  0.00     0.091 A 
ATOM     87  F   UNL A   1      43.783  32.293  27.840  1.00  0.00    -0.205 F 
ATOM     88  C   UNL A   1      47.016  34.006  27.746  1.00  0.00     0.022 A 
BRANCH  86  89
ATOM     89  S   UNL A   1      45.222  33.963  25.691  1.00  0.00     0.127 S 
ATOM     90  O   UNL A   1      44.877  32.658  25.124  1.00  0.00    -0.237 OA
ATOM     91  O   UNL A   1      44.080  34.828  25.982  1.00  0.00    -0.237 OA
ATOM     92  O   UNL A   1      46.361  34.617  25.069  1.00  0.00    -0.744 OA
ENDBRANCH  86  89
ENDBRANCH  58  82
BRANCH  70  93
ATOM     93  C   UNL A   1      41.868  28.891  33.779  1.00  0.00     0.023 A 
ATOM     94  C   UNL A   1      41.723  29.516  35.030  1.00  0.00     0.012 A 
ATOM     95  C   UNL A   1      42.571  27.671  33.693  1.00  0.00     0.148 A 
ATOM     96  C   UNL A   1      42.231  28.929  36.185  1.00  0.00     0.002 A 
ATOM     97  C   UNL A   1      43.060  27.082  34.854  1.00  0.00     0.091 A 
ATOM     98  F   UNL A   1      42.716  27.080  32.498  1.00  0.00    -0.205 F 
ATOM     99  C   UNL A   1      42.885  27.706  36.100  1.00  0.00     0.022 A 
BRANCH  97 100
ATOM    100  S   UNL A   1      43.955  25.530  34.854  1.00  0.00     0.127 S 
ATOM    101  O   UNL A   1      42.914  24.577  35.246  1.00  0.00    -0.237 OA
ATOM    102  O   UNL A   1      44.388  25.413  33.466  1.00  0.00    -0.237 OA
ATOM    103  O   UNL A   1      45.013  25.671  35.849  1.00  0.00    -0.744 OA
ENDBRANCH  97 100
ENDBRANCH  70  93
ENDBRANCH  44  45
ENDBRANCH  36  39
ENDBRANCH  34  35
ENDBRANCH  33  34
ENDBRANCH   1  33
TORSDOF 19
ENDMDL
MODEL 2
REMARK VINA RESULT:     -12.5      2.407      7.961
REMARK SMILES CC[C@@H](C)[C@H](NC(=O)N1CCn2c1nc1ccccc12)C(=O)N[C@H](C)C(=O)NCCCNC(=O)c1ccc(-c2c3nc(c(-c4cccc(S(=O)(=O)[O-])c4F)c4ccc([nH]4)c(-c4cccc(S(=O)(=O)[O-])c4F)c4nc(c(-c5cccc(S(=O)(=O)[O-])c5F)c5ccc2[nH]5)C=C4)C=C3)cc1
REMARK SMILES IDX 29 1 28 2 26 3 27 4 24 6 25 7 23 8 21 9 22 10 5 12 3 13 4 14
REMARK SMILES IDX 2 15 1 16 6 17 7 18 8 20 9 21 10 22 13 23 11 24 12 25 14 26
REMARK SMILES IDX 20 27 15 28 19 29 16 30 18 31 17 32 30 33 31 34 32 35 33 36
REMARK SMILES IDX 34 38 35 39 36 40 97 41 37 42 96 43 38 44 39 45 40 46 90 47
REMARK SMILES IDX 41 48 95 49 89 50 91 51 42 52 94 53 88 54 87 55 43 57 75 58
REMARK SMILES IDX 55 59 74 60 56 61 59 62 73 63 92 64 57 65 58 66 72 68 93 69
REMARK SMILES IDX 60 70 44 71 45 72 53 73 46 74 48 75 54 76 47 77 49 78 50 79
REMARK SMILES IDX 51 80 52 81 76 82 77 83 85 84 78 85 80 86 86 87 79 88 81 89
REMARK SMILES IDX 82 90 83 91 84 92 61 93 62 94 70 95 63 96 65 97 71 98 64 99
REMARK SMILES IDX 66 100 67 101 68 102 69 103
REMARK H PARENT 28 5 23 11 6 19 32 37 91 56 59 67
REMARK Flexibility Score: inf
ROOT
ATOM      1  C   UNL A   1      33.681  30.309  26.935  1.00  0.00     0.117 C 
ENDROOT
BRANCH   1   2
ATOM      2  N   UNL A   1      32.627  29.476  27.495  1.00  0.00    -0.354 N 
ATOM      3  C   UNL A   1      31.848  28.469  27.010  1.00  0.00     0.242 C 
ATOM      4  O   UNL A   1      31.201  27.861  27.879  1.00  0.00    -0.273 OA
ATOM      5  H   UNL A   1      32.433  29.688  28.436  1.00  0.00     0.163 HD
BRANCH   3   6
ATOM      6  C   UNL A   1      31.681  28.031  25.503  1.00  0.00     0.168 C 
ATOM      7  C   UNL A   1      31.024  29.125  24.656  1.00  0.00     0.041 C 
BRANCH   6   8
ATOM      8  N   UNL A   1      32.681  27.211  24.817  1.00  0.00    -0.343 N 
ATOM      9  C   UNL A   1      32.914  25.954  24.381  1.00  0.00     0.243 C 
ATOM     10  O   UNL A   1      33.788  25.955  23.496  1.00  0.00    -0.273 OA
ATOM     11  H   UNL A   1      33.458  27.774  24.594  1.00  0.00     0.164 HD
BRANCH   9  12
ATOM     12  C   UNL A   1      32.213  24.602  24.748  1.00  0.00     0.176 C 
BRANCH  12  13
ATOM     13  C   UNL A   1      31.051  24.088  23.834  1.00  0.00     0.018 C 
ATOM     14  C   UNL A   1      31.630  23.042  22.882  1.00  0.00     0.010 C 
BRANCH  13  15
ATOM     15  C   UNL A   1      30.241  25.270  23.281  1.00  0.00     0.002 C 
ATOM     16  C   UNL A   1      29.156  25.994  24.056  1.00  0.00     0.004 C 
ENDBRANCH  13  15
ENDBRANCH  12  13
BRANCH  12  17
ATOM     17  N   UNL A   1      31.872  24.401  26.161  1.00  0.00    -0.326 N 
ATOM     18  C   UNL A   1      31.984  23.196  26.795  1.00  0.00     0.324 C 
ATOM     19  H   UNL A   1      31.547  25.172  26.679  1.00  0.00     0.166 HD
ATOM     20  O   UNL A   1      31.074  22.875  27.565  1.00  0.00    -0.248 OA
BRANCH  18  21
ATOM     21  N   UNL A   1      33.023  22.372  26.507  1.00  0.00    -0.262 N 
ATOM     22  C   UNL A   1      34.426  22.607  26.916  1.00  0.00     0.152 C 
ATOM     23  C   UNL A   1      32.955  21.240  25.738  1.00  0.00     0.214 A 
ATOM     24  C   UNL A   1      35.243  21.539  26.169  1.00  0.00     0.148 C 
ATOM     25  N   UNL A   1      34.204  20.740  25.550  1.00  0.00    -0.308 N 
ATOM     26  N   UNL A   1      32.047  20.513  25.144  1.00  0.00    -0.212 NA
ATOM     27  C   UNL A   1      34.133  19.539  24.944  1.00  0.00     0.070 A 
ATOM     28  C   UNL A   1      32.758  19.394  24.723  1.00  0.00     0.091 A 
ATOM     29  C   UNL A   1      35.080  18.571  24.611  1.00  0.00     0.028 A 
ATOM     30  C   UNL A   1      32.293  18.194  24.162  1.00  0.00     0.031 A 
ATOM     31  C   UNL A   1      34.591  17.388  24.048  1.00  0.00     0.002 A 
ATOM     32  C   UNL A   1      33.222  17.196  23.834  1.00  0.00     0.002 A 
ENDBRANCH  18  21
ENDBRANCH  12  17
ENDBRANCH   9  12
ENDBRANCH   6   8
ENDBRANCH   3   6
ENDBRANCH   1   2
BRANCH   1  33
ATOM     33  C   UNL A   1      33.846  31.690  27.585  1.00  0.00     0.042 C 
BRANCH  33  34
ATOM     34  C   UNL A   1      35.227  32.148  28.032  1.00  0.00     0.118 C 
BRANCH  34  35
ATOM     35  N   UNL A   1      35.138  33.176  29.064  1.00  0.00    -0.352 N 
ATOM     36  C   UNL A   1      35.763  33.338  30.280  1.00  0.00     0.251 C 
ATOM     37  H   UNL A   1      34.504  33.898  28.847  1.00  0.00     0.163 HD
ATOM     38  O   UNL A   1      35.287  34.168  31.053  1.00  0.00    -0.269 OA
BRANCH  36  39
ATOM     39  C   UNL A   1      36.968  32.576  30.692  1.00  0.00     0.039 A 
ATOM     40  C   UNL A   1      37.000  31.835  31.874  1.00  0.00     0.014 A 
ATOM     41  C   UNL A   1      38.031  32.459  29.779  1.00  0.00     0.014 A 
ATOM     42  C   UNL A   1      38.098  31.017  32.157  1.00  0.00     0.010 A 
ATOM     43  C   UNL A   1      39.122  31.627  30.052  1.00  0.00     0.010 A 
ATOM     44  C   UNL A   1      39.154  30.894  31.240  1.00  0.00    -0.014 A 
BRANCH  44  45
ATOM     45  C   UNL A   1      40.180  29.875  31.536  1.00  0.00     0.031 A 
ATOM     46  C   UNL A   1      40.092  28.635  30.683  1.00  0.00     0.074 A 
ATOM     47  C   UNL A   1      41.384  30.259  32.012  1.00  0.00     0.049 A 
ATOM     48  N   UNL A   1      40.595  28.515  29.489  1.00  0.00    -0.248 NA
ATOM     49  C   UNL A   1      39.194  27.535  31.048  1.00  0.00     0.031 C 
ATOM     50  C   UNL A   1      42.167  31.377  31.472  1.00  0.00     0.029 A 
ATOM     51  N   UNL A   1      42.246  29.621  32.878  1.00  0.00    -0.354 N 
ATOM     52  C   UNL A   1      40.065  27.360  28.925  1.00  0.00     0.074 A 
ATOM     53  C   UNL A   1      39.196  26.791  29.930  1.00  0.00     0.031 C 
ATOM     54  C   UNL A   1      43.442  31.255  31.895  1.00  0.00     0.029 A 
ATOM     55  C   UNL A   1      43.547  30.118  32.810  1.00  0.00     0.049 A 
ATOM     56  H   UNL A   1      41.973  28.891  33.480  1.00  0.00     0.167 HD
ATOM     57  C   UNL A   1      40.379  26.916  27.674  1.00  0.00     0.034 A 
ATOM     58  C   UNL A   1      44.662  29.360  33.022  1.00  0.00     0.034 A 
ATOM     59  C   UNL A   1      41.379  27.688  26.999  1.00  0.00     0.049 A 
ATOM     60  C   UNL A   1      44.785  28.691  31.668  1.00  0.00     0.074 A 
ATOM     61  C   UNL A   1      41.439  28.647  26.013  1.00  0.00     0.029 A 
ATOM     62  N   UNL A   1      42.679  27.540  27.420  1.00  0.00    -0.354 N 
ATOM     63  N   UNL A   1      45.200  29.256  30.562  1.00  0.00    -0.248 NA
ATOM     64  C   UNL A   1      43.997  27.473  31.469  1.00  0.00     0.031 C 
ATOM     65  C   UNL A   1      42.673  29.342  26.233  1.00  0.00     0.029 A 
ATOM     66  C   UNL A   1      43.286  28.767  27.345  1.00  0.00     0.049 A 
ATOM     67  H   UNL A   1      43.099  26.704  27.723  1.00  0.00     0.167 HD
ATOM     68  C   UNL A   1      44.440  28.667  29.544  1.00  0.00     0.074 A 
ATOM     69  C   UNL A   1      43.734  27.567  30.173  1.00  0.00     0.031 C 
ATOM     70  C   UNL A   1      44.286  29.202  28.296  1.00  0.00     0.034 A 
BRANCH  57  71
ATOM     71  C   UNL A   1      39.974  25.602  27.103  1.00  0.00     0.023 A 
ATOM     72  C   UNL A   1      38.595  25.418  26.877  1.00  0.00     0.012 A 
ATOM     73  C   UNL A   1      40.840  24.496  26.999  1.00  0.00     0.148 A 
ATOM     74  C   UNL A   1      38.073  24.158  26.593  1.00  0.00     0.002 A 
ATOM     75  C   UNL A   1      40.312  23.236  26.705  1.00  0.00     0.091 A 
ATOM     76  F   UNL A   1      42.149  24.681  27.226  1.00  0.00    -0.205 F 
ATOM     77  C   UNL A   1      38.929  23.067  26.515  1.00  0.00     0.022 A 
BRANCH  75  78
ATOM     78  S   UNL A   1      41.305  21.739  26.590  1.00  0.00     0.127 S 
ATOM     79  O   UNL A   1      41.967  21.713  27.896  1.00  0.00    -0.237 OA
ATOM     80  O   UNL A   1      40.278  20.711  26.411  1.00  0.00    -0.237 OA
ATOM     81  O   UNL A   1      42.186  21.925  25.450  1.00  0.00    -0.744 OA
ENDBRANCH  75  78
ENDBRANCH  57  71
BRANCH  58  82
ATOM     82  C   UNL A   1      44.694  28.620  34.334  1.00  0.00     0.023 A 
ATOM     83  C   UNL A   1      45.862  28.778  35.124  1.00  0.00     0.012 A 
ATOM     84  C   UNL A   1      43.669  27.809  34.857  1.00  0.00     0.148 A 
ATOM     85  C   UNL A   1      45.949  28.282  36.426  1.00  0.00     0.002 A 
ATOM     86  C   UNL A   1      43.742  27.348  36.173  1.00  0.00     0.091 A 
ATOM     87  F   UNL A   1      42.619  27.510  34.083  1.00  0.00    -0.205 F 
ATOM     88  C   UNL A   1      44.873  27.596  36.964  1.00  0.00     0.022 A 
BRANCH  86  89
ATOM     89  S   UNL A   1      42.384  26.479  36.973  1.00  0.00     0.127 S 
ATOM     90  O   UNL A   1      42.876  26.336  38.344  1.00  0.00    -0.237 OA
ATOM     91  O   UNL A   1      41.294  27.439  36.809  1.00  0.00    -0.237 OA
ATOM     92  O   UNL A   1      42.235  25.229  36.246  1.00  0.00    -0.744 OA
ENDBRANCH  86  89
ENDBRANCH  58  82
BRANCH  70  93
ATOM     93  C   UNL A   1      45.124  30.395  27.963  1.00  0.00     0.023 A 
ATOM     94  C   UNL A   1      46.418  30.166  27.461  1.00  0.00     0.012 A 
ATOM     95  C   UNL A   1      44.636  31.716  28.037  1.00  0.00     0.148 A 
ATOM     96  C   UNL A   1      47.203  31.219  27.004  1.00  0.00     0.002 A 
ATOM     97  C   UNL A   1      45.420  32.762  27.562  1.00  0.00     0.091 A 
ATOM     98  F   UNL A   1      43.406  31.935  28.526  1.00  0.00    -0.205 F 
ATOM     99  C   UNL A   1      46.700  32.514  27.040  1.00  0.00     0.022 A 
BRANCH  97 100
ATOM    100  S   UNL A   1      44.887  34.472  27.601  1.00  0.00     0.127 S 
ATOM    101  O   UNL A   1      46.069  35.171  27.087  1.00  0.00    -0.237 OA
ATOM    102  O   UNL A   1      43.745  34.471  26.693  1.00  0.00    -0.237 OA
ATOM    103  O   UNL A   1      44.600  34.776  28.999  1.00  0.00    -0.744 OA
ENDBRANCH  97 100
ENDBRANCH  70  93
ENDBRANCH  44  45
ENDBRANCH  36  39
ENDBRANCH  34  35
ENDBRANCH  33  34
ENDBRANCH   1  33
TORSDOF 19
ENDMDL
MODEL 3
REMARK VINA RESULT:     -11.8      2.988      7.625
REMARK SMILES CC[C@@H](C)[C@H](NC(=O)N1CCn2c1nc1ccccc12)C(=O)N[C@H](C)C(=O)NCCCNC(=O)c1ccc(-c2c3nc(c(-c4cccc(S(=O)(=O)[O-])c4F)c4ccc([nH]4)c(-c4cccc(S(=O)(=O)[O-])c4F)c4nc(c(-c5cccc(S(=O)(=O)[O-])c5F)c5ccc2[nH]5)C=C4)C=C3)cc1
REMARK SMILES IDX 29 1 28 2 26 3 27 4 24 6 25 7 23 8 21 9 22 10 5 12 3 13 4 14
REMARK SMILES IDX 2 15 1 16 6 17 7 18 8 20 9 21 10 22 13 23 11 24 12 25 14 26
REMARK SMILES IDX 20 27 15 28 19 29 16 30 18 31 17 32 30 33 31 34 32 35 33 36
REMARK SMILES IDX 34 38 35 39 36 40 97 41 37 42 96 43 38 44 39 45 40 46 90 47
REMARK SMILES IDX 41 48 95 49 89 50 91 51 42 52 94 53 88 54 87 55 43 57 75 58
REMARK SMILES IDX 55 59 74 60 56 61 59 62 73 63 92 64 57 65 58 66 72 68 93 69
REMARK SMILES IDX 60 70 44 71 45 72 53 73 46 74 48 75 54 76 47 77 49 78 50 79
REMARK SMILES IDX 51 80 52 81 76 82 77 83 85 84 78 85 80 86 86 87 79 88 81 89
REMARK SMILES IDX 82 90 83 91 84 92 61 93 62 94 70 95 63 96 65 97 71 98 64 99
REMARK SMILES IDX 66 100 67 101 68 102 69 103
REMARK H PARENT 28 5 23 11 6 19 32 37 91 56 59 67
REMARK Flexibility Score: inf
ROOT
ATOM      1  C   UNL A   1      34.380  29.506  27.467  1.00  0.00     0.117 C 
ENDROOT
BRANCH   1   2
ATOM      2  N   UNL A   1      33.083  28.988  27.875  1.00  0.00    -0.354 N 
ATOM      3  C   UNL A   1      32.025  28.438  27.215  1.00  0.00     0.242 C 
ATOM      4  O   UNL A   1      31.175  27.920  27.958  1.00  0.00    -0.273 OA
ATOM      5  H   UNL A   1      32.937  29.048  28.847  1.00  0.00     0.163 HD
BRANCH   3   6
ATOM      6  C   UNL A   1      31.778  28.415  25.658  1.00  0.00     0.168 C 
ATOM      7  C   UNL A   1      31.236  29.752  25.142  1.00  0.00     0.041 C 
BRANCH   6   8
ATOM      8  N   UNL A   1      32.660  27.692  24.741  1.00  0.00    -0.343 N 
ATOM      9  C   UNL A   1      32.853  26.479  24.179  1.00  0.00     0.243 C 
ATOM     10  O   UNL A   1      33.546  26.581  23.150  1.00  0.00    -0.273 OA
ATOM     11  H   UNL A   1      33.361  28.306  24.420  1.00  0.00     0.164 HD
BRANCH   9  12
ATOM     12  C   UNL A   1      32.283  25.073  24.569  1.00  0.00     0.176 C 
BRANCH  12  13
ATOM     13  C   UNL A   1      31.120  24.473  23.712  1.00  0.00     0.018 C 
ATOM     14  C   UNL A   1      31.733  23.502  22.702  1.00  0.00     0.010 C 
BRANCH  13  15
ATOM     15  C   UNL A   1      30.175  25.586  23.235  1.00  0.00     0.002 C 
ATOM     16  C   UNL A   1      29.127  26.245  24.111  1.00  0.00     0.004 C 
ENDBRANCH  13  15
ENDBRANCH  12  13
BRANCH  12  17
ATOM     17  N   UNL A   1      32.034  24.838  25.995  1.00  0.00    -0.326 N 
ATOM     18  C   UNL A   1      31.811  23.597  26.523  1.00  0.00     0.324 C 
ATOM     19  H   UNL A   1      32.028  25.612  26.604  1.00  0.00     0.166 HD
ATOM     20  O   UNL A   1      30.925  23.497  27.377  1.00  0.00    -0.248 OA
BRANCH  18  21
ATOM     21  N   UNL A   1      32.495  22.525  26.048  1.00  0.00    -0.262 N 
ATOM     22  C   UNL A   1      31.871  21.292  25.519  1.00  0.00     0.152 C 
ATOM     23  C   UNL A   1      33.858  22.385  26.049  1.00  0.00     0.214 A 
ATOM     24  C   UNL A   1      33.037  20.307  25.326  1.00  0.00     0.148 C 
ATOM     25  N   UNL A   1      34.188  21.138  25.623  1.00  0.00    -0.308 N 
ATOM     26  N   UNL A   1      34.915  23.095  26.334  1.00  0.00    -0.212 NA
ATOM     27  C   UNL A   1      35.521  21.046  25.455  1.00  0.00     0.070 A 
ATOM     28  C   UNL A   1      35.965  22.304  25.879  1.00  0.00     0.091 A 
ATOM     29  C   UNL A   1      36.362  20.051  24.957  1.00  0.00     0.028 A 
ATOM     30  C   UNL A   1      37.332  22.604  25.770  1.00  0.00     0.031 A 
ATOM     31  C   UNL A   1      37.721  20.373  24.866  1.00  0.00     0.002 A 
ATOM     32  C   UNL A   1      38.199  21.628  25.255  1.00  0.00     0.002 A 
ENDBRANCH  18  21
ENDBRANCH  12  17
ENDBRANCH   9  12
ENDBRANCH   6   8
ENDBRANCH   3   6
ENDBRANCH   1   2
BRANCH   1  33
ATOM     33  C   UNL A   1      35.180  30.222  28.565  1.00  0.00     0.042 C 
BRANCH  33  34
ATOM     34  C   UNL A   1      36.589  29.748  28.896  1.00  0.00     0.118 C 
BRANCH  34  35
ATOM     35  N   UNL A   1      36.768  29.578  30.333  1.00  0.00    -0.352 N 
ATOM     36  C   UNL A   1      37.683  28.876  31.085  1.00  0.00     0.251 C 
ATOM     37  H   UNL A   1      36.101  30.061  30.874  1.00  0.00     0.163 HD
ATOM     38  O   UNL A   1      37.422  28.703  32.276  1.00  0.00    -0.269 OA
BRANCH  36  39
ATOM     39  C   UNL A   1      38.951  28.333  30.539  1.00  0.00     0.039 A 
ATOM     40  C   UNL A   1      38.969  27.245  29.665  1.00  0.00     0.014 A 
ATOM     41  C   UNL A   1      40.140  29.046  30.772  1.00  0.00     0.014 A 
ATOM     42  C   UNL A   1      40.166  26.853  29.061  1.00  0.00     0.010 A 
ATOM     43  C   UNL A   1      41.336  28.666  30.154  1.00  0.00     0.010 A 
ATOM     44  C   UNL A   1      41.351  27.573  29.286  1.00  0.00    -0.014 A 
BRANCH  44  45
ATOM     45  C   UNL A   1      42.524  27.200  28.471  1.00  0.00     0.031 A 
ATOM     46  C   UNL A   1      43.333  28.371  27.974  1.00  0.00     0.074 A 
ATOM     47  C   UNL A   1      43.143  26.021  28.692  1.00  0.00     0.049 A 
ATOM     48  N   UNL A   1      44.250  28.989  28.661  1.00  0.00    -0.248 NA
ATOM     49  C   UNL A   1      42.961  29.073  26.741  1.00  0.00     0.031 C 
ATOM     50  C   UNL A   1      43.482  25.503  30.022  1.00  0.00     0.029 A 
ATOM     51  N   UNL A   1      43.796  25.179  27.817  1.00  0.00    -0.354 N 
ATOM     52  C   UNL A   1      44.554  30.168  27.989  1.00  0.00     0.074 A 
ATOM     53  C   UNL A   1      43.722  30.176  26.807  1.00  0.00     0.031 C 
ATOM     54  C   UNL A   1      44.406  24.531  29.884  1.00  0.00     0.029 A 
ATOM     55  C   UNL A   1      44.651  24.287  28.463  1.00  0.00     0.049 A 
ATOM     56  H   UNL A   1      43.672  25.204  26.841  1.00  0.00     0.167 HD
ATOM     57  C   UNL A   1      45.484  31.067  28.422  1.00  0.00     0.034 A 
ATOM     58  C   UNL A   1      45.811  23.818  27.918  1.00  0.00     0.034 A 
ATOM     59  C   UNL A   1      46.205  30.665  29.593  1.00  0.00     0.049 A 
ATOM     60  C   UNL A   1      46.727  24.991  28.202  1.00  0.00     0.074 A 
ATOM     61  C   UNL A   1      46.200  30.939  30.943  1.00  0.00     0.029 A 
ATOM     62  N   UNL A   1      47.161  29.690  29.440  1.00  0.00    -0.354 N 
ATOM     63  N   UNL A   1      47.232  25.313  29.366  1.00  0.00    -0.248 NA
ATOM     64  C   UNL A   1      46.712  26.081  27.224  1.00  0.00     0.031 C 
ATOM     65  C   UNL A   1      46.802  29.798  31.565  1.00  0.00     0.029 A 
ATOM     66  C   UNL A   1      47.131  28.894  30.555  1.00  0.00     0.049 A 
ATOM     67  H   UNL A   1      47.760  29.581  28.667  1.00  0.00     0.167 HD
ATOM     68  C   UNL A   1      47.269  26.712  29.373  1.00  0.00     0.074 A 
ATOM     69  C   UNL A   1      46.951  27.116  28.017  1.00  0.00     0.031 C 
ATOM     70  C   UNL A   1      47.382  27.470  30.505  1.00  0.00     0.034 A 
BRANCH  57  71
ATOM     71  C   UNL A   1      45.963  32.245  27.649  1.00  0.00     0.023 A 
ATOM     72  C   UNL A   1      47.238  32.130  27.060  1.00  0.00     0.012 A 
ATOM     73  C   UNL A   1      45.329  33.503  27.670  1.00  0.00     0.148 A 
ATOM     74  C   UNL A   1      47.895  33.242  26.538  1.00  0.00     0.002 A 
ATOM     75  C   UNL A   1      45.988  34.613  27.137  1.00  0.00     0.091 A 
ATOM     76  F   UNL A   1      44.120  33.603  28.242  1.00  0.00    -0.205 F 
ATOM     77  C   UNL A   1      47.274  34.484  26.583  1.00  0.00     0.022 A 
BRANCH  75  78
ATOM     78  S   UNL A   1      45.305  36.279  27.145  1.00  0.00     0.127 S 
ATOM     79  O   UNL A   1      43.965  36.061  26.598  1.00  0.00    -0.237 OA
ATOM     80  O   UNL A   1      45.331  36.606  28.573  1.00  0.00    -0.237 OA
ATOM     81  O   UNL A   1      46.191  37.082  26.320  1.00  0.00    -0.744 OA
ENDBRANCH  75  78
ENDBRANCH  57  71
BRANCH  58  82
ATOM     82  C   UNL A   1      45.668  23.167  26.566  1.00  0.00     0.023 A 
ATOM     83  C   UNL A   1      46.343  23.791  25.486  1.00  0.00     0.012 A 
ATOM     84  C   UNL A   1      44.948  21.992  26.281  1.00  0.00     0.148 A 
ATOM     85  C   UNL A   1      46.426  23.202  24.223  1.00  0.00     0.002 A 
ATOM     86  C   UNL A   1      45.064  21.384  25.029  1.00  0.00     0.091 A 
ATOM     87  F   UNL A   1      44.174  21.457  27.234  1.00  0.00    -0.205 F 
ATOM     88  C   UNL A   1      45.814  21.978  24.004  1.00  0.00     0.022 A 
BRANCH  86  89
ATOM     89  S   UNL A   1      44.338  19.780  24.658  1.00  0.00     0.127 S 
ATOM     90  O   UNL A   1      44.491  19.701  23.205  1.00  0.00    -0.237 OA
ATOM     91  O   UNL A   1      45.212  18.887  25.417  1.00  0.00    -0.237 OA
ATOM     92  O   UNL A   1      42.963  19.854  25.123  1.00  0.00    -0.744 OA
ENDBRANCH  86  89
ENDBRANCH  58  82
BRANCH  70  93
ATOM     93  C   UNL A   1      47.652  26.741  31.783  1.00  0.00     0.023 A 
ATOM     94  C   UNL A   1      48.994  26.492  32.122  1.00  0.00     0.012 A 
ATOM     95  C   UNL A   1      46.633  26.391  32.693  1.00  0.00     0.148 A 
ATOM     96  C   UNL A   1      49.328  25.942  33.355  1.00  0.00     0.002 A 
ATOM     97  C   UNL A   1      46.976  25.858  33.931  1.00  0.00     0.091 A 
ATOM     98  F   UNL A   1      45.353  26.621  32.364  1.00  0.00    -0.205 F 
ATOM     99  C   UNL A   1      48.322  25.639  34.265  1.00  0.00     0.022 A 
BRANCH  97 100
ATOM    100  S   UNL A   1      45.759  25.392  35.160  1.00  0.00     0.127 S 
ATOM    101  O   UNL A   1      44.994  24.359  34.455  1.00  0.00    -0.237 OA
ATOM    102  O   UNL A   1      46.584  24.891  36.253  1.00  0.00    -0.237 OA
ATOM    103  O   UNL A   1      44.981  26.595  35.438  1.00  0.00    -0.744 OA
ENDBRANCH  97 100
ENDBRANCH  70  93
ENDBRANCH  44  45
ENDBRANCH  36  39
ENDBRANCH  34  35
ENDBRANCH  33  34
ENDBRANCH   1  33
TORSDOF 19
ENDMDL
