MODEL 1
REMARK VINA RESULT:     -13.9      0.000      0.000
REMARK SMILES Cc1cnn(C2(C(=O)NCCCNC(=O)c3ccc(-c4c5nc(c(-c6cccc(S(=O)(=O)[O-])c6F)c6ccc([nH]6)c(-c6cccc(S(=O)(=O)[O-])c6F)c6nc(c(-c7cccc(S(=O)(=O)[O-])c7F)c7ccc4[nH]7)C=C6)C=C5)cc3)CCN(C(=O)c3cc4ccccc4[nH]3)CC2)c1
REMARK SMILES IDX 12 1 11 2 10 3 9 4 7 5 8 6 6 8 79 9 94 10 80 11 93 12 81 13
REMARK SMILES IDX 82 14 83 15 5 16 1 17 2 18 3 19 95 20 4 21 84 22 85 23 92 24
REMARK SMILES IDX 86 25 91 26 87 28 90 29 88 30 89 31 13 32 14 33 15 35 16 36
REMARK SMILES IDX 17 37 78 38 18 39 77 40 19 41 20 42 21 43 71 44 22 45 76 46
REMARK SMILES IDX 70 47 72 48 23 49 75 50 69 51 68 52 24 54 56 55 36 56 55 57
REMARK SMILES IDX 37 58 40 59 54 60 73 61 38 62 39 63 53 65 74 66 41 67 25 68
REMARK SMILES IDX 26 69 34 70 27 71 29 72 35 73 28 74 30 75 31 76 32 77 33 78
REMARK SMILES IDX 57 79 58 80 66 81 59 82 61 83 67 84 60 85 62 86 63 87 64 88
REMARK SMILES IDX 65 89 42 90 43 91 51 92 44 93 46 94 52 95 45 96 47 97 48 98
REMARK SMILES IDX 49 99 50 100
REMARK H PARENT 9 7 92 27 13 34 72 53 40 64
REMARK Flexibility Score: inf
ROOT
ATOM      1  C   UNL A   1      39.154  20.259  25.759  1.00  0.00     0.118 C 
ENDROOT
BRANCH   1   2
ATOM      2  C   UNL A   1      37.920  19.865  24.971  1.00  0.00     0.042 C 
BRANCH   2   3
ATOM      3  C   UNL A   1      36.773  20.867  25.107  1.00  0.00     0.117 C 
BRANCH   3   4
ATOM      4  N   UNL A   1      36.674  21.830  24.013  1.00  0.00    -0.354 N 
ATOM      5  C   UNL A   1      35.668  22.679  23.588  1.00  0.00     0.248 C 
ATOM      6  O   UNL A   1      36.025  23.458  22.706  1.00  0.00    -0.272 OA
ATOM      7  H   UNL A   1      37.491  21.887  23.466  1.00  0.00     0.163 HD
BRANCH   5   8
ATOM      8  C   UNL A   1      34.241  22.626  24.227  1.00  0.00     0.144 C 
ATOM      9  C   UNL A   1      34.415  23.100  25.696  1.00  0.00     0.062 C 
ATOM     10  C   UNL A   1      33.323  23.487  23.321  1.00  0.00     0.062 C 
ATOM     11  C   UNL A   1      33.264  23.906  26.270  1.00  0.00     0.123 C 
ATOM     12  C   UNL A   1      32.200  24.203  24.054  1.00  0.00     0.123 C 
ATOM     13  N   UNL A   1      32.659  24.804  25.302  1.00  0.00    -0.337 N 
ATOM     14  C   UNL A   1      32.520  26.151  25.631  1.00  0.00     0.270 C 
ATOM     15  O   UNL A   1      33.170  26.675  26.531  1.00  0.00    -0.267 OA
BRANCH   8  16
ATOM     16  N   UNL A   1      33.601  21.269  24.281  1.00  0.00    -0.257 N 
ATOM     17  C   UNL A   1      32.667  18.083  25.837  1.00  0.00     0.048 C 
ATOM     18  C   UNL A   1      32.899  19.291  25.019  1.00  0.00    -0.013 A 
ATOM     19  C   UNL A   1      32.427  19.588  23.728  1.00  0.00     0.138 A 
ATOM     20  C   UNL A   1      33.639  20.401  25.353  1.00  0.00     0.113 A 
ATOM     21  N   UNL A   1      32.784  20.807  23.324  1.00  0.00    -0.180 NA
ENDBRANCH   8  16
BRANCH  14  22
ATOM     22  C   UNL A   1      31.599  26.926  24.838  1.00  0.00     0.105 A 
ATOM     23  C   UNL A   1      30.224  26.833  24.721  1.00  0.00     0.042 A 
ATOM     24  N   UNL A   1      31.996  27.989  24.065  1.00  0.00    -0.351 N 
ATOM     25  C   UNL A   1      29.794  27.806  23.781  1.00  0.00     0.000 A 
ATOM     26  C   UNL A   1      30.932  28.489  23.353  1.00  0.00     0.046 A 
ATOM     27  H   UNL A   1      32.913  28.344  24.026  1.00  0.00     0.167 HD
ATOM     28  C   UNL A   1      28.544  28.163  23.244  1.00  0.00     0.010 A 
ATOM     29  C   UNL A   1      30.889  29.496  22.382  1.00  0.00     0.026 A 
ATOM     30  C   UNL A   1      28.481  29.175  22.280  1.00  0.00     0.001 A 
ATOM     31  C   UNL A   1      29.638  29.822  21.849  1.00  0.00     0.002 A 
ENDBRANCH  14  22
ENDBRANCH   5   8
ENDBRANCH   3   4
ENDBRANCH   2   3
ENDBRANCH   1   2
BRANCH   1  32
ATOM     32  N   UNL A   1      40.201  19.234  25.739  1.00  0.00    -0.352 N 
ATOM     33  C   UNL A   1      41.557  19.419  25.939  1.00  0.00     0.251 C 
ATOM     34  H   UNL A   1      39.907  18.311  25.564  1.00  0.00     0.163 HD
ATOM     35  O   UNL A   1      42.367  18.563  25.596  1.00  0.00    -0.269 OA
BRANCH  33  36
ATOM     36  C   UNL A   1      42.003  20.677  26.560  1.00  0.00     0.039 A 
ATOM     37  C   UNL A   1      42.434  21.758  25.787  1.00  0.00     0.014 A 
ATOM     38  C   UNL A   1      41.887  20.787  27.943  1.00  0.00     0.014 A 
ATOM     39  C   UNL A   1      42.654  22.982  26.411  1.00  0.00     0.010 A 
ATOM     40  C   UNL A   1      41.938  22.027  28.525  1.00  0.00     0.010 A 
ATOM     41  C   UNL A   1      42.375  23.119  27.781  1.00  0.00    -0.014 A 
BRANCH  41  42
ATOM     42  C   UNL A   1      42.428  24.428  28.427  1.00  0.00     0.031 A 
ATOM     43  C   UNL A   1      41.247  25.299  28.172  1.00  0.00     0.074 A 
ATOM     44  C   UNL A   1      43.347  24.739  29.368  1.00  0.00     0.049 A 
ATOM     45  N   UNL A   1      41.202  26.393  27.486  1.00  0.00    -0.248 NA
ATOM     46  C   UNL A   1      39.926  24.821  28.613  1.00  0.00     0.031 C 
ATOM     47  C   UNL A   1      44.352  23.849  29.969  1.00  0.00     0.029 A 
ATOM     48  N   UNL A   1      43.474  25.875  30.110  1.00  0.00    -0.354 N 
ATOM     49  C   UNL A   1      39.897  26.871  27.628  1.00  0.00     0.074 A 
ATOM     50  C   UNL A   1      39.122  25.768  28.126  1.00  0.00     0.031 C 
ATOM     51  C   UNL A   1      44.773  24.370  31.140  1.00  0.00     0.029 A 
ATOM     52  C   UNL A   1      44.233  25.707  31.265  1.00  0.00     0.049 A 
ATOM     53  H   UNL A   1      43.069  26.733  29.852  1.00  0.00     0.167 HD
ATOM     54  C   UNL A   1      39.630  28.207  27.598  1.00  0.00     0.034 A 
ATOM     55  C   UNL A   1      44.383  26.596  32.274  1.00  0.00     0.034 A 
ATOM     56  C   UNL A   1      40.768  28.949  27.119  1.00  0.00     0.049 A 
ATOM     57  C   UNL A   1      44.039  27.925  31.731  1.00  0.00     0.074 A 
ATOM     58  C   UNL A   1      41.487  29.032  25.947  1.00  0.00     0.029 A 
ATOM     59  N   UNL A   1      41.541  29.507  28.105  1.00  0.00    -0.354 N 
ATOM     60  N   UNL A   1      44.730  28.529  30.805  1.00  0.00    -0.248 NA
ATOM     61  C   UNL A   1      42.706  28.456  31.968  1.00  0.00     0.031 C 
ATOM     62  C   UNL A   1      42.827  29.316  26.350  1.00  0.00     0.029 A 
ATOM     63  C   UNL A   1      42.855  29.441  27.741  1.00  0.00     0.049 A 
ATOM     64  H   UNL A   1      41.201  29.894  28.943  1.00  0.00     0.167 HD
ATOM     65  C   UNL A   1      43.775  29.191  30.049  1.00  0.00     0.074 A 
ATOM     66  C   UNL A   1      42.597  29.258  30.905  1.00  0.00     0.031 C 
ATOM     67  C   UNL A   1      43.936  29.341  28.702  1.00  0.00     0.034 A 
BRANCH  54  68
ATOM     68  C   UNL A   1      38.548  28.920  28.397  1.00  0.00     0.023 A 
ATOM     69  C   UNL A   1      37.751  29.859  27.696  1.00  0.00     0.012 A 
ATOM     70  C   UNL A   1      38.469  28.956  29.808  1.00  0.00     0.148 A 
ATOM     71  C   UNL A   1      36.985  30.825  28.359  1.00  0.00     0.002 A 
ATOM     72  C   UNL A   1      37.644  29.868  30.462  1.00  0.00     0.091 A 
ATOM     73  F   UNL A   1      39.287  28.207  30.548  1.00  0.00    -0.205 F 
ATOM     74  C   UNL A   1      36.928  30.828  29.745  1.00  0.00     0.022 A 
BRANCH  72  75
ATOM     75  S   UNL A   1      37.492  29.884  32.254  1.00  0.00     0.127 S 
ATOM     76  O   UNL A   1      38.804  30.386  32.652  1.00  0.00    -0.237 OA
ATOM     77  O   UNL A   1      36.383  30.817  32.450  1.00  0.00    -0.237 OA
ATOM     78  O   UNL A   1      37.187  28.509  32.631  1.00  0.00    -0.744 OA
ENDBRANCH  72  75
ENDBRANCH  54  68
BRANCH  55  79
ATOM     79  C   UNL A   1      44.612  26.376  33.717  1.00  0.00     0.023 A 
ATOM     80  C   UNL A   1      45.885  26.635  34.264  1.00  0.00     0.012 A 
ATOM     81  C   UNL A   1      43.523  26.206  34.601  1.00  0.00     0.148 A 
ATOM     82  C   UNL A   1      46.060  26.770  35.645  1.00  0.00     0.002 A 
ATOM     83  C   UNL A   1      43.704  26.343  35.974  1.00  0.00     0.091 A 
ATOM     84  F   UNL A   1      42.303  26.004  34.086  1.00  0.00    -0.205 F 
ATOM     85  C   UNL A   1      44.969  26.639  36.498  1.00  0.00     0.022 A 
BRANCH  83  86
ATOM     86  S   UNL A   1      42.343  26.230  37.144  1.00  0.00     0.127 S 
ATOM     87  O   UNL A   1      43.034  26.387  38.425  1.00  0.00    -0.237 OA
ATOM     88  O   UNL A   1      41.516  27.368  36.753  1.00  0.00    -0.237 OA
ATOM     89  O   UNL A   1      41.752  24.916  36.934  1.00  0.00    -0.744 OA
ENDBRANCH  83  86
ENDBRANCH  55  79
BRANCH  67  90
ATOM     90  C   UNL A   1      45.317  29.163  28.132  1.00  0.00     0.023 A 
ATOM     91  C   UNL A   1      46.304  30.168  28.185  1.00  0.00     0.012 A 
ATOM     92  C   UNL A   1      45.672  27.881  27.681  1.00  0.00     0.148 A 
ATOM     93  C   UNL A   1      47.615  29.899  27.782  1.00  0.00     0.002 A 
ATOM     94  C   UNL A   1      46.986  27.604  27.331  1.00  0.00     0.091 A 
ATOM     95  F   UNL A   1      44.716  26.940  27.634  1.00  0.00    -0.205 F 
ATOM     96  C   UNL A   1      47.960  28.613  27.371  1.00  0.00     0.022 A 
BRANCH  94  97
ATOM     97  S   UNL A   1      47.512  25.936  26.931  1.00  0.00     0.127 S 
ATOM     98  O   UNL A   1      48.926  26.128  26.620  1.00  0.00    -0.237 OA
ATOM     99  O   UNL A   1      47.251  25.216  28.178  1.00  0.00    -0.237 OA
ATOM    100  O   UNL A   1      46.675  25.509  25.815  1.00  0.00    -0.744 OA
ENDBRANCH  94  97
ENDBRANCH  67  90
ENDBRANCH  41  42
ENDBRANCH  33  36
ENDBRANCH   1  32
TORSDOF 15
ENDMDL
MODEL 2
REMARK VINA RESULT:     -13.7      1.424      1.626
REMARK SMILES Cc1cnn(C2(C(=O)NCCCNC(=O)c3ccc(-c4c5nc(c(-c6cccc(S(=O)(=O)[O-])c6F)c6ccc([nH]6)c(-c6cccc(S(=O)(=O)[O-])c6F)c6nc(c(-c7cccc(S(=O)(=O)[O-])c7F)c7ccc4[nH]7)C=C6)C=C5)cc3)CCN(C(=O)c3cc4ccccc4[nH]3)CC2)c1
REMARK SMILES IDX 12 1 11 2 10 3 9 4 7 5 8 6 6 8 79 9 94 10 80 11 93 12 81 13
REMARK SMILES IDX 82 14 83 15 5 16 1 17 2 18 3 19 95 20 4 21 84 22 85 23 92 24
REMARK SMILES IDX 86 25 91 26 87 28 90 29 88 30 89 31 13 32 14 33 15 35 16 36
REMARK SMILES IDX 17 37 78 38 18 39 77 40 19 41 20 42 21 43 71 44 22 45 76 46
REMARK SMILES IDX 70 47 72 48 23 49 75 50 69 51 68 52 24 54 56 55 36 56 55 57
REMARK SMILES IDX 37 58 40 59 54 60 73 61 38 62 39 63 53 65 74 66 41 67 25 68
REMARK SMILES IDX 26 69 34 70 27 71 29 72 35 73 28 74 30 75 31 76 32 77 33 78
REMARK SMILES IDX 57 79 58 80 66 81 59 82 61 83 67 84 60 85 62 86 63 87 64 88
REMARK SMILES IDX 65 89 42 90 43 91 51 92 44 93 46 94 52 95 45 96 47 97 48 98
REMARK SMILES IDX 49 99 50 100
REMARK H PARENT 9 7 92 27 13 34 72 53 40 64
REMARK Flexibility Score: inf
ROOT
ATOM      1  C   UNL A   1      39.291  20.123  25.983  1.00  0.00     0.118 C 
ENDROOT
BRANCH   1   2
ATOM      2  C   UNL A   1      38.170  19.886  24.990  1.00  0.00     0.042 C 
BRANCH   2   3
ATOM      3  C   UNL A   1      37.016  20.879  25.138  1.00  0.00     0.117 C 
BRANCH   3   4
ATOM      4  N   UNL A   1      36.837  21.777  24.000  1.00  0.00    -0.354 N 
ATOM      5  C   UNL A   1      35.820  22.635  23.622  1.00  0.00     0.248 C 
ATOM      6  O   UNL A   1      36.110  23.346  22.661  1.00  0.00    -0.272 OA
ATOM      7  H   UNL A   1      37.596  21.770  23.372  1.00  0.00     0.163 HD
BRANCH   5   8
ATOM      8  C   UNL A   1      34.464  22.674  24.401  1.00  0.00     0.144 C 
ATOM      9  C   UNL A   1      34.789  23.294  25.788  1.00  0.00     0.062 C 
ATOM     10  C   UNL A   1      33.467  23.454  23.506  1.00  0.00     0.062 C 
ATOM     11  C   UNL A   1      33.707  24.176  26.386  1.00  0.00     0.123 C 
ATOM     12  C   UNL A   1      32.429  24.263  24.267  1.00  0.00     0.123 C 
ATOM     13  N   UNL A   1      33.016  24.981  25.395  1.00  0.00    -0.337 N 
ATOM     14  C   UNL A   1      32.922  26.357  25.594  1.00  0.00     0.270 C 
ATOM     15  O   UNL A   1      33.663  26.959  26.366  1.00  0.00    -0.267 OA
BRANCH   8  16
ATOM     16  N   UNL A   1      33.822  21.342  24.659  1.00  0.00    -0.257 N 
ATOM     17  C   UNL A   1      32.383  18.099  23.733  1.00  0.00     0.048 C 
ATOM     18  C   UNL A   1      32.937  19.326  24.343  1.00  0.00    -0.013 A 
ATOM     19  C   UNL A   1      33.078  19.650  25.704  1.00  0.00     0.138 A 
ATOM     20  C   UNL A   1      33.440  20.430  23.696  1.00  0.00     0.113 A 
ATOM     21  N   UNL A   1      33.682  20.824  25.888  1.00  0.00    -0.180 NA
ENDBRANCH   8  16
BRANCH  14  22
ATOM     22  C   UNL A   1      31.932  27.063  24.820  1.00  0.00     0.105 A 
ATOM     23  C   UNL A   1      30.557  26.914  24.778  1.00  0.00     0.042 A 
ATOM     24  N   UNL A   1      32.247  28.107  23.984  1.00  0.00    -0.351 N 
ATOM     25  C   UNL A   1      30.042  27.830  23.823  1.00  0.00     0.000 A 
ATOM     26  C   UNL A   1      31.129  28.536  23.310  1.00  0.00     0.046 A 
ATOM     27  H   UNL A   1      33.146  28.493  23.884  1.00  0.00     0.167 HD
ATOM     28  C   UNL A   1      28.754  28.117  23.338  1.00  0.00     0.010 A 
ATOM     29  C   UNL A   1      30.998  29.499  22.303  1.00  0.00     0.026 A 
ATOM     30  C   UNL A   1      28.603  29.085  22.339  1.00  0.00     0.001 A 
ATOM     31  C   UNL A   1      29.710  29.756  21.823  1.00  0.00     0.002 A 
ENDBRANCH  14  22
ENDBRANCH   5   8
ENDBRANCH   3   4
ENDBRANCH   2   3
ENDBRANCH   1   2
BRANCH   1  32
ATOM     32  N   UNL A   1      40.412  19.193  25.818  1.00  0.00    -0.352 N 
ATOM     33  C   UNL A   1      41.761  19.491  25.872  1.00  0.00     0.251 C 
ATOM     34  H   UNL A   1      40.179  18.252  25.650  1.00  0.00     0.163 HD
ATOM     35  O   UNL A   1      42.597  18.714  25.416  1.00  0.00    -0.269 OA
BRANCH  33  36
ATOM     36  C   UNL A   1      42.168  20.771  26.474  1.00  0.00     0.039 A 
ATOM     37  C   UNL A   1      42.395  21.904  25.691  1.00  0.00     0.014 A 
ATOM     38  C   UNL A   1      42.222  20.837  27.864  1.00  0.00     0.014 A 
ATOM     39  C   UNL A   1      42.582  23.130  26.325  1.00  0.00     0.010 A 
ATOM     40  C   UNL A   1      42.234  22.064  28.477  1.00  0.00     0.010 A 
ATOM     41  C   UNL A   1      42.471  23.209  27.722  1.00  0.00    -0.014 A 
BRANCH  41  42
ATOM     42  C   UNL A   1      42.488  24.501  28.402  1.00  0.00     0.031 A 
ATOM     43  C   UNL A   1      41.292  25.354  28.153  1.00  0.00     0.074 A 
ATOM     44  C   UNL A   1      43.387  24.808  29.363  1.00  0.00     0.049 A 
ATOM     45  N   UNL A   1      41.233  26.464  27.493  1.00  0.00    -0.248 NA
ATOM     46  C   UNL A   1      39.976  24.838  28.563  1.00  0.00     0.031 C 
ATOM     47  C   UNL A   1      44.402  23.923  29.956  1.00  0.00     0.029 A 
ATOM     48  N   UNL A   1      43.481  25.927  30.134  1.00  0.00    -0.354 N 
ATOM     49  C   UNL A   1      39.917  26.911  27.629  1.00  0.00     0.074 A 
ATOM     50  C   UNL A   1      39.158  25.780  28.089  1.00  0.00     0.031 C 
ATOM     51  C   UNL A   1      44.797  24.423  31.145  1.00  0.00     0.029 A 
ATOM     52  C   UNL A   1      44.228  25.746  31.296  1.00  0.00     0.049 A 
ATOM     53  H   UNL A   1      43.061  26.783  29.893  1.00  0.00     0.167 HD
ATOM     54  C   UNL A   1      39.622  28.241  27.629  1.00  0.00     0.034 A 
ATOM     55  C   UNL A   1      44.345  26.611  32.328  1.00  0.00     0.034 A 
ATOM     56  C   UNL A   1      40.750  29.018  27.184  1.00  0.00     0.049 A 
ATOM     57  C   UNL A   1      43.980  27.946  31.814  1.00  0.00     0.074 A 
ATOM     58  C   UNL A   1      41.483  29.147  26.025  1.00  0.00     0.029 A 
ATOM     59  N   UNL A   1      41.498  29.568  28.194  1.00  0.00    -0.354 N 
ATOM     60  N   UNL A   1      44.671  28.588  30.913  1.00  0.00    -0.248 NA
ATOM     61  C   UNL A   1      42.634  28.444  32.046  1.00  0.00     0.031 C 
ATOM     62  C   UNL A   1      42.811  29.448  26.453  1.00  0.00     0.029 A 
ATOM     63  C   UNL A   1      42.818  29.538  27.847  1.00  0.00     0.049 A 
ATOM     64  H   UNL A   1      41.139  29.926  29.038  1.00  0.00     0.167 HD
ATOM     65  C   UNL A   1      43.713  29.249  30.161  1.00  0.00     0.074 A 
ATOM     66  C   UNL A   1      42.522  29.270  31.002  1.00  0.00     0.031 C 
ATOM     67  C   UNL A   1      43.888  29.437  28.820  1.00  0.00     0.034 A 
BRANCH  54  68
ATOM     68  C   UNL A   1      38.515  28.912  28.431  1.00  0.00     0.023 A 
ATOM     69  C   UNL A   1      37.658  29.792  27.724  1.00  0.00     0.012 A 
ATOM     70  C   UNL A   1      38.455  28.972  29.841  1.00  0.00     0.148 A 
ATOM     71  C   UNL A   1      36.850  30.729  28.379  1.00  0.00     0.002 A 
ATOM     72  C   UNL A   1      37.591  29.852  30.491  1.00  0.00     0.091 A 
ATOM     73  F   UNL A   1      39.323  28.284  30.583  1.00  0.00    -0.205 F 
ATOM     74  C   UNL A   1      36.813  30.757  29.766  1.00  0.00     0.022 A 
BRANCH  72  75
ATOM     75  S   UNL A   1      37.465  29.896  32.284  1.00  0.00     0.127 S 
ATOM     76  O   UNL A   1      38.771  30.431  32.653  1.00  0.00    -0.237 OA
ATOM     77  O   UNL A   1      36.340  30.811  32.481  1.00  0.00    -0.237 OA
ATOM     78  O   UNL A   1      37.192  28.523  32.689  1.00  0.00    -0.744 OA
ENDBRANCH  72  75
ENDBRANCH  54  68
BRANCH  55  79
ATOM     79  C   UNL A   1      44.560  26.360  33.768  1.00  0.00     0.023 A 
ATOM     80  C   UNL A   1      45.836  26.576  34.327  1.00  0.00     0.012 A 
ATOM     81  C   UNL A   1      43.462  26.202  34.643  1.00  0.00     0.148 A 
ATOM     82  C   UNL A   1      46.006  26.683  35.711  1.00  0.00     0.002 A 
ATOM     83  C   UNL A   1      43.637  26.310  36.020  1.00  0.00     0.091 A 
ATOM     84  F   UNL A   1      42.240  26.040  34.117  1.00  0.00    -0.205 F 
ATOM     85  C   UNL A   1      44.907  26.564  36.556  1.00  0.00     0.022 A 
BRANCH  83  86
ATOM     86  S   UNL A   1      42.267  26.211  37.179  1.00  0.00     0.127 S 
ATOM     87  O   UNL A   1      42.949  26.367  38.465  1.00  0.00    -0.237 OA
ATOM     88  O   UNL A   1      41.451  27.353  36.777  1.00  0.00    -0.237 OA
ATOM     89  O   UNL A   1      41.668  24.899  36.969  1.00  0.00    -0.744 OA
ENDBRANCH  83  86
ENDBRANCH  55  79
BRANCH  67  90
ATOM     90  C   UNL A   1      45.280  29.302  28.265  1.00  0.00     0.023 A 
ATOM     91  C   UNL A   1      45.787  28.091  27.752  1.00  0.00     0.012 A 
ATOM     92  C   UNL A   1      46.032  30.477  28.108  1.00  0.00     0.148 A 
ATOM     93  C   UNL A   1      47.027  28.054  27.108  1.00  0.00     0.002 A 
ATOM     94  C   UNL A   1      47.239  30.447  27.422  1.00  0.00     0.091 A 
ATOM     95  F   UNL A   1      45.534  31.619  28.608  1.00  0.00    -0.205 F 
ATOM     96  C   UNL A   1      47.745  29.236  26.928  1.00  0.00     0.022 A 
BRANCH  94  97
ATOM     97  S   UNL A   1      48.132  31.955  27.041  1.00  0.00     0.127 S 
ATOM     98  O   UNL A   1      48.292  32.558  28.362  1.00  0.00    -0.237 OA
ATOM     99  O   UNL A   1      49.368  31.447  26.445  1.00  0.00    -0.237 OA
ATOM    100  O   UNL A   1      47.288  32.696  26.110  1.00  0.00    -0.744 OA
ENDBRANCH  94  97
ENDBRANCH  67  90
ENDBRANCH  41  42
ENDBRANCH  33  36
ENDBRANCH   1  32
TORSDOF 15
ENDMDL
MODEL 3
REMARK VINA RESULT:     -13.5      1.232      1.646
REMARK SMILES Cc1cnn(C2(C(=O)NCCCNC(=O)c3ccc(-c4c5nc(c(-c6cccc(S(=O)(=O)[O-])c6F)c6ccc([nH]6)c(-c6cccc(S(=O)(=O)[O-])c6F)c6nc(c(-c7cccc(S(=O)(=O)[O-])c7F)c7ccc4[nH]7)C=C6)C=C5)cc3)CCN(C(=O)c3cc4ccccc4[nH]3)CC2)c1
REMARK SMILES IDX 12 1 11 2 10 3 9 4 7 5 8 6 6 8 79 9 94 10 80 11 93 12 81 13
REMARK SMILES IDX 82 14 83 15 5 16 1 17 2 18 3 19 95 20 4 21 84 22 85 23 92 24
REMARK SMILES IDX 86 25 91 26 87 28 90 29 88 30 89 31 13 32 14 33 15 35 16 36
REMARK SMILES IDX 17 37 78 38 18 39 77 40 19 41 20 42 21 43 71 44 22 45 76 46
REMARK SMILES IDX 70 47 72 48 23 49 75 50 69 51 68 52 24 54 56 55 36 56 55 57
REMARK SMILES IDX 37 58 40 59 54 60 73 61 38 62 39 63 53 65 74 66 41 67 25 68
REMARK SMILES IDX 26 69 34 70 27 71 29 72 35 73 28 74 30 75 31 76 32 77 33 78
REMARK SMILES IDX 57 79 58 80 66 81 59 82 61 83 67 84 60 85 62 86 63 87 64 88
REMARK SMILES IDX 65 89 42 90 43 91 51 92 44 93 46 94 52 95 45 96 47 97 48 98
REMARK SMILES IDX 49 99 50 100
REMARK H PARENT 9 7 92 27 13 34 72 53 40 64
REMARK Flexibility Score: inf
ROOT
ATOM      1  C   UNL A   1      38.960  20.381  25.679  1.00  0.00     0.118 C 
ENDROOT
BRANCH   1   2
ATOM      2  C   UNL A   1      37.677  19.979  24.978  1.00  0.00     0.042 C 
BRANCH   2   3
ATOM      3  C   UNL A   1      36.568  21.025  25.108  1.00  0.00     0.117 C 
BRANCH   3   4
ATOM      4  N   UNL A   1      36.548  22.024  24.042  1.00  0.00    -0.354 N 
ATOM      5  C   UNL A   1      35.608  22.953  23.634  1.00  0.00     0.248 C 
ATOM      6  O   UNL A   1      36.028  23.731  22.779  1.00  0.00    -0.272 OA
ATOM      7  H   UNL A   1      37.373  22.040  23.504  1.00  0.00     0.163 HD
BRANCH   5   8
ATOM      8  C   UNL A   1      34.174  22.981  24.259  1.00  0.00     0.144 C 
ATOM      9  C   UNL A   1      34.345  23.568  25.687  1.00  0.00     0.062 C 
ATOM     10  C   UNL A   1      33.284  23.786  23.277  1.00  0.00     0.062 C 
ATOM     11  C   UNL A   1      33.206  24.441  26.182  1.00  0.00     0.123 C 
ATOM     12  C   UNL A   1      32.170  24.582  23.938  1.00  0.00     0.123 C 
ATOM     13  N   UNL A   1      32.630  25.272  25.139  1.00  0.00    -0.337 N 
ATOM     14  C   UNL A   1      32.517  26.643  25.358  1.00  0.00     0.270 C 
ATOM     15  O   UNL A   1      33.170  27.224  26.221  1.00  0.00    -0.267 OA
BRANCH   8  16
ATOM     16  N   UNL A   1      33.505  21.647  24.414  1.00  0.00    -0.257 N 
ATOM     17  C   UNL A   1      32.196  18.420  23.265  1.00  0.00     0.048 C 
ATOM     18  C   UNL A   1      32.667  19.637  23.958  1.00  0.00    -0.013 A 
ATOM     19  C   UNL A   1      32.633  19.941  25.331  1.00  0.00     0.138 A 
ATOM     20  C   UNL A   1      33.249  20.749  23.397  1.00  0.00     0.113 A 
ATOM     21  N   UNL A   1      33.209  21.111  25.607  1.00  0.00    -0.180 NA
ENDBRANCH   8  16
BRANCH  14  22
ATOM     22  C   UNL A   1      31.621  27.371  24.496  1.00  0.00     0.105 A 
ATOM     23  C   UNL A   1      31.884  28.358  23.562  1.00  0.00     0.042 A 
ATOM     24  N   UNL A   1      30.272  27.122  24.445  1.00  0.00    -0.351 N 
ATOM     25  C   UNL A   1      30.649  28.778  23.003  1.00  0.00     0.000 A 
ATOM     26  C   UNL A   1      29.649  28.014  23.606  1.00  0.00     0.046 A 
ATOM     27  H   UNL A   1      29.815  26.404  24.939  1.00  0.00     0.167 HD
ATOM     28  C   UNL A   1      30.284  29.744  22.048  1.00  0.00     0.010 A 
ATOM     29  C   UNL A   1      28.290  28.193  23.327  1.00  0.00     0.026 A 
ATOM     30  C   UNL A   1      28.930  29.928  21.748  1.00  0.00     0.001 A 
ATOM     31  C   UNL A   1      27.949  29.170  22.387  1.00  0.00     0.002 A 
ENDBRANCH  14  22
ENDBRANCH   5   8
ENDBRANCH   3   4
ENDBRANCH   2   3
ENDBRANCH   1   2
BRANCH   1  32
ATOM     32  N   UNL A   1      39.940  19.293  25.753  1.00  0.00    -0.352 N 
ATOM     33  C   UNL A   1      41.296  19.404  25.999  1.00  0.00     0.251 C 
ATOM     34  H   UNL A   1      39.594  18.382  25.611  1.00  0.00     0.163 HD
ATOM     35  O   UNL A   1      42.062  18.483  25.732  1.00  0.00    -0.269 OA
BRANCH  33  36
ATOM     36  C   UNL A   1      41.797  20.662  26.575  1.00  0.00     0.039 A 
ATOM     37  C   UNL A   1      42.147  21.745  25.765  1.00  0.00     0.014 A 
ATOM     38  C   UNL A   1      41.818  20.770  27.963  1.00  0.00     0.014 A 
ATOM     39  C   UNL A   1      42.425  22.969  26.366  1.00  0.00     0.010 A 
ATOM     40  C   UNL A   1      41.923  22.010  28.539  1.00  0.00     0.010 A 
ATOM     41  C   UNL A   1      42.282  23.104  27.757  1.00  0.00    -0.014 A 
BRANCH  41  42
ATOM     42  C   UNL A   1      42.395  24.412  28.397  1.00  0.00     0.031 A 
ATOM     43  C   UNL A   1      41.235  25.319  28.173  1.00  0.00     0.074 A 
ATOM     44  C   UNL A   1      43.350  24.696  29.310  1.00  0.00     0.049 A 
ATOM     45  N   UNL A   1      41.204  26.413  27.484  1.00  0.00    -0.248 NA
ATOM     46  C   UNL A   1      39.912  24.885  28.653  1.00  0.00     0.031 C 
ATOM     47  C   UNL A   1      44.343  23.776  29.885  1.00  0.00     0.029 A 
ATOM     48  N   UNL A   1      43.534  25.829  30.044  1.00  0.00    -0.354 N 
ATOM     49  C   UNL A   1      39.920  26.932  27.662  1.00  0.00     0.074 A 
ATOM     50  C   UNL A   1      39.125  25.855  28.186  1.00  0.00     0.031 C 
ATOM     51  C   UNL A   1      44.814  24.287  31.041  1.00  0.00     0.029 A 
ATOM     52  C   UNL A   1      44.320  25.641  31.178  1.00  0.00     0.049 A 
ATOM     53  H   UNL A   1      43.149  26.699  29.795  1.00  0.00     0.167 HD
ATOM     54  C   UNL A   1      39.694  28.275  27.635  1.00  0.00     0.034 A 
ATOM     55  C   UNL A   1      44.527  26.526  32.178  1.00  0.00     0.034 A 
ATOM     56  C   UNL A   1      40.841  28.980  27.121  1.00  0.00     0.049 A 
ATOM     57  C   UNL A   1      44.209  27.865  31.641  1.00  0.00     0.074 A 
ATOM     58  C   UNL A   1      41.528  29.037  25.929  1.00  0.00     0.029 A 
ATOM     59  N   UNL A   1      41.659  29.516  28.083  1.00  0.00    -0.354 N 
ATOM     60  N   UNL A   1      44.892  28.444  30.693  1.00  0.00    -0.248 NA
ATOM     61  C   UNL A   1      42.902  28.439  31.914  1.00  0.00     0.031 C 
ATOM     62  C   UNL A   1      42.887  29.280  26.292  1.00  0.00     0.029 A 
ATOM     63  C   UNL A   1      42.960  29.407  27.681  1.00  0.00     0.049 A 
ATOM     64  H   UNL A   1      41.356  29.916  28.929  1.00  0.00     0.167 HD
ATOM     65  C   UNL A   1      43.938  29.134  29.963  1.00  0.00     0.074 A 
ATOM     66  C   UNL A   1      42.787  29.240  30.852  1.00  0.00     0.031 C 
ATOM     67  C   UNL A   1      44.064  29.276  28.611  1.00  0.00     0.034 A 
BRANCH  54  68
ATOM     68  C   UNL A   1      38.659  29.025  28.463  1.00  0.00     0.023 A 
ATOM     69  C   UNL A   1      38.543  28.656  29.826  1.00  0.00     0.012 A 
ATOM     70  C   UNL A   1      37.618  29.822  27.935  1.00  0.00     0.148 A 
ATOM     71  C   UNL A   1      37.422  28.993  30.594  1.00  0.00     0.002 A 
ATOM     72  C   UNL A   1      36.542  30.221  28.726  1.00  0.00     0.091 A 
ATOM     73  F   UNL A   1      37.574  30.097  26.631  1.00  0.00    -0.205 F 
ATOM     74  C   UNL A   1      36.421  29.780  30.044  1.00  0.00     0.022 A 
BRANCH  72  75
ATOM     75  S   UNL A   1      35.242  31.283  28.080  1.00  0.00     0.127 S 
ATOM     76  O   UNL A   1      34.551  30.375  27.170  1.00  0.00    -0.237 OA
ATOM     77  O   UNL A   1      34.506  31.625  29.297  1.00  0.00    -0.237 OA
ATOM     78  O   UNL A   1      35.930  32.411  27.465  1.00  0.00    -0.744 OA
ENDBRANCH  72  75
ENDBRANCH  54  68
BRANCH  55  79
ATOM     79  C   UNL A   1      44.791  26.304  33.615  1.00  0.00     0.023 A 
ATOM     80  C   UNL A   1      46.092  26.497  34.119  1.00  0.00     0.012 A 
ATOM     81  C   UNL A   1      43.723  26.196  34.534  1.00  0.00     0.148 A 
ATOM     82  C   UNL A   1      46.319  26.632  35.493  1.00  0.00     0.002 A 
ATOM     83  C   UNL A   1      43.955  26.332  35.900  1.00  0.00     0.091 A 
ATOM     84  F   UNL A   1      42.479  26.056  34.060  1.00  0.00    -0.205 F 
ATOM     85  C   UNL A   1      45.251  26.563  36.381  1.00  0.00     0.022 A 
BRANCH  83  86
ATOM     86  S   UNL A   1      42.628  26.298  37.114  1.00  0.00     0.127 S 
ATOM     87  O   UNL A   1      43.370  26.378  38.373  1.00  0.00    -0.237 OA
ATOM     88  O   UNL A   1      41.877  27.501  36.770  1.00  0.00    -0.237 OA
ATOM     89  O   UNL A   1      41.934  25.035  36.901  1.00  0.00    -0.744 OA
ENDBRANCH  83  86
ENDBRANCH  55  79
BRANCH  67  90
ATOM     90  C   UNL A   1      45.422  29.053  28.002  1.00  0.00     0.023 A 
ATOM     91  C   UNL A   1      46.444  30.022  28.032  1.00  0.00     0.012 A 
ATOM     92  C   UNL A   1      45.719  27.761  27.537  1.00  0.00     0.148 A 
ATOM     93  C   UNL A   1      47.734  29.710  27.592  1.00  0.00     0.002 A 
ATOM     94  C   UNL A   1      47.013  27.440  27.149  1.00  0.00     0.091 A 
ATOM     95  F   UNL A   1      44.730  26.854  27.512  1.00  0.00    -0.205 F 
ATOM     96  C   UNL A   1      48.022  28.415  27.166  1.00  0.00     0.022 A 
BRANCH  94  97
ATOM     97  S   UNL A   1      47.469  25.758  26.728  1.00  0.00     0.127 S 
ATOM     98  O   UNL A   1      46.588  25.476  25.597  1.00  0.00    -0.237 OA
ATOM     99  O   UNL A   1      48.885  25.892  26.383  1.00  0.00    -0.237 OA
ATOM    100  O   UNL A   1      47.226  24.964  27.927  1.00  0.00    -0.744 OA
ENDBRANCH  94  97
ENDBRANCH  67  90
ENDBRANCH  41  42
ENDBRANCH  33  36
ENDBRANCH   1  32
TORSDOF 15
ENDMDL
