MODEL 1
REMARK VINA RESULT:     -12.2      0.000      0.000
REMARK SMILES COc1ccc([C@@H](CC(=O)NCCCNC(=O)c2ccc(-c3c4nc(c(-c5cccc(S(=O)(=O)[O-])c5F)c5ccc([nH]5)c(-c5cccc(S(=O)(=O)[O-])c5F)c5nc(c(-c6cccc(S(=O)(=O)[O-])c6F)c6ccc3[nH]6)C=C5)C=C4)cc2)N2C(=O)[C@H]3CC=CC[C@H]3C2=O)cc1OC
REMARK SMILES IDX 13 1 12 2 11 3 9 4 10 5 8 7 7 8 6 9 3 10 4 11 93 12 5 13
REMARK SMILES IDX 92 14 2 15 1 16 94 17 95 18 81 19 82 20 90 21 83 22 84 23
REMARK SMILES IDX 89 24 91 25 85 26 88 27 86 28 87 29 14 30 15 31 16 32 17 34
REMARK SMILES IDX 18 35 19 36 80 37 20 38 79 39 21 40 22 41 23 42 73 43 24 44
REMARK SMILES IDX 78 45 72 46 74 47 25 48 77 49 71 50 70 51 26 53 58 54 38 55
REMARK SMILES IDX 57 56 39 57 42 58 56 59 75 60 40 61 41 62 55 64 76 65 43 66
REMARK SMILES IDX 27 67 28 68 36 69 29 70 31 71 37 72 30 73 32 74 33 75 34 76
REMARK SMILES IDX 35 77 59 78 60 79 68 80 61 81 63 82 69 83 62 84 64 85 65 86
REMARK SMILES IDX 66 87 67 88 44 89 45 90 53 91 46 92 48 93 54 94 47 95 49 96
REMARK SMILES IDX 50 97 51 98 52 99
REMARK H PARENT 11 6 15 33 74 52 42 63
REMARK Flexibility Score: inf
ROOT
ATOM      1  C   UNL A   1      31.557  30.100  27.197  1.00  0.00     0.042 C 
ENDROOT
BRANCH   1   2
ATOM      2  C   UNL A   1      31.885  28.654  26.843  1.00  0.00     0.117 C 
BRANCH   2   3
ATOM      3  N   UNL A   1      32.434  28.590  25.501  1.00  0.00    -0.356 N 
ATOM      4  C   UNL A   1      33.540  27.946  25.036  1.00  0.00     0.222 C 
ATOM      5  O   UNL A   1      33.988  28.358  23.964  1.00  0.00    -0.275 OA
ATOM      6  H   UNL A   1      31.929  29.091  24.820  1.00  0.00     0.163 HD
BRANCH   4   7
ATOM      7  C   UNL A   1      34.115  26.721  25.741  1.00  0.00     0.130 C 
BRANCH   7   8
ATOM      8  C   UNL A   1      33.336  25.378  25.648  1.00  0.00     0.133 C 
BRANCH   8   9
ATOM      9  C   UNL A   1      34.332  24.207  25.565  1.00  0.00    -0.020 A 
ATOM     10  C   UNL A   1      36.159  22.026  25.650  1.00  0.00     0.160 A 
ATOM     11  C   UNL A   1      36.610  23.321  25.401  1.00  0.00     0.051 A 
ATOM     12  C   UNL A   1      34.777  21.803  25.761  1.00  0.00     0.161 A 
ATOM     13  C   UNL A   1      35.706  24.389  25.350  1.00  0.00     0.010 A 
ATOM     14  C   UNL A   1      33.882  22.888  25.735  1.00  0.00     0.056 A 
BRANCH  10  15
ATOM     15  O   UNL A   1      36.997  20.973  25.890  1.00  0.00    -0.493 OA
ATOM     16  C   UNL A   1      37.590  20.321  24.775  1.00  0.00     0.278 C 
ENDBRANCH  10  15
BRANCH  12  17
ATOM     17  O   UNL A   1      34.167  20.585  25.945  1.00  0.00    -0.493 OA
ATOM     18  C   UNL A   1      33.850  19.872  24.748  1.00  0.00     0.278 C 
ENDBRANCH  12  17
ENDBRANCH   8   9
BRANCH   8  19
ATOM     19  N   UNL A   1      32.280  25.314  24.629  1.00  0.00    -0.274 N 
ATOM     20  C   UNL A   1      31.027  24.817  24.810  1.00  0.00     0.234 C 
ATOM     21  C   UNL A   1      32.554  25.147  23.300  1.00  0.00     0.234 C 
ATOM     22  O   UNL A   1      30.635  24.128  25.742  1.00  0.00    -0.274 OA
ATOM     23  C   UNL A   1      30.207  25.100  23.570  1.00  0.00     0.095 C 
ATOM     24  C   UNL A   1      31.284  25.369  22.515  1.00  0.00     0.095 C 
ATOM     25  O   UNL A   1      33.614  24.825  22.801  1.00  0.00    -0.274 OA
ATOM     26  C   UNL A   1      29.225  26.241  23.841  1.00  0.00     0.041 C 
ATOM     27  C   UNL A   1      31.337  26.777  21.908  1.00  0.00     0.041 C 
ATOM     28  C   UNL A   1      29.824  27.607  23.690  1.00  0.00    -0.030 C 
ATOM     29  C   UNL A   1      30.789  27.853  22.797  1.00  0.00    -0.030 C 
ENDBRANCH   8  19
ENDBRANCH   7   8
ENDBRANCH   4   7
ENDBRANCH   2   3
ENDBRANCH   1   2
BRANCH   1  30
ATOM     30  C   UNL A   1      31.935  31.144  26.159  1.00  0.00     0.118 C 
BRANCH  30  31
ATOM     31  N   UNL A   1      32.039  32.467  26.739  1.00  0.00    -0.352 N 
ATOM     32  C   UNL A   1      32.936  33.049  27.602  1.00  0.00     0.251 C 
ATOM     33  H   UNL A   1      31.318  33.074  26.457  1.00  0.00     0.163 HD
ATOM     34  O   UNL A   1      32.597  34.132  28.088  1.00  0.00    -0.269 OA
BRANCH  32  35
ATOM     35  C   UNL A   1      34.267  32.482  27.976  1.00  0.00     0.039 A 
ATOM     36  C   UNL A   1      34.284  31.163  28.463  1.00  0.00     0.014 A 
ATOM     37  C   UNL A   1      35.461  33.205  28.019  1.00  0.00     0.014 A 
ATOM     38  C   UNL A   1      35.449  30.599  29.004  1.00  0.00     0.010 A 
ATOM     39  C   UNL A   1      36.650  32.611  28.477  1.00  0.00     0.010 A 
ATOM     40  C   UNL A   1      36.647  31.322  29.029  1.00  0.00    -0.014 A 
BRANCH  40  41
ATOM     41  C   UNL A   1      37.857  30.790  29.724  1.00  0.00     0.031 A 
ATOM     42  C   UNL A   1      38.173  31.223  31.139  1.00  0.00     0.074 A 
ATOM     43  C   UNL A   1      38.691  29.934  29.100  1.00  0.00     0.049 A 
ATOM     44  N   UNL A   1      39.179  30.884  31.905  1.00  0.00    -0.248 NA
ATOM     45  C   UNL A   1      37.249  32.184  31.767  1.00  0.00     0.031 C 
ATOM     46  C   UNL A   1      38.547  29.465  27.721  1.00  0.00     0.029 A 
ATOM     47  N   UNL A   1      39.837  29.316  29.541  1.00  0.00    -0.354 N 
ATOM     48  C   UNL A   1      39.031  31.614  33.081  1.00  0.00     0.074 A 
ATOM     49  C   UNL A   1      37.859  32.444  32.913  1.00  0.00     0.031 C 
ATOM     50  C   UNL A   1      39.560  28.632  27.432  1.00  0.00     0.029 A 
ATOM     51  C   UNL A   1      40.438  28.518  28.594  1.00  0.00     0.049 A 
ATOM     52  H   UNL A   1      40.196  29.435  30.450  1.00  0.00     0.167 HD
ATOM     53  C   UNL A   1      39.772  31.575  34.215  1.00  0.00     0.034 A 
ATOM     54  C   UNL A   1      41.562  27.774  28.654  1.00  0.00     0.034 A 
ATOM     55  C   UNL A   1      40.898  30.704  34.418  1.00  0.00     0.049 A 
ATOM     56  C   UNL A   1      42.339  27.707  29.943  1.00  0.00     0.074 A 
ATOM     57  C   UNL A   1      41.667  30.542  35.559  1.00  0.00     0.029 A 
ATOM     58  N   UNL A   1      41.414  29.844  33.464  1.00  0.00    -0.354 N 
ATOM     59  N   UNL A   1      42.096  28.299  31.087  1.00  0.00    -0.248 NA
ATOM     60  C   UNL A   1      43.521  26.830  29.964  1.00  0.00     0.031 C 
ATOM     61  C   UNL A   1      42.654  29.589  35.290  1.00  0.00     0.029 A 
ATOM     62  C   UNL A   1      42.487  29.143  33.989  1.00  0.00     0.049 A 
ATOM     63  H   UNL A   1      41.069  29.744  32.548  1.00  0.00     0.167 HD
ATOM     64  C   UNL A   1      43.062  27.831  31.973  1.00  0.00     0.074 A 
ATOM     65  C   UNL A   1      43.886  26.896  31.237  1.00  0.00     0.031 C 
ATOM     66  C   UNL A   1      43.256  28.158  33.274  1.00  0.00     0.034 A 
BRANCH  53  67
ATOM     67  C   UNL A   1      39.347  32.460  35.360  1.00  0.00     0.023 A 
ATOM     68  C   UNL A   1      38.458  31.958  36.333  1.00  0.00     0.012 A 
ATOM     69  C   UNL A   1      39.866  33.761  35.509  1.00  0.00     0.148 A 
ATOM     70  C   UNL A   1      38.061  32.746  37.411  1.00  0.00     0.002 A 
ATOM     71  C   UNL A   1      39.502  34.526  36.612  1.00  0.00     0.091 A 
ATOM     72  F   UNL A   1      40.697  34.231  34.567  1.00  0.00    -0.205 F 
ATOM     73  C   UNL A   1      38.590  34.025  37.557  1.00  0.00     0.022 A 
BRANCH  71  74
ATOM     74  S   UNL A   1      40.189  36.155  36.931  1.00  0.00     0.127 S 
ATOM     75  O   UNL A   1      39.381  36.599  38.066  1.00  0.00    -0.237 OA
ATOM     76  O   UNL A   1      41.581  35.845  37.258  1.00  0.00    -0.237 OA
ATOM     77  O   UNL A   1      40.010  36.912  35.700  1.00  0.00    -0.744 OA
ENDBRANCH  71  74
ENDBRANCH  53  67
BRANCH  54  78
ATOM     78  C   UNL A   1      41.980  26.960  27.477  1.00  0.00     0.023 A 
ATOM     79  C   UNL A   1      42.635  27.590  26.399  1.00  0.00     0.012 A 
ATOM     80  C   UNL A   1      41.746  25.574  27.422  1.00  0.00     0.148 A 
ATOM     81  C   UNL A   1      43.019  26.859  25.274  1.00  0.00     0.002 A 
ATOM     82  C   UNL A   1      42.180  24.842  26.322  1.00  0.00     0.091 A 
ATOM     83  F   UNL A   1      41.109  24.996  28.450  1.00  0.00    -0.205 F 
ATOM     84  C   UNL A   1      42.801  25.485  25.239  1.00  0.00     0.022 A 
BRANCH  82  85
ATOM     85  S   UNL A   1      42.059  23.051  26.252  1.00  0.00     0.127 S 
ATOM     86  O   UNL A   1      40.614  22.847  26.289  1.00  0.00    -0.237 OA
ATOM     87  O   UNL A   1      42.692  22.755  24.966  1.00  0.00    -0.237 OA
ATOM     88  O   UNL A   1      42.800  22.566  27.409  1.00  0.00    -0.744 OA
ENDBRANCH  82  85
ENDBRANCH  54  78
BRANCH  66  89
ATOM     89  C   UNL A   1      44.366  27.464  34.019  1.00  0.00     0.023 A 
ATOM     90  C   UNL A   1      45.674  27.983  33.977  1.00  0.00     0.012 A 
ATOM     91  C   UNL A   1      44.094  26.339  34.824  1.00  0.00     0.148 A 
ATOM     92  C   UNL A   1      46.702  27.374  34.698  1.00  0.00     0.002 A 
ATOM     93  C   UNL A   1      45.113  25.767  35.577  1.00  0.00     0.091 A 
ATOM     94  F   UNL A   1      42.847  25.846  34.835  1.00  0.00    -0.205 F 
ATOM     95  C   UNL A   1      46.419  26.275  35.507  1.00  0.00     0.022 A 
BRANCH  93  96
ATOM     96  S   UNL A   1      44.813  24.411  36.718  1.00  0.00     0.127 S 
ATOM     97  O   UNL A   1      44.276  23.385  35.826  1.00  0.00    -0.237 OA
ATOM     98  O   UNL A   1      46.155  24.131  37.232  1.00  0.00    -0.237 OA
ATOM     99  O   UNL A   1      43.884  24.928  37.714  1.00  0.00    -0.744 OA
ENDBRANCH  93  96
ENDBRANCH  66  89
ENDBRANCH  40  41
ENDBRANCH  32  35
ENDBRANCH  30  31
ENDBRANCH   1  30
TORSDOF 18
ENDMDL
MODEL 2
REMARK VINA RESULT:     -12.0      5.130      8.365
REMARK SMILES COc1ccc([C@@H](CC(=O)NCCCNC(=O)c2ccc(-c3c4nc(c(-c5cccc(S(=O)(=O)[O-])c5F)c5ccc([nH]5)c(-c5cccc(S(=O)(=O)[O-])c5F)c5nc(c(-c6cccc(S(=O)(=O)[O-])c6F)c6ccc3[nH]6)C=C5)C=C4)cc2)N2C(=O)[C@H]3CC=CC[C@H]3C2=O)cc1OC
REMARK SMILES IDX 13 1 12 2 11 3 9 4 10 5 8 7 7 8 6 9 3 10 4 11 93 12 5 13
REMARK SMILES IDX 92 14 2 15 1 16 94 17 95 18 81 19 82 20 90 21 83 22 84 23
REMARK SMILES IDX 89 24 91 25 85 26 88 27 86 28 87 29 14 30 15 31 16 32 17 34
REMARK SMILES IDX 18 35 19 36 80 37 20 38 79 39 21 40 22 41 23 42 73 43 24 44
REMARK SMILES IDX 78 45 72 46 74 47 25 48 77 49 71 50 70 51 26 53 58 54 38 55
REMARK SMILES IDX 57 56 39 57 42 58 56 59 75 60 40 61 41 62 55 64 76 65 43 66
REMARK SMILES IDX 27 67 28 68 36 69 29 70 31 71 37 72 30 73 32 74 33 75 34 76
REMARK SMILES IDX 35 77 59 78 60 79 68 80 61 81 63 82 69 83 62 84 64 85 65 86
REMARK SMILES IDX 66 87 67 88 44 89 45 90 53 91 46 92 48 93 54 94 47 95 49 96
REMARK SMILES IDX 50 97 51 98 52 99
REMARK H PARENT 11 6 15 33 74 52 42 63
REMARK Flexibility Score: inf
ROOT
ATOM      1  C   UNL A   1      38.144  19.950  24.635  1.00  0.00     0.042 C 
ENDROOT
BRANCH   1   2
ATOM      2  C   UNL A   1      37.162  21.115  24.611  1.00  0.00     0.117 C 
BRANCH   2   3
ATOM      3  N   UNL A   1      37.517  22.076  25.639  1.00  0.00    -0.356 N 
ATOM      4  C   UNL A   1      37.189  23.393  25.758  1.00  0.00     0.222 C 
ATOM      5  O   UNL A   1      37.917  24.060  26.497  1.00  0.00    -0.275 OA
ATOM      6  H   UNL A   1      38.083  21.722  26.363  1.00  0.00     0.163 HD
BRANCH   4   7
ATOM      7  C   UNL A   1      35.935  23.973  25.112  1.00  0.00     0.130 C 
BRANCH   7   8
ATOM      8  C   UNL A   1      34.581  23.830  25.860  1.00  0.00     0.133 C 
BRANCH   8   9
ATOM      9  C   UNL A   1      34.041  22.398  25.685  1.00  0.00    -0.020 A 
ATOM     10  C   UNL A   1      32.822  19.846  25.367  1.00  0.00     0.160 A 
ATOM     11  C   UNL A   1      33.400  20.210  26.581  1.00  0.00     0.051 A 
ATOM     12  C   UNL A   1      32.937  20.722  24.275  1.00  0.00     0.161 A 
ATOM     13  C   UNL A   1      34.007  21.464  26.730  1.00  0.00     0.010 A 
ATOM     14  C   UNL A   1      33.525  21.988  24.445  1.00  0.00     0.056 A 
BRANCH  10  15
ATOM     15  O   UNL A   1      32.060  18.722  25.206  1.00  0.00    -0.493 OA
ATOM     16  C   UNL A   1      32.669  17.460  25.446  1.00  0.00     0.278 C 
ENDBRANCH  10  15
BRANCH  12  17
ATOM     17  O   UNL A   1      32.478  20.490  23.000  1.00  0.00    -0.493 OA
ATOM     18  C   UNL A   1      31.864  21.607  22.358  1.00  0.00     0.278 C 
ENDBRANCH  12  17
ENDBRANCH   8   9
BRANCH   8  19
ATOM     19  N   UNL A   1      33.577  24.865  25.583  1.00  0.00    -0.274 N 
ATOM     20  C   UNL A   1      32.402  25.037  26.247  1.00  0.00     0.234 C 
ATOM     21  C   UNL A   1      33.364  25.361  24.325  1.00  0.00     0.234 C 
ATOM     22  O   UNL A   1      31.862  24.241  27.005  1.00  0.00    -0.274 OA
ATOM     23  C   UNL A   1      31.752  26.315  25.765  1.00  0.00     0.095 C 
ATOM     24  C   UNL A   1      32.457  26.563  24.429  1.00  0.00     0.095 C 
ATOM     25  O   UNL A   1      33.777  24.908  23.277  1.00  0.00    -0.274 OA
ATOM     26  C   UNL A   1      31.903  27.409  26.824  1.00  0.00     0.041 C 
ATOM     27  C   UNL A   1      33.322  27.825  24.314  1.00  0.00     0.041 C 
ATOM     28  C   UNL A   1      33.219  28.125  26.774  1.00  0.00    -0.030 C 
ATOM     29  C   UNL A   1      33.867  28.321  25.621  1.00  0.00    -0.030 C 
ENDBRANCH   8  19
ENDBRANCH   7   8
ENDBRANCH   4   7
ENDBRANCH   2   3
ENDBRANCH   1   2
BRANCH   1  30
ATOM     30  C   UNL A   1      38.563  19.456  26.010  1.00  0.00     0.118 C 
BRANCH  30  31
ATOM     31  N   UNL A   1      39.904  18.910  26.001  1.00  0.00    -0.352 N 
ATOM     32  C   UNL A   1      41.150  19.473  26.130  1.00  0.00     0.251 C 
ATOM     33  H   UNL A   1      39.927  17.935  25.877  1.00  0.00     0.163 HD
ATOM     34  O   UNL A   1      42.106  18.750  25.835  1.00  0.00    -0.269 OA
BRANCH  32  35
ATOM     35  C   UNL A   1      41.426  20.865  26.603  1.00  0.00     0.039 A 
ATOM     36  C   UNL A   1      40.971  21.916  25.787  1.00  0.00     0.014 A 
ATOM     37  C   UNL A   1      42.218  21.193  27.704  1.00  0.00     0.014 A 
ATOM     38  C   UNL A   1      41.328  23.248  26.046  1.00  0.00     0.010 A 
ATOM     39  C   UNL A   1      42.502  22.534  28.017  1.00  0.00     0.010 A 
ATOM     40  C   UNL A   1      42.109  23.574  27.161  1.00  0.00    -0.014 A 
BRANCH  40  41
ATOM     41  C   UNL A   1      42.611  24.964  27.374  1.00  0.00     0.031 A 
ATOM     42  C   UNL A   1      41.739  25.990  28.064  1.00  0.00     0.074 A 
ATOM     43  C   UNL A   1      43.834  25.330  26.940  1.00  0.00     0.049 A 
ATOM     44  N   UNL A   1      41.989  27.247  28.330  1.00  0.00    -0.248 NA
ATOM     45  C   UNL A   1      40.399  25.550  28.490  1.00  0.00     0.031 C 
ATOM     46  C   UNL A   1      44.768  24.469  26.214  1.00  0.00     0.029 A 
ATOM     47  N   UNL A   1      44.498  26.530  27.035  1.00  0.00    -0.354 N 
ATOM     48  C   UNL A   1      40.833  27.755  28.915  1.00  0.00     0.074 A 
ATOM     49  C   UNL A   1      39.865  26.680  28.930  1.00  0.00     0.031 C 
ATOM     50  C   UNL A   1      45.882  25.165  25.935  1.00  0.00     0.029 A 
ATOM     51  C   UNL A   1      45.740  26.527  26.443  1.00  0.00     0.049 A 
ATOM     52  H   UNL A   1      44.118  27.320  27.485  1.00  0.00     0.167 HD
ATOM     53  C   UNL A   1      40.600  28.987  29.430  1.00  0.00     0.034 A 
ATOM     54  C   UNL A   1      46.663  27.504  26.328  1.00  0.00     0.034 A 
ATOM     55  C   UNL A   1      41.576  30.041  29.481  1.00  0.00     0.049 A 
ATOM     56  C   UNL A   1      46.402  28.849  26.956  1.00  0.00     0.074 A 
ATOM     57  C   UNL A   1      41.456  31.299  30.049  1.00  0.00     0.029 A 
ATOM     58  N   UNL A   1      42.854  29.962  28.954  1.00  0.00    -0.354 N 
ATOM     59  N   UNL A   1      45.353  29.259  27.628  1.00  0.00    -0.248 NA
ATOM     60  C   UNL A   1      47.472  29.854  26.848  1.00  0.00     0.031 C 
ATOM     61  C   UNL A   1      42.660  31.984  29.855  1.00  0.00     0.029 A 
ATOM     62  C   UNL A   1      43.536  31.144  29.185  1.00  0.00     0.049 A 
ATOM     63  H   UNL A   1      43.223  29.180  28.483  1.00  0.00     0.167 HD
ATOM     64  C   UNL A   1      45.657  30.545  28.063  1.00  0.00     0.074 A 
ATOM     65  C   UNL A   1      46.993  30.842  27.590  1.00  0.00     0.031 C 
ATOM     66  C   UNL A   1      44.892  31.406  28.777  1.00  0.00     0.034 A 
BRANCH  53  67
ATOM     67  C   UNL A   1      39.247  29.244  30.045  1.00  0.00     0.023 A 
ATOM     68  C   UNL A   1      38.964  28.744  31.333  1.00  0.00     0.012 A 
ATOM     69  C   UNL A   1      38.281  30.026  29.382  1.00  0.00     0.148 A 
ATOM     70  C   UNL A   1      37.729  28.982  31.934  1.00  0.00     0.002 A 
ATOM     71  C   UNL A   1      37.068  30.297  30.006  1.00  0.00     0.091 A 
ATOM     72  F   UNL A   1      38.558  30.480  28.151  1.00  0.00    -0.205 F 
ATOM     73  C   UNL A   1      36.786  29.766  31.276  1.00  0.00     0.022 A 
BRANCH  71  74
ATOM     74  S   UNL A   1      35.819  31.362  29.276  1.00  0.00     0.127 S 
ATOM     75  O   UNL A   1      36.640  32.416  28.683  1.00  0.00    -0.237 OA
ATOM     76  O   UNL A   1      35.179  30.470  28.307  1.00  0.00    -0.237 OA
ATOM     77  O   UNL A   1      34.959  31.780  30.374  1.00  0.00    -0.744 OA
ENDBRANCH  71  74
ENDBRANCH  53  67
BRANCH  54  78
ATOM     78  C   UNL A   1      47.965  27.224  25.658  1.00  0.00     0.023 A 
ATOM     79  C   UNL A   1      49.036  26.708  26.416  1.00  0.00     0.012 A 
ATOM     80  C   UNL A   1      48.146  27.452  24.281  1.00  0.00     0.148 A 
ATOM     81  C   UNL A   1      50.272  26.456  25.821  1.00  0.00     0.002 A 
ATOM     82  C   UNL A   1      49.365  27.146  23.684  1.00  0.00     0.091 A 
ATOM     83  F   UNL A   1      47.121  27.957  23.581  1.00  0.00    -0.205 F 
ATOM     84  C   UNL A   1      50.434  26.665  24.455  1.00  0.00     0.022 A 
BRANCH  82  85
ATOM     85  S   UNL A   1      49.619  27.260  21.909  1.00  0.00     0.127 S 
ATOM     86  O   UNL A   1      48.670  26.271  21.407  1.00  0.00    -0.237 OA
ATOM     87  O   UNL A   1      49.258  28.653  21.641  1.00  0.00    -0.237 OA
ATOM     88  O   UNL A   1      51.028  26.956  21.698  1.00  0.00    -0.744 OA
ENDBRANCH  82  85
ENDBRANCH  54  78
BRANCH  66  89
ATOM     89  C   UNL A   1      45.489  32.738  29.152  1.00  0.00     0.023 A 
ATOM     90  C   UNL A   1      46.211  32.873  30.353  1.00  0.00     0.012 A 
ATOM     91  C   UNL A   1      45.397  33.836  28.273  1.00  0.00     0.148 A 
ATOM     92  C   UNL A   1      46.806  34.089  30.689  1.00  0.00     0.002 A 
ATOM     93  C   UNL A   1      46.032  35.031  28.593  1.00  0.00     0.091 A 
ATOM     94  F   UNL A   1      44.687  33.696  27.144  1.00  0.00    -0.205 F 
ATOM     95  C   UNL A   1      46.728  35.163  29.805  1.00  0.00     0.022 A 
BRANCH  93  96
ATOM     96  S   UNL A   1      46.062  36.430  27.465  1.00  0.00     0.127 S 
ATOM     97  O   UNL A   1      46.550  35.810  26.235  1.00  0.00    -0.237 OA
ATOM     98  O   UNL A   1      44.655  36.832  27.429  1.00  0.00    -0.237 OA
ATOM     99  O   UNL A   1      46.951  37.411  28.073  1.00  0.00    -0.744 OA
ENDBRANCH  93  96
ENDBRANCH  66  89
ENDBRANCH  40  41
ENDBRANCH  32  35
ENDBRANCH  30  31
ENDBRANCH   1  30
TORSDOF 18
ENDMDL
MODEL 3
REMARK VINA RESULT:     -11.6      4.740     10.009
REMARK SMILES COc1ccc([C@@H](CC(=O)NCCCNC(=O)c2ccc(-c3c4nc(c(-c5cccc(S(=O)(=O)[O-])c5F)c5ccc([nH]5)c(-c5cccc(S(=O)(=O)[O-])c5F)c5nc(c(-c6cccc(S(=O)(=O)[O-])c6F)c6ccc3[nH]6)C=C5)C=C4)cc2)N2C(=O)[C@H]3CC=CC[C@H]3C2=O)cc1OC
REMARK SMILES IDX 13 1 12 2 11 3 9 4 10 5 8 7 7 8 6 9 3 10 4 11 93 12 5 13
REMARK SMILES IDX 92 14 2 15 1 16 94 17 95 18 81 19 82 20 90 21 83 22 84 23
REMARK SMILES IDX 89 24 91 25 85 26 88 27 86 28 87 29 14 30 15 31 16 32 17 34
REMARK SMILES IDX 18 35 19 36 80 37 20 38 79 39 21 40 22 41 23 42 73 43 24 44
REMARK SMILES IDX 78 45 72 46 74 47 25 48 77 49 71 50 70 51 26 53 58 54 38 55
REMARK SMILES IDX 57 56 39 57 42 58 56 59 75 60 40 61 41 62 55 64 76 65 43 66
REMARK SMILES IDX 27 67 28 68 36 69 29 70 31 71 37 72 30 73 32 74 33 75 34 76
REMARK SMILES IDX 35 77 59 78 60 79 68 80 61 81 63 82 69 83 62 84 64 85 65 86
REMARK SMILES IDX 66 87 67 88 44 89 45 90 53 91 46 92 48 93 54 94 47 95 49 96
REMARK SMILES IDX 50 97 51 98 52 99
REMARK H PARENT 11 6 15 33 74 52 42 63
REMARK Flexibility Score: inf
ROOT
ATOM      1  C   UNL A   1      35.462  21.888  25.803  1.00  0.00     0.042 C 
ENDROOT
BRANCH   1   2
ATOM      2  C   UNL A   1      34.804  23.087  26.472  1.00  0.00     0.117 C 
BRANCH   2   3
ATOM      3  N   UNL A   1      33.365  22.900  26.510  1.00  0.00    -0.356 N 
ATOM      4  C   UNL A   1      32.385  23.729  26.965  1.00  0.00     0.222 C 
ATOM      5  O   UNL A   1      31.310  23.188  27.233  1.00  0.00    -0.275 OA
ATOM      6  H   UNL A   1      33.048  22.039  26.152  1.00  0.00     0.163 HD
BRANCH   4   7
ATOM      7  C   UNL A   1      32.572  25.241  27.026  1.00  0.00     0.130 C 
BRANCH   7   8
ATOM      8  C   UNL A   1      33.078  25.978  25.754  1.00  0.00     0.133 C 
BRANCH   8   9
ATOM      9  C   UNL A   1      32.937  27.499  25.946  1.00  0.00    -0.020 A 
ATOM     10  C   UNL A   1      32.651  30.269  26.536  1.00  0.00     0.160 A 
ATOM     11  C   UNL A   1      31.614  29.561  25.933  1.00  0.00     0.051 A 
ATOM     12  C   UNL A   1      33.875  29.615  26.758  1.00  0.00     0.161 A 
ATOM     13  C   UNL A   1      31.762  28.200  25.636  1.00  0.00     0.010 A 
ATOM     14  C   UNL A   1      34.002  28.243  26.480  1.00  0.00     0.056 A 
BRANCH  10  15
ATOM     15  O   UNL A   1      32.513  31.542  27.015  1.00  0.00    -0.493 OA
ATOM     16  C   UNL A   1      31.351  32.273  26.645  1.00  0.00     0.278 C 
ENDBRANCH  10  15
BRANCH  12  17
ATOM     17  O   UNL A   1      35.011  30.182  27.284  1.00  0.00    -0.493 OA
ATOM     18  C   UNL A   1      36.013  29.260  27.713  1.00  0.00     0.278 C 
ENDBRANCH  12  17
ENDBRANCH   8   9
BRANCH   8  19
ATOM     19  N   UNL A   1      32.535  25.503  24.474  1.00  0.00    -0.274 N 
ATOM     20  C   UNL A   1      33.032  25.790  23.241  1.00  0.00     0.234 C 
ATOM     21  C   UNL A   1      31.200  25.267  24.288  1.00  0.00     0.234 C 
ATOM     22  O   UNL A   1      33.839  26.665  22.958  1.00  0.00    -0.274 OA
ATOM     23  C   UNL A   1      32.289  24.965  22.213  1.00  0.00     0.095 C 
ATOM     24  C   UNL A   1      31.016  24.566  22.964  1.00  0.00     0.095 C 
ATOM     25  O   UNL A   1      30.286  25.596  25.016  1.00  0.00    -0.274 OA
ATOM     26  C   UNL A   1      33.176  23.817  21.725  1.00  0.00     0.041 C 
ATOM     27  C   UNL A   1      30.803  23.072  23.241  1.00  0.00     0.041 C 
ATOM     28  C   UNL A   1      33.160  22.615  22.620  1.00  0.00    -0.030 C 
ATOM     29  C   UNL A   1      32.068  22.270  23.310  1.00  0.00    -0.030 C 
ENDBRANCH   8  19
ENDBRANCH   7   8
ENDBRANCH   4   7
ENDBRANCH   2   3
ENDBRANCH   1   2
BRANCH   1  30
ATOM     30  C   UNL A   1      36.757  22.166  25.057  1.00  0.00     0.118 C 
BRANCH  30  31
ATOM     31  N   UNL A   1      37.799  21.226  25.416  1.00  0.00    -0.352 N 
ATOM     32  C   UNL A   1      39.031  21.367  26.006  1.00  0.00     0.251 C 
ATOM     33  H   UNL A   1      37.578  20.294  25.190  1.00  0.00     0.163 HD
ATOM     34  O   UNL A   1      39.775  20.384  25.950  1.00  0.00    -0.269 OA
BRANCH  32  35
ATOM     35  C   UNL A   1      39.520  22.595  26.705  1.00  0.00     0.039 A 
ATOM     36  C   UNL A   1      38.908  23.812  26.356  1.00  0.00     0.014 A 
ATOM     37  C   UNL A   1      40.624  22.644  27.557  1.00  0.00     0.014 A 
ATOM     38  C   UNL A   1      39.407  25.039  26.819  1.00  0.00     0.010 A 
ATOM     39  C   UNL A   1      41.069  23.864  28.094  1.00  0.00     0.010 A 
ATOM     40  C   UNL A   1      40.504  25.082  27.687  1.00  0.00    -0.014 A 
BRANCH  40  41
ATOM     41  C   UNL A   1      41.131  26.379  28.078  1.00  0.00     0.031 A 
ATOM     42  C   UNL A   1      42.555  26.688  27.672  1.00  0.00     0.074 A 
ATOM     43  C   UNL A   1      40.447  27.283  28.809  1.00  0.00     0.049 A 
ATOM     44  N   UNL A   1      43.278  27.751  27.925  1.00  0.00    -0.248 NA
ATOM     45  C   UNL A   1      43.271  25.656  26.903  1.00  0.00     0.031 C 
ATOM     46  C   UNL A   1      39.086  27.107  29.316  1.00  0.00     0.029 A 
ATOM     47  N   UNL A   1      40.812  28.528  29.265  1.00  0.00    -0.354 N 
ATOM     48  C   UNL A   1      44.534  27.500  27.382  1.00  0.00     0.074 A 
ATOM     49  C   UNL A   1      44.489  26.168  26.821  1.00  0.00     0.031 C 
ATOM     50  C   UNL A   1      38.730  28.202  30.008  1.00  0.00     0.029 A 
ATOM     51  C   UNL A   1      39.839  29.153  30.011  1.00  0.00     0.049 A 
ATOM     52  H   UNL A   1      41.688  28.934  29.076  1.00  0.00     0.167 HD
ATOM     53  C   UNL A   1      45.620  28.310  27.317  1.00  0.00     0.034 A 
ATOM     54  C   UNL A   1      39.834  30.356  30.622  1.00  0.00     0.034 A 
ATOM     55  C   UNL A   1      45.654  29.659  27.812  1.00  0.00     0.049 A 
ATOM     56  C   UNL A   1      41.033  31.259  30.490  1.00  0.00     0.074 A 
ATOM     57  C   UNL A   1      46.685  30.581  27.727  1.00  0.00     0.029 A 
ATOM     58  N   UNL A   1      44.613  30.284  28.478  1.00  0.00    -0.354 N 
ATOM     59  N   UNL A   1      42.158  31.052  29.850  1.00  0.00    -0.248 NA
ATOM     60  C   UNL A   1      40.944  32.582  31.128  1.00  0.00     0.031 C 
ATOM     61  C   UNL A   1      46.268  31.762  28.351  1.00  0.00     0.029 A 
ATOM     62  C   UNL A   1      44.971  31.581  28.805  1.00  0.00     0.049 A 
ATOM     63  H   UNL A   1      43.746  29.868  28.687  1.00  0.00     0.167 HD
ATOM     64  C   UNL A   1      42.887  32.232  29.966  1.00  0.00     0.074 A 
ATOM     65  C   UNL A   1      42.070  33.154  30.727  1.00  0.00     0.031 C 
ATOM     66  C   UNL A   1      44.125  32.519  29.496  1.00  0.00     0.034 A 
BRANCH  53  67
ATOM     67  C   UNL A   1      46.850  27.778  26.624  1.00  0.00     0.023 A 
ATOM     68  C   UNL A   1      47.793  27.032  27.360  1.00  0.00     0.012 A 
ATOM     69  C   UNL A   1      47.044  27.962  25.241  1.00  0.00     0.148 A 
ATOM     70  C   UNL A   1      48.930  26.513  26.743  1.00  0.00     0.002 A 
ATOM     71  C   UNL A   1      48.158  27.403  24.622  1.00  0.00     0.091 A 
ATOM     72  F   UNL A   1      46.147  28.688  24.558  1.00  0.00    -0.205 F 
ATOM     73  C   UNL A   1      49.107  26.689  25.373  1.00  0.00     0.022 A 
BRANCH  71  74
ATOM     74  S   UNL A   1      48.435  27.506  22.850  1.00  0.00     0.127 S 
ATOM     75  O   UNL A   1      49.742  28.158  22.794  1.00  0.00    -0.237 OA
ATOM     76  O   UNL A   1      48.439  26.097  22.455  1.00  0.00    -0.237 OA
ATOM     77  O   UNL A   1      47.324  28.281  22.317  1.00  0.00    -0.744 OA
ENDBRANCH  71  74
ENDBRANCH  53  67
BRANCH  54  78
ATOM     78  C   UNL A   1      38.617  30.818  31.349  1.00  0.00     0.023 A 
ATOM     79  C   UNL A   1      38.517  30.598  32.738  1.00  0.00     0.012 A 
ATOM     80  C   UNL A   1      37.569  31.478  30.682  1.00  0.00     0.148 A 
ATOM     81  C   UNL A   1      37.381  30.999  33.442  1.00  0.00     0.002 A 
ATOM     82  C   UNL A   1      36.464  31.925  31.399  1.00  0.00     0.091 A 
ATOM     83  F   UNL A   1      37.676  31.665  29.359  1.00  0.00    -0.205 F 
ATOM     84  C   UNL A   1      36.360  31.670  32.776  1.00  0.00     0.022 A 
BRANCH  82  85
ATOM     85  S   UNL A   1      35.167  32.912  30.647  1.00  0.00     0.127 S 
ATOM     86  O   UNL A   1      34.264  33.128  31.774  1.00  0.00    -0.237 OA
ATOM     87  O   UNL A   1      35.903  34.099  30.211  1.00  0.00    -0.237 OA
ATOM     88  O   UNL A   1      34.642  32.100  29.557  1.00  0.00    -0.744 OA
ENDBRANCH  82  85
ENDBRANCH  54  78
BRANCH  66  89
ATOM     89  C   UNL A   1      44.667  33.904  29.733  1.00  0.00     0.023 A 
ATOM     90  C   UNL A   1      45.439  34.172  30.879  1.00  0.00     0.012 A 
ATOM     91  C   UNL A   1      44.474  34.922  28.776  1.00  0.00     0.148 A 
ATOM     92  C   UNL A   1      45.984  35.440  31.087  1.00  0.00     0.002 A 
ATOM     93  C   UNL A   1      45.058  36.169  28.967  1.00  0.00     0.091 A 
ATOM     94  F   UNL A   1      43.718  34.655  27.702  1.00  0.00    -0.205 F 
ATOM     95  C   UNL A   1      45.804  36.433  30.126  1.00  0.00     0.022 A 
BRANCH  93  96
ATOM     96  S   UNL A   1      44.957  37.471  27.733  1.00  0.00     0.127 S 
ATOM     97  O   UNL A   1      45.714  36.892  26.626  1.00  0.00    -0.237 OA
ATOM     98  O   UNL A   1      43.515  37.570  27.500  1.00  0.00    -0.237 OA
ATOM     99  O   UNL A   1      45.547  38.651  28.351  1.00  0.00    -0.744 OA
ENDBRANCH  93  96
ENDBRANCH  66  89
ENDBRANCH  40  41
ENDBRANCH  32  35
ENDBRANCH  30  31
ENDBRANCH   1  30
TORSDOF 18
ENDMDL
