MODEL 1
REMARK VINA RESULT:     -10.6      0.000      0.000
REMARK SMILES C[N@H+](C[C@H]1CCC[N@@H+]1CC(=O)NCCCNC(=O)c1ccc(-c2c3nc(c(-c4cccc(S(=O)(=O)[O-])c4F)c4ccc([nH]4)c(-c4cccc(S(=O)(=O)[O-])c4F)c4nc(c(-c5cccc(S(=O)(=O)[O-])c5F)c5ccc2[nH]5)C=C4)C=C3)cc1)C1CC1
REMARK SMILES IDX 13 1 12 2 10 3 11 4 9 6 8 7 4 8 5 9 6 10 7 11 3 13 2 14 1 15
REMARK SMILES IDX 82 17 83 18 84 19 14 20 15 21 16 22 17 23 18 25 19 26 20 27
REMARK SMILES IDX 81 28 21 29 80 30 22 31 23 32 24 33 74 34 25 35 79 36 73 37
REMARK SMILES IDX 75 38 26 39 78 40 72 41 71 42 27 44 59 45 39 46 58 47 40 48
REMARK SMILES IDX 43 49 57 50 76 51 41 52 42 53 56 55 77 56 44 57 28 58 29 59
REMARK SMILES IDX 37 60 30 61 32 62 38 63 31 64 33 65 34 66 35 67 36 68 60 69
REMARK SMILES IDX 61 70 69 71 62 72 64 73 70 74 63 75 65 76 66 77 67 78 68 79
REMARK SMILES IDX 45 80 46 81 54 82 47 83 49 84 55 85 48 86 50 87 51 88 52 89
REMARK SMILES IDX 53 90
REMARK H PARENT 12 5 8 12 2 16 16 24 75 43 43 54
REMARK Flexibility Score: inf
ROOT
ATOM      1  C   UNL A   1      32.103  26.997  26.633  1.00  0.00     0.118 C 
ENDROOT
BRANCH   1   2
ATOM      2  N   UNL A   1      31.112  25.938  26.738  1.00  0.00    -0.351 N 
ATOM      3  C   UNL A   1      31.220  24.576  26.764  1.00  0.00     0.275 C 
ATOM      4  O   UNL A   1      30.181  23.939  26.969  1.00  0.00    -0.269 OA
ATOM      5  H   UNL A   1      30.185  26.265  26.803  1.00  0.00     0.163 HD
BRANCH   3   6
ATOM      6  C   UNL A   1      32.561  23.867  26.546  1.00  0.00     0.363 C 
BRANCH   6   7
ATOM      7  N   UNL A   1      32.897  23.536  25.141  1.00  0.00    -0.320 N 
ATOM      8  C   UNL A   1      34.347  23.377  24.892  1.00  0.00     0.240 C 
ATOM      9  C   UNL A   1      34.805  24.777  24.476  1.00  0.00     0.077 C 
ATOM     10  C   UNL A   1      33.619  25.370  23.739  1.00  0.00     0.068 C 
ATOM     11  C   UNL A   1      32.423  24.526  24.162  1.00  0.00     0.263 C 
ATOM     12  H   UNL A   1      32.412  22.648  25.013  1.00  0.00     0.348 HD
BRANCH   8  13
ATOM     13  C   UNL A   1      34.663  22.213  23.897  1.00  0.00     0.327 C 
BRANCH  13  14
ATOM     14  N   UNL A   1      34.990  20.945  24.551  1.00  0.00    -0.330 N 
ATOM     15  C   UNL A   1      36.052  21.087  25.556  1.00  0.00     0.333 C 
ATOM     16  H   UNL A   1      35.352  20.364  23.793  1.00  0.00     0.348 HD
BRANCH  14  17
ATOM     17  C   UNL A   1      33.836  20.203  25.080  1.00  0.00     0.184 C 
ATOM     18  C   UNL A   1      32.720  19.711  24.195  1.00  0.00     0.071 C 
ATOM     19  C   UNL A   1      33.741  18.745  24.708  1.00  0.00     0.071 C 
ENDBRANCH  14  17
ENDBRANCH  13  14
ENDBRANCH   8  13
ENDBRANCH   6   7
ENDBRANCH   3   6
ENDBRANCH   1   2
BRANCH   1  20
ATOM     20  C   UNL A   1      31.758  28.141  25.668  1.00  0.00     0.042 C 
BRANCH  20  21
ATOM     21  C   UNL A   1      32.855  29.171  25.411  1.00  0.00     0.118 C 
BRANCH  21  22
ATOM     22  N   UNL A   1      32.450  30.496  25.841  1.00  0.00    -0.352 N 
ATOM     23  C   UNL A   1      32.947  31.270  26.861  1.00  0.00     0.251 C 
ATOM     24  H   UNL A   1      31.713  30.898  25.327  1.00  0.00     0.163 HD
ATOM     25  O   UNL A   1      32.286  32.230  27.253  1.00  0.00    -0.269 OA
BRANCH  23  26
ATOM     26  C   UNL A   1      34.257  30.974  27.498  1.00  0.00     0.039 A 
ATOM     27  C   UNL A   1      34.475  29.690  28.010  1.00  0.00     0.014 A 
ATOM     28  C   UNL A   1      35.223  31.967  27.694  1.00  0.00     0.014 A 
ATOM     29  C   UNL A   1      35.660  29.394  28.696  1.00  0.00     0.010 A 
ATOM     30  C   UNL A   1      36.423  31.660  28.346  1.00  0.00     0.010 A 
ATOM     31  C   UNL A   1      36.648  30.376  28.868  1.00  0.00    -0.014 A 
BRANCH  31  32
ATOM     32  C   UNL A   1      37.909  30.077  29.599  1.00  0.00     0.031 A 
ATOM     33  C   UNL A   1      38.906  29.095  29.042  1.00  0.00     0.074 A 
ATOM     34  C   UNL A   1      38.138  30.643  30.801  1.00  0.00     0.049 A 
ATOM     35  N   UNL A   1      40.034  28.681  29.561  1.00  0.00    -0.248 NA
ATOM     36  C   UNL A   1      38.589  28.491  27.738  1.00  0.00     0.031 C 
ATOM     37  C   UNL A   1      37.236  31.574  31.478  1.00  0.00     0.029 A 
ATOM     38  N   UNL A   1      39.185  30.493  31.678  1.00  0.00    -0.354 N 
ATOM     39  C   UNL A   1      40.548  27.749  28.666  1.00  0.00     0.074 A 
ATOM     40  C   UNL A   1      39.599  27.646  27.577  1.00  0.00     0.031 C 
ATOM     41  C   UNL A   1      37.759  31.899  32.672  1.00  0.00     0.029 A 
ATOM     42  C   UNL A   1      39.021  31.185  32.855  1.00  0.00     0.049 A 
ATOM     43  H   UNL A   1      39.977  29.942  31.483  1.00  0.00     0.167 HD
ATOM     44  C   UNL A   1      41.715  27.063  28.728  1.00  0.00     0.034 A 
ATOM     45  C   UNL A   1      39.789  31.233  33.962  1.00  0.00     0.034 A 
ATOM     46  C   UNL A   1      42.684  27.194  29.784  1.00  0.00     0.049 A 
ATOM     47  C   UNL A   1      41.085  30.468  34.002  1.00  0.00     0.074 A 
ATOM     48  C   UNL A   1      43.935  26.607  29.880  1.00  0.00     0.029 A 
ATOM     49  N   UNL A   1      42.512  27.956  30.929  1.00  0.00    -0.354 N 
ATOM     50  N   UNL A   1      41.630  29.722  33.072  1.00  0.00    -0.248 NA
ATOM     51  C   UNL A   1      41.886  30.574  35.231  1.00  0.00     0.031 C 
ATOM     52  C   UNL A   1      44.514  27.004  31.091  1.00  0.00     0.029 A 
ATOM     53  C   UNL A   1      43.626  27.843  31.744  1.00  0.00     0.049 A 
ATOM     54  H   UNL A   1      41.716  28.497  31.132  1.00  0.00     0.167 HD
ATOM     55  C   UNL A   1      42.847  29.294  33.590  1.00  0.00     0.074 A 
ATOM     56  C   UNL A   1      42.971  29.881  34.909  1.00  0.00     0.031 C 
ATOM     57  C   UNL A   1      43.769  28.472  33.031  1.00  0.00     0.034 A 
BRANCH  44  58
ATOM     58  C   UNL A   1      42.049  26.145  27.582  1.00  0.00     0.023 A 
ATOM     59  C   UNL A   1      42.761  26.655  26.479  1.00  0.00     0.012 A 
ATOM     60  C   UNL A   1      41.733  24.773  27.628  1.00  0.00     0.148 A 
ATOM     61  C   UNL A   1      43.135  25.820  25.427  1.00  0.00     0.002 A 
ATOM     62  C   UNL A   1      42.137  23.940  26.590  1.00  0.00     0.091 A 
ATOM     63  F   UNL A   1      41.033  24.310  28.675  1.00  0.00    -0.205 F 
ATOM     64  C   UNL A   1      42.832  24.462  25.488  1.00  0.00     0.022 A 
BRANCH  62  65
ATOM     65  S   UNL A   1      41.852  22.166  26.616  1.00  0.00     0.127 S 
ATOM     66  O   UNL A   1      42.527  21.741  25.390  1.00  0.00    -0.237 OA
ATOM     67  O   UNL A   1      42.523  21.759  27.852  1.00  0.00    -0.237 OA
ATOM     68  O   UNL A   1      40.406  21.996  26.633  1.00  0.00    -0.744 OA
ENDBRANCH  62  65
ENDBRANCH  44  58
BRANCH  45  69
ATOM     69  C   UNL A   1      39.376  32.090  35.108  1.00  0.00     0.023 A 
ATOM     70  C   UNL A   1      39.605  33.478  35.051  1.00  0.00     0.012 A 
ATOM     71  C   UNL A   1      38.718  31.547  36.229  1.00  0.00     0.148 A 
ATOM     72  C   UNL A   1      39.206  34.308  36.098  1.00  0.00     0.002 A 
ATOM     73  C   UNL A   1      38.274  32.387  37.244  1.00  0.00     0.091 A 
ATOM     74  F   UNL A   1      38.529  30.221  36.277  1.00  0.00    -0.205 F 
ATOM     75  C   UNL A   1      38.529  33.765  37.188  1.00  0.00     0.022 A 
BRANCH  73  76
ATOM     76  S   UNL A   1      37.268  31.780  38.604  1.00  0.00     0.127 S 
ATOM     77  O   UNL A   1      38.171  31.946  39.742  1.00  0.00    -0.237 OA
ATOM     78  O   UNL A   1      36.131  32.700  38.581  1.00  0.00    -0.237 OA
ATOM     79  O   UNL A   1      36.929  30.408  38.249  1.00  0.00    -0.744 OA
ENDBRANCH  73  76
ENDBRANCH  45  69
BRANCH  57  80
ATOM     80  C   UNL A   1      45.008  28.160  33.828  1.00  0.00     0.023 A 
ATOM     81  C   UNL A   1      46.130  29.005  33.720  1.00  0.00     0.012 A 
ATOM     82  C   UNL A   1      45.034  27.090  34.745  1.00  0.00     0.148 A 
ATOM     83  C   UNL A   1      47.268  28.776  34.495  1.00  0.00     0.002 A 
ATOM     84  C   UNL A   1      46.157  26.891  35.542  1.00  0.00     0.091 A 
ATOM     85  F   UNL A   1      43.964  26.284  34.820  1.00  0.00    -0.205 F 
ATOM     86  C   UNL A   1      47.276  27.729  35.413  1.00  0.00     0.022 A 
BRANCH  84  87
ATOM     87  S   UNL A   1      46.224  25.619  36.809  1.00  0.00     0.127 S 
ATOM     88  O   UNL A   1      46.406  24.409  36.010  1.00  0.00    -0.237 OA
ATOM     89  O   UNL A   1      47.397  26.016  37.589  1.00  0.00    -0.237 OA
ATOM     90  O   UNL A   1      44.963  25.710  37.533  1.00  0.00    -0.744 OA
ENDBRANCH  84  87
ENDBRANCH  57  80
ENDBRANCH  31  32
ENDBRANCH  23  26
ENDBRANCH  21  22
ENDBRANCH  20  21
ENDBRANCH   1  20
TORSDOF 17
ENDMDL
MODEL 2
REMARK VINA RESULT:     -10.5      2.228      8.069
REMARK SMILES C[N@H+](C[C@H]1CCC[N@@H+]1CC(=O)NCCCNC(=O)c1ccc(-c2c3nc(c(-c4cccc(S(=O)(=O)[O-])c4F)c4ccc([nH]4)c(-c4cccc(S(=O)(=O)[O-])c4F)c4nc(c(-c5cccc(S(=O)(=O)[O-])c5F)c5ccc2[nH]5)C=C4)C=C3)cc1)C1CC1
REMARK SMILES IDX 13 1 12 2 10 3 11 4 9 6 8 7 4 8 5 9 6 10 7 11 3 13 2 14 1 15
REMARK SMILES IDX 82 17 83 18 84 19 14 20 15 21 16 22 17 23 18 25 19 26 20 27
REMARK SMILES IDX 81 28 21 29 80 30 22 31 23 32 24 33 74 34 25 35 79 36 73 37
REMARK SMILES IDX 75 38 26 39 78 40 72 41 71 42 27 44 59 45 39 46 58 47 40 48
REMARK SMILES IDX 43 49 57 50 76 51 41 52 42 53 56 55 77 56 44 57 28 58 29 59
REMARK SMILES IDX 37 60 30 61 32 62 38 63 31 64 33 65 34 66 35 67 36 68 60 69
REMARK SMILES IDX 61 70 69 71 62 72 64 73 70 74 63 75 65 76 66 77 67 78 68 79
REMARK SMILES IDX 45 80 46 81 54 82 47 83 49 84 55 85 48 86 50 87 51 88 52 89
REMARK SMILES IDX 53 90
REMARK H PARENT 12 5 8 12 2 16 16 24 75 43 43 54
REMARK Flexibility Score: inf
ROOT
ATOM      1  C   UNL A   1      32.602  26.757  25.457  1.00  0.00     0.118 C 
ENDROOT
BRANCH   1   2
ATOM      2  N   UNL A   1      31.767  25.695  25.994  1.00  0.00    -0.351 N 
ATOM      3  C   UNL A   1      32.066  24.516  26.619  1.00  0.00     0.275 C 
ATOM      4  O   UNL A   1      31.114  23.863  27.060  1.00  0.00    -0.269 OA
ATOM      5  H   UNL A   1      30.802  25.855  25.888  1.00  0.00     0.163 HD
BRANCH   3   6
ATOM      6  C   UNL A   1      33.509  24.021  26.765  1.00  0.00     0.363 C 
BRANCH   6   7
ATOM      7  N   UNL A   1      34.158  23.545  25.521  1.00  0.00    -0.320 N 
ATOM      8  C   UNL A   1      34.380  22.083  25.481  1.00  0.00     0.240 C 
ATOM      9  C   UNL A   1      35.785  21.906  26.061  1.00  0.00     0.077 C 
ATOM     10  C   UNL A   1      36.542  23.148  25.627  1.00  0.00     0.068 C 
ATOM     11  C   UNL A   1      35.468  24.162  25.254  1.00  0.00     0.263 C 
ATOM     12  H   UNL A   1      33.482  23.825  24.810  1.00  0.00     0.348 HD
BRANCH   8  13
ATOM     13  C   UNL A   1      34.126  21.474  24.063  1.00  0.00     0.327 C 
BRANCH  13  14
ATOM     14  N   UNL A   1      32.843  20.783  23.933  1.00  0.00    -0.330 N 
ATOM     15  C   UNL A   1      32.032  21.306  22.824  1.00  0.00     0.333 C 
ATOM     16  H   UNL A   1      32.358  21.001  24.805  1.00  0.00     0.348 HD
BRANCH  14  17
ATOM     17  C   UNL A   1      32.928  19.316  23.900  1.00  0.00     0.184 C 
ATOM     18  C   UNL A   1      34.073  18.562  24.525  1.00  0.00     0.071 C 
ATOM     19  C   UNL A   1      32.745  18.598  25.214  1.00  0.00     0.071 C 
ENDBRANCH  14  17
ENDBRANCH  13  14
ENDBRANCH   8  13
ENDBRANCH   6   7
ENDBRANCH   3   6
ENDBRANCH   1   2
BRANCH   1  20
ATOM     20  C   UNL A   1      32.776  27.990  26.356  1.00  0.00     0.042 C 
BRANCH  20  21
ATOM     21  C   UNL A   1      33.953  28.908  26.035  1.00  0.00     0.118 C 
BRANCH  21  22
ATOM     22  N   UNL A   1      33.819  30.192  26.696  1.00  0.00    -0.352 N 
ATOM     23  C   UNL A   1      34.556  30.721  27.728  1.00  0.00     0.251 C 
ATOM     24  H   UNL A   1      33.096  30.767  26.357  1.00  0.00     0.163 HD
ATOM     25  O   UNL A   1      34.110  31.689  28.340  1.00  0.00    -0.269 OA
BRANCH  23  26
ATOM     26  C   UNL A   1      35.872  30.152  28.118  1.00  0.00     0.039 A 
ATOM     27  C   UNL A   1      36.008  29.600  29.397  1.00  0.00     0.014 A 
ATOM     28  C   UNL A   1      36.995  30.251  27.289  1.00  0.00     0.014 A 
ATOM     29  C   UNL A   1      37.253  29.132  29.837  1.00  0.00     0.010 A 
ATOM     30  C   UNL A   1      38.230  29.748  27.714  1.00  0.00     0.010 A 
ATOM     31  C   UNL A   1      38.376  29.199  28.998  1.00  0.00    -0.014 A 
BRANCH  31  32
ATOM     32  C   UNL A   1      39.706  28.711  29.455  1.00  0.00     0.031 A 
ATOM     33  C   UNL A   1      40.455  29.432  30.545  1.00  0.00     0.074 A 
ATOM     34  C   UNL A   1      40.276  27.651  28.849  1.00  0.00     0.049 A 
ATOM     35  N   UNL A   1      41.641  29.177  31.038  1.00  0.00    -0.248 NA
ATOM     36  C   UNL A   1      39.793  30.598  31.151  1.00  0.00     0.031 C 
ATOM     37  C   UNL A   1      39.683  26.890  27.750  1.00  0.00     0.029 A 
ATOM     38  N   UNL A   1      41.495  27.051  29.053  1.00  0.00    -0.354 N 
ATOM     39  C   UNL A   1      41.880  30.161  31.990  1.00  0.00     0.074 A 
ATOM     40  C   UNL A   1      40.722  31.031  31.993  1.00  0.00     0.031 C 
ATOM     41  C   UNL A   1      40.545  25.935  27.364  1.00  0.00     0.029 A 
ATOM     42  C   UNL A   1      41.759  26.028  28.171  1.00  0.00     0.049 A 
ATOM     43  H   UNL A   1      42.120  27.326  29.761  1.00  0.00     0.167 HD
ATOM     44  C   UNL A   1      42.951  30.315  32.807  1.00  0.00     0.034 A 
ATOM     45  C   UNL A   1      42.856  25.259  28.019  1.00  0.00     0.034 A 
ATOM     46  C   UNL A   1      44.084  29.428  32.841  1.00  0.00     0.049 A 
ATOM     47  C   UNL A   1      44.029  25.444  28.946  1.00  0.00     0.074 A 
ATOM     48  C   UNL A   1      45.169  29.455  33.701  1.00  0.00     0.029 A 
ATOM     49  N   UNL A   1      44.286  28.365  31.977  1.00  0.00    -0.354 N 
ATOM     50  N   UNL A   1      44.163  26.277  29.948  1.00  0.00    -0.248 NA
ATOM     51  C   UNL A   1      45.188  24.563  28.739  1.00  0.00     0.031 C 
ATOM     52  C   UNL A   1      46.034  28.414  33.348  1.00  0.00     0.029 A 
ATOM     53  C   UNL A   1      45.484  27.736  32.273  1.00  0.00     0.049 A 
ATOM     54  H   UNL A   1      43.668  28.095  31.260  1.00  0.00     0.167 HD
ATOM     55  C   UNL A   1      45.406  26.003  30.509  1.00  0.00     0.074 A 
ATOM     56  C   UNL A   1      45.977  24.911  29.747  1.00  0.00     0.031 C 
ATOM     57  C   UNL A   1      46.025  26.615  31.548  1.00  0.00     0.034 A 
BRANCH  44  58
ATOM     58  C   UNL A   1      42.924  31.456  33.789  1.00  0.00     0.023 A 
ATOM     59  C   UNL A   1      43.439  32.708  33.400  1.00  0.00     0.012 A 
ATOM     60  C   UNL A   1      42.325  31.316  35.056  1.00  0.00     0.148 A 
ATOM     61  C   UNL A   1      43.379  33.800  34.264  1.00  0.00     0.002 A 
ATOM     62  C   UNL A   1      42.239  32.418  35.901  1.00  0.00     0.091 A 
ATOM     63  F   UNL A   1      41.862  30.110  35.418  1.00  0.00    -0.205 F 
ATOM     64  C   UNL A   1      42.771  33.658  35.510  1.00  0.00     0.022 A 
BRANCH  62  65
ATOM     65  S   UNL A   1      41.412  32.345  37.493  1.00  0.00     0.127 S 
ATOM     66  O   UNL A   1      42.263  31.408  38.225  1.00  0.00    -0.237 OA
ATOM     67  O   UNL A   1      41.497  33.732  37.954  1.00  0.00    -0.237 OA
ATOM     68  O   UNL A   1      40.058  31.885  37.217  1.00  0.00    -0.744 OA
ENDBRANCH  62  65
ENDBRANCH  44  58
BRANCH  45  69
ATOM     69  C   UNL A   1      42.871  24.196  26.976  1.00  0.00     0.023 A 
ATOM     70  C   UNL A   1      43.588  24.409  25.783  1.00  0.00     0.012 A 
ATOM     71  C   UNL A   1      42.220  22.963  27.177  1.00  0.00     0.148 A 
ATOM     72  C   UNL A   1      43.640  23.422  24.800  1.00  0.00     0.002 A 
ATOM     73  C   UNL A   1      42.323  21.963  26.216  1.00  0.00     0.091 A 
ATOM     74  F   UNL A   1      41.523  22.786  28.307  1.00  0.00    -0.205 F 
ATOM     75  C   UNL A   1      43.019  22.195  25.021  1.00  0.00     0.022 A 
BRANCH  73  76
ATOM     76  S   UNL A   1      41.675  20.310  26.496  1.00  0.00     0.127 S 
ATOM     77  O   UNL A   1      42.310  19.949  27.762  1.00  0.00    -0.237 OA
ATOM     78  O   UNL A   1      40.234  20.554  26.579  1.00  0.00    -0.237 OA
ATOM     79  O   UNL A   1      42.078  19.536  25.331  1.00  0.00    -0.744 OA
ENDBRANCH  73  76
ENDBRANCH  45  69
BRANCH  57  80
ATOM     80  C   UNL A   1      47.390  26.119  31.944  1.00  0.00     0.023 A 
ATOM     81  C   UNL A   1      48.526  26.615  31.274  1.00  0.00     0.012 A 
ATOM     82  C   UNL A   1      47.558  25.236  33.029  1.00  0.00     0.148 A 
ATOM     83  C   UNL A   1      49.807  26.222  31.663  1.00  0.00     0.002 A 
ATOM     84  C   UNL A   1      48.839  24.879  33.436  1.00  0.00     0.091 A 
ATOM     85  F   UNL A   1      46.464  24.758  33.641  1.00  0.00    -0.205 F 
ATOM     86  C   UNL A   1      49.963  25.364  32.750  1.00  0.00     0.022 A 
BRANCH  84  87
ATOM     87  S   UNL A   1      49.138  23.846  34.876  1.00  0.00     0.127 S 
ATOM     88  O   UNL A   1      48.516  24.630  35.941  1.00  0.00    -0.237 OA
ATOM     89  O   UNL A   1      48.428  22.614  34.532  1.00  0.00    -0.237 OA
ATOM     90  O   UNL A   1      50.585  23.700  34.968  1.00  0.00    -0.744 OA
ENDBRANCH  84  87
ENDBRANCH  57  80
ENDBRANCH  31  32
ENDBRANCH  23  26
ENDBRANCH  21  22
ENDBRANCH  20  21
ENDBRANCH   1  20
TORSDOF 17
ENDMDL
MODEL 3
REMARK VINA RESULT:     -10.4      3.008      8.259
REMARK SMILES C[N@H+](C[C@H]1CCC[N@@H+]1CC(=O)NCCCNC(=O)c1ccc(-c2c3nc(c(-c4cccc(S(=O)(=O)[O-])c4F)c4ccc([nH]4)c(-c4cccc(S(=O)(=O)[O-])c4F)c4nc(c(-c5cccc(S(=O)(=O)[O-])c5F)c5ccc2[nH]5)C=C4)C=C3)cc1)C1CC1
REMARK SMILES IDX 13 1 12 2 10 3 11 4 9 6 8 7 4 8 5 9 6 10 7 11 3 13 2 14 1 15
REMARK SMILES IDX 82 17 83 18 84 19 14 20 15 21 16 22 17 23 18 25 19 26 20 27
REMARK SMILES IDX 81 28 21 29 80 30 22 31 23 32 24 33 74 34 25 35 79 36 73 37
REMARK SMILES IDX 75 38 26 39 78 40 72 41 71 42 27 44 59 45 39 46 58 47 40 48
REMARK SMILES IDX 43 49 57 50 76 51 41 52 42 53 56 55 77 56 44 57 28 58 29 59
REMARK SMILES IDX 37 60 30 61 32 62 38 63 31 64 33 65 34 66 35 67 36 68 60 69
REMARK SMILES IDX 61 70 69 71 62 72 64 73 70 74 63 75 65 76 66 77 67 78 68 79
REMARK SMILES IDX 45 80 46 81 54 82 47 83 49 84 55 85 48 86 50 87 51 88 52 89
REMARK SMILES IDX 53 90
REMARK H PARENT 12 5 8 12 2 16 16 24 75 43 43 54
REMARK Flexibility Score: inf
ROOT
ATOM      1  C   UNL A   1      32.792  26.203  26.153  1.00  0.00     0.118 C 
ENDROOT
BRANCH   1   2
ATOM      2  N   UNL A   1      31.608  25.480  26.588  1.00  0.00    -0.351 N 
ATOM      3  C   UNL A   1      31.333  24.145  26.694  1.00  0.00     0.275 C 
ATOM      4  O   UNL A   1      30.250  23.839  27.204  1.00  0.00    -0.269 OA
ATOM      5  H   UNL A   1      30.862  26.062  26.859  1.00  0.00     0.163 HD
BRANCH   3   6
ATOM      6  C   UNL A   1      32.313  23.075  26.200  1.00  0.00     0.363 C 
BRANCH   6   7
ATOM      7  N   UNL A   1      31.903  22.333  24.985  1.00  0.00    -0.320 N 
ATOM      8  C   UNL A   1      32.984  21.522  24.383  1.00  0.00     0.240 C 
ATOM      9  C   UNL A   1      33.629  22.464  23.363  1.00  0.00     0.077 C 
ATOM     10  C   UNL A   1      32.488  23.328  22.859  1.00  0.00     0.068 C 
ATOM     11  C   UNL A   1      31.388  23.189  23.904  1.00  0.00     0.263 C 
ATOM     12  H   UNL A   1      31.162  21.732  25.345  1.00  0.00     0.348 HD
BRANCH   8  13
ATOM     13  C   UNL A   1      32.475  20.147  23.840  1.00  0.00     0.327 C 
BRANCH  13  14
ATOM     14  N   UNL A   1      33.081  18.987  24.496  1.00  0.00    -0.330 N 
ATOM     15  C   UNL A   1      32.800  18.944  25.937  1.00  0.00     0.333 C 
ATOM     16  H   UNL A   1      34.084  19.135  24.377  1.00  0.00     0.348 HD
BRANCH  14  17
ATOM     17  C   UNL A   1      32.808  17.695  23.849  1.00  0.00     0.184 C 
ATOM     18  C   UNL A   1      33.416  17.313  22.525  1.00  0.00     0.071 C 
ATOM     19  C   UNL A   1      33.952  16.715  23.787  1.00  0.00     0.071 C 
ENDBRANCH  14  17
ENDBRANCH  13  14
ENDBRANCH   8  13
ENDBRANCH   6   7
ENDBRANCH   3   6
ENDBRANCH   1   2
BRANCH   1  20
ATOM     20  C   UNL A   1      32.665  27.734  26.120  1.00  0.00     0.042 C 
BRANCH  20  21
ATOM     21  C   UNL A   1      33.968  28.526  26.061  1.00  0.00     0.118 C 
BRANCH  21  22
ATOM     22  N   UNL A   1      33.767  29.909  26.448  1.00  0.00    -0.352 N 
ATOM     23  C   UNL A   1      34.399  30.641  27.422  1.00  0.00     0.251 C 
ATOM     24  H   UNL A   1      33.076  30.392  25.939  1.00  0.00     0.163 HD
ATOM     25  O   UNL A   1      33.892  31.698  27.793  1.00  0.00    -0.269 OA
BRANCH  23  26
ATOM     26  C   UNL A   1      35.675  30.187  28.035  1.00  0.00     0.039 A 
ATOM     27  C   UNL A   1      36.851  30.291  27.284  1.00  0.00     0.014 A 
ATOM     28  C   UNL A   1      35.711  29.564  29.287  1.00  0.00     0.014 A 
ATOM     29  C   UNL A   1      38.059  29.794  27.789  1.00  0.00     0.010 A 
ATOM     30  C   UNL A   1      36.926  29.102  29.808  1.00  0.00     0.010 A 
ATOM     31  C   UNL A   1      38.109  29.197  29.058  1.00  0.00    -0.014 A 
BRANCH  31  32
ATOM     32  C   UNL A   1      39.385  28.659  29.605  1.00  0.00     0.031 A 
ATOM     33  C   UNL A   1      40.036  29.298  30.804  1.00  0.00     0.074 A 
ATOM     34  C   UNL A   1      39.998  27.629  28.989  1.00  0.00     0.049 A 
ATOM     35  N   UNL A   1      41.167  28.992  31.388  1.00  0.00    -0.248 NA
ATOM     36  C   UNL A   1      39.332  30.435  31.418  1.00  0.00     0.031 C 
ATOM     37  C   UNL A   1      39.502  26.949  27.792  1.00  0.00     0.029 A 
ATOM     38  N   UNL A   1      41.185  26.997  29.266  1.00  0.00    -0.354 N 
ATOM     39  C   UNL A   1      41.326  29.912  32.419  1.00  0.00     0.074 A 
ATOM     40  C   UNL A   1      40.183  30.799  32.369  1.00  0.00     0.031 C 
ATOM     41  C   UNL A   1      40.386  26.005  27.429  1.00  0.00     0.029 A 
ATOM     42  C   UNL A   1      41.519  26.026  28.350  1.00  0.00     0.049 A 
ATOM     43  H   UNL A   1      41.744  27.216  30.046  1.00  0.00     0.167 HD
ATOM     44  C   UNL A   1      42.317  29.995  33.340  1.00  0.00     0.034 A 
ATOM     45  C   UNL A   1      42.617  25.249  28.253  1.00  0.00     0.034 A 
ATOM     46  C   UNL A   1      43.431  29.089  33.423  1.00  0.00     0.049 A 
ATOM     47  C   UNL A   1      43.699  25.356  29.295  1.00  0.00     0.074 A 
ATOM     48  C   UNL A   1      44.431  29.044  34.381  1.00  0.00     0.029 A 
ATOM     49  N   UNL A   1      43.702  28.078  32.517  1.00  0.00    -0.354 N 
ATOM     50  N   UNL A   1      43.747  26.123  30.356  1.00  0.00    -0.248 NA
ATOM     51  C   UNL A   1      44.863  24.470  29.142  1.00  0.00     0.031 C 
ATOM     52  C   UNL A   1      45.314  28.012  34.045  1.00  0.00     0.029 A 
ATOM     53  C   UNL A   1      44.860  27.412  32.883  1.00  0.00     0.049 A 
ATOM     54  H   UNL A   1      43.152  27.864  31.729  1.00  0.00     0.167 HD
ATOM     55  C   UNL A   1      44.929  25.794  31.012  1.00  0.00     0.074 A 
ATOM     56  C   UNL A   1      45.557  24.741  30.240  1.00  0.00     0.031 C 
ATOM     57  C   UNL A   1      45.454  26.329  32.141  1.00  0.00     0.034 A 
BRANCH  44  58
ATOM     58  C   UNL A   1      42.210  31.073  34.386  1.00  0.00     0.023 A 
ATOM     59  C   UNL A   1      41.624  30.768  35.630  1.00  0.00     0.012 A 
ATOM     60  C   UNL A   1      42.756  32.355  34.173  1.00  0.00     0.148 A 
ATOM     61  C   UNL A   1      41.560  31.726  36.640  1.00  0.00     0.002 A 
ATOM     62  C   UNL A   1      42.718  33.296  35.197  1.00  0.00     0.091 A 
ATOM     63  F   UNL A   1      43.289  32.634  32.975  1.00  0.00    -0.205 F 
ATOM     64  C   UNL A   1      42.115  32.986  36.427  1.00  0.00     0.022 A 
BRANCH  62  65
ATOM     65  S   UNL A   1      43.470  34.919  35.037  1.00  0.00     0.127 S 
ATOM     66  O   UNL A   1      42.664  35.513  33.971  1.00  0.00    -0.237 OA
ATOM     67  O   UNL A   1      43.247  35.499  36.363  1.00  0.00    -0.237 OA
ATOM     68  O   UNL A   1      44.869  34.679  34.712  1.00  0.00    -0.744 OA
ENDBRANCH  62  65
ENDBRANCH  44  58
BRANCH  45  69
ATOM     69  C   UNL A   1      42.718  24.253  27.150  1.00  0.00     0.023 A 
ATOM     70  C   UNL A   1      43.449  24.578  25.992  1.00  0.00     0.012 A 
ATOM     71  C   UNL A   1      42.137  22.976  27.261  1.00  0.00     0.148 A 
ATOM     72  C   UNL A   1      43.582  23.656  24.954  1.00  0.00     0.002 A 
ATOM     73  C   UNL A   1      42.320  22.042  26.247  1.00  0.00     0.091 A 
ATOM     74  F   UNL A   1      41.425  22.692  28.360  1.00  0.00    -0.205 F 
ATOM     75  C   UNL A   1      43.029  22.384  25.086  1.00  0.00     0.022 A 
BRANCH  73  76
ATOM     76  S   UNL A   1      41.763  20.342  26.413  1.00  0.00     0.127 S 
ATOM     77  O   UNL A   1      42.532  19.670  25.367  1.00  0.00    -0.237 OA
ATOM     78  O   UNL A   1      42.169  20.016  27.780  1.00  0.00    -0.237 OA
ATOM     79  O   UNL A   1      40.320  20.389  26.219  1.00  0.00    -0.744 OA
ENDBRANCH  73  76
ENDBRANCH  45  69
BRANCH  57  80
ATOM     80  C   UNL A   1      46.770  25.786  32.631  1.00  0.00     0.023 A 
ATOM     81  C   UNL A   1      46.784  24.873  33.703  1.00  0.00     0.012 A 
ATOM     82  C   UNL A   1      47.978  26.107  31.980  1.00  0.00     0.148 A 
ATOM     83  C   UNL A   1      47.983  24.305  34.136  1.00  0.00     0.002 A 
ATOM     84  C   UNL A   1      49.163  25.507  32.391  1.00  0.00     0.091 A 
ATOM     85  F   UNL A   1      47.947  26.993  30.973  1.00  0.00    -0.205 F 
ATOM     86  C   UNL A   1      49.169  24.612  33.473  1.00  0.00     0.022 A 
BRANCH  84  87
ATOM     87  S   UNL A   1      50.724  25.779  31.542  1.00  0.00     0.127 S 
ATOM     88  O   UNL A   1      50.407  25.342  30.184  1.00  0.00    -0.237 OA
ATOM     89  O   UNL A   1      50.913  27.223  31.689  1.00  0.00    -0.237 OA
ATOM     90  O   UNL A   1      51.708  24.969  32.248  1.00  0.00    -0.744 OA
ENDBRANCH  84  87
ENDBRANCH  57  80
ENDBRANCH  31  32
ENDBRANCH  23  26
ENDBRANCH  21  22
ENDBRANCH  20  21
ENDBRANCH   1  20
TORSDOF 17
ENDMDL
