MODEL 1
REMARK VINA RESULT:      -9.4      0.000      0.000
REMARK SMILES O=C(/C=C/C(=O)c1ccc(F)c(Br)c1)NCCCNC(=O)c1ccc(-c2c3nc(c(-c4cccc(S(=O)(=O)[O-])c4F)c4ccc([nH]4)c(-c4cccc(S(=O)(=O)[O-])c4F)c4nc(c(-c5cccc(S(=O)(=O)[O-])c5F)c5ccc2[nH]5)C=C4)C=C3)cc1
REMARK SMILES IDX 17 1 16 2 15 3 1 4 2 5 3 7 4 8 5 9 6 10 7 11 8 12 14 13 9 14
REMARK SMILES IDX 12 15 10 16 13 17 11 18 18 19 19 20 20 21 21 23 22 24 23 25
REMARK SMILES IDX 84 26 24 27 83 28 25 29 26 30 27 31 77 32 28 33 82 34 76 35
REMARK SMILES IDX 78 36 29 37 81 38 75 39 74 40 30 42 62 43 42 44 61 45 43 46
REMARK SMILES IDX 46 47 60 48 79 49 44 50 45 51 59 53 80 54 47 55 31 56 32 57
REMARK SMILES IDX 40 58 33 59 35 60 41 61 34 62 36 63 37 64 38 65 39 66 63 67
REMARK SMILES IDX 64 68 72 69 65 70 67 71 73 72 66 73 68 74 69 75 70 76 71 77
REMARK SMILES IDX 48 78 49 79 57 80 50 81 52 82 58 83 51 84 53 85 54 86 55 87
REMARK SMILES IDX 56 88
REMARK H PARENT 15 6 19 22 78 41 46 52
REMARK Flexibility Score: inf
ROOT
ATOM      1  C   UNL A   1      32.715  36.087  30.832  1.00  0.00     0.042 C 
ENDROOT
BRANCH   1   2
ATOM      2  C   UNL A   1      33.527  36.797  31.909  1.00  0.00     0.118 C 
BRANCH   2   3
ATOM      3  N   UNL A   1      34.646  35.998  32.371  1.00  0.00    -0.352 N 
ATOM      4  O   UNL A   1      33.399  34.154  32.929  1.00  0.00    -0.270 OA
ATOM      5  C   UNL A   1      34.480  34.735  32.865  1.00  0.00     0.244 C 
ATOM      6  H   UNL A   1      35.553  36.377  32.328  1.00  0.00     0.163 HD
BRANCH   5   7
ATOM      7  C   UNL A   1      35.691  34.027  33.348  1.00  0.00     0.075 C 
ATOM      8  C   UNL A   1      35.777  32.750  33.742  1.00  0.00     0.058 C 
BRANCH   8   9
ATOM      9  C   UNL A   1      37.029  32.108  34.224  1.00  0.00     0.186 C 
ATOM     10  O   UNL A   1      37.631  32.607  35.169  1.00  0.00    -0.289 OA
BRANCH   9  11
ATOM     11  C   UNL A   1      37.571  30.891  33.574  1.00  0.00     0.023 A 
ATOM     12  C   UNL A   1      36.850  30.196  32.591  1.00  0.00     0.015 A 
ATOM     13  C   UNL A   1      38.862  30.474  33.925  1.00  0.00     0.031 A 
ATOM     14  C   UNL A   1      37.399  29.057  32.002  1.00  0.00     0.041 A 
ATOM     15  C   UNL A   1      39.407  29.337  33.325  1.00  0.00     0.054 A 
ATOM     16  C   UNL A   1      38.672  28.631  32.374  1.00  0.00     0.137 A 
ATOM     17  Br  UNL A   1      41.145  28.771  33.808  1.00  0.00    -0.048 Br
ATOM     18  F   UNL A   1      39.176  27.533  31.790  1.00  0.00    -0.206 F 
ENDBRANCH   9  11
ENDBRANCH   8   9
ENDBRANCH   5   7
ENDBRANCH   2   3
ENDBRANCH   1   2
BRANCH   1  19
ATOM     19  C   UNL A   1      33.411  35.983  29.477  1.00  0.00     0.118 C 
BRANCH  19  20
ATOM     20  N   UNL A   1      32.830  34.965  28.613  1.00  0.00    -0.352 N 
ATOM     21  C   UNL A   1      33.363  33.791  28.142  1.00  0.00     0.251 C 
ATOM     22  H   UNL A   1      31.908  35.148  28.319  1.00  0.00     0.163 HD
ATOM     23  O   UNL A   1      32.735  33.152  27.300  1.00  0.00    -0.269 OA
BRANCH  21  24
ATOM     24  C   UNL A   1      34.676  33.295  28.616  1.00  0.00     0.039 A 
ATOM     25  C   UNL A   1      35.832  33.760  27.981  1.00  0.00     0.014 A 
ATOM     26  C   UNL A   1      34.782  32.345  29.635  1.00  0.00     0.014 A 
ATOM     27  C   UNL A   1      37.088  33.301  28.391  1.00  0.00     0.010 A 
ATOM     28  C   UNL A   1      36.038  31.951  30.097  1.00  0.00     0.010 A 
ATOM     29  C   UNL A   1      37.205  32.406  29.466  1.00  0.00    -0.014 A 
BRANCH  29  30
ATOM     30  C   UNL A   1      38.536  31.916  29.912  1.00  0.00     0.031 A 
ATOM     31  C   UNL A   1      39.279  32.627  31.016  1.00  0.00     0.074 A 
ATOM     32  C   UNL A   1      39.107  30.864  29.293  1.00  0.00     0.049 A 
ATOM     33  N   UNL A   1      40.449  32.352  31.532  1.00  0.00    -0.248 NA
ATOM     34  C   UNL A   1      38.634  33.815  31.599  1.00  0.00     0.031 C 
ATOM     35  C   UNL A   1      38.532  30.135  28.160  1.00  0.00     0.029 A 
ATOM     36  N   UNL A   1      40.307  30.236  29.515  1.00  0.00    -0.354 N 
ATOM     37  C   UNL A   1      40.694  33.348  32.471  1.00  0.00     0.074 A 
ATOM     38  C   UNL A   1      39.570  34.256  32.426  1.00  0.00     0.031 C 
ATOM     39  C   UNL A   1      39.373  29.154  27.796  1.00  0.00     0.029 A 
ATOM     40  C   UNL A   1      40.558  29.198  28.647  1.00  0.00     0.049 A 
ATOM     41  H   UNL A   1      40.931  30.502  30.229  1.00  0.00     0.167 HD
ATOM     42  C   UNL A   1      41.743  33.481  33.319  1.00  0.00     0.034 A 
ATOM     43  C   UNL A   1      41.620  28.374  28.548  1.00  0.00     0.034 A 
ATOM     44  C   UNL A   1      42.841  32.554  33.394  1.00  0.00     0.049 A 
ATOM     45  C   UNL A   1      42.750  28.514  29.533  1.00  0.00     0.074 A 
ATOM     46  C   UNL A   1      43.910  32.556  34.274  1.00  0.00     0.029 A 
ATOM     47  N   UNL A   1      43.015  31.465  32.556  1.00  0.00    -0.354 N 
ATOM     48  N   UNL A   1      42.889  29.370  30.516  1.00  0.00    -0.248 NA
ATOM     49  C   UNL A   1      43.850  27.544  29.422  1.00  0.00     0.031 C 
ATOM     50  C   UNL A   1      44.744  31.482  33.949  1.00  0.00     0.029 A 
ATOM     51  C   UNL A   1      44.176  30.788  32.892  1.00  0.00     0.049 A 
ATOM     52  H   UNL A   1      42.404  31.209  31.827  1.00  0.00     0.167 HD
ATOM     53  C   UNL A   1      44.063  29.014  31.168  1.00  0.00     0.074 A 
ATOM     54  C   UNL A   1      44.590  27.855  30.478  1.00  0.00     0.031 C 
ATOM     55  C   UNL A   1      44.659  29.601  32.236  1.00  0.00     0.034 A 
BRANCH  42  56
ATOM     56  C   UNL A   1      41.730  34.649  34.273  1.00  0.00     0.023 A 
ATOM     57  C   UNL A   1      42.325  35.869  33.889  1.00  0.00     0.012 A 
ATOM     58  C   UNL A   1      41.082  34.560  35.521  1.00  0.00     0.148 A 
ATOM     59  C   UNL A   1      42.312  36.968  34.747  1.00  0.00     0.002 A 
ATOM     60  C   UNL A   1      41.031  35.674  36.350  1.00  0.00     0.091 A 
ATOM     61  F   UNL A   1      40.539  33.387  35.877  1.00  0.00    -0.205 F 
ATOM     62  C   UNL A   1      41.656  36.873  35.972  1.00  0.00     0.022 A 
BRANCH  60  63
ATOM     63  S   UNL A   1      40.140  35.681  37.910  1.00  0.00     0.127 S 
ATOM     64  O   UNL A   1      41.124  35.084  38.813  1.00  0.00    -0.237 OA
ATOM     65  O   UNL A   1      39.906  37.110  38.124  1.00  0.00    -0.237 OA
ATOM     66  O   UNL A   1      38.936  34.894  37.689  1.00  0.00    -0.744 OA
ENDBRANCH  60  63
ENDBRANCH  42  56
BRANCH  43  67
ATOM     67  C   UNL A   1      41.633  27.294  27.521  1.00  0.00     0.023 A 
ATOM     68  C   UNL A   1      42.171  27.555  26.246  1.00  0.00     0.012 A 
ATOM     69  C   UNL A   1      41.131  26.009  27.804  1.00  0.00     0.148 A 
ATOM     70  C   UNL A   1      42.175  26.569  25.259  1.00  0.00     0.002 A 
ATOM     71  C   UNL A   1      41.188  25.014  26.835  1.00  0.00     0.091 A 
ATOM     72  F   UNL A   1      40.615  25.783  29.021  1.00  0.00    -0.205 F 
ATOM     73  C   UNL A   1      41.692  25.297  25.555  1.00  0.00     0.022 A 
BRANCH  71  74
ATOM     74  S   UNL A   1      40.710  23.315  27.167  1.00  0.00     0.127 S 
ATOM     75  O   UNL A   1      41.122  22.643  25.937  1.00  0.00    -0.237 OA
ATOM     76  O   UNL A   1      41.519  22.999  28.344  1.00  0.00    -0.237 OA
ATOM     77  O   UNL A   1      39.275  23.353  27.417  1.00  0.00    -0.744 OA
ENDBRANCH  71  74
ENDBRANCH  43  67
BRANCH  55  78
ATOM     78  C   UNL A   1      45.919  28.970  32.772  1.00  0.00     0.023 A 
ATOM     79  C   UNL A   1      47.178  29.403  32.315  1.00  0.00     0.012 A 
ATOM     80  C   UNL A   1      45.849  27.988  33.782  1.00  0.00     0.148 A 
ATOM     81  C   UNL A   1      48.349  28.842  32.826  1.00  0.00     0.002 A 
ATOM     82  C   UNL A   1      47.020  27.472  34.323  1.00  0.00     0.091 A 
ATOM     83  F   UNL A   1      44.641  27.573  34.190  1.00  0.00    -0.205 F 
ATOM     84  C   UNL A   1      48.270  27.886  33.836  1.00  0.00     0.022 A 
BRANCH  82  85
ATOM     85  S   UNL A   1      47.013  26.314  35.696  1.00  0.00     0.127 S 
ATOM     86  O   UNL A   1      46.043  26.930  36.600  1.00  0.00    -0.237 OA
ATOM     87  O   UNL A   1      46.552  25.079  35.058  1.00  0.00    -0.237 OA
ATOM     88  O   UNL A   1      48.384  26.263  36.186  1.00  0.00    -0.744 OA
ENDBRANCH  82  85
ENDBRANCH  55  78
ENDBRANCH  29  30
ENDBRANCH  21  24
ENDBRANCH  19  20
ENDBRANCH   1  19
TORSDOF 15
ENDMDL
MODEL 2
REMARK VINA RESULT:      -9.0      4.717      6.350
REMARK SMILES O=C(/C=C/C(=O)c1ccc(F)c(Br)c1)NCCCNC(=O)c1ccc(-c2c3nc(c(-c4cccc(S(=O)(=O)[O-])c4F)c4ccc([nH]4)c(-c4cccc(S(=O)(=O)[O-])c4F)c4nc(c(-c5cccc(S(=O)(=O)[O-])c5F)c5ccc2[nH]5)C=C4)C=C3)cc1
REMARK SMILES IDX 17 1 16 2 15 3 1 4 2 5 3 7 4 8 5 9 6 10 7 11 8 12 14 13 9 14
REMARK SMILES IDX 12 15 10 16 13 17 11 18 18 19 19 20 20 21 21 23 22 24 23 25
REMARK SMILES IDX 84 26 24 27 83 28 25 29 26 30 27 31 77 32 28 33 82 34 76 35
REMARK SMILES IDX 78 36 29 37 81 38 75 39 74 40 30 42 62 43 42 44 61 45 43 46
REMARK SMILES IDX 46 47 60 48 79 49 44 50 45 51 59 53 80 54 47 55 31 56 32 57
REMARK SMILES IDX 40 58 33 59 35 60 41 61 34 62 36 63 37 64 38 65 39 66 63 67
REMARK SMILES IDX 64 68 72 69 65 70 67 71 73 72 66 73 68 74 69 75 70 76 71 77
REMARK SMILES IDX 48 78 49 79 57 80 50 81 52 82 58 83 51 84 53 85 54 86 55 87
REMARK SMILES IDX 56 88
REMARK H PARENT 15 6 19 22 78 41 46 52
REMARK Flexibility Score: inf
ROOT
ATOM      1  C   UNL A   1      32.649  29.100  24.382  1.00  0.00     0.042 C 
ENDROOT
BRANCH   1   2
ATOM      2  C   UNL A   1      31.220  28.747  24.780  1.00  0.00     0.118 C 
BRANCH   2   3
ATOM      3  N   UNL A   1      30.992  27.315  24.797  1.00  0.00    -0.352 N 
ATOM      4  O   UNL A   1      31.123  27.085  27.077  1.00  0.00    -0.270 OA
ATOM      5  C   UNL A   1      30.981  26.596  25.958  1.00  0.00     0.244 C 
ATOM      6  H   UNL A   1      30.840  26.845  23.945  1.00  0.00     0.163 HD
BRANCH   5   7
ATOM      7  C   UNL A   1      30.780  25.130  25.851  1.00  0.00     0.075 C 
ATOM      8  C   UNL A   1      31.688  24.171  26.076  1.00  0.00     0.058 C 
BRANCH   8   9
ATOM      9  C   UNL A   1      31.415  22.716  25.941  1.00  0.00     0.186 C 
ATOM     10  O   UNL A   1      30.277  22.300  26.131  1.00  0.00    -0.289 OA
BRANCH   9  11
ATOM     11  C   UNL A   1      32.493  21.758  25.596  1.00  0.00     0.023 A 
ATOM     12  C   UNL A   1      33.823  21.972  25.987  1.00  0.00     0.015 A 
ATOM     13  C   UNL A   1      32.142  20.586  24.911  1.00  0.00     0.031 A 
ATOM     14  C   UNL A   1      34.806  21.042  25.645  1.00  0.00     0.041 A 
ATOM     15  C   UNL A   1      33.130  19.658  24.579  1.00  0.00     0.054 A 
ATOM     16  C   UNL A   1      34.456  19.893  24.940  1.00  0.00     0.137 A 
ATOM     17  Br  UNL A   1      32.656  18.084  23.646  1.00  0.00    -0.048 Br
ATOM     18  F   UNL A   1      35.421  19.016  24.626  1.00  0.00    -0.206 F 
ENDBRANCH   9  11
ENDBRANCH   8   9
ENDBRANCH   5   7
ENDBRANCH   2   3
ENDBRANCH   1   2
BRANCH   1  19
ATOM     19  C   UNL A   1      33.539  29.543  25.541  1.00  0.00     0.118 C 
BRANCH  19  20
ATOM     20  N   UNL A   1      33.113  30.799  26.141  1.00  0.00    -0.352 N 
ATOM     21  C   UNL A   1      33.607  31.476  27.229  1.00  0.00     0.251 C 
ATOM     22  H   UNL A   1      32.347  31.232  25.698  1.00  0.00     0.163 HD
ATOM     23  O   UNL A   1      32.991  32.454  27.646  1.00  0.00    -0.269 OA
BRANCH  21  24
ATOM     24  C   UNL A   1      34.850  31.041  27.908  1.00  0.00     0.039 A 
ATOM     25  C   UNL A   1      34.872  29.780  28.512  1.00  0.00     0.014 A 
ATOM     26  C   UNL A   1      35.968  31.873  28.003  1.00  0.00     0.014 A 
ATOM     27  C   UNL A   1      36.022  29.343  29.177  1.00  0.00     0.010 A 
ATOM     28  C   UNL A   1      37.142  31.404  28.594  1.00  0.00     0.010 A 
ATOM     29  C   UNL A   1      37.175  30.144  29.209  1.00  0.00    -0.014 A 
BRANCH  29  30
ATOM     30  C   UNL A   1      38.405  29.685  29.909  1.00  0.00     0.031 A 
ATOM     31  C   UNL A   1      38.745  30.215  31.279  1.00  0.00     0.074 A 
ATOM     32  C   UNL A   1      39.247  28.831  29.295  1.00  0.00     0.049 A 
ATOM     33  N   UNL A   1      39.774  29.938  32.038  1.00  0.00    -0.248 NA
ATOM     34  C   UNL A   1      37.822  31.203  31.862  1.00  0.00     0.031 C 
ATOM     35  C   UNL A   1      39.078  28.302  27.940  1.00  0.00     0.029 A 
ATOM     36  N   UNL A   1      40.426  28.272  29.722  1.00  0.00    -0.354 N 
ATOM     37  C   UNL A   1      39.641  30.740  33.167  1.00  0.00     0.074 A 
ATOM     38  C   UNL A   1      38.454  31.542  32.976  1.00  0.00     0.031 C 
ATOM     39  C   UNL A   1      40.106  27.488  27.652  1.00  0.00     0.029 A 
ATOM     40  C   UNL A   1      41.022  27.456  28.788  1.00  0.00     0.049 A 
ATOM     41  H   UNL A   1      40.809  28.438  30.614  1.00  0.00     0.167 HD
ATOM     42  C   UNL A   1      40.416  30.783  34.278  1.00  0.00     0.034 A 
ATOM     43  C   UNL A   1      42.175  26.759  28.840  1.00  0.00     0.034 A 
ATOM     44  C   UNL A   1      41.572  29.954  34.486  1.00  0.00     0.049 A 
ATOM     45  C   UNL A   1      42.992  26.789  30.104  1.00  0.00     0.074 A 
ATOM     46  C   UNL A   1      42.376  29.865  35.609  1.00  0.00     0.029 A 
ATOM     47  N   UNL A   1      42.095  29.076  33.551  1.00  0.00    -0.354 N 
ATOM     48  N   UNL A   1      42.765  27.436  31.221  1.00  0.00    -0.248 NA
ATOM     49  C   UNL A   1      44.204  25.955  30.129  1.00  0.00     0.031 C 
ATOM     50  C   UNL A   1      43.401  28.951  35.342  1.00  0.00     0.029 A 
ATOM     51  C   UNL A   1      43.213  28.443  34.067  1.00  0.00     0.049 A 
ATOM     52  H   UNL A   1      41.726  28.924  32.650  1.00  0.00     0.167 HD
ATOM     53  C   UNL A   1      43.774  27.052  32.096  1.00  0.00     0.074 A 
ATOM     54  C   UNL A   1      44.607  26.104  31.384  1.00  0.00     0.031 C 
ATOM     55  C   UNL A   1      43.999  27.457  33.371  1.00  0.00     0.034 A 
BRANCH  42  56
ATOM     56  C   UNL A   1      40.008  31.728  35.380  1.00  0.00     0.023 A 
ATOM     57  C   UNL A   1      40.539  33.035  35.410  1.00  0.00     0.012 A 
ATOM     58  C   UNL A   1      39.061  31.346  36.350  1.00  0.00     0.148 A 
ATOM     59  C   UNL A   1      40.167  33.932  36.410  1.00  0.00     0.002 A 
ATOM     60  C   UNL A   1      38.657  32.262  37.315  1.00  0.00     0.091 A 
ATOM     61  F   UNL A   1      38.581  30.095  36.318  1.00  0.00    -0.205 F 
ATOM     62  C   UNL A   1      39.218  33.549  37.355  1.00  0.00     0.022 A 
BRANCH  60  63
ATOM     63  S   UNL A   1      37.381  31.895  38.525  1.00  0.00     0.127 S 
ATOM     64  O   UNL A   1      38.059  32.229  39.778  1.00  0.00    -0.237 OA
ATOM     65  O   UNL A   1      36.318  32.826  38.142  1.00  0.00    -0.237 OA
ATOM     66  O   UNL A   1      37.050  30.489  38.348  1.00  0.00    -0.744 OA
ENDBRANCH  60  63
ENDBRANCH  42  56
BRANCH  43  67
ATOM     67  C   UNL A   1      42.589  25.915  27.684  1.00  0.00     0.023 A 
ATOM     68  C   UNL A   1      43.485  26.435  26.730  1.00  0.00     0.012 A 
ATOM     69  C   UNL A   1      42.113  24.598  27.531  1.00  0.00     0.148 A 
ATOM     70  C   UNL A   1      43.872  25.675  25.626  1.00  0.00     0.002 A 
ATOM     71  C   UNL A   1      42.545  23.826  26.460  1.00  0.00     0.091 A 
ATOM     72  F   UNL A   1      41.254  24.125  28.445  1.00  0.00    -0.205 F 
ATOM     73  C   UNL A   1      43.408  24.369  25.495  1.00  0.00     0.022 A 
BRANCH  71  74
ATOM     74  S   UNL A   1      42.104  22.094  26.280  1.00  0.00     0.127 S 
ATOM     75  O   UNL A   1      42.556  21.537  27.553  1.00  0.00    -0.237 OA
ATOM     76  O   UNL A   1      40.651  22.168  26.120  1.00  0.00    -0.237 OA
ATOM     77  O   UNL A   1      42.815  21.628  25.097  1.00  0.00    -0.744 OA
ENDBRANCH  71  74
ENDBRANCH  43  67
BRANCH  55  78
ATOM     78  C   UNL A   1      45.157  26.836  34.110  1.00  0.00     0.023 A 
ATOM     79  C   UNL A   1      46.441  27.405  34.022  1.00  0.00     0.012 A 
ATOM     80  C   UNL A   1      44.950  25.721  34.949  1.00  0.00     0.148 A 
ATOM     81  C   UNL A   1      47.511  26.851  34.726  1.00  0.00     0.002 A 
ATOM     82  C   UNL A   1      46.009  25.207  35.686  1.00  0.00     0.091 A 
ATOM     83  F   UNL A   1      43.724  25.180  35.004  1.00  0.00    -0.205 F 
ATOM     84  C   UNL A   1      47.293  25.761  35.565  1.00  0.00     0.022 A 
BRANCH  82  85
ATOM     85  S   UNL A   1      45.796  23.871  36.868  1.00  0.00     0.127 S 
ATOM     86  O   UNL A   1      47.113  23.818  37.500  1.00  0.00    -0.237 OA
ATOM     87  O   UNL A   1      44.728  24.385  37.728  1.00  0.00    -0.237 OA
ATOM     88  O   UNL A   1      45.427  22.699  36.086  1.00  0.00    -0.744 OA
ENDBRANCH  82  85
ENDBRANCH  55  78
ENDBRANCH  29  30
ENDBRANCH  21  24
ENDBRANCH  19  20
ENDBRANCH   1  19
TORSDOF 15
ENDMDL
MODEL 3
REMARK VINA RESULT:      -8.9      5.005     11.409
REMARK SMILES O=C(/C=C/C(=O)c1ccc(F)c(Br)c1)NCCCNC(=O)c1ccc(-c2c3nc(c(-c4cccc(S(=O)(=O)[O-])c4F)c4ccc([nH]4)c(-c4cccc(S(=O)(=O)[O-])c4F)c4nc(c(-c5cccc(S(=O)(=O)[O-])c5F)c5ccc2[nH]5)C=C4)C=C3)cc1
REMARK SMILES IDX 17 1 16 2 15 3 1 4 2 5 3 7 4 8 5 9 6 10 7 11 8 12 14 13 9 14
REMARK SMILES IDX 12 15 10 16 13 17 11 18 18 19 19 20 20 21 21 23 22 24 23 25
REMARK SMILES IDX 84 26 24 27 83 28 25 29 26 30 27 31 77 32 28 33 82 34 76 35
REMARK SMILES IDX 78 36 29 37 81 38 75 39 74 40 30 42 62 43 42 44 61 45 43 46
REMARK SMILES IDX 46 47 60 48 79 49 44 50 45 51 59 53 80 54 47 55 31 56 32 57
REMARK SMILES IDX 40 58 33 59 35 60 41 61 34 62 36 63 37 64 38 65 39 66 63 67
REMARK SMILES IDX 64 68 72 69 65 70 67 71 73 72 66 73 68 74 69 75 70 76 71 77
REMARK SMILES IDX 48 78 49 79 57 80 50 81 52 82 58 83 51 84 53 85 54 86 55 87
REMARK SMILES IDX 56 88
REMARK H PARENT 15 6 19 22 78 41 46 52
REMARK Flexibility Score: inf
ROOT
ATOM      1  C   UNL A   1      41.895  20.256  26.289  1.00  0.00     0.042 C 
ENDROOT
BRANCH   1   2
ATOM      2  C   UNL A   1      43.317  20.056  25.779  1.00  0.00     0.118 C 
BRANCH   2   3
ATOM      3  N   UNL A   1      44.052  21.304  25.697  1.00  0.00    -0.352 N 
ATOM      4  O   UNL A   1      44.612  21.099  23.481  1.00  0.00    -0.270 OA
ATOM      5  C   UNL A   1      44.659  21.714  24.544  1.00  0.00     0.244 C 
ATOM      6  H   UNL A   1      44.116  21.875  26.497  1.00  0.00     0.163 HD
BRANCH   5   7
ATOM      7  C   UNL A   1      45.419  22.987  24.588  1.00  0.00     0.075 C 
ATOM      8  C   UNL A   1      45.184  24.041  25.381  1.00  0.00     0.058 C 
BRANCH   8   9
ATOM      9  C   UNL A   1      45.987  25.293  25.364  1.00  0.00     0.186 C 
ATOM     10  O   UNL A   1      45.512  26.301  24.852  1.00  0.00    -0.289 OA
BRANCH   9  11
ATOM     11  C   UNL A   1      47.354  25.340  25.937  1.00  0.00     0.023 A 
ATOM     12  C   UNL A   1      47.637  24.833  27.213  1.00  0.00     0.015 A 
ATOM     13  C   UNL A   1      48.386  25.857  25.141  1.00  0.00     0.031 A 
ATOM     14  C   UNL A   1      48.939  24.894  27.712  1.00  0.00     0.041 A 
ATOM     15  C   UNL A   1      49.687  25.907  25.645  1.00  0.00     0.054 A 
ATOM     16  C   UNL A   1      49.955  25.434  26.928  1.00  0.00     0.137 A 
ATOM     17  Br  UNL A   1      51.075  26.615  24.574  1.00  0.00    -0.048 Br
ATOM     18  F   UNL A   1      51.198  25.478  27.432  1.00  0.00    -0.206 F 
ENDBRANCH   9  11
ENDBRANCH   8   9
ENDBRANCH   5   7
ENDBRANCH   2   3
ENDBRANCH   1   2
BRANCH   1  19
ATOM     19  C   UNL A   1      41.369  21.684  26.162  1.00  0.00     0.118 C 
BRANCH  19  20
ATOM     20  N   UNL A   1      39.938  21.745  25.900  1.00  0.00    -0.352 N 
ATOM     21  C   UNL A   1      39.025  22.730  26.182  1.00  0.00     0.251 C 
ATOM     22  H   UNL A   1      39.566  20.952  25.449  1.00  0.00     0.163 HD
ATOM     23  O   UNL A   1      37.832  22.501  25.998  1.00  0.00    -0.269 OA
BRANCH  21  24
ATOM     24  C   UNL A   1      39.450  24.046  26.714  1.00  0.00     0.039 A 
ATOM     25  C   UNL A   1      40.026  24.966  25.833  1.00  0.00     0.014 A 
ATOM     26  C   UNL A   1      39.337  24.365  28.069  1.00  0.00     0.014 A 
ATOM     27  C   UNL A   1      40.454  26.212  26.302  1.00  0.00     0.010 A 
ATOM     28  C   UNL A   1      39.689  25.637  28.521  1.00  0.00     0.010 A 
ATOM     29  C   UNL A   1      40.273  26.567  27.648  1.00  0.00    -0.014 A 
BRANCH  29  30
ATOM     30  C   UNL A   1      40.720  27.891  28.156  1.00  0.00     0.031 A 
ATOM     31  C   UNL A   1      42.186  28.241  28.187  1.00  0.00     0.074 A 
ATOM     32  C   UNL A   1      39.814  28.765  28.640  1.00  0.00     0.049 A 
ATOM     33  N   UNL A   1      42.764  29.340  28.600  1.00  0.00    -0.248 NA
ATOM     34  C   UNL A   1      43.129  27.213  27.714  1.00  0.00     0.031 C 
ATOM     35  C   UNL A   1      38.374  28.522  28.741  1.00  0.00     0.029 A 
ATOM     36  N   UNL A   1      39.974  30.027  29.157  1.00  0.00    -0.354 N 
ATOM     37  C   UNL A   1      44.132  29.124  28.470  1.00  0.00     0.074 A 
ATOM     38  C   UNL A   1      44.300  27.775  27.978  1.00  0.00     0.031 C 
ATOM     39  C   UNL A   1      37.781  29.602  29.273  1.00  0.00     0.029 A 
ATOM     40  C   UNL A   1      38.798  30.605  29.578  1.00  0.00     0.049 A 
ATOM     41  H   UNL A   1      40.847  30.477  29.220  1.00  0.00     0.167 HD
ATOM     42  C   UNL A   1      45.156  29.978  28.708  1.00  0.00     0.034 A 
ATOM     43  C   UNL A   1      38.564  31.805  30.145  1.00  0.00     0.034 A 
ATOM     44  C   UNL A   1      44.987  31.334  29.157  1.00  0.00     0.049 A 
ATOM     45  C   UNL A   1      39.715  32.753  30.354  1.00  0.00     0.074 A 
ATOM     46  C   UNL A   1      45.955  32.304  29.349  1.00  0.00     0.029 A 
ATOM     47  N   UNL A   1      43.772  31.911  29.490  1.00  0.00    -0.354 N 
ATOM     48  N   UNL A   1      40.985  32.584  30.079  1.00  0.00    -0.248 NA
ATOM     49  C   UNL A   1      39.392  34.075  30.911  1.00  0.00     0.031 C 
ATOM     50  C   UNL A   1      45.327  33.460  29.824  1.00  0.00     0.029 A 
ATOM     51  C   UNL A   1      43.964  33.222  29.891  1.00  0.00     0.049 A 
ATOM     52  H   UNL A   1      42.900  31.456  29.449  1.00  0.00     0.167 HD
ATOM     53  C   UNL A   1      41.605  33.791  30.384  1.00  0.00     0.074 A 
ATOM     54  C   UNL A   1      40.567  34.687  30.850  1.00  0.00     0.031 C 
ATOM     55  C   UNL A   1      42.917  34.124  30.296  1.00  0.00     0.034 A 
BRANCH  42  56
ATOM     56  C   UNL A   1      46.556  29.486  28.438  1.00  0.00     0.023 A 
ATOM     57  C   UNL A   1      47.137  29.696  27.170  1.00  0.00     0.012 A 
ATOM     58  C   UNL A   1      47.315  28.867  29.451  1.00  0.00     0.148 A 
ATOM     59  C   UNL A   1      48.434  29.264  26.901  1.00  0.00     0.002 A 
ATOM     60  C   UNL A   1      48.626  28.483  29.189  1.00  0.00     0.091 A 
ATOM     61  F   UNL A   1      46.742  28.658  30.644  1.00  0.00    -0.205 F 
ATOM     62  C   UNL A   1      49.182  28.668  27.914  1.00  0.00     0.022 A 
BRANCH  60  63
ATOM     63  S   UNL A   1      49.700  27.783  30.448  1.00  0.00     0.127 S 
ATOM     64  O   UNL A   1      50.957  27.636  29.714  1.00  0.00    -0.237 OA
ATOM     65  O   UNL A   1      49.708  28.837  31.464  1.00  0.00    -0.237 OA
ATOM     66  O   UNL A   1      49.071  26.539  30.868  1.00  0.00    -0.744 OA
ENDBRANCH  60  63
ENDBRANCH  42  56
BRANCH  43  67
ATOM     67  C   UNL A   1      37.171  32.210  30.488  1.00  0.00     0.023 A 
ATOM     68  C   UNL A   1      36.690  32.001  31.794  1.00  0.00     0.012 A 
ATOM     69  C   UNL A   1      36.328  32.811  29.533  1.00  0.00     0.148 A 
ATOM     70  C   UNL A   1      35.383  32.349  32.136  1.00  0.00     0.002 A 
ATOM     71  C   UNL A   1      35.046  33.207  29.895  1.00  0.00     0.091 A 
ATOM     72  F   UNL A   1      36.802  32.993  28.293  1.00  0.00    -0.205 F 
ATOM     73  C   UNL A   1      34.564  32.959  31.190  1.00  0.00     0.022 A 
BRANCH  71  74
ATOM     74  S   UNL A   1      33.967  34.115  28.782  1.00  0.00     0.127 S 
ATOM     75  O   UNL A   1      33.614  33.088  27.804  1.00  0.00    -0.237 OA
ATOM     76  O   UNL A   1      32.880  34.515  29.676  1.00  0.00    -0.237 OA
ATOM     77  O   UNL A   1      34.767  35.222  28.275  1.00  0.00    -0.744 OA
ENDBRANCH  71  74
ENDBRANCH  43  67
BRANCH  55  78
ATOM     78  C   UNL A   1      43.308  35.535  30.654  1.00  0.00     0.023 A 
ATOM     79  C   UNL A   1      43.714  35.847  31.965  1.00  0.00     0.012 A 
ATOM     80  C   UNL A   1      43.334  36.539  29.664  1.00  0.00     0.148 A 
ATOM     81  C   UNL A   1      44.103  37.146  32.296  1.00  0.00     0.002 A 
ATOM     82  C   UNL A   1      43.772  37.817  29.989  1.00  0.00     0.091 A 
ATOM     83  F   UNL A   1      42.924  36.228  28.425  1.00  0.00    -0.205 F 
ATOM     84  C   UNL A   1      44.143  38.126  31.307  1.00  0.00     0.022 A 
BRANCH  82  85
ATOM     85  S   UNL A   1      43.952  39.111  28.756  1.00  0.00     0.127 S 
ATOM     86  O   UNL A   1      42.631  39.737  28.786  1.00  0.00    -0.237 OA
ATOM     87  O   UNL A   1      45.027  39.929  29.320  1.00  0.00    -0.237 OA
ATOM     88  O   UNL A   1      44.299  38.436  27.513  1.00  0.00    -0.744 OA
ENDBRANCH  82  85
ENDBRANCH  55  78
ENDBRANCH  29  30
ENDBRANCH  21  24
ENDBRANCH  19  20
ENDBRANCH   1  19
TORSDOF 15
ENDMDL
