MODEL 1
REMARK VINA RESULT:     -12.6      0.000      0.000
REMARK SMILES O=C(NCCCNC(=O)c1ccc(-c2c3nc(c(-c4cccc(S(=O)(=O)[O-])c4F)c4ccc([nH]4)c(-c4cccc(S(=O)(=O)[O-])c4F)c4nc(c(-c5cccc(S(=O)(=O)[O-])c5F)c5ccc2[nH]5)C=C4)C=C3)cc1)c1ccc(C#CC#C[C@H]2C[C@@H](O)C2)cc1
REMARK SMILES IDX 4 1 3 2 1 3 2 4 73 6 74 7 87 8 75 9 86 10 76 11 77 12 78 13
REMARK SMILES IDX 79 14 80 15 81 16 85 17 82 18 83 19 84 20 5 22 6 23 7 24
REMARK SMILES IDX 8 25 9 27 10 28 11 29 72 30 12 31 71 32 13 33 14 34 15 35
REMARK SMILES IDX 65 36 16 37 70 38 64 39 66 40 17 41 69 42 63 43 62 44 18 46
REMARK SMILES IDX 50 47 30 48 49 49 31 50 34 51 48 52 67 53 32 54 33 55 47 57
REMARK SMILES IDX 68 58 35 59 19 60 20 61 28 62 21 63 23 64 29 65 22 66 24 67
REMARK SMILES IDX 25 68 26 69 27 70 51 71 52 72 60 73 53 74 55 75 61 76 54 77
REMARK SMILES IDX 56 78 57 79 58 80 59 81 36 82 37 83 45 84 38 85 40 86 46 87
REMARK SMILES IDX 39 88 41 89 42 90 43 91 44 92
REMARK H PARENT 3 5 84 21 7 26 66 45 34 56
REMARK Flexibility Score: inf
ROOT
ATOM      1  C   UNL A   1      35.345  20.358  24.737  1.00  0.00     0.118 C 
ENDROOT
BRANCH   1   2
ATOM      2  N   UNL A   1      34.275  19.405  25.000  1.00  0.00    -0.352 N 
ATOM      3  O   UNL A   1      32.177  18.676  25.391  1.00  0.00    -0.269 OA
ATOM      4  C   UNL A   1      32.915  19.590  25.032  1.00  0.00     0.251 C 
ATOM      5  H   UNL A   1      34.574  18.485  25.183  1.00  0.00     0.163 HD
BRANCH   4   6
ATOM      6  C   UNL A   1      32.330  20.897  24.663  1.00  0.00     0.039 A 
ATOM      7  C   UNL A   1      32.315  21.339  23.337  1.00  0.00     0.015 A 
ATOM      8  C   UNL A   1      31.779  21.690  25.675  1.00  0.00     0.015 A 
ATOM      9  C   UNL A   1      31.867  22.626  23.040  1.00  0.00     0.018 A 
ATOM     10  C   UNL A   1      31.298  22.966  25.370  1.00  0.00     0.018 A 
ATOM     11  C   UNL A   1      31.367  23.442  24.057  1.00  0.00     0.026 A 
BRANCH  11  12
ATOM     12  C   UNL A   1      30.927  24.762  23.745  1.00  0.00    -0.053 C 
ATOM     13  C   UNL A   1      30.548  25.864  23.454  1.00  0.00    -0.010 C 
BRANCH  13  14
ATOM     14  C   UNL A   1      30.044  27.250  23.062  1.00  0.00    -0.015 C 
ATOM     15  C   UNL A   1      29.669  28.348  22.748  1.00  0.00    -0.085 C 
BRANCH  15  16
ATOM     16  C   UNL A   1      29.235  29.669  22.373  1.00  0.00     0.070 C 
ATOM     17  C   UNL A   1      27.701  29.874  22.291  1.00  0.00     0.048 C 
ATOM     18  C   UNL A   1      29.229  30.726  23.506  1.00  0.00     0.048 C 
ATOM     19  C   UNL A   1      27.925  31.283  22.887  1.00  0.00     0.116 C 
BRANCH  19  20
ATOM     20  O   UNL A   1      26.924  31.757  23.805  1.00  0.00    -0.393 OA
ATOM     21  H   UNL A   1      26.107  31.952  23.320  1.00  0.00     0.210 HD
ENDBRANCH  19  20
ENDBRANCH  15  16
ENDBRANCH  13  14
ENDBRANCH  11  12
ENDBRANCH   4   6
ENDBRANCH   1   2
BRANCH   1  22
ATOM     22  C   UNL A   1      35.544  21.362  25.861  1.00  0.00     0.042 C 
BRANCH  22  23
ATOM     23  C   UNL A   1      36.890  22.072  25.840  1.00  0.00     0.118 C 
BRANCH  23  24
ATOM     24  N   UNL A   1      38.014  21.157  26.005  1.00  0.00    -0.352 N 
ATOM     25  C   UNL A   1      39.328  21.398  26.318  1.00  0.00     0.251 C 
ATOM     26  H   UNL A   1      37.793  20.208  25.869  1.00  0.00     0.163 HD
ATOM     27  O   UNL A   1      40.141  20.481  26.214  1.00  0.00    -0.269 OA
BRANCH  25  28
ATOM     28  C   UNL A   1      39.780  22.738  26.758  1.00  0.00     0.039 A 
ATOM     29  C   UNL A   1      40.747  22.820  27.763  1.00  0.00     0.014 A 
ATOM     30  C   UNL A   1      39.241  23.910  26.219  1.00  0.00     0.014 A 
ATOM     31  C   UNL A   1      41.213  24.069  28.178  1.00  0.00     0.010 A 
ATOM     32  C   UNL A   1      39.783  25.148  26.557  1.00  0.00     0.010 A 
ATOM     33  C   UNL A   1      40.769  25.244  27.548  1.00  0.00    -0.014 A 
BRANCH  33  34
ATOM     34  C   UNL A   1      41.355  26.563  27.906  1.00  0.00     0.031 A 
ATOM     35  C   UNL A   1      42.789  26.890  27.582  1.00  0.00     0.074 A 
ATOM     36  C   UNL A   1      40.597  27.459  28.571  1.00  0.00     0.049 A 
ATOM     37  N   UNL A   1      43.448  27.999  27.803  1.00  0.00    -0.248 NA
ATOM     38  C   UNL A   1      43.596  25.835  26.947  1.00  0.00     0.031 C 
ATOM     39  C   UNL A   1      39.221  27.233  29.019  1.00  0.00     0.029 A 
ATOM     40  N   UNL A   1      40.877  28.734  28.998  1.00  0.00    -0.354 N 
ATOM     41  C   UNL A   1      44.745  27.767  27.366  1.00  0.00     0.074 A 
ATOM     42  C   UNL A   1      44.793  26.401  26.894  1.00  0.00     0.031 C 
ATOM     43  C   UNL A   1      38.770  28.336  29.635  1.00  0.00     0.029 A 
ATOM     44  C   UNL A   1      39.835  29.330  29.670  1.00  0.00     0.049 A 
ATOM     45  H   UNL A   1      41.740  29.178  28.838  1.00  0.00     0.167 HD
ATOM     46  C   UNL A   1      45.798  28.620  27.338  1.00  0.00     0.034 A 
ATOM     47  C   UNL A   1      39.750  30.537  30.265  1.00  0.00     0.034 A 
ATOM     48  C   UNL A   1      45.743  29.984  27.790  1.00  0.00     0.049 A 
ATOM     49  C   UNL A   1      40.928  31.468  30.200  1.00  0.00     0.074 A 
ATOM     50  C   UNL A   1      46.731  30.951  27.721  1.00  0.00     0.029 A 
ATOM     51  N   UNL A   1      44.656  30.570  28.419  1.00  0.00    -0.354 N 
ATOM     52  N   UNL A   1      42.096  31.283  29.635  1.00  0.00    -0.248 NA
ATOM     53  C   UNL A   1      40.764  32.788  30.825  1.00  0.00     0.031 C 
ATOM     54  C   UNL A   1      46.263  32.102  28.360  1.00  0.00     0.029 A 
ATOM     55  C   UNL A   1      44.959  31.876  28.768  1.00  0.00     0.049 A 
ATOM     56  H   UNL A   1      43.796  30.124  28.592  1.00  0.00     0.167 HD
ATOM     57  C   UNL A   1      42.793  32.474  29.806  1.00  0.00     0.074 A 
ATOM     58  C   UNL A   1      41.904  33.382  30.499  1.00  0.00     0.031 C 
ATOM     59  C   UNL A   1      44.058  32.783  29.431  1.00  0.00     0.034 A 
BRANCH  46  60
ATOM     60  C   UNL A   1      47.105  28.115  26.781  1.00  0.00     0.023 A 
ATOM     61  C   UNL A   1      48.104  27.629  27.651  1.00  0.00     0.012 A 
ATOM     62  C   UNL A   1      47.309  28.043  25.388  1.00  0.00     0.148 A 
ATOM     63  C   UNL A   1      49.295  27.110  27.145  1.00  0.00     0.002 A 
ATOM     64  C   UNL A   1      48.476  27.477  24.892  1.00  0.00     0.091 A 
ATOM     65  F   UNL A   1      46.355  28.525  24.579  1.00  0.00    -0.205 F 
ATOM     66  C   UNL A   1      49.475  27.021  25.768  1.00  0.00     0.022 A 
BRANCH  64  67
ATOM     67  S   UNL A   1      48.768  27.239  23.135  1.00  0.00     0.127 S 
ATOM     68  O   UNL A   1      50.228  27.299  23.069  1.00  0.00    -0.237 OA
ATOM     69  O   UNL A   1      48.202  25.909  22.911  1.00  0.00    -0.237 OA
ATOM     70  O   UNL A   1      48.072  28.323  22.459  1.00  0.00    -0.744 OA
ENDBRANCH  64  67
ENDBRANCH  46  60
BRANCH  47  71
ATOM     71  C   UNL A   1      38.494  30.943  30.957  1.00  0.00     0.023 A 
ATOM     72  C   UNL A   1      38.325  30.668  32.329  1.00  0.00     0.012 A 
ATOM     73  C   UNL A   1      37.465  31.600  30.257  1.00  0.00     0.148 A 
ATOM     74  C   UNL A   1      37.134  30.999  32.977  1.00  0.00     0.002 A 
ATOM     75  C   UNL A   1      36.309  31.984  30.923  1.00  0.00     0.091 A 
ATOM     76  F   UNL A   1      37.642  31.846  28.952  1.00  0.00    -0.205 F 
ATOM     77  C   UNL A   1      36.130  31.665  32.278  1.00  0.00     0.022 A 
BRANCH  75  78
ATOM     78  S   UNL A   1      35.025  32.960  30.135  1.00  0.00     0.127 S 
ATOM     79  O   UNL A   1      34.503  32.022  29.144  1.00  0.00    -0.237 OA
ATOM     80  O   UNL A   1      34.126  33.236  31.257  1.00  0.00    -0.237 OA
ATOM     81  O   UNL A   1      35.694  34.136  29.599  1.00  0.00    -0.744 OA
ENDBRANCH  75  78
ENDBRANCH  47  71
BRANCH  59  82
ATOM     82  C   UNL A   1      44.547  34.180  29.720  1.00  0.00     0.023 A 
ATOM     83  C   UNL A   1      45.225  34.463  30.922  1.00  0.00     0.012 A 
ATOM     84  C   UNL A   1      44.368  35.207  28.770  1.00  0.00     0.148 A 
ATOM     85  C   UNL A   1      45.669  35.757  31.199  1.00  0.00     0.002 A 
ATOM     86  C   UNL A   1      44.866  36.478  29.026  1.00  0.00     0.091 A 
ATOM     87  F   UNL A   1      43.710  34.922  27.637  1.00  0.00    -0.205 F 
ATOM     88  C   UNL A   1      45.499  36.760  30.247  1.00  0.00     0.022 A 
BRANCH  86  89
ATOM     89  S   UNL A   1      44.782  37.806  27.821  1.00  0.00     0.127 S 
ATOM     90  O   UNL A   1      45.771  37.374  26.834  1.00  0.00    -0.237 OA
ATOM     91  O   UNL A   1      43.393  37.724  27.370  1.00  0.00    -0.237 OA
ATOM     92  O   UNL A   1      45.115  39.028  28.541  1.00  0.00    -0.744 OA
ENDBRANCH  86  89
ENDBRANCH  59  82
ENDBRANCH  33  34
ENDBRANCH  25  28
ENDBRANCH  23  24
ENDBRANCH  22  23
ENDBRANCH   1  22
TORSDOF 17
ENDMDL
MODEL 2
REMARK VINA RESULT:     -12.4      5.279     11.014
REMARK SMILES O=C(NCCCNC(=O)c1ccc(-c2c3nc(c(-c4cccc(S(=O)(=O)[O-])c4F)c4ccc([nH]4)c(-c4cccc(S(=O)(=O)[O-])c4F)c4nc(c(-c5cccc(S(=O)(=O)[O-])c5F)c5ccc2[nH]5)C=C4)C=C3)cc1)c1ccc(C#CC#C[C@H]2C[C@@H](O)C2)cc1
REMARK SMILES IDX 4 1 3 2 1 3 2 4 73 6 74 7 87 8 75 9 86 10 76 11 77 12 78 13
REMARK SMILES IDX 79 14 80 15 81 16 85 17 82 18 83 19 84 20 5 22 6 23 7 24
REMARK SMILES IDX 8 25 9 27 10 28 11 29 72 30 12 31 71 32 13 33 14 34 15 35
REMARK SMILES IDX 65 36 16 37 70 38 64 39 66 40 17 41 69 42 63 43 62 44 18 46
REMARK SMILES IDX 50 47 30 48 49 49 31 50 34 51 48 52 67 53 32 54 33 55 47 57
REMARK SMILES IDX 68 58 35 59 19 60 20 61 28 62 21 63 23 64 29 65 22 66 24 67
REMARK SMILES IDX 25 68 26 69 27 70 51 71 52 72 60 73 53 74 55 75 61 76 54 77
REMARK SMILES IDX 56 78 57 79 58 80 59 81 36 82 37 83 45 84 38 85 40 86 46 87
REMARK SMILES IDX 39 88 41 89 42 90 43 91 44 92
REMARK H PARENT 3 5 84 21 7 26 66 45 34 56
REMARK Flexibility Score: inf
ROOT
ATOM      1  C   UNL A   1      32.015  29.060  24.750  1.00  0.00     0.118 C 
ENDROOT
BRANCH   1   2
ATOM      2  N   UNL A   1      31.187  29.336  23.584  1.00  0.00    -0.352 N 
ATOM      3  O   UNL A   1      30.124  28.937  21.635  1.00  0.00    -0.269 OA
ATOM      4  C   UNL A   1      30.717  28.487  22.613  1.00  0.00     0.251 C 
ATOM      5  H   UNL A   1      30.924  30.278  23.475  1.00  0.00     0.163 HD
BRANCH   4   6
ATOM      6  C   UNL A   1      30.945  27.030  22.720  1.00  0.00     0.039 A 
ATOM      7  C   UNL A   1      30.117  26.220  23.503  1.00  0.00     0.015 A 
ATOM      8  C   UNL A   1      32.011  26.468  22.012  1.00  0.00     0.015 A 
ATOM      9  C   UNL A   1      30.430  24.873  23.679  1.00  0.00     0.018 A 
ATOM     10  C   UNL A   1      32.304  25.110  22.162  1.00  0.00     0.018 A 
ATOM     11  C   UNL A   1      31.529  24.320  23.017  1.00  0.00     0.026 A 
BRANCH  11  12
ATOM     12  C   UNL A   1      31.851  22.946  23.218  1.00  0.00    -0.053 C 
ATOM     13  C   UNL A   1      32.095  21.780  23.375  1.00  0.00    -0.010 C 
BRANCH  13  14
ATOM     14  C   UNL A   1      32.383  20.291  23.547  1.00  0.00    -0.015 C 
ATOM     15  C   UNL A   1      32.623  19.124  23.703  1.00  0.00    -0.085 C 
BRANCH  15  16
ATOM     16  C   UNL A   1      32.922  17.728  23.899  1.00  0.00     0.070 C 
ATOM     17  C   UNL A   1      34.404  17.325  23.698  1.00  0.00     0.048 C 
ATOM     18  C   UNL A   1      33.086  17.273  25.370  1.00  0.00     0.048 C 
ATOM     19  C   UNL A   1      34.229  16.350  24.885  1.00  0.00     0.116 C 
BRANCH  19  20
ATOM     20  O   UNL A   1      35.358  16.201  25.765  1.00  0.00    -0.393 OA
ATOM     21  H   UNL A   1      35.976  16.935  25.624  1.00  0.00     0.210 HD
ENDBRANCH  19  20
ENDBRANCH  15  16
ENDBRANCH  13  14
ENDBRANCH  11  12
ENDBRANCH   4   6
ENDBRANCH   1   2
BRANCH   1  22
ATOM     22  C   UNL A   1      31.594  29.843  25.984  1.00  0.00     0.042 C 
BRANCH  22  23
ATOM     23  C   UNL A   1      32.741  30.231  26.905  1.00  0.00     0.118 C 
BRANCH  23  24
ATOM     24  N   UNL A   1      32.929  31.673  26.998  1.00  0.00    -0.352 N 
ATOM     25  C   UNL A   1      33.904  32.413  27.619  1.00  0.00     0.251 C 
ATOM     26  H   UNL A   1      32.241  32.207  26.540  1.00  0.00     0.163 HD
ATOM     27  O   UNL A   1      33.751  33.628  27.726  1.00  0.00    -0.269 OA
BRANCH  25  28
ATOM     28  C   UNL A   1      35.119  31.772  28.171  1.00  0.00     0.039 A 
ATOM     29  C   UNL A   1      36.277  32.543  28.309  1.00  0.00     0.014 A 
ATOM     30  C   UNL A   1      35.143  30.420  28.523  1.00  0.00     0.014 A 
ATOM     31  C   UNL A   1      37.429  31.973  28.854  1.00  0.00     0.010 A 
ATOM     32  C   UNL A   1      36.258  29.883  29.164  1.00  0.00     0.010 A 
ATOM     33  C   UNL A   1      37.419  30.650  29.329  1.00  0.00    -0.014 A 
BRANCH  33  34
ATOM     34  C   UNL A   1      38.608  30.084  30.019  1.00  0.00     0.031 A 
ATOM     35  C   UNL A   1      39.001  30.548  31.396  1.00  0.00     0.074 A 
ATOM     36  C   UNL A   1      39.366  29.171  29.377  1.00  0.00     0.049 A 
ATOM     37  N   UNL A   1      39.993  30.142  32.147  1.00  0.00    -0.248 NA
ATOM     38  C   UNL A   1      38.195  31.619  32.005  1.00  0.00     0.031 C 
ATOM     39  C   UNL A   1      39.143  28.700  28.008  1.00  0.00     0.029 A 
ATOM     40  N   UNL A   1      40.485  28.486  29.782  1.00  0.00    -0.354 N 
ATOM     41  C   UNL A   1      39.949  30.922  33.296  1.00  0.00     0.074 A 
ATOM     42  C   UNL A   1      38.852  31.850  33.132  1.00  0.00     0.031 C 
ATOM     43  C   UNL A   1      40.076  27.790  27.696  1.00  0.00     0.029 A 
ATOM     44  C   UNL A   1      40.993  27.644  28.820  1.00  0.00     0.049 A 
ATOM     45  H   UNL A   1      40.885  28.588  30.676  1.00  0.00     0.167 HD
ATOM     46  C   UNL A   1      40.736  30.859  34.397  1.00  0.00     0.034 A 
ATOM     47  C   UNL A   1      42.085  26.855  28.832  1.00  0.00     0.034 A 
ATOM     48  C   UNL A   1      41.815  29.922  34.564  1.00  0.00     0.049 A 
ATOM     49  C   UNL A   1      42.928  26.792  30.076  1.00  0.00     0.074 A 
ATOM     50  C   UNL A   1      42.611  29.723  35.679  1.00  0.00     0.029 A 
ATOM     51  N   UNL A   1      42.269  29.050  33.589  1.00  0.00    -0.354 N 
ATOM     52  N   UNL A   1      42.769  27.423  31.213  1.00  0.00    -0.248 NA
ATOM     53  C   UNL A   1      44.081  25.880  30.049  1.00  0.00     0.031 C 
ATOM     54  C   UNL A   1      43.584  28.772  35.357  1.00  0.00     0.029 A 
ATOM     55  C   UNL A   1      43.352  28.330  34.065  1.00  0.00     0.049 A 
ATOM     56  H   UNL A   1      41.879  28.955  32.690  1.00  0.00     0.167 HD
ATOM     57  C   UNL A   1      43.779  26.960  32.048  1.00  0.00     0.074 A 
ATOM     58  C   UNL A   1      44.524  25.974  31.295  1.00  0.00     0.031 C 
ATOM     59  C   UNL A   1      44.069  27.328  33.320  1.00  0.00     0.034 A 
BRANCH  46  60
ATOM     60  C   UNL A   1      40.452  31.816  35.527  1.00  0.00     0.023 A 
ATOM     61  C   UNL A   1      41.277  32.945  35.720  1.00  0.00     0.012 A 
ATOM     62  C   UNL A   1      39.318  31.643  36.344  1.00  0.00     0.148 A 
ATOM     63  C   UNL A   1      40.993  33.866  36.727  1.00  0.00     0.002 A 
ATOM     64  C   UNL A   1      39.014  32.593  37.311  1.00  0.00     0.091 A 
ATOM     65  F   UNL A   1      38.556  30.556  36.155  1.00  0.00    -0.205 F 
ATOM     66  C   UNL A   1      39.857  33.698  37.513  1.00  0.00     0.022 A 
BRANCH  64  67
ATOM     67  S   UNL A   1      37.528  32.512  38.316  1.00  0.00     0.127 S 
ATOM     68  O   UNL A   1      37.884  33.381  39.438  1.00  0.00    -0.237 OA
ATOM     69  O   UNL A   1      36.519  33.066  37.413  1.00  0.00    -0.237 OA
ATOM     70  O   UNL A   1      37.343  31.109  38.654  1.00  0.00    -0.744 OA
ENDBRANCH  64  67
ENDBRANCH  46  60
BRANCH  47  71
ATOM     71  C   UNL A   1      42.436  26.043  27.632  1.00  0.00     0.023 A 
ATOM     72  C   UNL A   1      43.209  26.609  26.600  1.00  0.00     0.012 A 
ATOM     73  C   UNL A   1      42.000  24.710  27.511  1.00  0.00     0.148 A 
ATOM     74  C   UNL A   1      43.502  25.876  25.448  1.00  0.00     0.002 A 
ATOM     75  C   UNL A   1      42.350  23.965  26.393  1.00  0.00     0.091 A 
ATOM     76  F   UNL A   1      41.260  24.193  28.501  1.00  0.00    -0.205 F 
ATOM     77  C   UNL A   1      43.082  24.552  25.349  1.00  0.00     0.022 A 
BRANCH  75  78
ATOM     78  S   UNL A   1      41.964  22.219  26.243  1.00  0.00     0.127 S 
ATOM     79  O   UNL A   1      40.506  22.241  26.153  1.00  0.00    -0.237 OA
ATOM     80  O   UNL A   1      42.653  21.865  25.001  1.00  0.00    -0.237 OA
ATOM     81  O   UNL A   1      42.513  21.588  27.435  1.00  0.00    -0.744 OA
ENDBRANCH  75  78
ENDBRANCH  47  71
BRANCH  59  82
ATOM     82  C   UNL A   1      45.216  26.624  34.002  1.00  0.00     0.023 A 
ATOM     83  C   UNL A   1      46.532  27.111  33.866  1.00  0.00     0.012 A 
ATOM     84  C   UNL A   1      44.977  25.500  34.817  1.00  0.00     0.148 A 
ATOM     85  C   UNL A   1      47.597  26.457  34.486  1.00  0.00     0.002 A 
ATOM     86  C   UNL A   1      46.035  24.890  35.480  1.00  0.00     0.091 A 
ATOM     87  F   UNL A   1      43.721  25.043  34.925  1.00  0.00    -0.205 F 
ATOM     88  C   UNL A   1      47.347  25.355  35.300  1.00  0.00     0.022 A 
BRANCH  86  89
ATOM     89  S   UNL A   1      45.798  23.528  36.626  1.00  0.00     0.127 S 
ATOM     90  O   UNL A   1      45.230  22.501  35.753  1.00  0.00    -0.237 OA
ATOM     91  O   UNL A   1      47.165  23.262  37.073  1.00  0.00    -0.237 OA
ATOM     92  O   UNL A   1      44.905  24.024  37.664  1.00  0.00    -0.744 OA
ENDBRANCH  86  89
ENDBRANCH  59  82
ENDBRANCH  33  34
ENDBRANCH  25  28
ENDBRANCH  23  24
ENDBRANCH  22  23
ENDBRANCH   1  22
TORSDOF 17
ENDMDL
MODEL 3
REMARK VINA RESULT:     -12.4      1.330      7.752
REMARK SMILES O=C(NCCCNC(=O)c1ccc(-c2c3nc(c(-c4cccc(S(=O)(=O)[O-])c4F)c4ccc([nH]4)c(-c4cccc(S(=O)(=O)[O-])c4F)c4nc(c(-c5cccc(S(=O)(=O)[O-])c5F)c5ccc2[nH]5)C=C4)C=C3)cc1)c1ccc(C#CC#C[C@H]2C[C@@H](O)C2)cc1
REMARK SMILES IDX 4 1 3 2 1 3 2 4 73 6 74 7 87 8 75 9 86 10 76 11 77 12 78 13
REMARK SMILES IDX 79 14 80 15 81 16 85 17 82 18 83 19 84 20 5 22 6 23 7 24
REMARK SMILES IDX 8 25 9 27 10 28 11 29 72 30 12 31 71 32 13 33 14 34 15 35
REMARK SMILES IDX 65 36 16 37 70 38 64 39 66 40 17 41 69 42 63 43 62 44 18 46
REMARK SMILES IDX 50 47 30 48 49 49 31 50 34 51 48 52 67 53 32 54 33 55 47 57
REMARK SMILES IDX 68 58 35 59 19 60 20 61 28 62 21 63 23 64 29 65 22 66 24 67
REMARK SMILES IDX 25 68 26 69 27 70 51 71 52 72 60 73 53 74 55 75 61 76 54 77
REMARK SMILES IDX 56 78 57 79 58 80 59 81 36 82 37 83 45 84 38 85 40 86 46 87
REMARK SMILES IDX 39 88 41 89 42 90 43 91 44 92
REMARK H PARENT 3 5 84 21 7 26 66 45 34 56
REMARK Flexibility Score: inf
ROOT
ATOM      1  C   UNL A   1      35.564  20.680  25.150  1.00  0.00     0.118 C 
ENDROOT
BRANCH   1   2
ATOM      2  N   UNL A   1      34.547  19.638  25.210  1.00  0.00    -0.352 N 
ATOM      3  O   UNL A   1      32.480  18.738  25.267  1.00  0.00    -0.269 OA
ATOM      4  C   UNL A   1      33.185  19.723  25.064  1.00  0.00     0.251 C 
ATOM      5  H   UNL A   1      34.891  18.732  25.383  1.00  0.00     0.163 HD
BRANCH   4   6
ATOM      6  C   UNL A   1      32.553  21.006  24.689  1.00  0.00     0.039 A 
ATOM      7  C   UNL A   1      32.618  21.495  23.380  1.00  0.00     0.015 A 
ATOM      8  C   UNL A   1      31.874  21.729  25.675  1.00  0.00     0.015 A 
ATOM      9  C   UNL A   1      32.117  22.762  23.087  1.00  0.00     0.018 A 
ATOM     10  C   UNL A   1      31.342  22.984  25.371  1.00  0.00     0.018 A 
ATOM     11  C   UNL A   1      31.488  23.511  24.084  1.00  0.00     0.026 A 
BRANCH  11  12
ATOM     12  C   UNL A   1      30.994  24.813  23.779  1.00  0.00    -0.053 C 
ATOM     13  C   UNL A   1      30.600  25.913  23.499  1.00  0.00    -0.010 C 
BRANCH  13  14
ATOM     14  C   UNL A   1      30.111  27.305  23.109  1.00  0.00    -0.015 C 
ATOM     15  C   UNL A   1      29.707  28.391  22.792  1.00  0.00    -0.085 C 
BRANCH  15  16
ATOM     16  C   UNL A   1      29.212  29.687  22.401  1.00  0.00     0.070 C 
ATOM     17  C   UNL A   1      27.670  29.839  22.383  1.00  0.00     0.048 C 
ATOM     18  C   UNL A   1      29.222  30.775  23.503  1.00  0.00     0.048 C 
ATOM     19  C   UNL A   1      27.874  31.272  22.929  1.00  0.00     0.116 C 
BRANCH  19  20
ATOM     20  O   UNL A   1      26.900  31.741  23.878  1.00  0.00    -0.393 OA
ATOM     21  H   UNL A   1      26.504  32.564  23.555  1.00  0.00     0.210 HD
ENDBRANCH  19  20
ENDBRANCH  15  16
ENDBRANCH  13  14
ENDBRANCH  11  12
ENDBRANCH   4   6
ENDBRANCH   1   2
BRANCH   1  22
ATOM     22  C   UNL A   1      36.905  20.181  24.634  1.00  0.00     0.042 C 
BRANCH  22  23
ATOM     23  C   UNL A   1      38.111  20.738  25.374  1.00  0.00     0.118 C 
BRANCH  23  24
ATOM     24  N   UNL A   1      39.087  19.712  25.718  1.00  0.00    -0.352 N 
ATOM     25  C   UNL A   1      40.397  19.815  26.113  1.00  0.00     0.251 C 
ATOM     26  H   UNL A   1      38.750  18.789  25.658  1.00  0.00     0.163 HD
ATOM     27  O   UNL A   1      41.084  18.797  26.166  1.00  0.00    -0.269 OA
BRANCH  25  28
ATOM     28  C   UNL A   1      40.995  21.126  26.455  1.00  0.00     0.039 A 
ATOM     29  C   UNL A   1      41.530  21.905  25.426  1.00  0.00     0.014 A 
ATOM     30  C   UNL A   1      41.063  21.582  27.775  1.00  0.00     0.014 A 
ATOM     31  C   UNL A   1      42.074  23.158  25.714  1.00  0.00     0.010 A 
ATOM     32  C   UNL A   1      41.508  22.874  28.046  1.00  0.00     0.010 A 
ATOM     33  C   UNL A   1      42.028  23.675  27.021  1.00  0.00    -0.014 A 
BRANCH  33  34
ATOM     34  C   UNL A   1      42.496  25.058  27.305  1.00  0.00     0.031 A 
ATOM     35  C   UNL A   1      41.588  26.066  27.958  1.00  0.00     0.074 A 
ATOM     36  C   UNL A   1      43.740  25.420  26.928  1.00  0.00     0.049 A 
ATOM     37  N   UNL A   1      41.846  27.303  28.297  1.00  0.00    -0.248 NA
ATOM     38  C   UNL A   1      40.209  25.643  28.254  1.00  0.00     0.031 C 
ATOM     39  C   UNL A   1      44.687  24.564  26.210  1.00  0.00     0.029 A 
ATOM     40  N   UNL A   1      44.418  26.604  27.083  1.00  0.00    -0.354 N 
ATOM     41  C   UNL A   1      40.662  27.814  28.814  1.00  0.00     0.074 A 
ATOM     42  C   UNL A   1      39.673  26.763  28.717  1.00  0.00     0.031 C 
ATOM     43  C   UNL A   1      45.828  25.240  26.008  1.00  0.00     0.029 A 
ATOM     44  C   UNL A   1      45.680  26.590  26.537  1.00  0.00     0.049 A 
ATOM     45  H   UNL A   1      44.036  27.387  27.541  1.00  0.00     0.167 HD
ATOM     46  C   UNL A   1      40.423  29.039  29.341  1.00  0.00     0.034 A 
ATOM     47  C   UNL A   1      46.612  27.561  26.454  1.00  0.00     0.034 A 
ATOM     48  C   UNL A   1      41.414  30.076  29.454  1.00  0.00     0.049 A 
ATOM     49  C   UNL A   1      46.324  28.903  27.066  1.00  0.00     0.074 A 
ATOM     50  C   UNL A   1      41.290  31.317  30.054  1.00  0.00     0.029 A 
ATOM     51  N   UNL A   1      42.697  30.009  28.936  1.00  0.00    -0.354 N 
ATOM     52  N   UNL A   1      45.249  29.310  27.696  1.00  0.00    -0.248 NA
ATOM     53  C   UNL A   1      47.392  29.910  26.987  1.00  0.00     0.031 C 
ATOM     54  C   UNL A   1      42.479  32.023  29.846  1.00  0.00     0.029 A 
ATOM     55  C   UNL A   1      43.367  31.197  29.177  1.00  0.00     0.049 A 
ATOM     56  H   UNL A   1      43.076  29.232  28.466  1.00  0.00     0.167 HD
ATOM     57  C   UNL A   1      45.524  30.606  28.118  1.00  0.00     0.074 A 
ATOM     58  C   UNL A   1      46.877  30.903  27.698  1.00  0.00     0.031 C 
ATOM     59  C   UNL A   1      44.723  31.474  28.783  1.00  0.00     0.034 A 
BRANCH  46  60
ATOM     60  C   UNL A   1      39.038  29.328  29.862  1.00  0.00     0.023 A 
ATOM     61  C   UNL A   1      38.671  28.919  31.161  1.00  0.00     0.012 A 
ATOM     62  C   UNL A   1      38.127  30.081  29.093  1.00  0.00     0.148 A 
ATOM     63  C   UNL A   1      37.412  29.228  31.674  1.00  0.00     0.002 A 
ATOM     64  C   UNL A   1      36.894  30.429  29.631  1.00  0.00     0.091 A 
ATOM     65  F   UNL A   1      38.488  30.446  27.855  1.00  0.00    -0.205 F 
ATOM     66  C   UNL A   1      36.530  29.993  30.915  1.00  0.00     0.022 A 
BRANCH  64  67
ATOM     67  S   UNL A   1      35.722  31.482  28.769  1.00  0.00     0.127 S 
ATOM     68  O   UNL A   1      34.770  31.794  29.834  1.00  0.00    -0.237 OA
ATOM     69  O   UNL A   1      36.567  32.603  28.358  1.00  0.00    -0.237 OA
ATOM     70  O   UNL A   1      35.189  30.683  27.676  1.00  0.00    -0.744 OA
ENDBRANCH  64  67
ENDBRANCH  46  60
BRANCH  47  71
ATOM     71  C   UNL A   1      47.914  27.293  25.780  1.00  0.00     0.023 A 
ATOM     72  C   UNL A   1      49.021  26.857  26.534  1.00  0.00     0.012 A 
ATOM     73  C   UNL A   1      48.057  27.474  24.392  1.00  0.00     0.148 A 
ATOM     74  C   UNL A   1      50.259  26.650  25.922  1.00  0.00     0.002 A 
ATOM     75  C   UNL A   1      49.274  27.205  23.779  1.00  0.00     0.091 A 
ATOM     76  F   UNL A   1      46.994  27.896  23.694  1.00  0.00    -0.205 F 
ATOM     77  C   UNL A   1      50.384  26.815  24.545  1.00  0.00     0.022 A 
BRANCH  75  78
ATOM     78  S   UNL A   1      49.487  27.263  21.998  1.00  0.00     0.127 S 
ATOM     79  O   UNL A   1      50.922  27.027  21.860  1.00  0.00    -0.237 OA
ATOM     80  O   UNL A   1      48.635  26.158  21.558  1.00  0.00    -0.237 OA
ATOM     81  O   UNL A   1      49.022  28.580  21.586  1.00  0.00    -0.744 OA
ENDBRANCH  75  78
ENDBRANCH  47  71
BRANCH  59  82
ATOM     82  C   UNL A   1      45.305  32.818  29.145  1.00  0.00     0.023 A 
ATOM     83  C   UNL A   1      46.000  32.989  30.359  1.00  0.00     0.012 A 
ATOM     84  C   UNL A   1      45.198  33.903  28.252  1.00  0.00     0.148 A 
ATOM     85  C   UNL A   1      46.530  34.234  30.703  1.00  0.00     0.002 A 
ATOM     86  C   UNL A   1      45.781  35.122  28.574  1.00  0.00     0.091 A 
ATOM     87  F   UNL A   1      44.523  33.725  27.107  1.00  0.00    -0.205 F 
ATOM     88  C   UNL A   1      46.430  35.295  29.806  1.00  0.00     0.022 A 
BRANCH  86  89
ATOM     89  S   UNL A   1      45.789  36.516  27.441  1.00  0.00     0.127 S 
ATOM     90  O   UNL A   1      44.363  36.829  27.347  1.00  0.00    -0.237 OA
ATOM     91  O   UNL A   1      46.583  37.501  28.173  1.00  0.00    -0.237 OA
ATOM     92  O   UNL A   1      46.402  36.034  26.211  1.00  0.00    -0.744 OA
ENDBRANCH  86  89
ENDBRANCH  59  82
ENDBRANCH  33  34
ENDBRANCH  25  28
ENDBRANCH  23  24
ENDBRANCH  22  23
ENDBRANCH   1  22
TORSDOF 17
ENDMDL
