MODEL 1
REMARK VINA RESULT:     -11.9      0.000      0.000
REMARK SMILES COc1ccc(NS(=O)(=O)c2ccc(Cl)c(C(=O)NCCCNC(=O)c3ccc(-c4c5nc(c(-c6cccc(S(=O)(=O)[O-])c6F)c6ccc([nH]6)c(-c6cccc(S(=O)(=O)[O-])c6F)c6nc(c(-c7cccc(S(=O)(=O)[O-])c7F)c7ccc4[nH]7)C=C6)C=C5)cc3)c2)cc1Cl
REMARK SMILES IDX 20 1 19 2 17 3 18 4 16 6 11 7 12 8 89 9 13 10 14 11 15 12
REMARK SMILES IDX 8 13 9 14 10 15 7 16 6 18 3 19 4 20 91 21 5 22 90 23 92 24
REMARK SMILES IDX 2 25 1 26 21 27 22 28 23 29 24 30 25 32 26 33 27 34 88 35
REMARK SMILES IDX 28 36 87 37 29 38 30 39 31 40 81 41 32 42 86 43 80 44 82 45
REMARK SMILES IDX 33 46 85 47 79 48 78 49 34 51 66 52 46 53 65 54 47 55 50 56
REMARK SMILES IDX 64 57 83 58 48 59 49 60 63 62 84 63 51 64 35 65 36 66 44 67
REMARK SMILES IDX 37 68 39 69 45 70 38 71 40 72 41 73 42 74 43 75 67 76 68 77
REMARK SMILES IDX 76 78 69 79 71 80 77 81 70 82 72 83 73 84 74 85 75 86 52 87
REMARK SMILES IDX 53 88 61 89 54 90 56 91 62 92 55 93 57 94 58 95 59 96 60 97
REMARK H PARENT 19 5 7 17 23 31 82 50 50 61
REMARK Flexibility Score: inf
ROOT
ATOM      1  C   UNL A   1      36.742  21.021  24.759  1.00  0.00     0.118 C 
ENDROOT
BRANCH   1   2
ATOM      2  N   UNL A   1      35.954  21.243  25.965  1.00  0.00    -0.352 N 
ATOM      3  C   UNL A   1      34.591  21.301  26.147  1.00  0.00     0.252 C 
ATOM      4  O   UNL A   1      34.148  21.390  27.292  1.00  0.00    -0.269 OA
ATOM      5  H   UNL A   1      36.484  21.372  26.784  1.00  0.00     0.163 HD
BRANCH   3   6
ATOM      6  C   UNL A   1      33.641  21.421  25.014  1.00  0.00     0.059 A 
ATOM      7  C   UNL A   1      32.770  22.938  23.319  1.00  0.00     0.088 A 
ATOM      8  C   UNL A   1      32.151  21.861  22.679  1.00  0.00     0.024 A 
ATOM      9  C   UNL A   1      33.484  22.722  24.499  1.00  0.00     0.037 A 
ATOM     10  C   UNL A   1      32.198  20.590  23.259  1.00  0.00     0.023 A 
ATOM     11  C   UNL A   1      32.911  20.374  24.446  1.00  0.00     0.053 A 
ATOM     12  Cl  UNL A   1      32.729  18.832  25.201  1.00  0.00    -0.083 Cl
BRANCH   7  13
ATOM     13  S   UNL A   1      32.633  24.535  22.542  1.00  0.00     0.261 S 
ATOM     14  O   UNL A   1      31.260  24.951  22.735  1.00  0.00    -0.201 OA
ATOM     15  O   UNL A   1      33.205  24.420  21.218  1.00  0.00    -0.201 OA
BRANCH  13  16
ATOM     16  N   UNL A   1      33.536  25.614  23.435  1.00  0.00    -0.280 N 
ATOM     17  H   UNL A   1      34.477  25.372  23.596  1.00  0.00     0.180 HD
BRANCH  16  18
ATOM     18  C   UNL A   1      33.092  26.848  23.987  1.00  0.00     0.051 A 
ATOM     19  C   UNL A   1      32.729  29.192  25.483  1.00  0.00     0.137 A 
ATOM     20  C   UNL A   1      33.183  29.262  24.166  1.00  0.00     0.050 A 
ATOM     21  C   UNL A   1      32.329  27.960  26.008  1.00  0.00     0.085 A 
ATOM     22  C   UNL A   1      33.343  28.094  23.413  1.00  0.00     0.030 A 
ATOM     23  C   UNL A   1      32.538  26.792  25.270  1.00  0.00     0.051 A 
ATOM     24  Cl  UNL A   1      31.577  27.810  27.554  1.00  0.00    -0.080 Cl
BRANCH  19  25
ATOM     25  O   UNL A   1      32.680  30.375  26.168  1.00  0.00    -0.495 OA
ATOM     26  C   UNL A   1      31.427  31.048  26.005  1.00  0.00     0.278 C 
ENDBRANCH  19  25
ENDBRANCH  16  18
ENDBRANCH  13  16
ENDBRANCH   7  13
ENDBRANCH   3   6
ENDBRANCH   1   2
BRANCH   1  27
ATOM     27  C   UNL A   1      37.838  19.967  24.875  1.00  0.00     0.042 C 
BRANCH  27  28
ATOM     28  C   UNL A   1      38.841  20.144  26.010  1.00  0.00     0.118 C 
BRANCH  28  29
ATOM     29  N   UNL A   1      40.006  19.277  25.929  1.00  0.00    -0.352 N 
ATOM     30  C   UNL A   1      41.354  19.498  26.087  1.00  0.00     0.251 C 
ATOM     31  H   UNL A   1      39.784  18.340  25.719  1.00  0.00     0.163 HD
ATOM     32  O   UNL A   1      42.121  18.556  25.882  1.00  0.00    -0.269 OA
BRANCH  30  33
ATOM     33  C   UNL A   1      41.919  20.822  26.449  1.00  0.00     0.039 A 
ATOM     34  C   UNL A   1      42.156  21.744  25.419  1.00  0.00     0.014 A 
ATOM     35  C   UNL A   1      42.275  21.165  27.752  1.00  0.00     0.014 A 
ATOM     36  C   UNL A   1      42.660  23.020  25.705  1.00  0.00     0.010 A 
ATOM     37  C   UNL A   1      42.690  22.466  28.050  1.00  0.00     0.010 A 
ATOM     38  C   UNL A   1      42.885  23.412  27.033  1.00  0.00    -0.014 A 
BRANCH  38  39
ATOM     39  C   UNL A   1      43.297  24.801  27.383  1.00  0.00     0.031 A 
ATOM     40  C   UNL A   1      42.312  25.763  27.998  1.00  0.00     0.074 A 
ATOM     41  C   UNL A   1      44.528  25.238  27.044  1.00  0.00     0.049 A 
ATOM     42  N   UNL A   1      42.456  27.038  28.256  1.00  0.00    -0.248 NA
ATOM     43  C   UNL A   1      40.982  25.232  28.338  1.00  0.00     0.031 C 
ATOM     44  C   UNL A   1      45.555  24.438  26.372  1.00  0.00     0.029 A 
ATOM     45  N   UNL A   1      45.115  26.472  27.188  1.00  0.00    -0.354 N 
ATOM     46  C   UNL A   1      41.223  27.475  28.729  1.00  0.00     0.074 A 
ATOM     47  C   UNL A   1      40.338  26.331  28.709  1.00  0.00     0.031 C 
ATOM     48  C   UNL A   1      46.642  25.198  26.165  1.00  0.00     0.029 A 
ATOM     49  C   UNL A   1      46.384  26.546  26.658  1.00  0.00     0.049 A 
ATOM     50  H   UNL A   1      44.670  27.232  27.628  1.00  0.00     0.167 HD
ATOM     51  C   UNL A   1      40.866  28.706  29.165  1.00  0.00     0.034 A 
ATOM     52  C   UNL A   1      47.242  27.582  26.571  1.00  0.00     0.034 A 
ATOM     53  C   UNL A   1      41.768  29.822  29.268  1.00  0.00     0.049 A 
ATOM     54  C   UNL A   1      46.847  28.918  27.141  1.00  0.00     0.074 A 
ATOM     55  C   UNL A   1      41.527  31.073  29.808  1.00  0.00     0.029 A 
ATOM     56  N   UNL A   1      43.081  29.823  28.830  1.00  0.00    -0.354 N 
ATOM     57  N   UNL A   1      45.728  29.262  27.731  1.00  0.00    -0.248 NA
ATOM     58  C   UNL A   1      47.843  29.997  27.065  1.00  0.00     0.031 C 
ATOM     59  C   UNL A   1      42.695  31.833  29.692  1.00  0.00     0.029 A 
ATOM     60  C   UNL A   1      43.665  31.051  29.086  1.00  0.00     0.049 A 
ATOM     61  H   UNL A   1      43.533  29.062  28.399  1.00  0.00     0.167 HD
ATOM     62  C   UNL A   1      45.898  30.584  28.125  1.00  0.00     0.074 A 
ATOM     63  C   UNL A   1      47.235  30.973  27.727  1.00  0.00     0.031 C 
ATOM     64  C   UNL A   1      45.018  31.407  28.746  1.00  0.00     0.034 A 
BRANCH  51  65
ATOM     65  C   UNL A   1      39.449  28.903  29.638  1.00  0.00     0.023 A 
ATOM     66  C   UNL A   1      39.074  28.436  30.913  1.00  0.00     0.012 A 
ATOM     67  C   UNL A   1      38.516  29.618  28.860  1.00  0.00     0.148 A 
ATOM     68  C   UNL A   1      37.785  28.650  31.397  1.00  0.00     0.002 A 
ATOM     69  C   UNL A   1      37.244  29.862  29.366  1.00  0.00     0.091 A 
ATOM     70  F   UNL A   1      38.886  30.038  27.641  1.00  0.00    -0.205 F 
ATOM     71  C   UNL A   1      36.874  29.372  30.629  1.00  0.00     0.022 A 
BRANCH  69  72
ATOM     72  S   UNL A   1      36.022  30.843  28.485  1.00  0.00     0.127 S 
ATOM     73  O   UNL A   1      35.573  29.904  27.460  1.00  0.00    -0.237 OA
ATOM     74  O   UNL A   1      35.038  31.121  29.532  1.00  0.00    -0.237 OA
ATOM     75  O   UNL A   1      36.731  32.017  27.993  1.00  0.00    -0.744 OA
ENDBRANCH  69  72
ENDBRANCH  51  65
BRANCH  52  76
ATOM     76  C   UNL A   1      48.599  27.374  25.990  1.00  0.00     0.023 A 
ATOM     77  C   UNL A   1      49.642  26.937  26.831  1.00  0.00     0.012 A 
ATOM     78  C   UNL A   1      48.857  27.566  24.620  1.00  0.00     0.148 A 
ATOM     79  C   UNL A   1      50.923  26.722  26.324  1.00  0.00     0.002 A 
ATOM     80  C   UNL A   1      50.123  27.299  24.111  1.00  0.00     0.091 A 
ATOM     81  F   UNL A   1      47.857  27.998  23.838  1.00  0.00    -0.205 F 
ATOM     82  C   UNL A   1      51.161  26.892  24.962  1.00  0.00     0.022 A 
BRANCH  80  83
ATOM     83  S   UNL A   1      50.479  27.363  22.350  1.00  0.00     0.127 S 
ATOM     84  O   UNL A   1      51.856  26.879  22.304  1.00  0.00    -0.237 OA
ATOM     85  O   UNL A   1      49.483  26.441  21.802  1.00  0.00    -0.237 OA
ATOM     86  O   UNL A   1      50.277  28.754  21.965  1.00  0.00    -0.744 OA
ENDBRANCH  80  83
ENDBRANCH  52  76
BRANCH  64  87
ATOM     87  C   UNL A   1      45.471  32.806  29.068  1.00  0.00     0.023 A 
ATOM     88  C   UNL A   1      46.156  33.055  30.274  1.00  0.00     0.012 A 
ATOM     89  C   UNL A   1      45.298  33.852  28.140  1.00  0.00     0.148 A 
ATOM     90  C   UNL A   1      46.641  34.331  30.562  1.00  0.00     0.002 A 
ATOM     91  C   UNL A   1      45.822  35.110  28.416  1.00  0.00     0.091 A 
ATOM     92  F   UNL A   1      44.624  33.601  27.009  1.00  0.00    -0.205 F 
ATOM     93  C   UNL A   1      46.486  35.353  29.629  1.00  0.00     0.022 A 
BRANCH  91  94
ATOM     94  S   UNL A   1      45.745  36.458  27.230  1.00  0.00     0.127 S 
ATOM     95  O   UNL A   1      44.304  36.604  27.035  1.00  0.00    -0.237 OA
ATOM     96  O   UNL A   1      46.376  37.558  27.962  1.00  0.00    -0.237 OA
ATOM     97  O   UNL A   1      46.496  36.005  26.066  1.00  0.00    -0.744 OA
ENDBRANCH  91  94
ENDBRANCH  64  87
ENDBRANCH  38  39
ENDBRANCH  30  33
ENDBRANCH  28  29
ENDBRANCH  27  28
ENDBRANCH   1  27
TORSDOF 17
ENDMDL
MODEL 2
REMARK VINA RESULT:     -11.6      2.008      2.459
REMARK SMILES COc1ccc(NS(=O)(=O)c2ccc(Cl)c(C(=O)NCCCNC(=O)c3ccc(-c4c5nc(c(-c6cccc(S(=O)(=O)[O-])c6F)c6ccc([nH]6)c(-c6cccc(S(=O)(=O)[O-])c6F)c6nc(c(-c7cccc(S(=O)(=O)[O-])c7F)c7ccc4[nH]7)C=C6)C=C5)cc3)c2)cc1Cl
REMARK SMILES IDX 20 1 19 2 17 3 18 4 16 6 11 7 12 8 89 9 13 10 14 11 15 12
REMARK SMILES IDX 8 13 9 14 10 15 7 16 6 18 3 19 4 20 91 21 5 22 90 23 92 24
REMARK SMILES IDX 2 25 1 26 21 27 22 28 23 29 24 30 25 32 26 33 27 34 88 35
REMARK SMILES IDX 28 36 87 37 29 38 30 39 31 40 81 41 32 42 86 43 80 44 82 45
REMARK SMILES IDX 33 46 85 47 79 48 78 49 34 51 66 52 46 53 65 54 47 55 50 56
REMARK SMILES IDX 64 57 83 58 48 59 49 60 63 62 84 63 51 64 35 65 36 66 44 67
REMARK SMILES IDX 37 68 39 69 45 70 38 71 40 72 41 73 42 74 43 75 67 76 68 77
REMARK SMILES IDX 76 78 69 79 71 80 77 81 70 82 72 83 73 84 74 85 75 86 52 87
REMARK SMILES IDX 53 88 61 89 54 90 56 91 62 92 55 93 57 94 58 95 59 96 60 97
REMARK H PARENT 19 5 7 17 23 31 82 50 50 61
REMARK Flexibility Score: inf
ROOT
ATOM      1  C   UNL A   1      37.055  20.641  25.233  1.00  0.00     0.118 C 
ENDROOT
BRANCH   1   2
ATOM      2  N   UNL A   1      37.355  21.964  25.767  1.00  0.00    -0.352 N 
ATOM      3  C   UNL A   1      36.571  23.090  25.865  1.00  0.00     0.252 C 
ATOM      4  O   UNL A   1      37.012  24.071  26.463  1.00  0.00    -0.269 OA
ATOM      5  H   UNL A   1      38.269  22.067  26.116  1.00  0.00     0.163 HD
BRANCH   3   6
ATOM      6  C   UNL A   1      35.282  23.227  25.144  1.00  0.00     0.059 A 
ATOM      7  C   UNL A   1      32.883  23.537  25.430  1.00  0.00     0.088 A 
ATOM      8  C   UNL A   1      32.755  23.785  24.061  1.00  0.00     0.024 A 
ATOM      9  C   UNL A   1      34.136  23.227  25.962  1.00  0.00     0.037 A 
ATOM     10  C   UNL A   1      33.870  23.659  23.227  1.00  0.00     0.023 A 
ATOM     11  C   UNL A   1      35.127  23.344  23.760  1.00  0.00     0.053 A 
ATOM     12  Cl  UNL A   1      36.390  22.993  22.637  1.00  0.00    -0.083 Cl
BRANCH   7  13
ATOM     13  S   UNL A   1      31.411  23.677  26.423  1.00  0.00     0.261 S 
ATOM     14  O   UNL A   1      31.677  22.927  27.632  1.00  0.00    -0.201 OA
ATOM     15  O   UNL A   1      30.286  23.357  25.571  1.00  0.00    -0.201 OA
BRANCH  13  16
ATOM     16  N   UNL A   1      31.283  25.262  26.923  1.00  0.00    -0.280 N 
ATOM     17  H   UNL A   1      30.920  25.410  27.826  1.00  0.00     0.180 HD
BRANCH  16  18
ATOM     18  C   UNL A   1      31.644  26.422  26.182  1.00  0.00     0.051 A 
ATOM     19  C   UNL A   1      32.872  28.339  24.546  1.00  0.00     0.137 A 
ATOM     20  C   UNL A   1      31.693  27.717  24.136  1.00  0.00     0.050 A 
ATOM     21  C   UNL A   1      33.364  28.101  25.832  1.00  0.00     0.085 A 
ATOM     22  C   UNL A   1      31.069  26.777  24.961  1.00  0.00     0.030 A 
ATOM     23  C   UNL A   1      32.766  27.124  26.633  1.00  0.00     0.051 A 
ATOM     24  Cl  UNL A   1      34.703  28.969  26.490  1.00  0.00    -0.080 Cl
BRANCH  19  25
ATOM     25  O   UNL A   1      33.456  29.183  23.641  1.00  0.00    -0.495 OA
ATOM     26  C   UNL A   1      33.955  28.491  22.491  1.00  0.00     0.278 C 
ENDBRANCH  19  25
ENDBRANCH  16  18
ENDBRANCH  13  16
ENDBRANCH   7  13
ENDBRANCH   3   6
ENDBRANCH   1   2
BRANCH   1  27
ATOM     27  C   UNL A   1      38.233  19.674  25.173  1.00  0.00     0.042 C 
BRANCH  27  28
ATOM     28  C   UNL A   1      39.398  19.955  26.116  1.00  0.00     0.118 C 
BRANCH  28  29
ATOM     29  N   UNL A   1      40.544  19.076  25.942  1.00  0.00    -0.352 N 
ATOM     30  C   UNL A   1      41.901  19.276  26.022  1.00  0.00     0.251 C 
ATOM     31  H   UNL A   1      40.296  18.148  25.723  1.00  0.00     0.163 HD
ATOM     32  O   UNL A   1      42.642  18.330  25.747  1.00  0.00    -0.269 OA
BRANCH  30  33
ATOM     33  C   UNL A   1      42.506  20.583  26.381  1.00  0.00     0.039 A 
ATOM     34  C   UNL A   1      43.051  21.365  25.352  1.00  0.00     0.014 A 
ATOM     35  C   UNL A   1      42.607  21.038  27.695  1.00  0.00     0.014 A 
ATOM     36  C   UNL A   1      43.607  22.621  25.629  1.00  0.00     0.010 A 
ATOM     37  C   UNL A   1      43.077  22.327  27.961  1.00  0.00     0.010 A 
ATOM     38  C   UNL A   1      43.581  23.137  26.932  1.00  0.00    -0.014 A 
BRANCH  38  39
ATOM     39  C   UNL A   1      44.046  24.519  27.240  1.00  0.00     0.031 A 
ATOM     40  C   UNL A   1      43.087  25.551  27.778  1.00  0.00     0.074 A 
ATOM     41  C   UNL A   1      45.307  24.884  26.930  1.00  0.00     0.049 A 
ATOM     42  N   UNL A   1      43.281  26.828  27.988  1.00  0.00    -0.248 NA
ATOM     43  C   UNL A   1      41.721  25.098  28.090  1.00  0.00     0.031 C 
ATOM     44  C   UNL A   1      46.319  24.009  26.331  1.00  0.00     0.029 A 
ATOM     45  N   UNL A   1      45.947  26.094  27.044  1.00  0.00    -0.354 N 
ATOM     46  C   UNL A   1      42.055  27.341  28.396  1.00  0.00     0.074 A 
ATOM     47  C   UNL A   1      41.117  26.240  28.390  1.00  0.00     0.031 C 
ATOM     48  C   UNL A   1      47.447  24.709  26.134  1.00  0.00     0.029 A 
ATOM     49  C   UNL A   1      47.236  26.087  26.560  1.00  0.00     0.049 A 
ATOM     50  H   UNL A   1      45.524  26.892  27.436  1.00  0.00     0.167 HD
ATOM     51  C   UNL A   1      41.742  28.605  28.767  1.00  0.00     0.034 A 
ATOM     52  C   UNL A   1      48.146  27.077  26.463  1.00  0.00     0.034 A 
ATOM     53  C   UNL A   1      42.692  29.682  28.858  1.00  0.00     0.049 A 
ATOM     54  C   UNL A   1      47.794  28.453  26.962  1.00  0.00     0.074 A 
ATOM     55  C   UNL A   1      42.492  30.965  29.337  1.00  0.00     0.029 A 
ATOM     56  N   UNL A   1      44.019  29.603  28.469  1.00  0.00    -0.354 N 
ATOM     57  N   UNL A   1      46.673  28.874  27.495  1.00  0.00    -0.248 NA
ATOM     58  C   UNL A   1      48.843  29.481  26.879  1.00  0.00     0.031 C 
ATOM     59  C   UNL A   1      43.698  31.665  29.233  1.00  0.00     0.029 A 
ATOM     60  C   UNL A   1      44.650  30.813  28.696  1.00  0.00     0.049 A 
ATOM     61  H   UNL A   1      44.449  28.804  28.087  1.00  0.00     0.167 HD
ATOM     62  C   UNL A   1      46.892  30.202  27.840  1.00  0.00     0.074 A 
ATOM     63  C   UNL A   1      48.259  30.511  27.477  1.00  0.00     0.031 C 
ATOM     64  C   UNL A   1      46.031  31.091  28.393  1.00  0.00     0.034 A 
BRANCH  51  65
ATOM     65  C   UNL A   1      40.320  28.888  29.178  1.00  0.00     0.023 A 
ATOM     66  C   UNL A   1      39.347  29.121  28.186  1.00  0.00     0.012 A 
ATOM     67  C   UNL A   1      39.932  28.842  30.531  1.00  0.00     0.148 A 
ATOM     68  C   UNL A   1      38.015  29.334  28.534  1.00  0.00     0.002 A 
ATOM     69  C   UNL A   1      38.594  29.016  30.869  1.00  0.00     0.091 A 
ATOM     70  F   UNL A   1      40.875  28.637  31.462  1.00  0.00    -0.205 F 
ATOM     71  C   UNL A   1      37.636  29.271  29.873  1.00  0.00     0.022 A 
BRANCH  69  72
ATOM     72  S   UNL A   1      37.994  28.880  32.557  1.00  0.00     0.127 S 
ATOM     73  O   UNL A   1      36.624  29.372  32.424  1.00  0.00    -0.237 OA
ATOM     74  O   UNL A   1      38.104  27.443  32.809  1.00  0.00    -0.237 OA
ATOM     75  O   UNL A   1      38.881  29.707  33.365  1.00  0.00    -0.744 OA
ENDBRANCH  69  72
ENDBRANCH  51  65
BRANCH  52  76
ATOM     76  C   UNL A   1      49.510  26.782  25.942  1.00  0.00     0.023 A 
ATOM     77  C   UNL A   1      50.422  26.094  26.768  1.00  0.00     0.012 A 
ATOM     78  C   UNL A   1      49.900  27.139  24.638  1.00  0.00     0.148 A 
ATOM     79  C   UNL A   1      51.705  25.791  26.314  1.00  0.00     0.002 A 
ATOM     80  C   UNL A   1      51.163  26.787  24.173  1.00  0.00     0.091 A 
ATOM     81  F   UNL A   1      49.027  27.808  23.873  1.00  0.00    -0.205 F 
ATOM     82  C   UNL A   1      52.072  26.127  25.014  1.00  0.00     0.022 A 
BRANCH  80  83
ATOM     83  S   UNL A   1      51.666  27.062  22.470  1.00  0.00     0.127 S 
ATOM     84  O   UNL A   1      50.480  26.635  21.734  1.00  0.00    -0.237 OA
ATOM     85  O   UNL A   1      51.916  28.505  22.453  1.00  0.00    -0.237 OA
ATOM     86  O   UNL A   1      52.862  26.250  22.284  1.00  0.00    -0.744 OA
ENDBRANCH  80  83
ENDBRANCH  52  76
BRANCH  64  87
ATOM     87  C   UNL A   1      46.538  32.481  28.673  1.00  0.00     0.023 A 
ATOM     88  C   UNL A   1      47.157  32.759  29.909  1.00  0.00     0.012 A 
ATOM     89  C   UNL A   1      46.483  33.482  27.685  1.00  0.00     0.148 A 
ATOM     90  C   UNL A   1      47.691  34.021  30.164  1.00  0.00     0.002 A 
ATOM     91  C   UNL A   1      47.056  34.725  27.932  1.00  0.00     0.091 A 
ATOM     92  F   UNL A   1      45.870  33.205  26.525  1.00  0.00    -0.205 F 
ATOM     93  C   UNL A   1      47.653  34.998  29.172  1.00  0.00     0.022 A 
BRANCH  91  94
ATOM     94  S   UNL A   1      47.130  36.009  26.676  1.00  0.00     0.127 S 
ATOM     95  O   UNL A   1      48.536  36.404  26.735  1.00  0.00    -0.237 OA
ATOM     96  O   UNL A   1      46.751  35.283  25.463  1.00  0.00    -0.237 OA
ATOM     97  O   UNL A   1      46.172  37.024  27.091  1.00  0.00    -0.744 OA
ENDBRANCH  91  94
ENDBRANCH  64  87
ENDBRANCH  38  39
ENDBRANCH  30  33
ENDBRANCH  28  29
ENDBRANCH  27  28
ENDBRANCH   1  27
TORSDOF 17
ENDMDL
MODEL 3
REMARK VINA RESULT:     -11.3      1.952      7.755
REMARK SMILES COc1ccc(NS(=O)(=O)c2ccc(Cl)c(C(=O)NCCCNC(=O)c3ccc(-c4c5nc(c(-c6cccc(S(=O)(=O)[O-])c6F)c6ccc([nH]6)c(-c6cccc(S(=O)(=O)[O-])c6F)c6nc(c(-c7cccc(S(=O)(=O)[O-])c7F)c7ccc4[nH]7)C=C6)C=C5)cc3)c2)cc1Cl
REMARK SMILES IDX 20 1 19 2 17 3 18 4 16 6 11 7 12 8 89 9 13 10 14 11 15 12
REMARK SMILES IDX 8 13 9 14 10 15 7 16 6 18 3 19 4 20 91 21 5 22 90 23 92 24
REMARK SMILES IDX 2 25 1 26 21 27 22 28 23 29 24 30 25 32 26 33 27 34 88 35
REMARK SMILES IDX 28 36 87 37 29 38 30 39 31 40 81 41 32 42 86 43 80 44 82 45
REMARK SMILES IDX 33 46 85 47 79 48 78 49 34 51 66 52 46 53 65 54 47 55 50 56
REMARK SMILES IDX 64 57 83 58 48 59 49 60 63 62 84 63 51 64 35 65 36 66 44 67
REMARK SMILES IDX 37 68 39 69 45 70 38 71 40 72 41 73 42 74 43 75 67 76 68 77
REMARK SMILES IDX 76 78 69 79 71 80 77 81 70 82 72 83 73 84 74 85 75 86 52 87
REMARK SMILES IDX 53 88 61 89 54 90 56 91 62 92 55 93 57 94 58 95 59 96 60 97
REMARK H PARENT 19 5 7 17 23 31 82 50 50 61
REMARK Flexibility Score: inf
ROOT
ATOM      1  C   UNL A   1      34.921  23.233  23.881  1.00  0.00     0.118 C 
ENDROOT
BRANCH   1   2
ATOM      2  N   UNL A   1      33.820  22.455  23.329  1.00  0.00    -0.352 N 
ATOM      3  C   UNL A   1      32.466  22.702  23.313  1.00  0.00     0.252 C 
ATOM      4  O   UNL A   1      31.730  21.944  22.682  1.00  0.00    -0.269 OA
ATOM      5  H   UNL A   1      34.089  21.613  22.896  1.00  0.00     0.163 HD
BRANCH   3   6
ATOM      6  C   UNL A   1      31.840  23.752  24.152  1.00  0.00     0.059 A 
ATOM      7  C   UNL A   1      30.799  25.954  24.110  1.00  0.00     0.088 A 
ATOM      8  C   UNL A   1      30.374  25.775  25.430  1.00  0.00     0.024 A 
ATOM      9  C   UNL A   1      31.556  24.960  23.487  1.00  0.00     0.037 A 
ATOM     10  C   UNL A   1      30.765  24.632  26.133  1.00  0.00     0.023 A 
ATOM     11  C   UNL A   1      31.528  23.636  25.510  1.00  0.00     0.053 A 
ATOM     12  Cl  UNL A   1      32.147  22.377  26.515  1.00  0.00    -0.083 Cl
BRANCH   7  13
ATOM     13  S   UNL A   1      30.297  27.454  23.290  1.00  0.00     0.261 S 
ATOM     14  O   UNL A   1      28.851  27.416  23.248  1.00  0.00    -0.201 OA
ATOM     15  O   UNL A   1      31.083  27.566  22.081  1.00  0.00    -0.201 OA
BRANCH  13  16
ATOM     16  N   UNL A   1      30.662  28.730  24.298  1.00  0.00    -0.280 N 
ATOM     17  H   UNL A   1      29.950  29.396  24.441  1.00  0.00     0.180 HD
BRANCH  16  18
ATOM     18  C   UNL A   1      31.893  28.960  24.974  1.00  0.00     0.051 A 
ATOM     19  C   UNL A   1      33.964  29.257  26.840  1.00  0.00     0.137 A 
ATOM     20  C   UNL A   1      33.966  28.179  25.955  1.00  0.00     0.050 A 
ATOM     21  C   UNL A   1      32.999  30.258  26.703  1.00  0.00     0.085 A 
ATOM     22  C   UNL A   1      32.945  28.043  25.010  1.00  0.00     0.030 A 
ATOM     23  C   UNL A   1      31.953  30.092  25.792  1.00  0.00     0.051 A 
ATOM     24  Cl  UNL A   1      33.036  31.717  27.626  1.00  0.00    -0.080 Cl
BRANCH  19  25
ATOM     25  O   UNL A   1      34.956  29.266  27.782  1.00  0.00    -0.495 OA
ATOM     26  C   UNL A   1      36.211  29.703  27.249  1.00  0.00     0.278 C 
ENDBRANCH  19  25
ENDBRANCH  16  18
ENDBRANCH  13  16
ENDBRANCH   7  13
ENDBRANCH   3   6
ENDBRANCH   1   2
BRANCH   1  27
ATOM     27  C   UNL A   1      36.218  22.465  24.114  1.00  0.00     0.042 C 
BRANCH  27  28
ATOM     28  C   UNL A   1      36.363  21.759  25.457  1.00  0.00     0.118 C 
BRANCH  28  29
ATOM     29  N   UNL A   1      37.518  20.879  25.558  1.00  0.00    -0.352 N 
ATOM     30  C   UNL A   1      38.832  21.090  25.902  1.00  0.00     0.251 C 
ATOM     31  H   UNL A   1      37.316  19.941  25.333  1.00  0.00     0.163 HD
ATOM     32  O   UNL A   1      39.609  20.137  25.824  1.00  0.00    -0.269 OA
BRANCH  30  33
ATOM     33  C   UNL A   1      39.356  22.414  26.320  1.00  0.00     0.039 A 
ATOM     34  C   UNL A   1      40.414  22.447  27.239  1.00  0.00     0.014 A 
ATOM     35  C   UNL A   1      38.808  23.620  25.884  1.00  0.00     0.014 A 
ATOM     36  C   UNL A   1      40.969  23.668  27.646  1.00  0.00     0.010 A 
ATOM     37  C   UNL A   1      39.418  24.833  26.216  1.00  0.00     0.010 A 
ATOM     38  C   UNL A   1      40.508  24.874  27.098  1.00  0.00    -0.014 A 
BRANCH  38  39
ATOM     39  C   UNL A   1      41.159  26.178  27.409  1.00  0.00     0.031 A 
ATOM     40  C   UNL A   1      42.568  26.462  26.953  1.00  0.00     0.074 A 
ATOM     41  C   UNL A   1      40.526  27.068  28.201  1.00  0.00     0.049 A 
ATOM     42  N   UNL A   1      43.336  27.485  27.233  1.00  0.00    -0.248 NA
ATOM     43  C   UNL A   1      43.212  25.450  26.098  1.00  0.00     0.031 C 
ATOM     44  C   UNL A   1      39.192  26.888  28.779  1.00  0.00     0.029 A 
ATOM     45  N   UNL A   1      40.932  28.288  28.686  1.00  0.00    -0.354 N 
ATOM     46  C   UNL A   1      44.565  27.214  26.643  1.00  0.00     0.074 A 
ATOM     47  C   UNL A   1      44.447  25.923  26.001  1.00  0.00     0.031 C 
ATOM     48  C   UNL A   1      38.890  27.956  29.535  1.00  0.00     0.029 A 
ATOM     49  C   UNL A   1      40.016  28.883  29.524  1.00  0.00     0.049 A 
ATOM     50  H   UNL A   1      41.797  28.698  28.455  1.00  0.00     0.167 HD
ATOM     51  C   UNL A   1      45.682  27.979  26.613  1.00  0.00     0.034 A 
ATOM     52  C   UNL A   1      40.075  30.040  30.214  1.00  0.00     0.034 A 
ATOM     53  C   UNL A   1      45.774  29.301  27.174  1.00  0.00     0.049 A 
ATOM     54  C   UNL A   1      41.298  30.909  30.093  1.00  0.00     0.074 A 
ATOM     55  C   UNL A   1      46.825  30.198  27.091  1.00  0.00     0.029 A 
ATOM     56  N   UNL A   1      44.781  29.917  27.916  1.00  0.00    -0.354 N 
ATOM     57  N   UNL A   1      42.389  30.703  29.396  1.00  0.00    -0.248 NA
ATOM     58  C   UNL A   1      41.286  32.184  30.826  1.00  0.00     0.031 C 
ATOM     59  C   UNL A   1      46.468  31.357  27.787  1.00  0.00     0.029 A 
ATOM     60  C   UNL A   1      45.192  31.182  28.298  1.00  0.00     0.049 A 
ATOM     61  H   UNL A   1      43.911  29.515  28.140  1.00  0.00     0.167 HD
ATOM     62  C   UNL A   1      43.175  31.834  29.578  1.00  0.00     0.074 A 
ATOM     63  C   UNL A   1      42.429  32.732  30.434  1.00  0.00     0.031 C 
ATOM     64  C   UNL A   1      44.414  32.096  29.094  1.00  0.00     0.034 A 
BRANCH  51  65
ATOM     65  C   UNL A   1      46.887  27.441  25.886  1.00  0.00     0.023 A 
ATOM     66  C   UNL A   1      47.744  26.537  26.543  1.00  0.00     0.012 A 
ATOM     67  C   UNL A   1      47.123  27.762  24.535  1.00  0.00     0.148 A 
ATOM     68  C   UNL A   1      48.837  25.983  25.879  1.00  0.00     0.002 A 
ATOM     69  C   UNL A   1      48.192  27.175  23.866  1.00  0.00     0.091 A 
ATOM     70  F   UNL A   1      46.307  28.638  23.931  1.00  0.00    -0.205 F 
ATOM     71  C   UNL A   1      49.054  26.293  24.538  1.00  0.00     0.022 A 
BRANCH  69  72
ATOM     72  S   UNL A   1      48.514  27.452  22.120  1.00  0.00     0.127 S 
ATOM     73  O   UNL A   1      47.328  28.205  21.716  1.00  0.00    -0.237 OA
ATOM     74  O   UNL A   1      49.750  28.235  22.155  1.00  0.00    -0.237 OA
ATOM     75  O   UNL A   1      48.650  26.131  21.523  1.00  0.00    -0.744 OA
ENDBRANCH  69  72
ENDBRANCH  51  65
BRANCH  52  76
ATOM     76  C   UNL A   1      38.901  30.485  31.017  1.00  0.00     0.023 A 
ATOM     77  C   UNL A   1      38.808  30.090  32.366  1.00  0.00     0.012 A 
ATOM     78  C   UNL A   1      37.905  31.318  30.475  1.00  0.00     0.148 A 
ATOM     79  C   UNL A   1      37.730  30.493  33.154  1.00  0.00     0.002 A 
ATOM     80  C   UNL A   1      36.860  31.760  31.281  1.00  0.00     0.091 A 
ATOM     81  F   UNL A   1      38.000  31.670  29.186  1.00  0.00    -0.205 F 
ATOM     82  C   UNL A   1      36.762  31.337  32.615  1.00  0.00     0.022 A 
BRANCH  80  83
ATOM     83  S   UNL A   1      35.647  32.955  30.704  1.00  0.00     0.127 S 
ATOM     84  O   UNL A   1      35.752  32.813  29.255  1.00  0.00    -0.237 OA
ATOM     85  O   UNL A   1      34.407  32.439  31.286  1.00  0.00    -0.237 OA
ATOM     86  O   UNL A   1      36.074  34.235  31.254  1.00  0.00    -0.744 OA
ENDBRANCH  80  83
ENDBRANCH  52  76
BRANCH  64  87
ATOM     87  C   UNL A   1      45.040  33.419  29.445  1.00  0.00     0.023 A 
ATOM     88  C   UNL A   1      45.847  33.523  30.596  1.00  0.00     0.012 A 
ATOM     89  C   UNL A   1      44.904  34.532  28.593  1.00  0.00     0.148 A 
ATOM     90  C   UNL A   1      46.489  34.721  30.904  1.00  0.00     0.002 A 
ATOM     91  C   UNL A   1      45.582  35.710  28.884  1.00  0.00     0.091 A 
ATOM     92  F   UNL A   1      44.114  34.420  27.515  1.00  0.00    -0.205 F 
ATOM     93  C   UNL A   1      46.367  35.809  30.043  1.00  0.00     0.022 A 
BRANCH  91  94
ATOM     94  S   UNL A   1      45.551  37.129  27.781  1.00  0.00     0.127 S 
ATOM     95  O   UNL A   1      46.127  36.570  26.559  1.00  0.00    -0.237 OA
ATOM     96  O   UNL A   1      44.121  37.431  27.698  1.00  0.00    -0.237 OA
ATOM     97  O   UNL A   1      46.344  38.159  28.438  1.00  0.00    -0.744 OA
ENDBRANCH  91  94
ENDBRANCH  64  87
ENDBRANCH  38  39
ENDBRANCH  30  33
ENDBRANCH  28  29
ENDBRANCH  27  28
ENDBRANCH   1  27
TORSDOF 17
ENDMDL
