MODEL 1
REMARK VINA RESULT:     -12.5      0.000      0.000
REMARK SMILES Cc1c[nH]c(C[N@@H+](C)[C@@H](C(=O)NCCCNC(=O)c2ccc(-c3c4nc(c(-c5cccc(S(=O)(=O)[O-])c5F)c5ccc([nH]5)c(-c5cccc(S(=O)(=O)[O-])c5F)c5nc(c(-c6cccc(S(=O)(=O)[O-])c6F)c6ccc3[nH]6)C=C5)C=C4)cc2)c2ccc(NC(=O)N3CCCC3)cc2)n1
REMARK SMILES IDX 14 1 13 2 12 3 10 4 11 5 9 7 7 8 8 9 6 11 5 12 1 13 2 14
REMARK SMILES IDX 3 15 96 16 4 17 82 19 83 20 95 21 84 22 94 23 85 24 86 25
REMARK SMILES IDX 87 26 88 28 89 29 90 30 93 31 91 32 92 33 15 34 16 35 17 36
REMARK SMILES IDX 18 38 19 39 20 40 81 41 21 42 80 43 22 44 23 45 24 46 74 47
REMARK SMILES IDX 25 48 79 49 73 50 75 51 26 52 78 53 72 54 71 55 27 57 59 58
REMARK SMILES IDX 39 59 58 60 40 61 43 62 57 63 76 64 41 65 42 66 56 68 77 69
REMARK SMILES IDX 44 70 28 71 29 72 37 73 30 74 32 75 38 76 31 77 33 78 34 79
REMARK SMILES IDX 35 80 36 81 60 82 61 83 69 84 62 85 64 86 70 87 63 88 65 89
REMARK SMILES IDX 66 90 67 91 68 92 45 93 46 94 54 95 47 96 49 97 55 98 48 99
REMARK SMILES IDX 50 100 51 101 52 102 53 103
REMARK H PARENT 12 6 7 10 4 18 86 27 16 37 75 56 43 67
REMARK Flexibility Score: inf
ROOT
ATOM      1  C   UNL A   1      37.776  19.800  24.899  1.00  0.00     0.042 C 
ENDROOT
BRANCH   1   2
ATOM      2  C   UNL A   1      36.500  20.629  25.030  1.00  0.00     0.118 C 
BRANCH   2   3
ATOM      3  N   UNL A   1      36.572  21.811  24.191  1.00  0.00    -0.351 N 
ATOM      4  C   UNL A   1      35.565  22.580  23.677  1.00  0.00     0.283 C 
ATOM      5  O   UNL A   1      35.866  23.284  22.705  1.00  0.00    -0.268 OA
ATOM      6  H   UNL A   1      37.483  22.102  23.955  1.00  0.00     0.163 HD
BRANCH   4   7
ATOM      7  C   UNL A   1      34.144  22.591  24.331  1.00  0.00     0.305 C 
BRANCH   7   8
ATOM      8  N   UNL A   1      33.070  22.419  23.316  1.00  0.00    -0.317 N 
ATOM      9  C   UNL A   1      32.639  23.630  22.645  1.00  0.00     0.334 C 
ATOM     10  H   UNL A   1      33.595  21.873  22.632  1.00  0.00     0.349 HD
BRANCH   8  11
ATOM     11  C   UNL A   1      31.930  21.553  23.664  1.00  0.00     0.339 C 
BRANCH  11  12
ATOM     12  C   UNL A   1      32.337  20.175  24.087  1.00  0.00     0.161 A 
ATOM     13  C   UNL A   1      33.545  16.872  23.589  1.00  0.00     0.068 C 
ATOM     14  C   UNL A   1      32.999  18.129  24.143  1.00  0.00     0.056 A 
ATOM     15  C   UNL A   1      32.785  18.489  25.453  1.00  0.00     0.107 A 
ATOM     16  N   UNL A   1      32.659  19.161  23.306  1.00  0.00    -0.233 NA
ATOM     17  N   UNL A   1      32.392  19.800  25.406  1.00  0.00    -0.344 N 
ATOM     18  H   UNL A   1      32.187  20.372  26.181  1.00  0.00     0.167 HD
ENDBRANCH  11  12
ENDBRANCH   8  11
ENDBRANCH   7   8
BRANCH   7  19
ATOM     19  C   UNL A   1      33.909  23.845  25.197  1.00  0.00     0.019 A 
ATOM     20  C   UNL A   1      34.609  25.041  24.999  1.00  0.00     0.012 A 
ATOM     21  C   UNL A   1      32.939  23.831  26.213  1.00  0.00     0.012 A 
ATOM     22  C   UNL A   1      34.157  26.227  25.580  1.00  0.00     0.027 A 
ATOM     23  C   UNL A   1      32.471  25.024  26.770  1.00  0.00     0.027 A 
ATOM     24  C   UNL A   1      32.987  26.239  26.332  1.00  0.00     0.042 A 
BRANCH  24  25
ATOM     25  N   UNL A   1      32.277  27.412  26.640  1.00  0.00    -0.308 N 
ATOM     26  C   UNL A   1      31.646  28.311  25.833  1.00  0.00     0.321 C 
ATOM     27  H   UNL A   1      32.226  27.619  27.601  1.00  0.00     0.171 HD
ATOM     28  O   UNL A   1      31.475  29.460  26.252  1.00  0.00    -0.248 OA
ATOM     29  N   UNL A   1      31.215  27.937  24.593  1.00  0.00    -0.325 N 
ATOM     30  C   UNL A   1      30.531  26.708  24.228  1.00  0.00     0.121 C 
ATOM     31  C   UNL A   1      31.062  28.903  23.531  1.00  0.00     0.121 C 
ATOM     32  C   UNL A   1      30.773  26.614  22.733  1.00  0.00     0.023 C 
ATOM     33  C   UNL A   1      30.806  28.074  22.271  1.00  0.00     0.023 C 
ENDBRANCH  24  25
ENDBRANCH   7  19
ENDBRANCH   4   7
ENDBRANCH   2   3
ENDBRANCH   1   2
BRANCH   1  34
ATOM     34  C   UNL A   1      38.940  20.312  25.736  1.00  0.00     0.118 C 
BRANCH  34  35
ATOM     35  N   UNL A   1      39.988  19.317  25.902  1.00  0.00    -0.352 N 
ATOM     36  C   UNL A   1      41.331  19.495  26.121  1.00  0.00     0.251 C 
ATOM     37  H   UNL A   1      39.690  18.381  25.852  1.00  0.00     0.163 HD
ATOM     38  O   UNL A   1      42.090  18.526  26.030  1.00  0.00    -0.269 OA
BRANCH  36  39
ATOM     39  C   UNL A   1      41.877  20.834  26.438  1.00  0.00     0.039 A 
ATOM     40  C   UNL A   1      42.085  21.745  25.400  1.00  0.00     0.014 A 
ATOM     41  C   UNL A   1      42.200  21.191  27.750  1.00  0.00     0.014 A 
ATOM     42  C   UNL A   1      42.554  23.030  25.684  1.00  0.00     0.010 A 
ATOM     43  C   UNL A   1      42.584  22.498  28.042  1.00  0.00     0.010 A 
ATOM     44  C   UNL A   1      42.774  23.431  27.012  1.00  0.00    -0.014 A 
BRANCH  44  45
ATOM     45  C   UNL A   1      43.196  24.817  27.346  1.00  0.00     0.031 A 
ATOM     46  C   UNL A   1      42.219  25.779  27.969  1.00  0.00     0.074 A 
ATOM     47  C   UNL A   1      44.431  25.240  27.006  1.00  0.00     0.049 A 
ATOM     48  N   UNL A   1      42.377  27.046  28.255  1.00  0.00    -0.248 NA
ATOM     49  C   UNL A   1      40.880  25.257  28.290  1.00  0.00     0.031 C 
ATOM     50  C   UNL A   1      45.448  24.428  26.335  1.00  0.00     0.029 A 
ATOM     51  N   UNL A   1      45.030  26.467  27.150  1.00  0.00    -0.354 N 
ATOM     52  C   UNL A   1      41.153  27.481  28.749  1.00  0.00     0.074 A 
ATOM     53  C   UNL A   1      40.252  26.350  28.695  1.00  0.00     0.031 C 
ATOM     54  C   UNL A   1      46.543  25.176  26.127  1.00  0.00     0.029 A 
ATOM     55  C   UNL A   1      46.296  26.529  26.613  1.00  0.00     0.049 A 
ATOM     56  H   UNL A   1      44.595  27.230  27.595  1.00  0.00     0.167 HD
ATOM     57  C   UNL A   1      40.815  28.701  29.231  1.00  0.00     0.034 A 
ATOM     58  C   UNL A   1      47.154  27.564  26.507  1.00  0.00     0.034 A 
ATOM     59  C   UNL A   1      41.725  29.811  29.322  1.00  0.00     0.049 A 
ATOM     60  C   UNL A   1      46.761  28.903  27.066  1.00  0.00     0.074 A 
ATOM     61  C   UNL A   1      41.504  31.059  29.878  1.00  0.00     0.029 A 
ATOM     62  N   UNL A   1      43.022  29.814  28.835  1.00  0.00    -0.354 N 
ATOM     63  N   UNL A   1      45.652  29.251  27.672  1.00  0.00    -0.248 NA
ATOM     64  C   UNL A   1      47.749  29.987  26.956  1.00  0.00     0.031 C 
ATOM     65  C   UNL A   1      42.659  31.827  29.697  1.00  0.00     0.029 A 
ATOM     66  C   UNL A   1      43.611  31.046  29.061  1.00  0.00     0.049 A 
ATOM     67  H   UNL A   1      43.462  29.051  28.393  1.00  0.00     0.167 HD
ATOM     68  C   UNL A   1      45.821  30.580  28.045  1.00  0.00     0.074 A 
ATOM     69  C   UNL A   1      47.148  30.968  27.615  1.00  0.00     0.031 C 
ATOM     70  C   UNL A   1      44.949  31.406  28.674  1.00  0.00     0.034 A 
BRANCH  57  71
ATOM     71  C   UNL A   1      39.410  28.891  29.741  1.00  0.00     0.023 A 
ATOM     72  C   UNL A   1      39.094  28.528  31.067  1.00  0.00     0.012 A 
ATOM     73  C   UNL A   1      38.419  29.483  28.934  1.00  0.00     0.148 A 
ATOM     74  C   UNL A   1      37.808  28.718  31.569  1.00  0.00     0.002 A 
ATOM     75  C   UNL A   1      37.152  29.712  29.457  1.00  0.00     0.091 A 
ATOM     76  F   UNL A   1      38.731  29.804  27.670  1.00  0.00    -0.205 F 
ATOM     77  C   UNL A   1      36.841  29.319  30.769  1.00  0.00     0.022 A 
BRANCH  75  78
ATOM     78  S   UNL A   1      35.858  30.552  28.535  1.00  0.00     0.127 S 
ATOM     79  O   UNL A   1      35.155  29.426  27.923  1.00  0.00    -0.237 OA
ATOM     80  O   UNL A   1      35.116  31.231  29.598  1.00  0.00    -0.237 OA
ATOM     81  O   UNL A   1      36.540  31.441  27.605  1.00  0.00    -0.744 OA
ENDBRANCH  75  78
ENDBRANCH  57  71
BRANCH  58  82
ATOM     82  C   UNL A   1      48.494  27.359  25.884  1.00  0.00     0.023 A 
ATOM     83  C   UNL A   1      49.574  26.945  26.686  1.00  0.00     0.012 A 
ATOM     84  C   UNL A   1      48.695  27.546  24.503  1.00  0.00     0.148 A 
ATOM     85  C   UNL A   1      50.840  26.754  26.130  1.00  0.00     0.002 A 
ATOM     86  C   UNL A   1      49.943  27.298  23.946  1.00  0.00     0.091 A 
ATOM     87  F   UNL A   1      47.656  27.951  23.759  1.00  0.00    -0.205 F 
ATOM     88  C   UNL A   1      51.022  26.920  24.760  1.00  0.00     0.022 A 
BRANCH  86  89
ATOM     89  S   UNL A   1      50.236  27.354  22.175  1.00  0.00     0.127 S 
ATOM     90  O   UNL A   1      50.034  28.770  21.883  1.00  0.00    -0.237 OA
ATOM     91  O   UNL A   1      51.623  26.895  22.085  1.00  0.00    -0.237 OA
ATOM     92  O   UNL A   1      49.264  26.441  21.588  1.00  0.00    -0.744 OA
ENDBRANCH  86  89
ENDBRANCH  58  82
BRANCH  70  93
ATOM     93  C   UNL A   1      45.407  32.811  28.976  1.00  0.00     0.023 A 
ATOM     94  C   UNL A   1      46.107  33.080  30.167  1.00  0.00     0.012 A 
ATOM     95  C   UNL A   1      45.216  33.843  28.036  1.00  0.00     0.148 A 
ATOM     96  C   UNL A   1      46.588  34.362  30.432  1.00  0.00     0.002 A 
ATOM     97  C   UNL A   1      45.742  35.105  28.282  1.00  0.00     0.091 A 
ATOM     98  F   UNL A   1      44.532  33.568  26.916  1.00  0.00    -0.205 F 
ATOM     99  C   UNL A   1      46.417  35.369  29.484  1.00  0.00     0.022 A 
BRANCH  97 100
ATOM    100  S   UNL A   1      45.659  36.438  27.081  1.00  0.00     0.127 S 
ATOM    101  O   UNL A   1      46.317  35.837  25.923  1.00  0.00    -0.237 OA
ATOM    102  O   UNL A   1      44.216  36.630  26.933  1.00  0.00    -0.237 OA
ATOM    103  O   UNL A   1      46.362  37.565  27.680  1.00  0.00    -0.744 OA
ENDBRANCH  97 100
ENDBRANCH  70  93
ENDBRANCH  44  45
ENDBRANCH  36  39
ENDBRANCH  34  35
ENDBRANCH   1  34
TORSDOF 18
ENDMDL
MODEL 2
REMARK VINA RESULT:     -12.3      6.091     11.594
REMARK SMILES Cc1c[nH]c(C[N@@H+](C)[C@@H](C(=O)NCCCNC(=O)c2ccc(-c3c4nc(c(-c5cccc(S(=O)(=O)[O-])c5F)c5ccc([nH]5)c(-c5cccc(S(=O)(=O)[O-])c5F)c5nc(c(-c6cccc(S(=O)(=O)[O-])c6F)c6ccc3[nH]6)C=C5)C=C4)cc2)c2ccc(NC(=O)N3CCCC3)cc2)n1
REMARK SMILES IDX 14 1 13 2 12 3 10 4 11 5 9 7 7 8 8 9 6 11 5 12 1 13 2 14
REMARK SMILES IDX 3 15 96 16 4 17 82 19 83 20 95 21 84 22 94 23 85 24 86 25
REMARK SMILES IDX 87 26 88 28 89 29 90 30 93 31 91 32 92 33 15 34 16 35 17 36
REMARK SMILES IDX 18 38 19 39 20 40 81 41 21 42 80 43 22 44 23 45 24 46 74 47
REMARK SMILES IDX 25 48 79 49 73 50 75 51 26 52 78 53 72 54 71 55 27 57 59 58
REMARK SMILES IDX 39 59 58 60 40 61 43 62 57 63 76 64 41 65 42 66 56 68 77 69
REMARK SMILES IDX 44 70 28 71 29 72 37 73 30 74 32 75 38 76 31 77 33 78 34 79
REMARK SMILES IDX 35 80 36 81 60 82 61 83 69 84 62 85 64 86 70 87 63 88 65 89
REMARK SMILES IDX 66 90 67 91 68 92 45 93 46 94 54 95 47 96 49 97 55 98 48 99
REMARK SMILES IDX 50 100 51 101 52 102 53 103
REMARK H PARENT 12 6 7 10 4 18 86 27 16 37 75 56 43 67
REMARK Flexibility Score: inf
ROOT
ATOM      1  C   UNL A   1      31.640  31.366  26.547  1.00  0.00     0.042 C 
ENDROOT
BRANCH   1   2
ATOM      2  C   UNL A   1      31.985  30.127  25.722  1.00  0.00     0.118 C 
BRANCH   2   3
ATOM      3  N   UNL A   1      31.833  28.925  26.520  1.00  0.00    -0.351 N 
ATOM      4  C   UNL A   1      31.357  27.695  26.163  1.00  0.00     0.283 C 
ATOM      5  O   UNL A   1      30.979  26.971  27.094  1.00  0.00    -0.268 OA
ATOM      6  H   UNL A   1      32.114  29.008  27.460  1.00  0.00     0.163 HD
BRANCH   4   7
ATOM      7  C   UNL A   1      31.350  27.234  24.668  1.00  0.00     0.305 C 
BRANCH   7   8
ATOM      8  N   UNL A   1      30.239  27.861  23.904  1.00  0.00    -0.317 N 
ATOM      9  C   UNL A   1      29.031  27.067  23.785  1.00  0.00     0.334 C 
ATOM     10  H   UNL A   1      30.027  28.626  24.544  1.00  0.00     0.349 HD
BRANCH   8  11
ATOM     11  C   UNL A   1      30.573  28.537  22.637  1.00  0.00     0.339 C 
BRANCH  11  12
ATOM     12  C   UNL A   1      29.797  29.799  22.415  1.00  0.00     0.161 A 
ATOM     13  C   UNL A   1      27.947  32.155  20.506  1.00  0.00     0.068 C 
ATOM     14  C   UNL A   1      28.678  31.428  21.565  1.00  0.00     0.056 A 
ATOM     15  C   UNL A   1      28.766  31.696  22.912  1.00  0.00     0.107 A 
ATOM     16  N   UNL A   1      29.372  30.285  21.263  1.00  0.00    -0.233 NA
ATOM     17  N   UNL A   1      29.454  30.639  23.445  1.00  0.00    -0.344 N 
ATOM     18  H   UNL A   1      29.665  30.506  24.397  1.00  0.00     0.167 HD
ENDBRANCH  11  12
ENDBRANCH   8  11
ENDBRANCH   7   8
BRANCH   7  19
ATOM     19  C   UNL A   1      31.337  25.698  24.530  1.00  0.00     0.019 A 
ATOM     20  C   UNL A   1      31.803  25.040  23.384  1.00  0.00     0.012 A 
ATOM     21  C   UNL A   1      30.877  24.896  25.587  1.00  0.00     0.012 A 
ATOM     22  C   UNL A   1      32.066  23.670  23.416  1.00  0.00     0.027 A 
ATOM     23  C   UNL A   1      31.169  23.530  25.626  1.00  0.00     0.027 A 
ATOM     24  C   UNL A   1      31.903  22.951  24.596  1.00  0.00     0.042 A 
BRANCH  24  25
ATOM     25  N   UNL A   1      32.474  21.686  24.817  1.00  0.00    -0.308 N 
ATOM     26  C   UNL A   1      33.771  21.271  24.763  1.00  0.00     0.321 C 
ATOM     27  H   UNL A   1      31.829  20.981  25.051  1.00  0.00     0.171 HD
ATOM     28  O   UNL A   1      33.998  20.075  24.559  1.00  0.00    -0.248 OA
ATOM     29  N   UNL A   1      34.787  22.167  24.935  1.00  0.00    -0.325 N 
ATOM     30  C   UNL A   1      34.875  23.224  25.928  1.00  0.00     0.121 C 
ATOM     31  C   UNL A   1      36.094  21.934  24.368  1.00  0.00     0.121 C 
ATOM     32  C   UNL A   1      35.900  24.169  25.330  1.00  0.00     0.023 C 
ATOM     33  C   UNL A   1      36.855  23.245  24.569  1.00  0.00     0.023 C 
ENDBRANCH  24  25
ENDBRANCH   7  19
ENDBRANCH   4   7
ENDBRANCH   2   3
ENDBRANCH   1   2
BRANCH   1  34
ATOM     34  C   UNL A   1      32.849  32.075  27.142  1.00  0.00     0.118 C 
BRANCH  34  35
ATOM     35  N   UNL A   1      32.580  33.469  27.454  1.00  0.00    -0.352 N 
ATOM     36  C   UNL A   1      33.129  34.266  28.428  1.00  0.00     0.251 C 
ATOM     37  H   UNL A   1      31.907  33.906  26.884  1.00  0.00     0.163 HD
ATOM     38  O   UNL A   1      32.621  35.365  28.665  1.00  0.00    -0.269 OA
BRANCH  36  39
ATOM     39  C   UNL A   1      34.303  33.811  29.206  1.00  0.00     0.039 A 
ATOM     40  C   UNL A   1      34.104  32.967  30.302  1.00  0.00     0.014 A 
ATOM     41  C   UNL A   1      35.596  34.224  28.874  1.00  0.00     0.014 A 
ATOM     42  C   UNL A   1      35.202  32.487  31.021  1.00  0.00     0.010 A 
ATOM     43  C   UNL A   1      36.693  33.677  29.536  1.00  0.00     0.010 A 
ATOM     44  C   UNL A   1      36.510  32.809  30.622  1.00  0.00    -0.014 A 
BRANCH  44  45
ATOM     45  C   UNL A   1      37.696  32.248  31.321  1.00  0.00     0.031 A 
ATOM     46  C   UNL A   1      38.470  31.109  30.710  1.00  0.00     0.074 A 
ATOM     47  C   UNL A   1      38.024  32.699  32.549  1.00  0.00     0.049 A 
ATOM     48  N   UNL A   1      39.477  30.436  31.205  1.00  0.00    -0.248 NA
ATOM     49  C   UNL A   1      38.040  30.649  29.379  1.00  0.00     0.031 C 
ATOM     50  C   UNL A   1      37.313  33.749  33.282  1.00  0.00     0.029 A 
ATOM     51  N   UNL A   1      39.021  32.312  33.411  1.00  0.00    -0.354 N 
ATOM     52  C   UNL A   1      39.774  29.452  30.269  1.00  0.00     0.074 A 
ATOM     53  C   UNL A   1      38.821  29.596  29.190  1.00  0.00     0.031 C 
ATOM     54  C   UNL A   1      37.895  33.923  34.479  1.00  0.00     0.029 A 
ATOM     55  C   UNL A   1      38.995  32.974  34.617  1.00  0.00     0.049 A 
ATOM     56  H   UNL A   1      39.689  31.625  33.187  1.00  0.00     0.167 HD
ATOM     57  C   UNL A   1      40.767  28.531  30.290  1.00  0.00     0.034 A 
ATOM     58  C   UNL A   1      39.758  32.822  35.718  1.00  0.00     0.034 A 
ATOM     59  C   UNL A   1      41.739  28.419  31.344  1.00  0.00     0.049 A 
ATOM     60  C   UNL A   1      40.866  31.804  35.708  1.00  0.00     0.074 A 
ATOM     61  C   UNL A   1      42.837  27.579  31.413  1.00  0.00     0.029 A 
ATOM     62  N   UNL A   1      41.725  29.157  32.516  1.00  0.00    -0.354 N 
ATOM     63  N   UNL A   1      41.227  30.989  34.748  1.00  0.00    -0.248 NA
ATOM     64  C   UNL A   1      41.690  31.705  36.922  1.00  0.00     0.031 C 
ATOM     65  C   UNL A   1      43.468  27.787  32.644  1.00  0.00     0.029 A 
ATOM     66  C   UNL A   1      42.784  28.782  33.325  1.00  0.00     0.049 A 
ATOM     67  H   UNL A   1      41.059  29.847  32.742  1.00  0.00     0.167 HD
ATOM     68  C   UNL A   1      42.341  30.306  35.226  1.00  0.00     0.074 A 
ATOM     69  C   UNL A   1      42.606  30.818  36.554  1.00  0.00     0.031 C 
ATOM     70  C   UNL A   1      43.068  29.333  34.624  1.00  0.00     0.034 A 
BRANCH  57  71
ATOM     71  C   UNL A   1      40.883  27.596  29.113  1.00  0.00     0.023 A 
ATOM     72  C   UNL A   1      40.085  26.435  29.064  1.00  0.00     0.012 A 
ATOM     73  C   UNL A   1      41.733  27.896  28.031  1.00  0.00     0.148 A 
ATOM     74  C   UNL A   1      40.156  25.568  27.974  1.00  0.00     0.002 A 
ATOM     75  C   UNL A   1      41.764  27.052  26.927  1.00  0.00     0.091 A 
ATOM     76  F   UNL A   1      42.499  28.994  28.103  1.00  0.00    -0.205 F 
ATOM     77  C   UNL A   1      40.986  25.882  26.902  1.00  0.00     0.022 A 
BRANCH  75  78
ATOM     78  S   UNL A   1      42.739  27.407  25.460  1.00  0.00     0.127 S 
ATOM     79  O   UNL A   1      44.094  27.439  26.008  1.00  0.00    -0.237 OA
ATOM     80  O   UNL A   1      42.451  26.250  24.612  1.00  0.00    -0.237 OA
ATOM     81  O   UNL A   1      42.245  28.677  24.946  1.00  0.00    -0.744 OA
ENDBRANCH  75  78
ENDBRANCH  57  71
BRANCH  58  82
ATOM     82  C   UNL A   1      39.530  33.691  36.908  1.00  0.00     0.023 A 
ATOM     83  C   UNL A   1      39.945  35.036  36.874  1.00  0.00     0.012 A 
ATOM     84  C   UNL A   1      38.884  33.201  38.059  1.00  0.00     0.148 A 
ATOM     85  C   UNL A   1      39.751  35.869  37.976  1.00  0.00     0.002 A 
ATOM     86  C   UNL A   1      38.641  34.051  39.131  1.00  0.00     0.091 A 
ATOM     87  F   UNL A   1      38.506  31.915  38.076  1.00  0.00    -0.205 F 
ATOM     88  C   UNL A   1      39.090  35.380  39.100  1.00  0.00     0.022 A 
BRANCH  86  89
ATOM     89  S   UNL A   1      37.679  33.546  40.562  1.00  0.00     0.127 S 
ATOM     90  O   UNL A   1      38.550  32.544  41.170  1.00  0.00    -0.237 OA
ATOM     91  O   UNL A   1      37.567  34.802  41.306  1.00  0.00    -0.237 OA
ATOM     92  O   UNL A   1      36.416  33.051  40.030  1.00  0.00    -0.744 OA
ENDBRANCH  86  89
ENDBRANCH  58  82
BRANCH  70  93
ATOM     93  C   UNL A   1      44.250  28.774  35.374  1.00  0.00     0.023 A 
ATOM     94  C   UNL A   1      45.522  29.357  35.215  1.00  0.00     0.012 A 
ATOM     95  C   UNL A   1      44.079  27.727  36.301  1.00  0.00     0.148 A 
ATOM     96  C   UNL A   1      46.612  28.888  35.947  1.00  0.00     0.002 A 
ATOM     97  C   UNL A   1      45.158  27.299  37.064  1.00  0.00     0.091 A 
ATOM     98  F   UNL A   1      42.863  27.175  36.425  1.00  0.00    -0.205 F 
ATOM     99  C   UNL A   1      46.427  27.870  36.880  1.00  0.00     0.022 A 
BRANCH  97 100
ATOM    100  S   UNL A   1      44.997  26.063  38.358  1.00  0.00     0.127 S 
ATOM    101  O   UNL A   1      46.396  25.773  38.668  1.00  0.00    -0.237 OA
ATOM    102  O   UNL A   1      44.281  26.800  39.401  1.00  0.00    -0.237 OA
ATOM    103  O   UNL A   1      44.247  24.960  37.772  1.00  0.00    -0.744 OA
ENDBRANCH  97 100
ENDBRANCH  70  93
ENDBRANCH  44  45
ENDBRANCH  36  39
ENDBRANCH  34  35
ENDBRANCH   1  34
TORSDOF 18
ENDMDL
MODEL 3
REMARK VINA RESULT:     -12.1      5.366     10.798
REMARK SMILES Cc1c[nH]c(C[N@@H+](C)[C@@H](C(=O)NCCCNC(=O)c2ccc(-c3c4nc(c(-c5cccc(S(=O)(=O)[O-])c5F)c5ccc([nH]5)c(-c5cccc(S(=O)(=O)[O-])c5F)c5nc(c(-c6cccc(S(=O)(=O)[O-])c6F)c6ccc3[nH]6)C=C5)C=C4)cc2)c2ccc(NC(=O)N3CCCC3)cc2)n1
REMARK SMILES IDX 14 1 13 2 12 3 10 4 11 5 9 7 7 8 8 9 6 11 5 12 1 13 2 14
REMARK SMILES IDX 3 15 96 16 4 17 82 19 83 20 95 21 84 22 94 23 85 24 86 25
REMARK SMILES IDX 87 26 88 28 89 29 90 30 93 31 91 32 92 33 15 34 16 35 17 36
REMARK SMILES IDX 18 38 19 39 20 40 81 41 21 42 80 43 22 44 23 45 24 46 74 47
REMARK SMILES IDX 25 48 79 49 73 50 75 51 26 52 78 53 72 54 71 55 27 57 59 58
REMARK SMILES IDX 39 59 58 60 40 61 43 62 57 63 76 64 41 65 42 66 56 68 77 69
REMARK SMILES IDX 44 70 28 71 29 72 37 73 30 74 32 75 38 76 31 77 33 78 34 79
REMARK SMILES IDX 35 80 36 81 60 82 61 83 69 84 62 85 64 86 70 87 63 88 65 89
REMARK SMILES IDX 66 90 67 91 68 92 45 93 46 94 54 95 47 96 49 97 55 98 48 99
REMARK SMILES IDX 50 100 51 101 52 102 53 103
REMARK H PARENT 12 6 7 10 4 18 86 27 16 37 75 56 43 67
REMARK Flexibility Score: inf
ROOT
ATOM      1  C   UNL A   1      33.332  29.604  24.589  1.00  0.00     0.042 C 
ENDROOT
BRANCH   1   2
ATOM      2  C   UNL A   1      33.128  28.316  23.794  1.00  0.00     0.118 C 
BRANCH   2   3
ATOM      3  N   UNL A   1      33.664  27.179  24.518  1.00  0.00    -0.351 N 
ATOM      4  C   UNL A   1      33.053  26.015  24.891  1.00  0.00     0.283 C 
ATOM      5  O   UNL A   1      33.601  25.388  25.808  1.00  0.00    -0.268 OA
ATOM      6  H   UNL A   1      34.610  27.259  24.781  1.00  0.00     0.163 HD
BRANCH   4   7
ATOM      7  C   UNL A   1      31.774  25.502  24.153  1.00  0.00     0.305 C 
BRANCH   7   8
ATOM      8  N   UNL A   1      30.534  26.090  24.727  1.00  0.00    -0.317 N 
ATOM      9  C   UNL A   1      30.291  25.801  26.126  1.00  0.00     0.334 C 
ATOM     10  H   UNL A   1      30.793  27.075  24.670  1.00  0.00     0.349 HD
BRANCH   8  11
ATOM     11  C   UNL A   1      29.298  25.999  23.929  1.00  0.00     0.339 C 
BRANCH  11  12
ATOM     12  C   UNL A   1      28.805  27.328  23.444  1.00  0.00     0.161 A 
ATOM     13  C   UNL A   1      29.099  30.504  21.882  1.00  0.00     0.068 C 
ATOM     14  C   UNL A   1      28.635  29.301  22.602  1.00  0.00     0.056 A 
ATOM     15  C   UNL A   1      27.364  28.950  22.995  1.00  0.00     0.107 A 
ATOM     16  N   UNL A   1      29.525  28.314  22.941  1.00  0.00    -0.233 NA
ATOM     17  N   UNL A   1      27.481  27.683  23.502  1.00  0.00    -0.344 N 
ATOM     18  H   UNL A   1      26.745  27.127  23.846  1.00  0.00     0.167 HD
ENDBRANCH  11  12
ENDBRANCH   8  11
ENDBRANCH   7   8
BRANCH   7  19
ATOM     19  C   UNL A   1      31.702  23.962  24.109  1.00  0.00     0.019 A 
ATOM     20  C   UNL A   1      32.143  23.217  23.008  1.00  0.00     0.012 A 
ATOM     21  C   UNL A   1      31.211  23.244  25.212  1.00  0.00     0.012 A 
ATOM     22  C   UNL A   1      32.353  21.842  23.124  1.00  0.00     0.027 A 
ATOM     23  C   UNL A   1      31.450  21.873  25.336  1.00  0.00     0.027 A 
ATOM     24  C   UNL A   1      32.162  21.205  24.346  1.00  0.00     0.042 A 
BRANCH  24  25
ATOM     25  N   UNL A   1      32.684  19.935  24.646  1.00  0.00    -0.308 N 
ATOM     26  C   UNL A   1      33.969  19.519  24.831  1.00  0.00     0.321 C 
ATOM     27  H   UNL A   1      32.008  19.225  24.737  1.00  0.00     0.171 HD
ATOM     28  O   UNL A   1      34.234  18.327  24.650  1.00  0.00    -0.248 OA
ATOM     29  N   UNL A   1      34.930  20.410  25.212  1.00  0.00    -0.325 N 
ATOM     30  C   UNL A   1      34.825  21.446  26.225  1.00  0.00     0.121 C 
ATOM     31  C   UNL A   1      36.322  20.188  24.900  1.00  0.00     0.121 C 
ATOM     32  C   UNL A   1      35.942  22.403  25.853  1.00  0.00     0.023 C 
ATOM     33  C   UNL A   1      37.028  21.493  25.270  1.00  0.00     0.023 C 
ENDBRANCH  24  25
ENDBRANCH   7  19
ENDBRANCH   4   7
ENDBRANCH   2   3
ENDBRANCH   1   2
BRANCH   1  34
ATOM     34  C   UNL A   1      32.480  29.702  25.847  1.00  0.00     0.118 C 
BRANCH  34  35
ATOM     35  N   UNL A   1      32.169  31.077  26.204  1.00  0.00    -0.352 N 
ATOM     36  C   UNL A   1      32.788  31.903  27.110  1.00  0.00     0.251 C 
ATOM     37  H   UNL A   1      31.405  31.473  25.727  1.00  0.00     0.163 HD
ATOM     38  O   UNL A   1      32.249  32.969  27.419  1.00  0.00    -0.269 OA
BRANCH  36  39
ATOM     39  C   UNL A   1      34.075  31.517  27.730  1.00  0.00     0.039 A 
ATOM     40  C   UNL A   1      35.057  32.494  27.917  1.00  0.00     0.014 A 
ATOM     41  C   UNL A   1      34.328  30.197  28.114  1.00  0.00     0.014 A 
ATOM     42  C   UNL A   1      36.261  32.161  28.544  1.00  0.00     0.010 A 
ATOM     43  C   UNL A   1      35.490  29.886  28.816  1.00  0.00     0.010 A 
ATOM     44  C   UNL A   1      36.474  30.861  29.033  1.00  0.00    -0.014 A 
BRANCH  44  45
ATOM     45  C   UNL A   1      37.712  30.503  29.773  1.00  0.00     0.031 A 
ATOM     46  C   UNL A   1      38.711  29.552  29.167  1.00  0.00     0.074 A 
ATOM     47  C   UNL A   1      37.896  30.959  31.029  1.00  0.00     0.049 A 
ATOM     48  N   UNL A   1      39.804  29.058  29.691  1.00  0.00    -0.248 NA
ATOM     49  C   UNL A   1      38.434  29.073  27.803  1.00  0.00     0.031 C 
ATOM     50  C   UNL A   1      36.970  31.829  31.757  1.00  0.00     0.029 A 
ATOM     51  N   UNL A   1      38.909  30.729  31.928  1.00  0.00    -0.354 N 
ATOM     52  C   UNL A   1      40.320  28.184  28.742  1.00  0.00     0.074 A 
ATOM     53  C   UNL A   1      39.405  28.190  27.622  1.00  0.00     0.031 C 
ATOM     54  C   UNL A   1      37.456  32.061  32.986  1.00  0.00     0.029 A 
ATOM     55  C   UNL A   1      38.707  31.327  33.151  1.00  0.00     0.049 A 
ATOM     56  H   UNL A   1      39.703  30.187  31.717  1.00  0.00     0.167 HD
ATOM     57  C   UNL A   1      41.466  27.463  28.785  1.00  0.00     0.034 A 
ATOM     58  C   UNL A   1      39.436  31.276  34.284  1.00  0.00     0.034 A 
ATOM     59  C   UNL A   1      42.395  27.491  29.883  1.00  0.00     0.049 A 
ATOM     60  C   UNL A   1      40.714  30.482  34.299  1.00  0.00     0.074 A 
ATOM     61  C   UNL A   1      43.626  26.867  29.982  1.00  0.00     0.029 A 
ATOM     62  N   UNL A   1      42.192  28.167  31.075  1.00  0.00    -0.354 N 
ATOM     63  N   UNL A   1      41.263  29.786  33.333  1.00  0.00    -0.248 NA
ATOM     64  C   UNL A   1      41.488  30.490  35.549  1.00  0.00     0.031 C 
ATOM     65  C   UNL A   1      44.152  27.140  31.248  1.00  0.00     0.029 A 
ATOM     66  C   UNL A   1      43.265  27.963  31.924  1.00  0.00     0.049 A 
ATOM     67  H   UNL A   1      41.399  28.713  31.287  1.00  0.00     0.167 HD
ATOM     68  C   UNL A   1      42.463  29.303  33.846  1.00  0.00     0.074 A 
ATOM     69  C   UNL A   1      42.568  29.803  35.201  1.00  0.00     0.031 C 
ATOM     70  C   UNL A   1      43.384  28.506  33.252  1.00  0.00     0.034 A 
BRANCH  57  71
ATOM     71  C   UNL A   1      41.806  26.612  27.588  1.00  0.00     0.023 A 
ATOM     72  C   UNL A   1      42.423  27.202  26.465  1.00  0.00     0.012 A 
ATOM     73  C   UNL A   1      41.573  25.223  27.597  1.00  0.00     0.148 A 
ATOM     74  C   UNL A   1      42.770  26.431  25.357  1.00  0.00     0.002 A 
ATOM     75  C   UNL A   1      41.965  24.453  26.508  1.00  0.00     0.091 A 
ATOM     76  F   UNL A   1      40.969  24.682  28.664  1.00  0.00    -0.205 F 
ATOM     77  C   UNL A   1      42.551  25.057  25.383  1.00  0.00     0.022 A 
BRANCH  75  78
ATOM     78  S   UNL A   1      41.801  22.664  26.474  1.00  0.00     0.127 S 
ATOM     79  O   UNL A   1      42.526  22.279  27.683  1.00  0.00    -0.237 OA
ATOM     80  O   UNL A   1      40.350  22.488  26.549  1.00  0.00    -0.237 OA
ATOM     81  O   UNL A   1      42.402  22.229  25.220  1.00  0.00    -0.744 OA
ENDBRANCH  75  78
ENDBRANCH  57  71
BRANCH  58  82
ATOM     82  C   UNL A   1      38.997  32.041  35.487  1.00  0.00     0.023 A 
ATOM     83  C   UNL A   1      39.227  33.428  35.548  1.00  0.00     0.012 A 
ATOM     84  C   UNL A   1      38.334  31.407  36.554  1.00  0.00     0.148 A 
ATOM     85  C   UNL A   1      38.835  34.166  36.665  1.00  0.00     0.002 A 
ATOM     86  C   UNL A   1      37.893  32.157  37.638  1.00  0.00     0.091 A 
ATOM     87  F   UNL A   1      38.134  30.083  36.482  1.00  0.00    -0.205 F 
ATOM     88  C   UNL A   1      38.159  33.534  37.704  1.00  0.00     0.022 A 
BRANCH  86  89
ATOM     89  S   UNL A   1      36.897  31.452  38.956  1.00  0.00     0.127 S 
ATOM     90  O   UNL A   1      37.778  31.602  40.110  1.00  0.00    -0.237 OA
ATOM     91  O   UNL A   1      35.727  32.332  38.952  1.00  0.00    -0.237 OA
ATOM     92  O   UNL A   1      36.616  30.082  38.545  1.00  0.00    -0.744 OA
ENDBRANCH  86  89
ENDBRANCH  58  82
BRANCH  70  93
ATOM     93  C   UNL A   1      44.616  28.147  34.043  1.00  0.00     0.023 A 
ATOM     94  C   UNL A   1      45.720  29.020  34.058  1.00  0.00     0.012 A 
ATOM     95  C   UNL A   1      44.640  26.985  34.840  1.00  0.00     0.148 A 
ATOM     96  C   UNL A   1      46.842  28.729  34.833  1.00  0.00     0.002 A 
ATOM     97  C   UNL A   1      45.740  26.727  35.649  1.00  0.00     0.091 A 
ATOM     98  F   UNL A   1      43.585  26.159  34.798  1.00  0.00    -0.205 F 
ATOM     99  C   UNL A   1      46.847  27.591  35.637  1.00  0.00     0.022 A 
BRANCH  97 100
ATOM    100  S   UNL A   1      45.797  25.342  36.790  1.00  0.00     0.127 S 
ATOM    101  O   UNL A   1      45.684  24.202  35.882  1.00  0.00    -0.237 OA
ATOM    102  O   UNL A   1      47.114  25.504  37.407  1.00  0.00    -0.237 OA
ATOM    103  O   UNL A   1      44.675  25.523  37.702  1.00  0.00    -0.744 OA
ENDBRANCH  97 100
ENDBRANCH  70  93
ENDBRANCH  44  45
ENDBRANCH  36  39
ENDBRANCH  34  35
ENDBRANCH   1  34
TORSDOF 18
ENDMDL
