MODEL 1
REMARK VINA RESULT:     -13.2      0.000      0.000
REMARK SMILES Nc1nc2ccccc2nc1N1CCC(C(=O)NCCCNC(=O)c2ccc(-c3c4nc(c(-c5cccc(S(=O)(=O)[O-])c5F)c5ccc([nH]5)c(-c5cccc(S(=O)(=O)[O-])c5F)c5nc(c(-c6cccc(S(=O)(=O)[O-])c6F)c6ccc3[nH]6)C=C5)C=C4)cc2)CC1
REMARK SMILES IDX 20 1 19 2 18 3 16 4 17 5 15 7 12 8 13 9 89 10 14 11 88 12
REMARK SMILES IDX 11 13 2 14 3 15 4 16 10 17 5 18 9 19 6 20 8 21 7 22 1 23
REMARK SMILES IDX 21 26 22 27 23 28 24 30 25 31 26 32 87 33 27 34 86 35 28 36
REMARK SMILES IDX 29 37 30 38 80 39 31 40 85 41 79 42 81 43 32 44 84 45 78 46
REMARK SMILES IDX 77 47 33 49 65 50 45 51 64 52 46 53 49 54 63 55 82 56 47 57
REMARK SMILES IDX 48 58 62 60 83 61 50 62 34 63 35 64 43 65 36 66 38 67 44 68
REMARK SMILES IDX 37 69 39 70 40 71 41 72 42 73 66 74 67 75 75 76 68 77 70 78
REMARK SMILES IDX 76 79 69 80 71 81 72 82 73 83 74 84 51 85 52 86 60 87 53 88
REMARK SMILES IDX 55 89 61 90 54 91 56 92 57 93 58 94 59 95
REMARK H PARENT 18 6 1 24 1 25 22 29 81 48 49 59
REMARK Flexibility Score: inf
ROOT
ATOM      1  C   UNL A   1      35.438  21.836  26.108  1.00  0.00     0.042 C 
ENDROOT
BRANCH   1   2
ATOM      2  C   UNL A   1      34.191  22.595  25.676  1.00  0.00     0.117 C 
BRANCH   2   3
ATOM      3  N   UNL A   1      34.265  23.074  24.301  1.00  0.00    -0.356 N 
ATOM      4  C   UNL A   1      33.952  24.281  23.755  1.00  0.00     0.223 C 
ATOM      5  O   UNL A   1      34.145  24.433  22.545  1.00  0.00    -0.275 OA
ATOM      6  H   UNL A   1      34.598  22.409  23.656  1.00  0.00     0.163 HD
BRANCH   4   7
ATOM      7  C   UNL A   1      33.399  25.425  24.592  1.00  0.00     0.082 C 
ATOM      8  N   UNL A   1      31.783  27.757  24.621  1.00  0.00    -0.353 N 
ATOM      9  C   UNL A   1      33.213  27.966  24.692  1.00  0.00     0.119 C 
ATOM     10  C   UNL A   1      31.217  26.586  25.264  1.00  0.00     0.119 C 
ATOM     11  C   UNL A   1      33.952  26.774  24.114  1.00  0.00     0.035 C 
ATOM     12  C   UNL A   1      31.870  25.322  24.719  1.00  0.00     0.035 C 
BRANCH   8  13
ATOM     13  C   UNL A   1      31.007  28.560  23.802  1.00  0.00     0.172 A 
ATOM     14  C   UNL A   1      30.764  28.205  22.448  1.00  0.00     0.167 A 
ATOM     15  N   UNL A   1      30.003  28.947  21.623  1.00  0.00    -0.226 NA
ATOM     16  C   UNL A   1      29.445  30.046  22.155  1.00  0.00     0.091 A 
ATOM     17  N   UNL A   1      30.428  29.664  24.329  1.00  0.00    -0.225 NA
ATOM     18  C   UNL A   1      28.632  30.837  21.350  1.00  0.00     0.031 A 
ATOM     19  C   UNL A   1      29.657  30.412  23.507  1.00  0.00     0.091 A 
ATOM     20  C   UNL A   1      28.027  31.992  21.842  1.00  0.00     0.002 A 
ATOM     21  C   UNL A   1      29.051  31.572  23.982  1.00  0.00     0.031 A 
ATOM     22  C   UNL A   1      28.241  32.364  23.162  1.00  0.00     0.002 A 
BRANCH  14  23
ATOM     23  N   UNL A   1      31.288  27.040  21.889  1.00  0.00    -0.381 N 
ATOM     24  H   UNL A   1      31.807  27.086  21.054  1.00  0.00     0.158 HD
ATOM     25  H   UNL A   1      31.141  26.172  22.330  1.00  0.00     0.158 HD
ENDBRANCH  14  23
ENDBRANCH   8  13
ENDBRANCH   4   7
ENDBRANCH   2   3
ENDBRANCH   1   2
BRANCH   1  26
ATOM     26  C   UNL A   1      36.594  21.917  25.125  1.00  0.00     0.118 C 
BRANCH  26  27
ATOM     27  N   UNL A   1      37.560  20.839  25.279  1.00  0.00    -0.352 N 
ATOM     28  C   UNL A   1      38.829  20.861  25.814  1.00  0.00     0.251 C 
ATOM     29  H   UNL A   1      37.262  19.960  24.951  1.00  0.00     0.163 HD
ATOM     30  O   UNL A   1      39.538  19.862  25.725  1.00  0.00    -0.269 OA
BRANCH  28  31
ATOM     31  C   UNL A   1      39.350  22.094  26.450  1.00  0.00     0.039 A 
ATOM     32  C   UNL A   1      38.824  23.343  26.127  1.00  0.00     0.014 A 
ATOM     33  C   UNL A   1      40.404  22.000  27.365  1.00  0.00     0.014 A 
ATOM     34  C   UNL A   1      39.479  24.496  26.545  1.00  0.00     0.010 A 
ATOM     35  C   UNL A   1      40.994  23.163  27.871  1.00  0.00     0.010 A 
ATOM     36  C   UNL A   1      40.580  24.424  27.416  1.00  0.00    -0.014 A 
BRANCH  36  37
ATOM     37  C   UNL A   1      41.272  25.682  27.810  1.00  0.00     0.031 A 
ATOM     38  C   UNL A   1      42.654  26.004  27.295  1.00  0.00     0.074 A 
ATOM     39  C   UNL A   1      40.614  26.583  28.569  1.00  0.00     0.049 A 
ATOM     40  N   UNL A   1      43.355  27.097  27.462  1.00  0.00    -0.248 NA
ATOM     41  C   UNL A   1      43.343  24.979  26.491  1.00  0.00     0.031 C 
ATOM     42  C   UNL A   1      39.279  26.387  29.141  1.00  0.00     0.029 A 
ATOM     43  N   UNL A   1      40.952  27.857  28.953  1.00  0.00    -0.354 N 
ATOM     44  C   UNL A   1      44.570  26.878  26.824  1.00  0.00     0.074 A 
ATOM     45  C   UNL A   1      44.522  25.545  26.269  1.00  0.00     0.031 C 
ATOM     46  C   UNL A   1      38.881  27.524  29.731  1.00  0.00     0.029 A 
ATOM     47  C   UNL A   1      39.948  28.513  29.628  1.00  0.00     0.049 A 
ATOM     48  H   UNL A   1      41.829  28.262  28.764  1.00  0.00     0.167 HD
ATOM     49  C   UNL A   1      45.620  27.721  26.688  1.00  0.00     0.034 A 
ATOM     50  C   UNL A   1      39.883  29.772  30.101  1.00  0.00     0.034 A 
ATOM     51  C   UNL A   1      45.645  29.073  27.172  1.00  0.00     0.049 A 
ATOM     52  C   UNL A   1      41.060  30.687  29.923  1.00  0.00     0.074 A 
ATOM     53  C   UNL A   1      46.654  30.011  27.036  1.00  0.00     0.029 A 
ATOM     54  N   UNL A   1      44.616  29.685  27.867  1.00  0.00    -0.354 N 
ATOM     55  N   UNL A   1      42.168  30.476  29.255  1.00  0.00    -0.248 NA
ATOM     56  C   UNL A   1      40.979  32.010  30.557  1.00  0.00     0.031 C 
ATOM     57  C   UNL A   1      46.234  31.195  27.647  1.00  0.00     0.029 A 
ATOM     58  C   UNL A   1      44.965  30.989  28.164  1.00  0.00     0.049 A 
ATOM     59  H   UNL A   1      43.764  29.257  28.112  1.00  0.00     0.167 HD
ATOM     60  C   UNL A   1      42.909  31.645  29.378  1.00  0.00     0.074 A 
ATOM     61  C   UNL A   1      42.119  32.567  30.165  1.00  0.00     0.031 C 
ATOM     62  C   UNL A   1      44.146  31.916  28.898  1.00  0.00     0.034 A 
BRANCH  49  63
ATOM     63  C   UNL A   1      46.825  27.251  25.921  1.00  0.00     0.023 A 
ATOM     64  C   UNL A   1      46.923  27.560  24.551  1.00  0.00     0.012 A 
ATOM     65  C   UNL A   1      47.915  26.648  26.579  1.00  0.00     0.148 A 
ATOM     66  C   UNL A   1      48.090  27.279  23.844  1.00  0.00     0.002 A 
ATOM     67  C   UNL A   1      49.085  26.392  25.874  1.00  0.00     0.091 A 
ATOM     68  F   UNL A   1      47.794  26.364  27.884  1.00  0.00    -0.205 F 
ATOM     69  C   UNL A   1      49.173  26.706  24.506  1.00  0.00     0.022 A 
BRANCH  67  70
ATOM     70  S   UNL A   1      50.558  25.706  26.638  1.00  0.00     0.127 S 
ATOM     71  O   UNL A   1      51.446  25.557  25.484  1.00  0.00    -0.237 OA
ATOM     72  O   UNL A   1      50.942  26.766  27.569  1.00  0.00    -0.237 OA
ATOM     73  O   UNL A   1      50.147  24.455  27.259  1.00  0.00    -0.744 OA
ENDBRANCH  67  70
ENDBRANCH  49  63
BRANCH  50  74
ATOM     74  C   UNL A   1      38.626  30.263  30.728  1.00  0.00     0.023 A 
ATOM     75  C   UNL A   1      38.442  30.092  32.113  1.00  0.00     0.012 A 
ATOM     76  C   UNL A   1      37.641  30.934  29.979  1.00  0.00     0.148 A 
ATOM     77  C   UNL A   1      37.294  30.572  32.742  1.00  0.00     0.002 A 
ATOM     78  C   UNL A   1      36.519  31.448  30.618  1.00  0.00     0.091 A 
ATOM     79  F   UNL A   1      37.832  31.071  28.659  1.00  0.00    -0.205 F 
ATOM     80  C   UNL A   1      36.338  31.258  31.998  1.00  0.00     0.022 A 
BRANCH  78  81
ATOM     81  S   UNL A   1      35.290  32.436  29.759  1.00  0.00     0.127 S 
ATOM     82  O   UNL A   1      36.096  33.545  29.258  1.00  0.00    -0.237 OA
ATOM     83  O   UNL A   1      34.816  31.505  28.734  1.00  0.00    -0.237 OA
ATOM     84  O   UNL A   1      34.292  32.780  30.763  1.00  0.00    -0.744 OA
ENDBRANCH  78  81
ENDBRANCH  50  74
BRANCH  62  85
ATOM     85  C   UNL A   1      44.744  33.261  29.193  1.00  0.00     0.023 A 
ATOM     86  C   UNL A   1      45.554  33.410  30.335  1.00  0.00     0.012 A 
ATOM     87  C   UNL A   1      44.632  34.317  28.269  1.00  0.00     0.148 A 
ATOM     88  C   UNL A   1      46.250  34.598  30.553  1.00  0.00     0.002 A 
ATOM     89  C   UNL A   1      45.353  35.487  28.477  1.00  0.00     0.091 A 
ATOM     90  F   UNL A   1      43.851  34.143  27.193  1.00  0.00    -0.205 F 
ATOM     91  C   UNL A   1      46.159  35.629  29.619  1.00  0.00     0.022 A 
BRANCH  89  92
ATOM     92  S   UNL A   1      45.366  36.842  27.299  1.00  0.00     0.127 S 
ATOM     93  O   UNL A   1      46.202  37.826  27.986  1.00  0.00    -0.237 OA
ATOM     94  O   UNL A   1      45.986  36.224  26.128  1.00  0.00    -0.237 OA
ATOM     95  O   UNL A   1      43.976  37.237  27.119  1.00  0.00    -0.744 OA
ENDBRANCH  89  92
ENDBRANCH  62  85
ENDBRANCH  36  37
ENDBRANCH  28  31
ENDBRANCH  26  27
ENDBRANCH   1  26
TORSDOF 15
ENDMDL
MODEL 2
REMARK VINA RESULT:     -13.2      5.003     10.689
REMARK SMILES Nc1nc2ccccc2nc1N1CCC(C(=O)NCCCNC(=O)c2ccc(-c3c4nc(c(-c5cccc(S(=O)(=O)[O-])c5F)c5ccc([nH]5)c(-c5cccc(S(=O)(=O)[O-])c5F)c5nc(c(-c6cccc(S(=O)(=O)[O-])c6F)c6ccc3[nH]6)C=C5)C=C4)cc2)CC1
REMARK SMILES IDX 20 1 19 2 18 3 16 4 17 5 15 7 12 8 13 9 89 10 14 11 88 12
REMARK SMILES IDX 11 13 2 14 3 15 4 16 10 17 5 18 9 19 6 20 8 21 7 22 1 23
REMARK SMILES IDX 21 26 22 27 23 28 24 30 25 31 26 32 87 33 27 34 86 35 28 36
REMARK SMILES IDX 29 37 30 38 80 39 31 40 85 41 79 42 81 43 32 44 84 45 78 46
REMARK SMILES IDX 77 47 33 49 65 50 45 51 64 52 46 53 49 54 63 55 82 56 47 57
REMARK SMILES IDX 48 58 62 60 83 61 50 62 34 63 35 64 43 65 36 66 38 67 44 68
REMARK SMILES IDX 37 69 39 70 40 71 41 72 42 73 66 74 67 75 75 76 68 77 70 78
REMARK SMILES IDX 76 79 69 80 71 81 72 82 73 83 74 84 51 85 52 86 60 87 53 88
REMARK SMILES IDX 55 89 61 90 54 91 56 92 57 93 58 94 59 95
REMARK H PARENT 18 6 1 24 1 25 22 29 81 48 49 59
REMARK Flexibility Score: inf
ROOT
ATOM      1  C   UNL A   1      32.601  29.462  24.951  1.00  0.00     0.042 C 
ENDROOT
BRANCH   1   2
ATOM      2  C   UNL A   1      32.686  27.976  24.627  1.00  0.00     0.117 C 
BRANCH   2   3
ATOM      3  N   UNL A   1      31.959  27.145  25.579  1.00  0.00    -0.356 N 
ATOM      4  C   UNL A   1      32.160  25.861  25.983  1.00  0.00     0.223 C 
ATOM      5  O   UNL A   1      31.402  25.403  26.842  1.00  0.00    -0.275 OA
ATOM      6  H   UNL A   1      31.189  27.590  26.003  1.00  0.00     0.163 HD
BRANCH   4   7
ATOM      7  C   UNL A   1      33.286  25.006  25.420  1.00  0.00     0.082 C 
ATOM      8  N   UNL A   1      34.182  22.380  24.827  1.00  0.00    -0.353 N 
ATOM      9  C   UNL A   1      34.803  23.029  25.960  1.00  0.00     0.119 C 
ATOM     10  C   UNL A   1      33.792  23.189  23.688  1.00  0.00     0.119 C 
ATOM     11  C   UNL A   1      33.900  24.117  26.509  1.00  0.00     0.035 C 
ATOM     12  C   UNL A   1      32.843  24.296  24.130  1.00  0.00     0.035 C 
BRANCH   8  13
ATOM     13  C   UNL A   1      33.804  21.050  24.914  1.00  0.00     0.172 A 
ATOM     14  C   UNL A   1      32.489  20.688  25.312  1.00  0.00     0.167 A 
ATOM     15  N   UNL A   1      32.076  19.410  25.394  1.00  0.00    -0.226 NA
ATOM     16  C   UNL A   1      32.970  18.472  25.044  1.00  0.00     0.091 A 
ATOM     17  N   UNL A   1      34.692  20.095  24.552  1.00  0.00    -0.225 NA
ATOM     18  C   UNL A   1      32.587  17.136  25.090  1.00  0.00     0.031 A 
ATOM     19  C   UNL A   1      34.281  18.808  24.626  1.00  0.00     0.091 A 
ATOM     20  C   UNL A   1      33.470  16.114  24.744  1.00  0.00     0.002 A 
ATOM     21  C   UNL A   1      35.153  17.777  24.289  1.00  0.00     0.031 A 
ATOM     22  C   UNL A   1      34.760  16.436  24.346  1.00  0.00     0.002 A 
BRANCH  14  23
ATOM     23  N   UNL A   1      31.527  21.647  25.627  1.00  0.00    -0.381 N 
ATOM     24  H   UNL A   1      30.575  21.400  25.650  1.00  0.00     0.158 HD
ATOM     25  H   UNL A   1      31.801  22.571  25.829  1.00  0.00     0.158 HD
ENDBRANCH  14  23
ENDBRANCH   8  13
ENDBRANCH   4   7
ENDBRANCH   2   3
ENDBRANCH   1   2
BRANCH   1  26
ATOM     26  C   UNL A   1      32.134  29.771  26.363  1.00  0.00     0.118 C 
BRANCH  26  27
ATOM     27  N   UNL A   1      31.949  31.193  26.613  1.00  0.00    -0.352 N 
ATOM     28  C   UNL A   1      32.776  32.091  27.251  1.00  0.00     0.251 C 
ATOM     29  H   UNL A   1      31.106  31.571  26.274  1.00  0.00     0.163 HD
ATOM     30  O   UNL A   1      32.369  33.228  27.478  1.00  0.00    -0.269 OA
BRANCH  28  31
ATOM     31  C   UNL A   1      34.126  31.677  27.699  1.00  0.00     0.039 A 
ATOM     32  C   UNL A   1      34.402  30.344  27.997  1.00  0.00     0.014 A 
ATOM     33  C   UNL A   1      35.124  32.644  27.852  1.00  0.00     0.014 A 
ATOM     34  C   UNL A   1      35.589  30.013  28.642  1.00  0.00     0.010 A 
ATOM     35  C   UNL A   1      36.361  32.289  28.402  1.00  0.00     0.010 A 
ATOM     36  C   UNL A   1      36.583  30.982  28.863  1.00  0.00    -0.014 A 
BRANCH  36  37
ATOM     37  C   UNL A   1      37.823  30.591  29.588  1.00  0.00     0.031 A 
ATOM     38  C   UNL A   1      38.052  31.008  31.020  1.00  0.00     0.074 A 
ATOM     39  C   UNL A   1      38.712  29.780  28.976  1.00  0.00     0.049 A 
ATOM     40  N   UNL A   1      39.029  30.671  31.824  1.00  0.00    -0.248 NA
ATOM     41  C   UNL A   1      37.067  31.914  31.636  1.00  0.00     0.031 C 
ATOM     42  C   UNL A   1      38.615  29.317  27.590  1.00  0.00     0.029 A 
ATOM     43  N   UNL A   1      39.845  29.164  29.449  1.00  0.00    -0.354 N 
ATOM     44  C   UNL A   1      38.800  31.348  33.016  1.00  0.00     0.074 A 
ATOM     45  C   UNL A   1      37.594  32.125  32.836  1.00  0.00     0.031 C 
ATOM     46  C   UNL A   1      39.593  28.431  27.350  1.00  0.00     0.029 A 
ATOM     47  C   UNL A   1      40.421  28.301  28.545  1.00  0.00     0.049 A 
ATOM     48  H   UNL A   1      40.210  29.325  30.349  1.00  0.00     0.167 HD
ATOM     49  C   UNL A   1      39.511  31.305  34.166  1.00  0.00     0.034 A 
ATOM     50  C   UNL A   1      41.486  27.486  28.663  1.00  0.00     0.034 A 
ATOM     51  C   UNL A   1      40.667  30.477  34.376  1.00  0.00     0.049 A 
ATOM     52  C   UNL A   1      42.247  27.452  29.956  1.00  0.00     0.074 A 
ATOM     53  C   UNL A   1      41.421  30.340  35.529  1.00  0.00     0.029 A 
ATOM     54  N   UNL A   1      41.225  29.639  33.426  1.00  0.00    -0.354 N 
ATOM     55  N   UNL A   1      41.967  28.050  31.088  1.00  0.00    -0.248 NA
ATOM     56  C   UNL A   1      43.466  26.631  29.991  1.00  0.00     0.031 C 
ATOM     57  C   UNL A   1      42.436  29.414  35.277  1.00  0.00     0.029 A 
ATOM     58  C   UNL A   1      42.312  28.979  33.967  1.00  0.00     0.049 A 
ATOM     59  H   UNL A   1      40.896  29.529  32.505  1.00  0.00     0.167 HD
ATOM     60  C   UNL A   1      42.966  27.667  31.974  1.00  0.00     0.074 A 
ATOM     61  C   UNL A   1      43.848  26.770  31.255  1.00  0.00     0.031 C 
ATOM     62  C   UNL A   1      43.147  28.046  33.260  1.00  0.00     0.034 A 
BRANCH  49  63
ATOM     63  C   UNL A   1      39.036  32.120  35.337  1.00  0.00     0.023 A 
ATOM     64  C   UNL A   1      38.151  31.531  36.261  1.00  0.00     0.012 A 
ATOM     65  C   UNL A   1      39.577  33.393  35.603  1.00  0.00     0.148 A 
ATOM     66  C   UNL A   1      37.812  32.198  37.437  1.00  0.00     0.002 A 
ATOM     67  C   UNL A   1      39.253  34.041  36.789  1.00  0.00     0.091 A 
ATOM     68  F   UNL A   1      40.417  33.929  34.705  1.00  0.00    -0.205 F 
ATOM     69  C   UNL A   1      38.370  33.445  37.706  1.00  0.00     0.022 A 
BRANCH  67  70
ATOM     70  S   UNL A   1      39.954  35.625  37.261  1.00  0.00     0.127 S 
ATOM     71  O   UNL A   1      41.368  35.286  37.421  1.00  0.00    -0.237 OA
ATOM     72  O   UNL A   1      39.653  36.453  36.094  1.00  0.00    -0.237 OA
ATOM     73  O   UNL A   1      39.276  36.018  38.489  1.00  0.00    -0.744 OA
ENDBRANCH  67  70
ENDBRANCH  49  63
BRANCH  50  74
ATOM     74  C   UNL A   1      41.852  26.580  27.541  1.00  0.00     0.023 A 
ATOM     75  C   UNL A   1      42.613  27.089  26.472  1.00  0.00     0.012 A 
ATOM     76  C   UNL A   1      41.494  25.218  27.545  1.00  0.00     0.148 A 
ATOM     77  C   UNL A   1      43.006  26.261  25.421  1.00  0.00     0.002 A 
ATOM     78  C   UNL A   1      41.924  24.388  26.517  1.00  0.00     0.091 A 
ATOM     79  F   UNL A   1      40.756  24.760  28.566  1.00  0.00    -0.205 F 
ATOM     80  C   UNL A   1      42.671  24.910  25.448  1.00  0.00     0.022 A 
BRANCH  78  81
ATOM     81  S   UNL A   1      41.631  22.616  26.523  1.00  0.00     0.127 S 
ATOM     82  O   UNL A   1      42.236  22.218  27.791  1.00  0.00    -0.237 OA
ATOM     83  O   UNL A   1      40.170  22.552  26.489  1.00  0.00    -0.237 OA
ATOM     84  O   UNL A   1      42.282  22.108  25.323  1.00  0.00    -0.744 OA
ENDBRANCH  78  81
ENDBRANCH  50  74
BRANCH  62  85
ATOM     85  C   UNL A   1      44.334  27.503  34.002  1.00  0.00     0.023 A 
ATOM     86  C   UNL A   1      45.530  28.246  34.010  1.00  0.00     0.012 A 
ATOM     87  C   UNL A   1      44.216  26.354  34.807  1.00  0.00     0.148 A 
ATOM     88  C   UNL A   1      46.597  27.851  34.814  1.00  0.00     0.002 A 
ATOM     89  C   UNL A   1      45.273  25.985  35.630  1.00  0.00     0.091 A 
ATOM     90  F   UNL A   1      43.064  25.668  34.775  1.00  0.00    -0.205 F 
ATOM     91  C   UNL A   1      46.464  26.730  35.632  1.00  0.00     0.022 A 
BRANCH  89  92
ATOM     92  S   UNL A   1      45.176  24.605  36.775  1.00  0.00     0.127 S 
ATOM     93  O   UNL A   1      45.049  23.469  35.863  1.00  0.00    -0.237 OA
ATOM     94  O   UNL A   1      46.461  24.691  37.469  1.00  0.00    -0.237 OA
ATOM     95  O   UNL A   1      44.011  24.854  37.613  1.00  0.00    -0.744 OA
ENDBRANCH  89  92
ENDBRANCH  62  85
ENDBRANCH  36  37
ENDBRANCH  28  31
ENDBRANCH  26  27
ENDBRANCH   1  26
TORSDOF 15
ENDMDL
MODEL 3
REMARK VINA RESULT:     -13.1      5.273     10.658
REMARK SMILES Nc1nc2ccccc2nc1N1CCC(C(=O)NCCCNC(=O)c2ccc(-c3c4nc(c(-c5cccc(S(=O)(=O)[O-])c5F)c5ccc([nH]5)c(-c5cccc(S(=O)(=O)[O-])c5F)c5nc(c(-c6cccc(S(=O)(=O)[O-])c6F)c6ccc3[nH]6)C=C5)C=C4)cc2)CC1
REMARK SMILES IDX 20 1 19 2 18 3 16 4 17 5 15 7 12 8 13 9 89 10 14 11 88 12
REMARK SMILES IDX 11 13 2 14 3 15 4 16 10 17 5 18 9 19 6 20 8 21 7 22 1 23
REMARK SMILES IDX 21 26 22 27 23 28 24 30 25 31 26 32 87 33 27 34 86 35 28 36
REMARK SMILES IDX 29 37 30 38 80 39 31 40 85 41 79 42 81 43 32 44 84 45 78 46
REMARK SMILES IDX 77 47 33 49 65 50 45 51 64 52 46 53 49 54 63 55 82 56 47 57
REMARK SMILES IDX 48 58 62 60 83 61 50 62 34 63 35 64 43 65 36 66 38 67 44 68
REMARK SMILES IDX 37 69 39 70 40 71 41 72 42 73 66 74 67 75 75 76 68 77 70 78
REMARK SMILES IDX 76 79 69 80 71 81 72 82 73 83 74 84 51 85 52 86 60 87 53 88
REMARK SMILES IDX 55 89 61 90 54 91 56 92 57 93 58 94 59 95
REMARK H PARENT 18 6 1 24 1 25 22 29 81 48 49 59
REMARK Flexibility Score: inf
ROOT
ATOM      1  C   UNL A   1      33.162  29.299  25.046  1.00  0.00     0.042 C 
ENDROOT
BRANCH   1   2
ATOM      2  C   UNL A   1      32.802  27.930  24.484  1.00  0.00     0.117 C 
BRANCH   2   3
ATOM      3  N   UNL A   1      32.004  27.130  25.405  1.00  0.00    -0.356 N 
ATOM      4  C   UNL A   1      32.161  25.853  25.849  1.00  0.00     0.223 C 
ATOM      5  O   UNL A   1      31.344  25.424  26.668  1.00  0.00    -0.275 OA
ATOM      6  H   UNL A   1      31.215  27.593  25.769  1.00  0.00     0.163 HD
BRANCH   4   7
ATOM      7  C   UNL A   1      33.310  24.972  25.378  1.00  0.00     0.082 C 
ATOM      8  N   UNL A   1      34.198  22.324  24.880  1.00  0.00    -0.353 N 
ATOM      9  C   UNL A   1      34.747  22.976  26.049  1.00  0.00     0.119 C 
ATOM     10  C   UNL A   1      33.906  23.126  23.707  1.00  0.00     0.119 C 
ATOM     11  C   UNL A   1      33.827  24.086  26.519  1.00  0.00     0.035 C 
ATOM     12  C   UNL A   1      32.948  24.255  24.068  1.00  0.00     0.035 C 
BRANCH   8  13
ATOM     13  C   UNL A   1      33.791  21.002  24.954  1.00  0.00     0.172 A 
ATOM     14  C   UNL A   1      32.463  20.666  25.331  1.00  0.00     0.167 A 
ATOM     15  N   UNL A   1      32.022  19.397  25.399  1.00  0.00    -0.226 NA
ATOM     16  C   UNL A   1      32.901  18.441  25.057  1.00  0.00     0.091 A 
ATOM     17  N   UNL A   1      34.663  20.030  24.598  1.00  0.00    -0.225 NA
ATOM     18  C   UNL A   1      32.488  17.114  25.089  1.00  0.00     0.031 A 
ATOM     19  C   UNL A   1      34.224  18.752  24.659  1.00  0.00     0.091 A 
ATOM     20  C   UNL A   1      33.354  16.076  24.749  1.00  0.00     0.002 A 
ATOM     21  C   UNL A   1      35.079  17.704  24.328  1.00  0.00     0.031 A 
ATOM     22  C   UNL A   1      34.657  16.371  24.372  1.00  0.00     0.002 A 
BRANCH  14  23
ATOM     23  N   UNL A   1      31.518  21.643  25.639  1.00  0.00    -0.381 N 
ATOM     24  H   UNL A   1      31.765  22.596  25.603  1.00  0.00     0.158 HD
ATOM     25  H   UNL A   1      30.603  21.381  25.891  1.00  0.00     0.158 HD
ENDBRANCH  14  23
ENDBRANCH   8  13
ENDBRANCH   4   7
ENDBRANCH   2   3
ENDBRANCH   1   2
BRANCH   1  26
ATOM     26  C   UNL A   1      32.636  29.560  26.447  1.00  0.00     0.118 C 
BRANCH  26  27
ATOM     27  N   UNL A   1      32.445  30.974  26.739  1.00  0.00    -0.352 N 
ATOM     28  C   UNL A   1      33.277  31.862  27.383  1.00  0.00     0.251 C 
ATOM     29  H   UNL A   1      31.591  31.353  26.429  1.00  0.00     0.163 HD
ATOM     30  O   UNL A   1      32.865  32.989  27.649  1.00  0.00    -0.269 OA
BRANCH  28  31
ATOM     31  C   UNL A   1      34.640  31.448  27.792  1.00  0.00     0.039 A 
ATOM     32  C   UNL A   1      34.918  30.121  28.111  1.00  0.00     0.014 A 
ATOM     33  C   UNL A   1      35.649  32.411  27.884  1.00  0.00     0.014 A 
ATOM     34  C   UNL A   1      36.126  29.797  28.720  1.00  0.00     0.010 A 
ATOM     35  C   UNL A   1      36.903  32.060  28.397  1.00  0.00     0.010 A 
ATOM     36  C   UNL A   1      37.134  30.763  28.880  1.00  0.00    -0.014 A 
BRANCH  36  37
ATOM     37  C   UNL A   1      38.397  30.380  29.568  1.00  0.00     0.031 A 
ATOM     38  C   UNL A   1      38.683  30.832  30.980  1.00  0.00     0.074 A 
ATOM     39  C   UNL A   1      39.256  29.545  28.946  1.00  0.00     0.049 A 
ATOM     40  N   UNL A   1      39.687  30.508  31.755  1.00  0.00    -0.248 NA
ATOM     41  C   UNL A   1      37.729  31.763  31.608  1.00  0.00     0.031 C 
ATOM     42  C   UNL A   1      39.103  29.048  27.576  1.00  0.00     0.029 A 
ATOM     43  N   UNL A   1      40.401  28.933  29.392  1.00  0.00    -0.354 N 
ATOM     44  C   UNL A   1      39.508  31.218  32.937  1.00  0.00     0.074 A 
ATOM     45  C   UNL A   1      38.303  32.000  32.781  1.00  0.00     0.031 C 
ATOM     46  C   UNL A   1      40.065  28.147  27.324  1.00  0.00     0.029 A 
ATOM     47  C   UNL A   1      40.935  28.041  28.490  1.00  0.00     0.049 A 
ATOM     48  H   UNL A   1      40.800  29.113  30.274  1.00  0.00     0.167 HD
ATOM     49  C   UNL A   1      40.262  31.199  34.060  1.00  0.00     0.034 A 
ATOM     50  C   UNL A   1      41.998  27.220  28.589  1.00  0.00     0.034 A 
ATOM     51  C   UNL A   1      41.418  30.366  34.248  1.00  0.00     0.049 A 
ATOM     52  C   UNL A   1      42.807  27.213  29.854  1.00  0.00     0.074 A 
ATOM     53  C   UNL A   1      42.214  30.253  35.375  1.00  0.00     0.029 A 
ATOM     54  N   UNL A   1      41.933  29.499  33.301  1.00  0.00    -0.354 N 
ATOM     55  N   UNL A   1      42.574  27.843  30.979  1.00  0.00    -0.248 NA
ATOM     56  C   UNL A   1      44.020  26.383  29.865  1.00  0.00     0.031 C 
ATOM     57  C   UNL A   1      43.211  29.312  35.110  1.00  0.00     0.029 A 
ATOM     58  C   UNL A   1      43.035  28.844  33.818  1.00  0.00     0.049 A 
ATOM     59  H   UNL A   1      41.569  29.367  32.396  1.00  0.00     0.167 HD
ATOM     60  C   UNL A   1      43.603  27.474  31.837  1.00  0.00     0.074 A 
ATOM     61  C   UNL A   1      44.450  26.551  31.110  1.00  0.00     0.031 C 
ATOM     62  C   UNL A   1      43.835  27.885  33.105  1.00  0.00     0.034 A 
BRANCH  49  63
ATOM     63  C   UNL A   1      39.838  32.048  35.226  1.00  0.00     0.023 A 
ATOM     64  C   UNL A   1      40.149  33.422  35.216  1.00  0.00     0.012 A 
ATOM     65  C   UNL A   1      39.011  31.527  36.240  1.00  0.00     0.148 A 
ATOM     66  C   UNL A   1      39.641  34.268  36.200  1.00  0.00     0.002 A 
ATOM     67  C   UNL A   1      38.488  32.382  37.203  1.00  0.00     0.091 A 
ATOM     68  F   UNL A   1      38.731  30.216  36.224  1.00  0.00    -0.205 F 
ATOM     69  C   UNL A   1      38.803  33.751  37.185  1.00  0.00     0.022 A 
BRANCH  67  70
ATOM     70  S   UNL A   1      37.357  31.834  38.487  1.00  0.00     0.127 S 
ATOM     71  O   UNL A   1      38.164  32.028  39.692  1.00  0.00    -0.237 OA
ATOM     72  O   UNL A   1      36.247  32.774  38.338  1.00  0.00    -0.237 OA
ATOM     73  O   UNL A   1      37.038  30.447  38.181  1.00  0.00    -0.744 OA
ENDBRANCH  67  70
ENDBRANCH  49  63
BRANCH  50  74
ATOM     74  C   UNL A   1      42.314  26.282  27.479  1.00  0.00     0.023 A 
ATOM     75  C   UNL A   1      43.132  26.725  26.422  1.00  0.00     0.012 A 
ATOM     76  C   UNL A   1      41.853  24.951  27.483  1.00  0.00     0.148 A 
ATOM     77  C   UNL A   1      43.480  25.863  25.383  1.00  0.00     0.002 A 
ATOM     78  C   UNL A   1      42.237  24.085  26.467  1.00  0.00     0.091 A 
ATOM     79  F   UNL A   1      41.063  24.557  28.492  1.00  0.00    -0.205 F 
ATOM     80  C   UNL A   1      43.042  24.541  25.410  1.00  0.00     0.022 A 
BRANCH  78  81
ATOM     81  S   UNL A   1      41.809  22.341  26.476  1.00  0.00     0.127 S 
ATOM     82  O   UNL A   1      42.447  21.871  25.249  1.00  0.00    -0.237 OA
ATOM     83  O   UNL A   1      42.438  21.881  27.714  1.00  0.00    -0.237 OA
ATOM     84  O   UNL A   1      40.353  22.295  26.490  1.00  0.00    -0.744 OA
ENDBRANCH  78  81
ENDBRANCH  50  74
BRANCH  62  85
ATOM     85  C   UNL A   1      45.045  27.351  33.816  1.00  0.00     0.023 A 
ATOM     86  C   UNL A   1      46.229  28.112  33.809  1.00  0.00     0.012 A 
ATOM     87  C   UNL A   1      44.961  26.191  34.609  1.00  0.00     0.148 A 
ATOM     88  C   UNL A   1      47.319  27.724  34.587  1.00  0.00     0.002 A 
ATOM     89  C   UNL A   1      46.040  25.828  35.405  1.00  0.00     0.091 A 
ATOM     90  F   UNL A   1      43.819  25.488  34.592  1.00  0.00    -0.205 F 
ATOM     91  C   UNL A   1      47.220  26.591  35.393  1.00  0.00     0.022 A 
BRANCH  89  92
ATOM     92  S   UNL A   1      45.987  24.433  36.535  1.00  0.00     0.127 S 
ATOM     93  O   UNL A   1      47.199  24.643  37.326  1.00  0.00    -0.237 OA
ATOM     94  O   UNL A   1      44.738  24.671  37.258  1.00  0.00    -0.237 OA
ATOM     95  O   UNL A   1      45.995  23.237  35.705  1.00  0.00    -0.744 OA
ENDBRANCH  89  92
ENDBRANCH  62  85
ENDBRANCH  36  37
ENDBRANCH  28  31
ENDBRANCH  26  27
ENDBRANCH   1  26
TORSDOF 15
ENDMDL
