MODEL 1
REMARK VINA RESULT:     -12.7      0.000      0.000
REMARK SMILES NC(=O)c1ccc(NC(=O)Cc2ccccc2C(=O)NCCCNC(=O)c2ccc(-c3c4nc(c(-c5cccc(S(=O)(=O)[O-])c5F)c5ccc([nH]5)c(-c5cccc(S(=O)(=O)[O-])c5F)c5nc(c(-c6cccc(S(=O)(=O)[O-])c6F)c6ccc3[nH]6)C=C5)C=C4)cc2)cc1
REMARK SMILES IDX 21 1 20 2 18 3 19 4 17 6 12 7 13 8 14 9 16 10 15 11 11 12
REMARK SMILES IDX 9 13 8 14 10 16 7 17 4 18 5 19 91 20 6 21 90 22 2 23 1 24
REMARK SMILES IDX 3 27 22 28 23 29 24 30 25 31 26 33 27 34 28 35 89 36 29 37
REMARK SMILES IDX 88 38 30 39 31 40 32 41 82 42 33 43 87 44 81 45 83 46 34 47
REMARK SMILES IDX 86 48 80 49 79 50 35 52 67 53 47 54 66 55 48 56 51 57 65 58
REMARK SMILES IDX 84 59 49 60 50 61 64 63 85 64 52 65 36 66 37 67 45 68 38 69
REMARK SMILES IDX 40 70 46 71 39 72 41 73 42 74 43 75 44 76 68 77 69 78 77 79
REMARK SMILES IDX 70 80 72 81 78 82 71 83 73 84 74 85 75 86 76 87 53 88 54 89
REMARK SMILES IDX 62 90 55 91 57 92 63 93 56 94 58 95 59 96 60 97 61 98
REMARK H PARENT 20 5 8 15 1 25 1 26 24 32 83 51 51 62
REMARK Flexibility Score: inf
ROOT
ATOM      1  C   UNL A   1      31.852  27.409  26.904  1.00  0.00     0.118 C 
ENDROOT
BRANCH   1   2
ATOM      2  N   UNL A   1      31.223  26.142  26.574  1.00  0.00    -0.352 N 
ATOM      3  C   UNL A   1      31.686  24.891  26.257  1.00  0.00     0.251 C 
ATOM      4  O   UNL A   1      30.832  24.004  26.174  1.00  0.00    -0.269 OA
ATOM      5  H   UNL A   1      30.240  26.192  26.580  1.00  0.00     0.163 HD
BRANCH   3   6
ATOM      6  C   UNL A   1      33.118  24.491  26.069  1.00  0.00     0.043 A 
ATOM      7  C   UNL A   1      34.008  24.944  25.063  1.00  0.00    -0.026 A 
ATOM      8  C   UNL A   1      35.250  24.287  24.936  1.00  0.00     0.005 A 
ATOM      9  C   UNL A   1      35.617  23.225  25.762  1.00  0.00     0.000 A 
ATOM     10  C   UNL A   1      33.500  23.396  26.876  1.00  0.00     0.014 A 
ATOM     11  C   UNL A   1      34.738  22.772  26.732  1.00  0.00     0.001 A 
BRANCH   7  12
ATOM     12  C   UNL A   1      33.657  26.098  24.158  1.00  0.00     0.136 C 
BRANCH  12  13
ATOM     13  C   UNL A   1      33.266  25.889  22.718  1.00  0.00     0.228 C 
ATOM     14  N   UNL A   1      32.067  26.255  22.182  1.00  0.00    -0.326 N 
ATOM     15  H   UNL A   1      31.898  25.866  21.294  1.00  0.00     0.169 HD
ATOM     16  O   UNL A   1      34.062  25.328  21.956  1.00  0.00    -0.274 OA
BRANCH  14  17
ATOM     17  C   UNL A   1      31.024  27.075  22.642  1.00  0.00     0.041 A 
ATOM     18  C   UNL A   1      28.592  28.370  23.177  1.00  0.00     0.039 A 
ATOM     19  C   UNL A   1      29.663  29.077  22.623  1.00  0.00     0.016 A 
ATOM     20  C   UNL A   1      28.770  27.036  23.556  1.00  0.00     0.016 A 
ATOM     21  C   UNL A   1      30.881  28.435  22.373  1.00  0.00     0.027 A 
ATOM     22  C   UNL A   1      29.991  26.405  23.312  1.00  0.00     0.027 A 
BRANCH  18  23
ATOM     23  C   UNL A   1      27.270  29.031  23.268  1.00  0.00     0.248 C 
ATOM     24  N   UNL A   1      26.167  28.231  23.280  1.00  0.00    -0.366 N 
ATOM     25  H   UNL A   1      25.270  28.631  23.340  1.00  0.00     0.159 HD
ATOM     26  H   UNL A   1      26.268  27.254  23.228  1.00  0.00     0.159 HD
ATOM     27  O   UNL A   1      27.168  30.255  23.335  1.00  0.00    -0.270 OA
ENDBRANCH  18  23
ENDBRANCH  14  17
ENDBRANCH  12  13
ENDBRANCH   7  12
ENDBRANCH   3   6
ENDBRANCH   1   2
BRANCH   1  28
ATOM     28  C   UNL A   1      31.416  28.525  25.947  1.00  0.00     0.042 C 
BRANCH  28  29
ATOM     29  C   UNL A   1      32.526  29.482  25.524  1.00  0.00     0.118 C 
BRANCH  29  30
ATOM     30  N   UNL A   1      32.217  30.857  25.872  1.00  0.00    -0.352 N 
ATOM     31  C   UNL A   1      32.729  31.660  26.864  1.00  0.00     0.251 C 
ATOM     32  H   UNL A   1      31.532  31.282  25.307  1.00  0.00     0.163 HD
ATOM     33  O   UNL A   1      32.144  32.710  27.124  1.00  0.00    -0.269 OA
BRANCH  31  34
ATOM     34  C   UNL A   1      33.952  31.292  27.628  1.00  0.00     0.039 A 
ATOM     35  C   UNL A   1      34.866  32.304  27.947  1.00  0.00     0.014 A 
ATOM     36  C   UNL A   1      34.257  29.971  27.966  1.00  0.00     0.014 A 
ATOM     37  C   UNL A   1      36.053  31.999  28.627  1.00  0.00     0.010 A 
ATOM     38  C   UNL A   1      35.400  29.679  28.718  1.00  0.00     0.010 A 
ATOM     39  C   UNL A   1      36.324  30.683  29.036  1.00  0.00    -0.014 A 
BRANCH  39  40
ATOM     40  C   UNL A   1      37.576  30.345  29.768  1.00  0.00     0.031 A 
ATOM     41  C   UNL A   1      38.600  29.425  29.149  1.00  0.00     0.074 A 
ATOM     42  C   UNL A   1      37.772  30.813  31.018  1.00  0.00     0.049 A 
ATOM     43  N   UNL A   1      39.734  28.997  29.644  1.00  0.00    -0.248 NA
ATOM     44  C   UNL A   1      38.301  28.899  27.807  1.00  0.00     0.031 C 
ATOM     45  C   UNL A   1      36.831  31.649  31.764  1.00  0.00     0.029 A 
ATOM     46  N   UNL A   1      38.819  30.636  31.890  1.00  0.00    -0.354 N 
ATOM     47  C   UNL A   1      40.262  28.127  28.698  1.00  0.00     0.074 A 
ATOM     48  C   UNL A   1      39.309  28.060  27.611  1.00  0.00     0.031 C 
ATOM     49  C   UNL A   1      37.344  31.919  32.974  1.00  0.00     0.029 A 
ATOM     50  C   UNL A   1      38.639  31.258  33.104  1.00  0.00     0.049 A 
ATOM     51  H   UNL A   1      39.623  30.113  31.668  1.00  0.00     0.167 HD
ATOM     52  C   UNL A   1      41.446  27.467  28.709  1.00  0.00     0.034 A 
ATOM     53  C   UNL A   1      39.426  31.294  34.198  1.00  0.00     0.034 A 
ATOM     54  C   UNL A   1      42.419  27.574  29.763  1.00  0.00     0.049 A 
ATOM     55  C   UNL A   1      40.759  30.595  34.165  1.00  0.00     0.074 A 
ATOM     56  C   UNL A   1      43.684  27.017  29.828  1.00  0.00     0.029 A 
ATOM     57  N   UNL A   1      42.236  28.286  30.939  1.00  0.00    -0.354 N 
ATOM     58  N   UNL A   1      41.309  29.909  33.193  1.00  0.00    -0.248 NA
ATOM     59  C   UNL A   1      41.599  30.708  35.368  1.00  0.00     0.031 C 
ATOM     60  C   UNL A   1      44.260  27.380  31.050  1.00  0.00     0.029 A 
ATOM     61  C   UNL A   1      43.362  28.179  31.737  1.00  0.00     0.049 A 
ATOM     62  H   UNL A   1      41.425  28.794  31.171  1.00  0.00     0.167 HD
ATOM     63  C   UNL A   1      42.569  29.538  33.650  1.00  0.00     0.074 A 
ATOM     64  C   UNL A   1      42.711  30.096  34.980  1.00  0.00     0.031 C 
ATOM     65  C   UNL A   1      43.515  28.788  33.034  1.00  0.00     0.034 A 
BRANCH  52  66
ATOM     66  C   UNL A   1      41.789  26.620  27.510  1.00  0.00     0.023 A 
ATOM     67  C   UNL A   1      42.390  27.223  26.385  1.00  0.00     0.012 A 
ATOM     68  C   UNL A   1      41.576  25.227  27.514  1.00  0.00     0.148 A 
ATOM     69  C   UNL A   1      42.740  26.463  25.271  1.00  0.00     0.002 A 
ATOM     70  C   UNL A   1      41.969  24.468  26.415  1.00  0.00     0.091 A 
ATOM     71  F   UNL A   1      40.988  24.672  28.582  1.00  0.00    -0.205 F 
ATOM     72  C   UNL A   1      42.540  25.085  25.289  1.00  0.00     0.022 A 
BRANCH  70  73
ATOM     73  S   UNL A   1      41.825  22.678  26.371  1.00  0.00     0.127 S 
ATOM     74  O   UNL A   1      42.386  22.305  27.670  1.00  0.00    -0.237 OA
ATOM     75  O   UNL A   1      40.380  22.486  26.254  1.00  0.00    -0.237 OA
ATOM     76  O   UNL A   1      42.591  22.243  25.211  1.00  0.00    -0.744 OA
ENDBRANCH  70  73
ENDBRANCH  52  66
BRANCH  53  77
ATOM     77  C   UNL A   1      39.011  32.093  35.387  1.00  0.00     0.023 A 
ATOM     78  C   UNL A   1      39.264  33.479  35.407  1.00  0.00     0.012 A 
ATOM     79  C   UNL A   1      38.344  31.504  36.478  1.00  0.00     0.148 A 
ATOM     80  C   UNL A   1      38.889  34.258  36.502  1.00  0.00     0.002 A 
ATOM     81  C   UNL A   1      37.923  32.295  37.542  1.00  0.00     0.091 A 
ATOM     82  F   UNL A   1      38.125  30.181  36.450  1.00  0.00    -0.205 F 
ATOM     83  C   UNL A   1      38.209  33.669  37.564  1.00  0.00     0.022 A 
BRANCH  81  84
ATOM     84  S   UNL A   1      36.924  31.648  38.888  1.00  0.00     0.127 S 
ATOM     85  O   UNL A   1      36.822  30.235  38.533  1.00  0.00    -0.237 OA
ATOM     86  O   UNL A   1      37.765  31.930  40.054  1.00  0.00    -0.237 OA
ATOM     87  O   UNL A   1      35.680  32.404  38.853  1.00  0.00    -0.744 OA
ENDBRANCH  81  84
ENDBRANCH  53  77
BRANCH  65  88
ATOM     88  C   UNL A   1      44.806  28.546  33.770  1.00  0.00     0.023 A 
ATOM     89  C   UNL A   1      45.869  29.462  33.634  1.00  0.00     0.012 A 
ATOM     90  C   UNL A   1      44.943  27.455  34.651  1.00  0.00     0.148 A 
ATOM     91  C   UNL A   1      47.058  29.278  34.339  1.00  0.00     0.002 A 
ATOM     92  C   UNL A   1      46.113  27.305  35.386  1.00  0.00     0.091 A 
ATOM     93  F   UNL A   1      43.929  26.584  34.753  1.00  0.00    -0.205 F 
ATOM     94  C   UNL A   1      47.176  28.208  35.222  1.00  0.00     0.022 A 
BRANCH  92  95
ATOM     95  S   UNL A   1      46.315  26.010  36.615  1.00  0.00     0.127 S 
ATOM     96  O   UNL A   1      45.122  26.192  37.439  1.00  0.00    -0.237 OA
ATOM     97  O   UNL A   1      46.310  24.796  35.795  1.00  0.00    -0.237 OA
ATOM     98  O   UNL A   1      47.583  26.282  37.277  1.00  0.00    -0.744 OA
ENDBRANCH  92  95
ENDBRANCH  65  88
ENDBRANCH  39  40
ENDBRANCH  31  34
ENDBRANCH  29  30
ENDBRANCH  28  29
ENDBRANCH   1  28
TORSDOF 17
ENDMDL
MODEL 2
REMARK VINA RESULT:     -12.6      2.484      3.432
REMARK SMILES NC(=O)c1ccc(NC(=O)Cc2ccccc2C(=O)NCCCNC(=O)c2ccc(-c3c4nc(c(-c5cccc(S(=O)(=O)[O-])c5F)c5ccc([nH]5)c(-c5cccc(S(=O)(=O)[O-])c5F)c5nc(c(-c6cccc(S(=O)(=O)[O-])c6F)c6ccc3[nH]6)C=C5)C=C4)cc2)cc1
REMARK SMILES IDX 21 1 20 2 18 3 19 4 17 6 12 7 13 8 14 9 16 10 15 11 11 12
REMARK SMILES IDX 9 13 8 14 10 16 7 17 4 18 5 19 91 20 6 21 90 22 2 23 1 24
REMARK SMILES IDX 3 27 22 28 23 29 24 30 25 31 26 33 27 34 28 35 89 36 29 37
REMARK SMILES IDX 88 38 30 39 31 40 32 41 82 42 33 43 87 44 81 45 83 46 34 47
REMARK SMILES IDX 86 48 80 49 79 50 35 52 67 53 47 54 66 55 48 56 51 57 65 58
REMARK SMILES IDX 84 59 49 60 50 61 64 63 85 64 52 65 36 66 37 67 45 68 38 69
REMARK SMILES IDX 40 70 46 71 39 72 41 73 42 74 43 75 44 76 68 77 69 78 77 79
REMARK SMILES IDX 70 80 72 81 78 82 71 83 73 84 74 85 75 86 76 87 53 88 54 89
REMARK SMILES IDX 62 90 55 91 57 92 63 93 56 94 58 95 59 96 60 97 61 98
REMARK H PARENT 20 5 8 15 1 25 1 26 24 32 83 51 51 62
REMARK Flexibility Score: inf
ROOT
ATOM      1  C   UNL A   1      31.239  31.024  25.777  1.00  0.00     0.118 C 
ENDROOT
BRANCH   1   2
ATOM      2  N   UNL A   1      32.270  30.160  26.324  1.00  0.00    -0.352 N 
ATOM      3  C   UNL A   1      33.074  29.176  25.810  1.00  0.00     0.251 C 
ATOM      4  O   UNL A   1      33.954  28.749  26.564  1.00  0.00    -0.269 OA
ATOM      5  H   UNL A   1      32.428  30.317  27.283  1.00  0.00     0.163 HD
BRANCH   3   6
ATOM      6  C   UNL A   1      33.031  28.626  24.418  1.00  0.00     0.043 A 
ATOM      7  C   UNL A   1      32.088  27.708  23.889  1.00  0.00    -0.026 A 
ATOM      8  C   UNL A   1      32.346  27.155  22.618  1.00  0.00     0.005 A 
ATOM      9  C   UNL A   1      33.484  27.485  21.881  1.00  0.00     0.000 A 
ATOM     10  C   UNL A   1      34.189  28.924  23.665  1.00  0.00     0.014 A 
ATOM     11  C   UNL A   1      34.413  28.367  22.406  1.00  0.00     0.001 A 
BRANCH   7  12
ATOM     12  C   UNL A   1      30.839  27.335  24.647  1.00  0.00     0.136 C 
BRANCH  12  13
ATOM     13  C   UNL A   1      29.681  26.640  23.978  1.00  0.00     0.228 C 
ATOM     14  N   UNL A   1      28.622  27.280  23.406  1.00  0.00    -0.326 N 
ATOM     15  H   UNL A   1      27.866  26.685  23.202  1.00  0.00     0.169 HD
ATOM     16  O   UNL A   1      29.655  25.404  23.956  1.00  0.00    -0.274 OA
BRANCH  14  17
ATOM     17  C   UNL A   1      28.393  28.619  23.050  1.00  0.00     0.041 A 
ATOM     18  C   UNL A   1      28.499  31.385  22.586  1.00  0.00     0.039 A 
ATOM     19  C   UNL A   1      27.509  30.844  23.410  1.00  0.00     0.016 A 
ATOM     20  C   UNL A   1      29.377  30.532  21.913  1.00  0.00     0.016 A 
ATOM     21  C   UNL A   1      27.445  29.463  23.627  1.00  0.00     0.027 A 
ATOM     22  C   UNL A   1      29.302  29.153  22.126  1.00  0.00     0.027 A 
BRANCH  18  23
ATOM     23  C   UNL A   1      28.644  32.858  22.515  1.00  0.00     0.248 C 
ATOM     24  N   UNL A   1      29.511  33.446  23.386  1.00  0.00    -0.366 N 
ATOM     25  H   UNL A   1      29.636  34.422  23.370  1.00  0.00     0.159 HD
ATOM     26  H   UNL A   1      30.011  32.895  24.029  1.00  0.00     0.159 HD
ATOM     27  O   UNL A   1      28.011  33.526  21.699  1.00  0.00    -0.270 OA
ENDBRANCH  18  23
ENDBRANCH  14  17
ENDBRANCH  12  13
ENDBRANCH   7  12
ENDBRANCH   3   6
ENDBRANCH   1   2
BRANCH   1  28
ATOM     28  C   UNL A   1      31.194  32.379  26.493  1.00  0.00     0.042 C 
BRANCH  28  29
ATOM     29  C   UNL A   1      32.486  32.780  27.197  1.00  0.00     0.118 C 
BRANCH  29  30
ATOM     30  N   UNL A   1      32.458  34.165  27.633  1.00  0.00    -0.352 N 
ATOM     31  C   UNL A   1      33.156  34.795  28.636  1.00  0.00     0.251 C 
ATOM     32  H   UNL A   1      31.840  34.744  27.131  1.00  0.00     0.163 HD
ATOM     33  O   UNL A   1      32.792  35.918  28.983  1.00  0.00    -0.269 OA
BRANCH  31  34
ATOM     34  C   UNL A   1      34.321  34.161  29.309  1.00  0.00     0.039 A 
ATOM     35  C   UNL A   1      34.076  33.244  30.339  1.00  0.00     0.014 A 
ATOM     36  C   UNL A   1      35.642  34.504  29.008  1.00  0.00     0.014 A 
ATOM     37  C   UNL A   1      35.141  32.654  31.033  1.00  0.00     0.010 A 
ATOM     38  C   UNL A   1      36.704  33.853  29.642  1.00  0.00     0.010 A 
ATOM     39  C   UNL A   1      36.469  32.940  30.679  1.00  0.00    -0.014 A 
BRANCH  39  40
ATOM     40  C   UNL A   1      37.612  32.313  31.399  1.00  0.00     0.031 A 
ATOM     41  C   UNL A   1      38.381  31.175  30.771  1.00  0.00     0.074 A 
ATOM     42  C   UNL A   1      37.928  32.721  32.645  1.00  0.00     0.049 A 
ATOM     43  N   UNL A   1      39.386  30.490  31.257  1.00  0.00    -0.248 NA
ATOM     44  C   UNL A   1      37.951  30.735  29.434  1.00  0.00     0.031 C 
ATOM     45  C   UNL A   1      37.221  33.757  33.398  1.00  0.00     0.029 A 
ATOM     46  N   UNL A   1      38.912  32.301  33.506  1.00  0.00    -0.354 N 
ATOM     47  C   UNL A   1      39.681  29.518  30.307  1.00  0.00     0.074 A 
ATOM     48  C   UNL A   1      38.728  29.680  29.230  1.00  0.00     0.031 C 
ATOM     49  C   UNL A   1      37.797  33.899  34.602  1.00  0.00     0.029 A 
ATOM     50  C   UNL A   1      38.899  32.948  34.721  1.00  0.00     0.049 A 
ATOM     51  H   UNL A   1      39.566  31.601  33.277  1.00  0.00     0.167 HD
ATOM     52  C   UNL A   1      40.674  28.596  30.308  1.00  0.00     0.034 A 
ATOM     53  C   UNL A   1      39.683  32.796  35.806  1.00  0.00     0.034 A 
ATOM     54  C   UNL A   1      41.656  28.468  31.351  1.00  0.00     0.049 A 
ATOM     55  C   UNL A   1      40.811  31.799  35.762  1.00  0.00     0.074 A 
ATOM     56  C   UNL A   1      42.752  27.626  31.405  1.00  0.00     0.029 A 
ATOM     57  N   UNL A   1      41.661  29.204  32.527  1.00  0.00    -0.354 N 
ATOM     58  N   UNL A   1      41.171  31.001  34.786  1.00  0.00    -0.248 NA
ATOM     59  C   UNL A   1      41.667  31.709  36.955  1.00  0.00     0.031 C 
ATOM     60  C   UNL A   1      43.412  27.841  32.619  1.00  0.00     0.029 A 
ATOM     61  C   UNL A   1      42.737  28.832  33.313  1.00  0.00     0.049 A 
ATOM     62  H   UNL A   1      40.996  29.890  32.766  1.00  0.00     0.167 HD
ATOM     63  C   UNL A   1      42.311  30.341  35.231  1.00  0.00     0.074 A 
ATOM     64  C   UNL A   1      42.597  30.850  36.557  1.00  0.00     0.031 C 
ATOM     65  C   UNL A   1      43.045  29.387  34.607  1.00  0.00     0.034 A 
BRANCH  52  66
ATOM     66  C   UNL A   1      40.792  27.690  29.108  1.00  0.00     0.023 A 
ATOM     67  C   UNL A   1      39.979  26.540  29.026  1.00  0.00     0.012 A 
ATOM     68  C   UNL A   1      41.656  28.001  28.039  1.00  0.00     0.148 A 
ATOM     69  C   UNL A   1      40.048  25.696  27.919  1.00  0.00     0.002 A 
ATOM     70  C   UNL A   1      41.687  27.177  26.918  1.00  0.00     0.091 A 
ATOM     71  F   UNL A   1      42.435  29.086  28.141  1.00  0.00    -0.205 F 
ATOM     72  C   UNL A   1      40.894  26.019  26.862  1.00  0.00     0.022 A 
BRANCH  70  73
ATOM     73  S   UNL A   1      42.684  27.547  25.470  1.00  0.00     0.127 S 
ATOM     74  O   UNL A   1      42.044  28.766  24.975  1.00  0.00    -0.237 OA
ATOM     75  O   UNL A   1      44.012  27.749  26.051  1.00  0.00    -0.237 OA
ATOM     76  O   UNL A   1      42.573  26.385  24.600  1.00  0.00    -0.744 OA
ENDBRANCH  70  73
ENDBRANCH  52  66
BRANCH  53  77
ATOM     77  C   UNL A   1      39.484  33.671  36.997  1.00  0.00     0.023 A 
ATOM     78  C   UNL A   1      39.913  35.012  36.945  1.00  0.00     0.012 A 
ATOM     79  C   UNL A   1      38.848  33.201  38.162  1.00  0.00     0.148 A 
ATOM     80  C   UNL A   1      39.742  35.860  38.040  1.00  0.00     0.002 A 
ATOM     81  C   UNL A   1      38.630  34.067  39.230  1.00  0.00     0.091 A 
ATOM     82  F   UNL A   1      38.459  31.918  38.201  1.00  0.00    -0.205 F 
ATOM     83  C   UNL A   1      39.091  35.391  39.177  1.00  0.00     0.022 A 
BRANCH  81  84
ATOM     84  S   UNL A   1      37.682  33.589  40.679  1.00  0.00     0.127 S 
ATOM     85  O   UNL A   1      37.617  34.844  41.423  1.00  0.00    -0.237 OA
ATOM     86  O   UNL A   1      36.414  33.159  40.085  1.00  0.00    -0.237 OA
ATOM     87  O   UNL A   1      38.439  32.516  41.308  1.00  0.00    -0.744 OA
ENDBRANCH  81  84
ENDBRANCH  53  77
BRANCH  65  88
ATOM     88  C   UNL A   1      44.249  28.845  35.330  1.00  0.00     0.023 A 
ATOM     89  C   UNL A   1      45.512  29.434  35.121  1.00  0.00     0.012 A 
ATOM     90  C   UNL A   1      44.120  27.803  36.269  1.00  0.00     0.148 A 
ATOM     91  C   UNL A   1      46.632  28.974  35.812  1.00  0.00     0.002 A 
ATOM     92  C   UNL A   1      45.232  27.381  36.988  1.00  0.00     0.091 A 
ATOM     93  F   UNL A   1      42.915  27.241  36.441  1.00  0.00    -0.205 F 
ATOM     94  C   UNL A   1      46.491  27.957  36.752  1.00  0.00     0.022 A 
BRANCH  92  95
ATOM     95  S   UNL A   1      45.123  26.143  38.285  1.00  0.00     0.127 S 
ATOM     96  O   UNL A   1      43.958  26.601  39.039  1.00  0.00    -0.237 OA
ATOM     97  O   UNL A   1      44.910  24.910  37.525  1.00  0.00    -0.237 OA
ATOM     98  O   UNL A   1      46.393  26.197  38.997  1.00  0.00    -0.744 OA
ENDBRANCH  92  95
ENDBRANCH  65  88
ENDBRANCH  39  40
ENDBRANCH  31  34
ENDBRANCH  29  30
ENDBRANCH  28  29
ENDBRANCH   1  28
TORSDOF 17
ENDMDL
MODEL 3
REMARK VINA RESULT:     -12.6      1.894      8.085
REMARK SMILES NC(=O)c1ccc(NC(=O)Cc2ccccc2C(=O)NCCCNC(=O)c2ccc(-c3c4nc(c(-c5cccc(S(=O)(=O)[O-])c5F)c5ccc([nH]5)c(-c5cccc(S(=O)(=O)[O-])c5F)c5nc(c(-c6cccc(S(=O)(=O)[O-])c6F)c6ccc3[nH]6)C=C5)C=C4)cc2)cc1
REMARK SMILES IDX 21 1 20 2 18 3 19 4 17 6 12 7 13 8 14 9 16 10 15 11 11 12
REMARK SMILES IDX 9 13 8 14 10 16 7 17 4 18 5 19 91 20 6 21 90 22 2 23 1 24
REMARK SMILES IDX 3 27 22 28 23 29 24 30 25 31 26 33 27 34 28 35 89 36 29 37
REMARK SMILES IDX 88 38 30 39 31 40 32 41 82 42 33 43 87 44 81 45 83 46 34 47
REMARK SMILES IDX 86 48 80 49 79 50 35 52 67 53 47 54 66 55 48 56 51 57 65 58
REMARK SMILES IDX 84 59 49 60 50 61 64 63 85 64 52 65 36 66 37 67 45 68 38 69
REMARK SMILES IDX 40 70 46 71 39 72 41 73 42 74 43 75 44 76 68 77 69 78 77 79
REMARK SMILES IDX 70 80 72 81 78 82 71 83 73 84 74 85 75 86 76 87 53 88 54 89
REMARK SMILES IDX 62 90 55 91 57 92 63 93 56 94 58 95 59 96 60 97 61 98
REMARK H PARENT 20 5 8 15 1 25 1 26 24 32 83 51 51 62
REMARK Flexibility Score: inf
ROOT
ATOM      1  C   UNL A   1      33.623  27.993  24.397  1.00  0.00     0.118 C 
ENDROOT
BRANCH   1   2
ATOM      2  N   UNL A   1      32.966  27.019  25.251  1.00  0.00    -0.352 N 
ATOM      3  C   UNL A   1      33.180  25.697  25.543  1.00  0.00     0.251 C 
ATOM      4  O   UNL A   1      32.484  25.224  26.446  1.00  0.00    -0.269 OA
ATOM      5  H   UNL A   1      32.192  27.393  25.729  1.00  0.00     0.163 HD
BRANCH   3   6
ATOM      6  C   UNL A   1      34.209  24.801  24.924  1.00  0.00     0.043 A 
ATOM      7  C   UNL A   1      34.289  24.399  23.567  1.00  0.00    -0.026 A 
ATOM      8  C   UNL A   1      35.211  23.386  23.232  1.00  0.00     0.005 A 
ATOM      9  C   UNL A   1      36.033  22.784  24.185  1.00  0.00     0.000 A 
ATOM     10  C   UNL A   1      35.032  24.159  25.876  1.00  0.00     0.014 A 
ATOM     11  C   UNL A   1      35.941  23.165  25.513  1.00  0.00     0.001 A 
BRANCH   7  12
ATOM     12  C   UNL A   1      33.428  25.033  22.503  1.00  0.00     0.136 C 
BRANCH  12  13
ATOM     13  C   UNL A   1      31.924  25.052  22.603  1.00  0.00     0.228 C 
ATOM     14  N   UNL A   1      31.155  23.960  22.878  1.00  0.00    -0.326 N 
ATOM     15  H   UNL A   1      30.197  24.100  22.704  1.00  0.00     0.169 HD
ATOM     16  O   UNL A   1      31.322  26.113  22.402  1.00  0.00    -0.274 OA
BRANCH  14  17
ATOM     17  C   UNL A   1      31.455  22.675  23.359  1.00  0.00     0.041 A 
ATOM     18  C   UNL A   1      32.505  20.404  24.631  1.00  0.00     0.039 A 
ATOM     19  C   UNL A   1      32.512  20.500  23.237  1.00  0.00     0.016 A 
ATOM     20  C   UNL A   1      31.883  21.401  25.387  1.00  0.00     0.016 A 
ATOM     21  C   UNL A   1      31.972  21.624  22.602  1.00  0.00     0.027 A 
ATOM     22  C   UNL A   1      31.337  22.516  24.747  1.00  0.00     0.027 A 
BRANCH  18  23
ATOM     23  C   UNL A   1      33.235  19.287  25.275  1.00  0.00     0.248 C 
ATOM     24  N   UNL A   1      32.931  19.003  26.572  1.00  0.00    -0.366 N 
ATOM     25  H   UNL A   1      33.394  18.268  27.035  1.00  0.00     0.159 HD
ATOM     26  H   UNL A   1      32.250  19.533  27.045  1.00  0.00     0.159 HD
ATOM     27  O   UNL A   1      34.080  18.636  24.662  1.00  0.00    -0.270 OA
ENDBRANCH  18  23
ENDBRANCH  14  17
ENDBRANCH  12  13
ENDBRANCH   7  12
ENDBRANCH   3   6
ENDBRANCH   1   2
BRANCH   1  28
ATOM     28  C   UNL A   1      33.204  29.427  24.746  1.00  0.00     0.042 C 
BRANCH  28  29
ATOM     29  C   UNL A   1      32.924  29.676  26.224  1.00  0.00     0.118 C 
BRANCH  29  30
ATOM     30  N   UNL A   1      32.819  31.093  26.524  1.00  0.00    -0.352 N 
ATOM     31  C   UNL A   1      33.548  31.874  27.389  1.00  0.00     0.251 C 
ATOM     32  H   UNL A   1      32.114  31.570  26.029  1.00  0.00     0.163 HD
ATOM     33  O   UNL A   1      33.124  32.997  27.659  1.00  0.00    -0.269 OA
BRANCH  31  34
ATOM     34  C   UNL A   1      34.816  31.401  28.008  1.00  0.00     0.039 A 
ATOM     35  C   UNL A   1      34.825  30.145  28.628  1.00  0.00     0.014 A 
ATOM     36  C   UNL A   1      35.966  32.192  28.061  1.00  0.00     0.014 A 
ATOM     37  C   UNL A   1      35.983  29.677  29.263  1.00  0.00     0.010 A 
ATOM     38  C   UNL A   1      37.145  31.690  28.620  1.00  0.00     0.010 A 
ATOM     39  C   UNL A   1      37.163  30.438  29.250  1.00  0.00    -0.014 A 
BRANCH  39  40
ATOM     40  C   UNL A   1      38.405  29.948  29.911  1.00  0.00     0.031 A 
ATOM     41  C   UNL A   1      38.797  30.458  31.277  1.00  0.00     0.074 A 
ATOM     42  C   UNL A   1      39.219  29.091  29.263  1.00  0.00     0.049 A 
ATOM     43  N   UNL A   1      39.852  30.168  31.996  1.00  0.00    -0.248 NA
ATOM     44  C   UNL A   1      37.898  31.439  31.908  1.00  0.00     0.031 C 
ATOM     45  C   UNL A   1      39.000  28.577  27.910  1.00  0.00     0.029 A 
ATOM     46  N   UNL A   1      40.405  28.514  29.646  1.00  0.00    -0.354 N 
ATOM     47  C   UNL A   1      39.764  30.954  33.140  1.00  0.00     0.074 A 
ATOM     48  C   UNL A   1      38.569  31.759  33.005  1.00  0.00     0.031 C 
ATOM     49  C   UNL A   1      40.010  27.757  27.580  1.00  0.00     0.029 A 
ATOM     50  C   UNL A   1      40.963  27.703  28.684  1.00  0.00     0.049 A 
ATOM     51  H   UNL A   1      40.819  28.666  30.527  1.00  0.00     0.167 HD
ATOM     52  C   UNL A   1      40.580  30.983  34.222  1.00  0.00     0.034 A 
ATOM     53  C   UNL A   1      42.111  26.995  28.689  1.00  0.00     0.034 A 
ATOM     54  C   UNL A   1      41.737  30.144  34.382  1.00  0.00     0.049 A 
ATOM     55  C   UNL A   1      42.973  27.004  29.924  1.00  0.00     0.074 A 
ATOM     56  C   UNL A   1      42.577  30.035  35.476  1.00  0.00     0.029 A 
ATOM     57  N   UNL A   1      42.220  29.270  33.420  1.00  0.00    -0.354 N 
ATOM     58  N   UNL A   1      42.784  27.633  31.058  1.00  0.00    -0.248 NA
ATOM     59  C   UNL A   1      44.187  26.175  29.893  1.00  0.00     0.031 C 
ATOM     60  C   UNL A   1      43.577  29.106  35.170  1.00  0.00     0.029 A 
ATOM     61  C   UNL A   1      43.348  28.622  33.893  1.00  0.00     0.049 A 
ATOM     62  H   UNL A   1      41.819  29.131  32.531  1.00  0.00     0.167 HD
ATOM     63  C   UNL A   1      43.833  27.250  31.887  1.00  0.00     0.074 A 
ATOM     64  C   UNL A   1      44.642  26.316  31.132  1.00  0.00     0.031 C 
ATOM     65  C   UNL A   1      44.112  27.650  33.152  1.00  0.00     0.034 A 
BRANCH  52  66
ATOM     66  C   UNL A   1      40.211  31.907  35.354  1.00  0.00     0.023 A 
ATOM     67  C   UNL A   1      40.861  33.154  35.469  1.00  0.00     0.012 A 
ATOM     68  C   UNL A   1      39.189  31.576  36.266  1.00  0.00     0.148 A 
ATOM     69  C   UNL A   1      40.525  34.041  36.491  1.00  0.00     0.002 A 
ATOM     70  C   UNL A   1      38.830  32.485  37.257  1.00  0.00     0.091 A 
ATOM     71  F   UNL A   1      38.595  30.380  36.155  1.00  0.00    -0.205 F 
ATOM     72  C   UNL A   1      39.504  33.711  37.378  1.00  0.00     0.022 A 
BRANCH  70  73
ATOM     73  S   UNL A   1      37.476  32.189  38.400  1.00  0.00     0.127 S 
ATOM     74  O   UNL A   1      36.406  32.990  37.804  1.00  0.00    -0.237 OA
ATOM     75  O   UNL A   1      37.287  30.742  38.289  1.00  0.00    -0.237 OA
ATOM     76  O   UNL A   1      37.945  32.641  39.702  1.00  0.00    -0.744 OA
ENDBRANCH  70  73
ENDBRANCH  52  66
BRANCH  53  77
ATOM     77  C   UNL A   1      42.466  26.146  27.516  1.00  0.00     0.023 A 
ATOM     78  C   UNL A   1      43.263  26.690  26.489  1.00  0.00     0.012 A 
ATOM     79  C   UNL A   1      42.051  24.804  27.422  1.00  0.00     0.148 A 
ATOM     80  C   UNL A   1      43.615  25.924  25.377  1.00  0.00     0.002 A 
ATOM     81  C   UNL A   1      42.452  24.029  26.337  1.00  0.00     0.091 A 
ATOM     82  F   UNL A   1      41.280  24.306  28.400  1.00  0.00    -0.205 F 
ATOM     83  C   UNL A   1      43.220  24.592  25.307  1.00  0.00     0.022 A 
BRANCH  81  84
ATOM     84  S   UNL A   1      42.104  22.269  26.229  1.00  0.00     0.127 S 
ATOM     85  O   UNL A   1      42.584  21.789  27.521  1.00  0.00    -0.237 OA
ATOM     86  O   UNL A   1      40.648  22.257  26.071  1.00  0.00    -0.237 OA
ATOM     87  O   UNL A   1      42.834  21.795  25.063  1.00  0.00    -0.744 OA
ENDBRANCH  81  84
ENDBRANCH  53  77
BRANCH  65  88
ATOM     88  C   UNL A   1      45.325  27.060  33.822  1.00  0.00     0.023 A 
ATOM     89  C   UNL A   1      46.546  27.764  33.801  1.00  0.00     0.012 A 
ATOM     90  C   UNL A   1      45.240  25.846  34.532  1.00  0.00     0.148 A 
ATOM     91  C   UNL A   1      47.670  27.254  34.449  1.00  0.00     0.002 A 
ATOM     92  C   UNL A   1      46.352  25.367  35.215  1.00  0.00     0.091 A 
ATOM     93  F   UNL A   1      44.076  25.180  34.525  1.00  0.00    -0.205 F 
ATOM     94  C   UNL A   1      47.570  26.064  35.165  1.00  0.00     0.022 A 
BRANCH  92  95
ATOM     95  S   UNL A   1      46.288  23.892  36.238  1.00  0.00     0.127 S 
ATOM     96  O   UNL A   1      44.962  24.005  36.841  1.00  0.00    -0.237 OA
ATOM     97  O   UNL A   1      46.419  22.819  35.250  1.00  0.00    -0.237 OA
ATOM     98  O   UNL A   1      47.409  23.998  37.162  1.00  0.00    -0.744 OA
ENDBRANCH  92  95
ENDBRANCH  65  88
ENDBRANCH  39  40
ENDBRANCH  31  34
ENDBRANCH  29  30
ENDBRANCH  28  29
ENDBRANCH   1  28
TORSDOF 17
ENDMDL
