MODEL 1
REMARK VINA RESULT:     -10.8      0.000      0.000
REMARK SMILES C=CCCC[C@@]1(C(=O)NCCCNC(=O)c2ccc(-c3c4nc(c(-c5cccc(S(=O)(=O)[O-])c5F)c5ccc([nH]5)c(-c5cccc(S(=O)(=O)[O-])c5F)c5nc(c(-c6cccc(S(=O)(=O)[O-])c6F)c6ccc3[nH]6)C=C5)C=C4)cc2)CCCN(C(=O)OC(C)(C)C)C1
REMARK SMILES IDX 10 1 9 2 7 3 8 4 6 6 79 7 90 8 80 9 82 10 81 11 5 12 4 13
REMARK SMILES IDX 3 14 2 15 1 16 83 17 84 18 85 19 86 20 87 21 88 22 89 23
REMARK SMILES IDX 11 24 12 25 13 26 14 27 15 29 16 30 17 31 78 32 18 33 77 34
REMARK SMILES IDX 19 35 20 36 21 37 71 38 22 39 76 40 70 41 72 42 23 43 75 44
REMARK SMILES IDX 69 45 68 46 24 48 56 49 36 50 55 51 37 52 40 53 54 54 73 55
REMARK SMILES IDX 38 56 39 57 53 59 74 60 41 61 25 62 26 63 34 64 27 65 29 66
REMARK SMILES IDX 35 67 28 68 30 69 31 70 32 71 33 72 57 73 58 74 66 75 59 76
REMARK SMILES IDX 61 77 67 78 60 79 62 80 63 81 64 82 65 83 42 84 43 85 51 86
REMARK SMILES IDX 44 87 46 88 52 89 45 90 47 91 48 92 49 93 50 94
REMARK H PARENT 9 5 13 28 72 47 40 58
REMARK Flexibility Score: inf
ROOT
ATOM      1  C   UNL A   1      32.076  27.658  27.096  1.00  0.00     0.117 C 
ENDROOT
BRANCH   1   2
ATOM      2  N   UNL A   1      30.949  26.817  26.753  1.00  0.00    -0.355 N 
ATOM      3  C   UNL A   1      30.696  26.091  25.630  1.00  0.00     0.228 C 
ATOM      4  O   UNL A   1      29.862  25.187  25.781  1.00  0.00    -0.274 OA
ATOM      5  H   UNL A   1      30.252  26.762  27.445  1.00  0.00     0.163 HD
BRANCH   3   6
ATOM      6  C   UNL A   1      31.233  26.438  24.209  1.00  0.00     0.067 C 
ATOM      7  C   UNL A   1      30.472  25.512  23.180  1.00  0.00     0.020 C 
ATOM      8  C   UNL A   1      32.731  26.154  23.959  1.00  0.00     0.140 C 
ATOM      9  C   UNL A   1      30.863  24.031  23.269  1.00  0.00     0.023 C 
ATOM     10  N   UNL A   1      33.042  24.732  24.125  1.00  0.00    -0.307 N 
ATOM     11  C   UNL A   1      32.370  23.836  23.203  1.00  0.00     0.123 C 
BRANCH   6  12
ATOM     12  C   UNL A   1      30.733  27.895  23.909  1.00  0.00     0.019 C 
BRANCH  12  13
ATOM     13  C   UNL A   1      29.793  28.184  22.734  1.00  0.00     0.005 C 
BRANCH  13  14
ATOM     14  C   UNL A   1      28.630  29.159  22.973  1.00  0.00     0.027 C 
BRANCH  14  15
ATOM     15  C   UNL A   1      27.321  28.521  23.352  1.00  0.00    -0.035 C 
ATOM     16  C   UNL A   1      27.203  27.292  23.871  1.00  0.00     0.004 C 
ENDBRANCH  14  15
ENDBRANCH  13  14
ENDBRANCH  12  13
ENDBRANCH   6  12
BRANCH  10  17
ATOM     17  C   UNL A   1      33.862  24.304  25.157  1.00  0.00     0.410 C 
ATOM     18  O   UNL A   1      34.119  24.989  26.131  1.00  0.00    -0.224 OA
BRANCH  17  19
ATOM     19  O   UNL A   1      34.272  23.020  24.988  1.00  0.00    -0.444 OA
BRANCH  19  20
ATOM     20  C   UNL A   1      35.679  22.661  24.871  1.00  0.00     0.106 C 
ATOM     21  C   UNL A   1      36.633  23.461  25.766  1.00  0.00     0.056 C 
ATOM     22  C   UNL A   1      35.824  21.156  25.128  1.00  0.00     0.056 C 
ATOM     23  C   UNL A   1      36.029  22.946  23.404  1.00  0.00     0.056 C 
ENDBRANCH  19  20
ENDBRANCH  17  19
ENDBRANCH  10  17
ENDBRANCH   3   6
ENDBRANCH   1   2
BRANCH   1  24
ATOM     24  C   UNL A   1      31.771  29.133  27.256  1.00  0.00     0.042 C 
BRANCH  24  25
ATOM     25  C   UNL A   1      32.529  30.063  26.320  1.00  0.00     0.118 C 
BRANCH  25  26
ATOM     26  N   UNL A   1      32.537  31.466  26.727  1.00  0.00    -0.352 N 
ATOM     27  C   UNL A   1      33.480  32.198  27.412  1.00  0.00     0.251 C 
ATOM     28  H   UNL A   1      31.733  31.971  26.470  1.00  0.00     0.163 HD
ATOM     29  O   UNL A   1      33.254  33.376  27.682  1.00  0.00    -0.269 OA
BRANCH  27  30
ATOM     30  C   UNL A   1      34.739  31.566  27.867  1.00  0.00     0.039 A 
ATOM     31  C   UNL A   1      35.888  32.355  27.992  1.00  0.00     0.014 A 
ATOM     32  C   UNL A   1      34.786  30.216  28.214  1.00  0.00     0.014 A 
ATOM     33  C   UNL A   1      37.042  31.815  28.566  1.00  0.00     0.010 A 
ATOM     34  C   UNL A   1      35.891  29.717  28.891  1.00  0.00     0.010 A 
ATOM     35  C   UNL A   1      37.034  30.507  29.077  1.00  0.00    -0.014 A 
BRANCH  35  36
ATOM     36  C   UNL A   1      38.193  29.945  29.821  1.00  0.00     0.031 A 
ATOM     37  C   UNL A   1      38.504  30.430  31.213  1.00  0.00     0.074 A 
ATOM     38  C   UNL A   1      39.032  29.087  29.203  1.00  0.00     0.049 A 
ATOM     39  N   UNL A   1      39.523  30.140  31.979  1.00  0.00    -0.248 NA
ATOM     40  C   UNL A   1      37.567  31.399  31.807  1.00  0.00     0.031 C 
ATOM     41  C   UNL A   1      38.896  28.612  27.824  1.00  0.00     0.029 A 
ATOM     42  N   UNL A   1      40.185  28.487  29.645  1.00  0.00    -0.354 N 
ATOM     43  C   UNL A   1      39.376  30.922  33.119  1.00  0.00     0.074 A 
ATOM     44  C   UNL A   1      38.192  31.730  32.927  1.00  0.00     0.031 C 
ATOM     45  C   UNL A   1      39.916  27.788  27.538  1.00  0.00     0.029 A 
ATOM     46  C   UNL A   1      40.800  27.702  28.696  1.00  0.00     0.049 A 
ATOM     47  H   UNL A   1      40.538  28.605  30.556  1.00  0.00     0.167 HD
ATOM     48  C   UNL A   1      40.135  30.944  34.239  1.00  0.00     0.034 A 
ATOM     49  C   UNL A   1      41.949  27.000  28.748  1.00  0.00     0.034 A 
ATOM     50  C   UNL A   1      41.277  30.096  34.450  1.00  0.00     0.049 A 
ATOM     51  C   UNL A   1      42.743  26.994  30.026  1.00  0.00     0.074 A 
ATOM     52  C   UNL A   1      42.054  29.967  35.588  1.00  0.00     0.029 A 
ATOM     53  N   UNL A   1      41.808  29.235  33.502  1.00  0.00    -0.354 N 
ATOM     54  N   UNL A   1      42.495  27.618  31.153  1.00  0.00    -0.248 NA
ATOM     55  C   UNL A   1      43.952  26.160  30.055  1.00  0.00     0.031 C 
ATOM     56  C   UNL A   1      43.068  29.043  35.320  1.00  0.00     0.029 A 
ATOM     57  C   UNL A   1      42.907  28.577  34.026  1.00  0.00     0.049 A 
ATOM     58  H   UNL A   1      41.456  29.111  32.592  1.00  0.00     0.167 HD
ATOM     59  C   UNL A   1      43.495  27.223  32.035  1.00  0.00     0.074 A 
ATOM     60  C   UNL A   1      44.341  26.291  31.317  1.00  0.00     0.031 C 
ATOM     61  C   UNL A   1      43.705  27.609  33.317  1.00  0.00     0.034 A 
BRANCH  48  62
ATOM     62  C   UNL A   1      39.720  31.874  35.350  1.00  0.00     0.023 A 
ATOM     63  C   UNL A   1      38.843  31.412  36.354  1.00  0.00     0.012 A 
ATOM     64  C   UNL A   1      40.232  33.183  35.431  1.00  0.00     0.148 A 
ATOM     65  C   UNL A   1      38.451  32.248  37.397  1.00  0.00     0.002 A 
ATOM     66  C   UNL A   1      39.875  33.996  36.502  1.00  0.00     0.091 A 
ATOM     67  F   UNL A   1      41.047  33.614  34.459  1.00  0.00    -0.205 F 
ATOM     68  C   UNL A   1      38.974  33.535  37.477  1.00  0.00     0.022 A 
BRANCH  66  69
ATOM     69  S   UNL A   1      40.557  35.640  36.742  1.00  0.00     0.127 S 
ATOM     70  O   UNL A   1      39.657  36.455  35.928  1.00  0.00    -0.237 OA
ATOM     71  O   UNL A   1      40.410  35.826  38.186  1.00  0.00    -0.237 OA
ATOM     72  O   UNL A   1      41.935  35.575  36.277  1.00  0.00    -0.744 OA
ENDBRANCH  66  69
ENDBRANCH  48  62
BRANCH  49  73
ATOM     73  C   UNL A   1      42.381  26.185  27.575  1.00  0.00     0.023 A 
ATOM     74  C   UNL A   1      43.206  26.772  26.595  1.00  0.00     0.012 A 
ATOM     75  C   UNL A   1      42.008  24.835  27.438  1.00  0.00     0.148 A 
ATOM     76  C   UNL A   1      43.623  26.040  25.484  1.00  0.00     0.002 A 
ATOM     77  C   UNL A   1      42.472  24.094  26.357  1.00  0.00     0.091 A 
ATOM     78  F   UNL A   1      41.215  24.297  28.375  1.00  0.00    -0.205 F 
ATOM     79  C   UNL A   1      43.264  24.699  25.369  1.00  0.00     0.022 A 
BRANCH  77  80
ATOM     80  S   UNL A   1      42.169  22.331  26.194  1.00  0.00     0.127 S 
ATOM     81  O   UNL A   1      42.684  21.820  27.461  1.00  0.00    -0.237 OA
ATOM     82  O   UNL A   1      40.713  22.285  26.058  1.00  0.00    -0.237 OA
ATOM     83  O   UNL A   1      42.896  21.916  25.001  1.00  0.00    -0.744 OA
ENDBRANCH  77  80
ENDBRANCH  49  73
BRANCH  61  84
ATOM     84  C   UNL A   1      44.869  26.996  34.051  1.00  0.00     0.023 A 
ATOM     85  C   UNL A   1      46.139  27.602  33.982  1.00  0.00     0.012 A 
ATOM     86  C   UNL A   1      44.683  25.868  34.873  1.00  0.00     0.148 A 
ATOM     87  C   UNL A   1      47.215  27.074  34.695  1.00  0.00     0.002 A 
ATOM     88  C   UNL A   1      45.747  25.378  35.621  1.00  0.00     0.091 A 
ATOM     89  F   UNL A   1      43.471  25.297  34.911  1.00  0.00    -0.205 F 
ATOM     90  C   UNL A   1      47.015  25.971  35.523  1.00  0.00     0.022 A 
BRANCH  88  91
ATOM     91  S   UNL A   1      45.560  24.026  36.788  1.00  0.00     0.127 S 
ATOM     92  O   UNL A   1      45.228  22.911  35.903  1.00  0.00    -0.237 OA
ATOM     93  O   UNL A   1      46.891  23.951  37.392  1.00  0.00    -0.237 OA
ATOM     94  O   UNL A   1      44.504  24.431  37.707  1.00  0.00    -0.744 OA
ENDBRANCH  88  91
ENDBRANCH  61  84
ENDBRANCH  35  36
ENDBRANCH  27  30
ENDBRANCH  25  26
ENDBRANCH  24  25
ENDBRANCH   1  24
TORSDOF 20
ENDMDL
MODEL 2
REMARK VINA RESULT:     -10.8      1.824      7.976
REMARK SMILES C=CCCC[C@@]1(C(=O)NCCCNC(=O)c2ccc(-c3c4nc(c(-c5cccc(S(=O)(=O)[O-])c5F)c5ccc([nH]5)c(-c5cccc(S(=O)(=O)[O-])c5F)c5nc(c(-c6cccc(S(=O)(=O)[O-])c6F)c6ccc3[nH]6)C=C5)C=C4)cc2)CCCN(C(=O)OC(C)(C)C)C1
REMARK SMILES IDX 10 1 9 2 7 3 8 4 6 6 79 7 90 8 80 9 82 10 81 11 5 12 4 13
REMARK SMILES IDX 3 14 2 15 1 16 83 17 84 18 85 19 86 20 87 21 88 22 89 23
REMARK SMILES IDX 11 24 12 25 13 26 14 27 15 29 16 30 17 31 78 32 18 33 77 34
REMARK SMILES IDX 19 35 20 36 21 37 71 38 22 39 76 40 70 41 72 42 23 43 75 44
REMARK SMILES IDX 69 45 68 46 24 48 56 49 36 50 55 51 37 52 40 53 54 54 73 55
REMARK SMILES IDX 38 56 39 57 53 59 74 60 41 61 25 62 26 63 34 64 27 65 29 66
REMARK SMILES IDX 35 67 28 68 30 69 31 70 32 71 33 72 57 73 58 74 66 75 59 76
REMARK SMILES IDX 61 77 67 78 60 79 62 80 63 81 64 82 65 83 42 84 43 85 51 86
REMARK SMILES IDX 44 87 46 88 52 89 45 90 47 91 48 92 49 93 50 94
REMARK H PARENT 9 5 13 28 72 47 40 58
REMARK Flexibility Score: inf
ROOT
ATOM      1  C   UNL A   1      32.154  27.810  27.043  1.00  0.00     0.117 C 
ENDROOT
BRANCH   1   2
ATOM      2  N   UNL A   1      31.107  26.819  26.925  1.00  0.00    -0.355 N 
ATOM      3  C   UNL A   1      30.696  26.089  25.852  1.00  0.00     0.228 C 
ATOM      4  O   UNL A   1      30.058  25.067  26.141  1.00  0.00    -0.274 OA
ATOM      5  H   UNL A   1      30.610  26.643  27.756  1.00  0.00     0.163 HD
BRANCH   3   6
ATOM      6  C   UNL A   1      30.824  26.544  24.368  1.00  0.00     0.067 C 
ATOM      7  C   UNL A   1      30.024  25.505  23.487  1.00  0.00     0.020 C 
ATOM      8  C   UNL A   1      32.251  26.545  23.775  1.00  0.00     0.140 C 
ATOM      9  C   UNL A   1      30.682  24.121  23.408  1.00  0.00     0.023 C 
ATOM     10  N   UNL A   1      32.838  25.203  23.793  1.00  0.00    -0.307 N 
ATOM     11  C   UNL A   1      32.143  24.208  22.997  1.00  0.00     0.123 C 
BRANCH   6  12
ATOM     12  C   UNL A   1      30.019  27.887  24.264  1.00  0.00     0.019 C 
BRANCH  12  13
ATOM     13  C   UNL A   1      29.249  28.254  22.990  1.00  0.00     0.005 C 
BRANCH  13  14
ATOM     14  C   UNL A   1      27.824  28.806  23.151  1.00  0.00     0.027 C 
BRANCH  14  15
ATOM     15  C   UNL A   1      27.635  30.236  22.725  1.00  0.00    -0.035 C 
ATOM     16  C   UNL A   1      27.629  31.279  23.566  1.00  0.00     0.004 C 
ENDBRANCH  14  15
ENDBRANCH  13  14
ENDBRANCH  12  13
ENDBRANCH   6  12
BRANCH  10  17
ATOM     17  C   UNL A   1      33.936  24.923  24.592  1.00  0.00     0.410 C 
ATOM     18  O   UNL A   1      33.969  25.163  25.785  1.00  0.00    -0.224 OA
BRANCH  17  19
ATOM     19  O   UNL A   1      34.920  24.285  23.906  1.00  0.00    -0.444 OA
BRANCH  19  20
ATOM     20  C   UNL A   1      35.606  23.114  24.438  1.00  0.00     0.106 C 
ATOM     21  C   UNL A   1      36.779  22.605  23.593  1.00  0.00     0.056 C 
ATOM     22  C   UNL A   1      36.059  23.422  25.870  1.00  0.00     0.056 C 
ATOM     23  C   UNL A   1      34.526  22.024  24.485  1.00  0.00     0.056 C 
ENDBRANCH  19  20
ENDBRANCH  17  19
ENDBRANCH  10  17
ENDBRANCH   3   6
ENDBRANCH   1   2
BRANCH   1  24
ATOM     24  C   UNL A   1      31.688  29.240  27.232  1.00  0.00     0.042 C 
BRANCH  24  25
ATOM     25  C   UNL A   1      32.317  30.262  26.298  1.00  0.00     0.118 C 
BRANCH  25  26
ATOM     26  N   UNL A   1      32.141  31.653  26.707  1.00  0.00    -0.352 N 
ATOM     27  C   UNL A   1      32.982  32.504  27.388  1.00  0.00     0.251 C 
ATOM     28  H   UNL A   1      31.275  32.048  26.454  1.00  0.00     0.163 HD
ATOM     29  O   UNL A   1      32.604  33.641  27.661  1.00  0.00    -0.269 OA
BRANCH  27  30
ATOM     30  C   UNL A   1      34.316  32.043  27.836  1.00  0.00     0.039 A 
ATOM     31  C   UNL A   1      35.353  32.976  27.948  1.00  0.00     0.014 A 
ATOM     32  C   UNL A   1      34.541  30.713  28.188  1.00  0.00     0.014 A 
ATOM     33  C   UNL A   1      36.572  32.593  28.515  1.00  0.00     0.010 A 
ATOM     34  C   UNL A   1      35.707  30.365  28.859  1.00  0.00     0.010 A 
ATOM     35  C   UNL A   1      36.739  31.299  29.031  1.00  0.00    -0.014 A 
BRANCH  35  36
ATOM     36  C   UNL A   1      37.967  30.896  29.769  1.00  0.00     0.031 A 
ATOM     37  C   UNL A   1      38.938  29.927  29.145  1.00  0.00     0.074 A 
ATOM     38  C   UNL A   1      38.149  31.308  31.040  1.00  0.00     0.049 A 
ATOM     39  N   UNL A   1      40.004  29.378  29.667  1.00  0.00    -0.248 NA
ATOM     40  C   UNL A   1      38.652  29.487  27.769  1.00  0.00     0.031 C 
ATOM     41  C   UNL A   1      37.234  32.172  31.791  1.00  0.00     0.029 A 
ATOM     42  N   UNL A   1      39.149  31.030  31.938  1.00  0.00    -0.354 N 
ATOM     43  C   UNL A   1      40.486  28.498  28.705  1.00  0.00     0.074 A 
ATOM     44  C   UNL A   1      39.573  28.553  27.585  1.00  0.00     0.031 C 
ATOM     45  C   UNL A   1      37.720  32.360  33.029  1.00  0.00     0.029 A 
ATOM     46  C   UNL A   1      38.960  31.605  33.174  1.00  0.00     0.049 A 
ATOM     47  H   UNL A   1      39.930  30.472  31.718  1.00  0.00     0.167 HD
ATOM     48  C   UNL A   1      41.605  27.735  28.734  1.00  0.00     0.034 A 
ATOM     49  C   UNL A   1      39.695  31.526  34.301  1.00  0.00     0.034 A 
ATOM     50  C   UNL A   1      42.541  27.727  29.825  1.00  0.00     0.049 A 
ATOM     51  C   UNL A   1      40.966  30.720  34.287  1.00  0.00     0.074 A 
ATOM     52  C   UNL A   1      43.755  27.069  29.911  1.00  0.00     0.029 A 
ATOM     53  N   UNL A   1      42.367  28.406  31.021  1.00  0.00    -0.354 N 
ATOM     54  N   UNL A   1      41.489  30.021  33.308  1.00  0.00    -0.248 NA
ATOM     55  C   UNL A   1      41.767  30.719  35.519  1.00  0.00     0.031 C 
ATOM     56  C   UNL A   1      44.306  27.334  31.169  1.00  0.00     0.029 A 
ATOM     57  C   UNL A   1      43.448  28.179  31.855  1.00  0.00     0.049 A 
ATOM     58  H   UNL A   1      41.590  28.967  31.244  1.00  0.00     0.167 HD
ATOM     59  C   UNL A   1      42.696  29.530  33.792  1.00  0.00     0.074 A 
ATOM     60  C   UNL A   1      42.836  30.028  35.145  1.00  0.00     0.031 C 
ATOM     61  C   UNL A   1      43.599  28.727  33.178  1.00  0.00     0.034 A 
BRANCH  48  62
ATOM     62  C   UNL A   1      41.909  26.891  27.524  1.00  0.00     0.023 A 
ATOM     63  C   UNL A   1      42.474  27.491  26.380  1.00  0.00     0.012 A 
ATOM     64  C   UNL A   1      41.686  25.500  27.533  1.00  0.00     0.148 A 
ATOM     65  C   UNL A   1      42.774  26.732  25.251  1.00  0.00     0.002 A 
ATOM     66  C   UNL A   1      42.034  24.739  26.421  1.00  0.00     0.091 A 
ATOM     67  F   UNL A   1      41.130  24.947  28.620  1.00  0.00    -0.205 F 
ATOM     68  C   UNL A   1      42.565  25.356  25.275  1.00  0.00     0.022 A 
BRANCH  66  69
ATOM     69  S   UNL A   1      41.881  22.951  26.383  1.00  0.00     0.127 S 
ATOM     70  O   UNL A   1      42.485  22.631  25.090  1.00  0.00    -0.237 OA
ATOM     71  O   UNL A   1      42.676  22.549  27.544  1.00  0.00    -0.237 OA
ATOM     72  O   UNL A   1      40.457  22.666  26.495  1.00  0.00    -0.744 OA
ENDBRANCH  66  69
ENDBRANCH  48  62
BRANCH  49  73
ATOM     73  C   UNL A   1      39.287  32.289  35.515  1.00  0.00     0.023 A 
ATOM     74  C   UNL A   1      38.449  31.674  36.466  1.00  0.00     0.012 A 
ATOM     75  C   UNL A   1      39.742  33.601  35.749  1.00  0.00     0.148 A 
ATOM     76  C   UNL A   1      38.044  32.363  37.610  1.00  0.00     0.002 A 
ATOM     77  C   UNL A   1      39.380  34.262  36.917  1.00  0.00     0.091 A 
ATOM     78  F   UNL A   1      40.531  34.173  34.829  1.00  0.00    -0.205 F 
ATOM     79  C   UNL A   1      38.516  33.652  37.841  1.00  0.00     0.022 A 
BRANCH  77  80
ATOM     80  S   UNL A   1      40.043  35.872  37.361  1.00  0.00     0.127 S 
ATOM     81  O   UNL A   1      39.328  36.160  38.601  1.00  0.00    -0.237 OA
ATOM     82  O   UNL A   1      41.467  35.578  37.526  1.00  0.00    -0.237 OA
ATOM     83  O   UNL A   1      39.738  36.746  36.236  1.00  0.00    -0.744 OA
ENDBRANCH  77  80
ENDBRANCH  49  73
BRANCH  61  84
ATOM     84  C   UNL A   1      44.846  28.364  33.942  1.00  0.00     0.023 A 
ATOM     85  C   UNL A   1      44.872  27.195  34.729  1.00  0.00     0.012 A 
ATOM     86  C   UNL A   1      46.015  29.139  33.814  1.00  0.00     0.148 A 
ATOM     87  C   UNL A   1      46.034  26.822  35.402  1.00  0.00     0.002 A 
ATOM     88  C   UNL A   1      47.183  28.732  34.446  1.00  0.00     0.091 A 
ATOM     89  F   UNL A   1      45.964  30.256  33.074  1.00  0.00    -0.205 F 
ATOM     90  C   UNL A   1      47.191  27.582  35.250  1.00  0.00     0.022 A 
BRANCH  88  91
ATOM     91  S   UNL A   1      48.745  29.593  34.228  1.00  0.00     0.127 S 
ATOM     92  O   UNL A   1      48.480  30.865  34.898  1.00  0.00    -0.237 OA
ATOM     93  O   UNL A   1      49.683  28.717  34.929  1.00  0.00    -0.237 OA
ATOM     94  O   UNL A   1      48.960  29.678  32.789  1.00  0.00    -0.744 OA
ENDBRANCH  88  91
ENDBRANCH  61  84
ENDBRANCH  35  36
ENDBRANCH  27  30
ENDBRANCH  25  26
ENDBRANCH  24  25
ENDBRANCH   1  24
TORSDOF 20
ENDMDL
MODEL 3
REMARK VINA RESULT:     -10.5      4.412      9.634
REMARK SMILES C=CCCC[C@@]1(C(=O)NCCCNC(=O)c2ccc(-c3c4nc(c(-c5cccc(S(=O)(=O)[O-])c5F)c5ccc([nH]5)c(-c5cccc(S(=O)(=O)[O-])c5F)c5nc(c(-c6cccc(S(=O)(=O)[O-])c6F)c6ccc3[nH]6)C=C5)C=C4)cc2)CCCN(C(=O)OC(C)(C)C)C1
REMARK SMILES IDX 10 1 9 2 7 3 8 4 6 6 79 7 90 8 80 9 82 10 81 11 5 12 4 13
REMARK SMILES IDX 3 14 2 15 1 16 83 17 84 18 85 19 86 20 87 21 88 22 89 23
REMARK SMILES IDX 11 24 12 25 13 26 14 27 15 29 16 30 17 31 78 32 18 33 77 34
REMARK SMILES IDX 19 35 20 36 21 37 71 38 22 39 76 40 70 41 72 42 23 43 75 44
REMARK SMILES IDX 69 45 68 46 24 48 56 49 36 50 55 51 37 52 40 53 54 54 73 55
REMARK SMILES IDX 38 56 39 57 53 59 74 60 41 61 25 62 26 63 34 64 27 65 29 66
REMARK SMILES IDX 35 67 28 68 30 69 31 70 32 71 33 72 57 73 58 74 66 75 59 76
REMARK SMILES IDX 61 77 67 78 60 79 62 80 63 81 64 82 65 83 42 84 43 85 51 86
REMARK SMILES IDX 44 87 46 88 52 89 45 90 47 91 48 92 49 93 50 94
REMARK H PARENT 9 5 13 28 72 47 40 58
REMARK Flexibility Score: inf
ROOT
ATOM      1  C   UNL A   1      35.084  22.631  26.298  1.00  0.00     0.117 C 
ENDROOT
BRANCH   1   2
ATOM      2  N   UNL A   1      33.880  23.399  26.532  1.00  0.00    -0.355 N 
ATOM      3  C   UNL A   1      32.624  23.250  26.032  1.00  0.00     0.228 C 
ATOM      4  O   UNL A   1      31.737  23.801  26.698  1.00  0.00    -0.274 OA
ATOM      5  H   UNL A   1      33.988  24.152  27.156  1.00  0.00     0.163 HD
BRANCH   3   6
ATOM      6  C   UNL A   1      32.289  22.614  24.648  1.00  0.00     0.067 C 
ATOM      7  C   UNL A   1      33.593  22.705  23.761  1.00  0.00     0.020 C 
ATOM      8  C   UNL A   1      31.199  23.327  23.818  1.00  0.00     0.140 C 
ATOM      9  C   UNL A   1      33.953  24.133  23.329  1.00  0.00     0.023 C 
ATOM     10  N   UNL A   1      31.583  24.704  23.498  1.00  0.00    -0.307 N 
ATOM     11  C   UNL A   1      32.775  24.845  22.683  1.00  0.00     0.123 C 
BRANCH   6  12
ATOM     12  C   UNL A   1      32.077  21.084  24.924  1.00  0.00     0.019 C 
BRANCH  12  13
ATOM     13  C   UNL A   1      33.021  20.033  24.329  1.00  0.00     0.005 C 
BRANCH  13  14
ATOM     14  C   UNL A   1      32.577  18.563  24.382  1.00  0.00     0.027 C 
BRANCH  14  15
ATOM     15  C   UNL A   1      32.948  17.734  23.182  1.00  0.00    -0.035 C 
ATOM     16  C   UNL A   1      33.999  16.906  23.134  1.00  0.00     0.004 C 
ENDBRANCH  14  15
ENDBRANCH  13  14
ENDBRANCH  12  13
ENDBRANCH   6  12
BRANCH  10  17
ATOM     17  C   UNL A   1      30.878  25.774  24.026  1.00  0.00     0.410 C 
ATOM     18  O   UNL A   1      29.749  25.673  24.472  1.00  0.00    -0.224 OA
BRANCH  17  19
ATOM     19  O   UNL A   1      31.620  26.912  24.057  1.00  0.00    -0.444 OA
BRANCH  19  20
ATOM     20  C   UNL A   1      32.138  27.469  25.300  1.00  0.00     0.106 C 
ATOM     21  C   UNL A   1      33.566  27.045  25.661  1.00  0.00     0.056 C 
ATOM     22  C   UNL A   1      32.023  28.997  25.237  1.00  0.00     0.056 C 
ATOM     23  C   UNL A   1      31.183  26.947  26.383  1.00  0.00     0.056 C 
ENDBRANCH  19  20
ENDBRANCH  17  19
ENDBRANCH  10  17
ENDBRANCH   3   6
ENDBRANCH   1   2
BRANCH   1  24
ATOM     24  C   UNL A   1      36.348  23.439  26.081  1.00  0.00     0.042 C 
BRANCH  24  25
ATOM     25  C   UNL A   1      37.319  22.872  25.057  1.00  0.00     0.118 C 
BRANCH  25  26
ATOM     26  N   UNL A   1      38.433  22.117  25.623  1.00  0.00    -0.352 N 
ATOM     27  C   UNL A   1      39.490  22.523  26.406  1.00  0.00     0.251 C 
ATOM     28  H   UNL A   1      38.427  21.156  25.408  1.00  0.00     0.163 HD
ATOM     29  O   UNL A   1      40.345  21.706  26.742  1.00  0.00    -0.269 OA
BRANCH  27  30
ATOM     30  C   UNL A   1      39.630  23.942  26.804  1.00  0.00     0.039 A 
ATOM     31  C   UNL A   1      39.327  24.310  28.119  1.00  0.00     0.014 A 
ATOM     32  C   UNL A   1      40.098  24.901  25.907  1.00  0.00     0.014 A 
ATOM     33  C   UNL A   1      39.599  25.610  28.556  1.00  0.00     0.010 A 
ATOM     34  C   UNL A   1      40.478  26.153  26.373  1.00  0.00     0.010 A 
ATOM     35  C   UNL A   1      40.234  26.526  27.703  1.00  0.00    -0.014 A 
BRANCH  35  36
ATOM     36  C   UNL A   1      40.669  27.869  28.172  1.00  0.00     0.031 A 
ATOM     37  C   UNL A   1      42.136  28.199  28.259  1.00  0.00     0.074 A 
ATOM     38  C   UNL A   1      39.753  28.747  28.629  1.00  0.00     0.049 A 
ATOM     39  N   UNL A   1      42.714  29.271  28.738  1.00  0.00    -0.248 NA
ATOM     40  C   UNL A   1      43.081  27.175  27.781  1.00  0.00     0.031 C 
ATOM     41  C   UNL A   1      38.307  28.513  28.687  1.00  0.00     0.029 A 
ATOM     42  N   UNL A   1      39.903  30.003  29.163  1.00  0.00    -0.354 N 
ATOM     43  C   UNL A   1      44.081  29.031  28.663  1.00  0.00     0.074 A 
ATOM     44  C   UNL A   1      44.247  27.696  28.132  1.00  0.00     0.031 C 
ATOM     45  C   UNL A   1      37.706  29.590  29.215  1.00  0.00     0.029 A 
ATOM     46  C   UNL A   1      38.719  30.579  29.567  1.00  0.00     0.049 A 
ATOM     47  H   UNL A   1      40.776  30.451  29.247  1.00  0.00     0.167 HD
ATOM     48  C   UNL A   1      45.108  29.856  28.976  1.00  0.00     0.034 A 
ATOM     49  C   UNL A   1      38.478  31.764  30.161  1.00  0.00     0.034 A 
ATOM     50  C   UNL A   1      44.938  31.203  29.448  1.00  0.00     0.049 A 
ATOM     51  C   UNL A   1      39.633  32.687  30.443  1.00  0.00     0.074 A 
ATOM     52  C   UNL A   1      45.910  32.156  29.696  1.00  0.00     0.029 A 
ATOM     53  N   UNL A   1      43.717  31.788  29.745  1.00  0.00    -0.354 N 
ATOM     54  N   UNL A   1      40.911  32.503  30.213  1.00  0.00    -0.248 NA
ATOM     55  C   UNL A   1      39.311  33.995  31.031  1.00  0.00     0.031 C 
ATOM     56  C   UNL A   1      45.278  33.311  30.165  1.00  0.00     0.029 A 
ATOM     57  C   UNL A   1      43.911  33.087  30.182  1.00  0.00     0.049 A 
ATOM     58  H   UNL A   1      42.843  31.346  29.659  1.00  0.00     0.167 HD
ATOM     59  C   UNL A   1      41.540  33.684  30.592  1.00  0.00     0.074 A 
ATOM     60  C   UNL A   1      40.500  34.583  31.048  1.00  0.00     0.031 C 
ATOM     61  C   UNL A   1      42.860  33.990  30.580  1.00  0.00     0.034 A 
BRANCH  48  62
ATOM     62  C   UNL A   1      46.509  29.344  28.760  1.00  0.00     0.023 A 
ATOM     63  C   UNL A   1      47.146  29.561  27.520  1.00  0.00     0.012 A 
ATOM     64  C   UNL A   1      47.214  28.697  29.793  1.00  0.00     0.148 A 
ATOM     65  C   UNL A   1      48.444  29.107  27.297  1.00  0.00     0.002 A 
ATOM     66  C   UNL A   1      48.527  28.290  29.580  1.00  0.00     0.091 A 
ATOM     67  F   UNL A   1      46.588  28.481  30.958  1.00  0.00    -0.205 F 
ATOM     68  C   UNL A   1      49.138  28.483  28.329  1.00  0.00     0.022 A 
BRANCH  66  69
ATOM     69  S   UNL A   1      49.535  27.551  30.869  1.00  0.00     0.127 S 
ATOM     70  O   UNL A   1      48.827  26.295  31.114  1.00  0.00    -0.237 OA
ATOM     71  O   UNL A   1      50.828  27.402  30.201  1.00  0.00    -0.237 OA
ATOM     72  O   UNL A   1      49.530  28.497  31.976  1.00  0.00    -0.744 OA
ENDBRANCH  66  69
ENDBRANCH  48  62
BRANCH  49  73
ATOM     73  C   UNL A   1      37.077  32.176  30.465  1.00  0.00     0.023 A 
ATOM     74  C   UNL A   1      36.574  31.998  31.769  1.00  0.00     0.012 A 
ATOM     75  C   UNL A   1      36.253  32.767  29.487  1.00  0.00     0.148 A 
ATOM     76  C   UNL A   1      35.266  32.367  32.084  1.00  0.00     0.002 A 
ATOM     77  C   UNL A   1      34.970  33.183  29.822  1.00  0.00     0.091 A 
ATOM     78  F   UNL A   1      36.747  32.920  28.250  1.00  0.00    -0.205 F 
ATOM     79  C   UNL A   1      34.468  32.969  31.114  1.00  0.00     0.022 A 
BRANCH  77  80
ATOM     80  S   UNL A   1      33.919  34.083  28.676  1.00  0.00     0.127 S 
ATOM     81  O   UNL A   1      34.868  35.008  28.061  1.00  0.00    -0.237 OA
ATOM     82  O   UNL A   1      33.444  33.014  27.797  1.00  0.00    -0.237 OA
ATOM     83  O   UNL A   1      32.879  34.693  29.494  1.00  0.00    -0.744 OA
ENDBRANCH  77  80
ENDBRANCH  49  73
BRANCH  61  84
ATOM     84  C   UNL A   1      43.264  35.369  31.031  1.00  0.00     0.023 A 
ATOM     85  C   UNL A   1      43.587  35.598  32.384  1.00  0.00     0.012 A 
ATOM     86  C   UNL A   1      43.398  36.416  30.100  1.00  0.00     0.148 A 
ATOM     87  C   UNL A   1      44.008  36.857  32.807  1.00  0.00     0.002 A 
ATOM     88  C   UNL A   1      43.868  37.655  30.520  1.00  0.00     0.091 A 
ATOM     89  F   UNL A   1      43.069  36.182  28.822  1.00  0.00    -0.205 F 
ATOM     90  C   UNL A   1      44.161  37.881  31.874  1.00  0.00     0.022 A 
BRANCH  88  91
ATOM     91  S   UNL A   1      44.190  39.001  29.374  1.00  0.00     0.127 S 
ATOM     92  O   UNL A   1      45.013  38.341  28.363  1.00  0.00    -0.237 OA
ATOM     93  O   UNL A   1      42.843  39.357  28.928  1.00  0.00    -0.237 OA
ATOM     94  O   UNL A   1      44.862  40.036  30.149  1.00  0.00    -0.744 OA
ENDBRANCH  88  91
ENDBRANCH  61  84
ENDBRANCH  35  36
ENDBRANCH  27  30
ENDBRANCH  25  26
ENDBRANCH  24  25
ENDBRANCH   1  24
TORSDOF 20
ENDMDL
