MODEL 1
REMARK VINA RESULT:     -12.4      0.000      0.000
REMARK SMILES O=C(NCCCNC(=O)c1ccc2c(c1)=N[C@H](C(F)(F)F)N=2)c1ccc(-c2c3nc(c(-c4cccc(S(=O)(=O)[O-])c4F)c4ccc([nH]4)c(-c4cccc(S(=O)(=O)[O-])c4F)c4nc(c(-c5cccc(S(=O)(=O)[O-])c5F)c5ccc2[nH]5)C=C4)C=C3)cc1
REMARK SMILES IDX 4 1 3 2 1 3 2 4 23 6 24 7 85 8 25 9 84 10 26 11 27 12 28 13
REMARK SMILES IDX 78 14 29 15 83 16 77 17 79 18 30 19 82 20 76 21 75 22 31 24
REMARK SMILES IDX 63 25 43 26 62 27 44 28 47 29 61 30 80 31 45 32 46 33 60 35
REMARK SMILES IDX 81 36 48 37 32 38 33 39 41 40 34 41 36 42 42 43 35 44 37 45
REMARK SMILES IDX 38 46 39 47 40 48 64 49 65 50 73 51 66 52 68 53 74 54 67 55
REMARK SMILES IDX 69 56 70 57 71 58 72 59 49 60 50 61 58 62 51 63 53 64 59 65
REMARK SMILES IDX 52 66 54 67 55 68 56 69 57 70 5 71 6 72 7 73 8 74 9 76 10 77
REMARK SMILES IDX 11 78 15 79 12 80 14 81 13 82 16 83 22 84 17 85 18 86 19 87
REMARK SMILES IDX 20 88 21 89
REMARK H PARENT 3 5 79 23 47 34 7 75
REMARK Flexibility Score: inf
ROOT
ATOM      1  C   UNL A   1      33.647  28.999  24.819  1.00  0.00     0.118 C 
ENDROOT
BRANCH   1   2
ATOM      2  N   UNL A   1      32.860  30.107  25.342  1.00  0.00    -0.352 N 
ATOM      3  O   UNL A   1      32.039  31.548  26.847  1.00  0.00    -0.269 OA
ATOM      4  C   UNL A   1      32.951  30.786  26.531  1.00  0.00     0.251 C 
ATOM      5  H   UNL A   1      32.144  30.420  24.743  1.00  0.00     0.163 HD
BRANCH   4   6
ATOM      6  C   UNL A   1      34.118  30.621  27.428  1.00  0.00     0.039 A 
ATOM      7  C   UNL A   1      34.975  31.710  27.626  1.00  0.00     0.014 A 
ATOM      8  C   UNL A   1      34.425  29.386  28.006  1.00  0.00     0.014 A 
ATOM      9  C   UNL A   1      36.123  31.565  28.411  1.00  0.00     0.010 A 
ATOM     10  C   UNL A   1      35.518  29.266  28.859  1.00  0.00     0.010 A 
ATOM     11  C   UNL A   1      36.401  30.341  29.037  1.00  0.00    -0.014 A 
BRANCH  11  12
ATOM     12  C   UNL A   1      37.657  30.116  29.793  1.00  0.00     0.031 A 
ATOM     13  C   UNL A   1      38.737  29.256  29.187  1.00  0.00     0.074 A 
ATOM     14  C   UNL A   1      37.813  30.614  31.034  1.00  0.00     0.049 A 
ATOM     15  N   UNL A   1      39.843  28.815  29.727  1.00  0.00    -0.248 NA
ATOM     16  C   UNL A   1      38.529  28.809  27.798  1.00  0.00     0.031 C 
ATOM     17  C   UNL A   1      36.833  31.432  31.749  1.00  0.00     0.029 A 
ATOM     18  N   UNL A   1      38.853  30.484  31.921  1.00  0.00    -0.354 N 
ATOM     19  C   UNL A   1      40.431  28.001  28.768  1.00  0.00     0.074 A 
ATOM     20  C   UNL A   1      39.551  27.986  27.622  1.00  0.00     0.031 C 
ATOM     21  C   UNL A   1      37.321  31.740  32.961  1.00  0.00     0.029 A 
ATOM     22  C   UNL A   1      38.632  31.115  33.122  1.00  0.00     0.049 A 
ATOM     23  H   UNL A   1      39.677  29.987  31.717  1.00  0.00     0.167 HD
ATOM     24  C   UNL A   1      41.618  27.352  28.818  1.00  0.00     0.034 A 
ATOM     25  C   UNL A   1      39.395  31.175  34.231  1.00  0.00     0.034 A 
ATOM     26  C   UNL A   1      42.535  27.432  29.919  1.00  0.00     0.049 A 
ATOM     27  C   UNL A   1      40.724  30.473  34.254  1.00  0.00     0.074 A 
ATOM     28  C   UNL A   1      43.796  26.875  30.028  1.00  0.00     0.029 A 
ATOM     29  N   UNL A   1      42.296  28.124  31.095  1.00  0.00    -0.354 N 
ATOM     30  N   UNL A   1      41.302  29.776  33.307  1.00  0.00    -0.248 NA
ATOM     31  C   UNL A   1      41.513  30.578  35.491  1.00  0.00     0.031 C 
ATOM     32  C   UNL A   1      44.322  27.232  31.273  1.00  0.00     0.029 A 
ATOM     33  C   UNL A   1      43.387  28.011  31.937  1.00  0.00     0.049 A 
ATOM     34  H   UNL A   1      41.473  28.623  31.300  1.00  0.00     0.167 HD
ATOM     35  C   UNL A   1      42.525  29.366  33.827  1.00  0.00     0.074 A 
ATOM     36  C   UNL A   1      42.615  29.913  35.166  1.00  0.00     0.031 C 
ATOM     37  C   UNL A   1      43.477  28.591  33.252  1.00  0.00     0.034 A 
BRANCH  24  38
ATOM     38  C   UNL A   1      42.023  26.556  27.608  1.00  0.00     0.023 A 
ATOM     39  C   UNL A   1      42.666  27.210  26.539  1.00  0.00     0.012 A 
ATOM     40  C   UNL A   1      41.812  25.165  27.548  1.00  0.00     0.148 A 
ATOM     41  C   UNL A   1      43.073  26.496  25.413  1.00  0.00     0.002 A 
ATOM     42  C   UNL A   1      42.250  24.455  26.436  1.00  0.00     0.091 A 
ATOM     43  F   UNL A   1      41.179  24.569  28.568  1.00  0.00    -0.205 F 
ATOM     44  C   UNL A   1      42.873  25.119  25.366  1.00  0.00     0.022 A 
BRANCH  42  45
ATOM     45  S   UNL A   1      42.087  22.672  26.294  1.00  0.00     0.127 S 
ATOM     46  O   UNL A   1      42.847  22.214  27.457  1.00  0.00    -0.237 OA
ATOM     47  O   UNL A   1      40.640  22.487  26.400  1.00  0.00    -0.237 OA
ATOM     48  O   UNL A   1      42.655  22.318  25.001  1.00  0.00    -0.744 OA
ENDBRANCH  42  45
ENDBRANCH  24  38
BRANCH  25  49
ATOM     49  C   UNL A   1      38.933  31.996  35.382  1.00  0.00     0.023 A 
ATOM     50  C   UNL A   1      39.041  33.397  35.306  1.00  0.00     0.012 A 
ATOM     51  C   UNL A   1      38.311  31.409  36.501  1.00  0.00     0.148 A 
ATOM     52  C   UNL A   1      38.539  34.203  36.326  1.00  0.00     0.002 A 
ATOM     53  C   UNL A   1      37.779  32.220  37.496  1.00  0.00     0.091 A 
ATOM     54  F   UNL A   1      38.219  30.072  36.545  1.00  0.00    -0.205 F 
ATOM     55  C   UNL A   1      37.900  33.616  37.415  1.00  0.00     0.022 A 
BRANCH  53  56
ATOM     56  S   UNL A   1      36.847  31.567  38.886  1.00  0.00     0.127 S 
ATOM     57  O   UNL A   1      37.801  31.720  39.985  1.00  0.00    -0.237 OA
ATOM     58  O   UNL A   1      35.706  32.482  38.931  1.00  0.00    -0.237 OA
ATOM     59  O   UNL A   1      36.518  30.194  38.538  1.00  0.00    -0.744 OA
ENDBRANCH  53  56
ENDBRANCH  25  49
BRANCH  37  60
ATOM     60  C   UNL A   1      44.703  28.266  34.059  1.00  0.00     0.023 A 
ATOM     61  C   UNL A   1      45.795  29.156  34.032  1.00  0.00     0.012 A 
ATOM     62  C   UNL A   1      44.727  27.159  34.929  1.00  0.00     0.148 A 
ATOM     63  C   UNL A   1      46.899  28.944  34.855  1.00  0.00     0.002 A 
ATOM     64  C   UNL A   1      45.818  26.971  35.770  1.00  0.00     0.091 A 
ATOM     65  F   UNL A   1      43.680  26.324  34.928  1.00  0.00    -0.205 F 
ATOM     66  C   UNL A   1      46.906  27.860  35.731  1.00  0.00     0.022 A 
BRANCH  64  67
ATOM     67  S   UNL A   1      45.888  25.651  36.986  1.00  0.00     0.127 S 
ATOM     68  O   UNL A   1      47.178  25.904  37.624  1.00  0.00    -0.237 OA
ATOM     69  O   UNL A   1      44.724  25.938  37.824  1.00  0.00    -0.237 OA
ATOM     70  O   UNL A   1      45.801  24.406  36.233  1.00  0.00    -0.744 OA
ENDBRANCH  64  67
ENDBRANCH  37  60
ENDBRANCH  11  12
ENDBRANCH   4   6
ENDBRANCH   1   2
BRANCH   1  71
ATOM     71  C   UNL A   1      33.445  28.793  23.325  1.00  0.00     0.042 C 
BRANCH  71  72
ATOM     72  C   UNL A   1      32.466  27.683  22.967  1.00  0.00     0.118 C 
BRANCH  72  73
ATOM     73  N   UNL A   1      32.778  27.044  21.697  1.00  0.00    -0.352 N 
ATOM     74  C   UNL A   1      32.891  25.727  21.371  1.00  0.00     0.251 C 
ATOM     75  H   UNL A   1      32.934  27.667  20.950  1.00  0.00     0.163 HD
ATOM     76  O   UNL A   1      33.272  25.405  20.248  1.00  0.00    -0.269 OA
BRANCH  74  77
ATOM     77  C   UNL A   1      32.558  24.690  22.389  1.00  0.00     0.042 A 
ATOM     78  C   UNL A   1      31.198  24.518  22.879  1.00  0.00     0.016 A 
ATOM     79  C   UNL A   1      33.573  23.888  22.751  1.00  0.00     0.044 A 
ATOM     80  C   UNL A   1      30.866  23.632  23.828  1.00  0.00     0.031 A 
ATOM     81  C   UNL A   1      33.281  22.846  23.737  1.00  0.00     0.087 A 
ATOM     82  C   UNL A   1      31.924  22.745  24.314  1.00  0.00     0.086 A 
ATOM     83  N   UNL A   1      34.081  21.962  24.223  1.00  0.00    -0.247 NA
ATOM     84  N   UNL A   1      31.837  21.826  25.211  1.00  0.00    -0.247 NA
ATOM     85  C   UNL A   1      33.206  21.199  25.180  1.00  0.00     0.326 C 
BRANCH  85  86
ATOM     86  C   UNL A   1      33.120  19.689  24.813  1.00  0.00     0.431 C 
ATOM     87  F   UNL A   1      34.286  19.244  24.283  1.00  0.00    -0.167 F 
ATOM     88  F   UNL A   1      32.854  18.926  25.903  1.00  0.00    -0.167 F 
ATOM     89  F   UNL A   1      32.153  19.443  23.899  1.00  0.00    -0.167 F 
ENDBRANCH  85  86
ENDBRANCH  74  77
ENDBRANCH  72  73
ENDBRANCH  71  72
ENDBRANCH   1  71
TORSDOF 14
ENDMDL
MODEL 2
REMARK VINA RESULT:     -12.3      3.269      4.169
REMARK SMILES O=C(NCCCNC(=O)c1ccc2c(c1)=N[C@H](C(F)(F)F)N=2)c1ccc(-c2c3nc(c(-c4cccc(S(=O)(=O)[O-])c4F)c4ccc([nH]4)c(-c4cccc(S(=O)(=O)[O-])c4F)c4nc(c(-c5cccc(S(=O)(=O)[O-])c5F)c5ccc2[nH]5)C=C4)C=C3)cc1
REMARK SMILES IDX 4 1 3 2 1 3 2 4 23 6 24 7 85 8 25 9 84 10 26 11 27 12 28 13
REMARK SMILES IDX 78 14 29 15 83 16 77 17 79 18 30 19 82 20 76 21 75 22 31 24
REMARK SMILES IDX 63 25 43 26 62 27 44 28 47 29 61 30 80 31 45 32 46 33 60 35
REMARK SMILES IDX 81 36 48 37 32 38 33 39 41 40 34 41 36 42 42 43 35 44 37 45
REMARK SMILES IDX 38 46 39 47 40 48 64 49 65 50 73 51 66 52 68 53 74 54 67 55
REMARK SMILES IDX 69 56 70 57 71 58 72 59 49 60 50 61 58 62 51 63 53 64 59 65
REMARK SMILES IDX 52 66 54 67 55 68 56 69 57 70 5 71 6 72 7 73 8 74 9 76 10 77
REMARK SMILES IDX 11 78 15 79 12 80 14 81 13 82 16 83 22 84 17 85 18 86 19 87
REMARK SMILES IDX 20 88 21 89
REMARK H PARENT 3 5 79 23 47 34 7 75
REMARK Flexibility Score: inf
ROOT
ATOM      1  C   UNL A   1      33.767  28.707  25.094  1.00  0.00     0.118 C 
ENDROOT
BRANCH   1   2
ATOM      2  N   UNL A   1      33.061  29.908  25.518  1.00  0.00    -0.352 N 
ATOM      3  O   UNL A   1      32.360  31.534  26.889  1.00  0.00    -0.269 OA
ATOM      4  C   UNL A   1      33.217  30.689  26.636  1.00  0.00     0.251 C 
ATOM      5  H   UNL A   1      32.355  30.208  24.902  1.00  0.00     0.163 HD
BRANCH   4   6
ATOM      6  C   UNL A   1      34.388  30.536  27.530  1.00  0.00     0.039 A 
ATOM      7  C   UNL A   1      35.333  31.567  27.586  1.00  0.00     0.014 A 
ATOM      8  C   UNL A   1      34.611  29.355  28.244  1.00  0.00     0.014 A 
ATOM      9  C   UNL A   1      36.484  31.422  28.367  1.00  0.00     0.010 A 
ATOM     10  C   UNL A   1      35.710  29.247  29.090  1.00  0.00     0.010 A 
ATOM     11  C   UNL A   1      36.679  30.261  29.128  1.00  0.00    -0.014 A 
BRANCH  11  12
ATOM     12  C   UNL A   1      37.932  30.024  29.887  1.00  0.00     0.031 A 
ATOM     13  C   UNL A   1      38.995  29.136  29.294  1.00  0.00     0.074 A 
ATOM     14  C   UNL A   1      38.096  30.538  31.120  1.00  0.00     0.049 A 
ATOM     15  N   UNL A   1      40.093  28.683  29.841  1.00  0.00    -0.248 NA
ATOM     16  C   UNL A   1      38.779  28.672  27.912  1.00  0.00     0.031 C 
ATOM     17  C   UNL A   1      37.132  31.384  31.822  1.00  0.00     0.029 A 
ATOM     18  N   UNL A   1      39.134  30.403  32.009  1.00  0.00    -0.354 N 
ATOM     19  C   UNL A   1      40.666  27.843  28.894  1.00  0.00     0.074 A 
ATOM     20  C   UNL A   1      39.785  27.827  27.748  1.00  0.00     0.031 C 
ATOM     21  C   UNL A   1      37.626  31.702  33.030  1.00  0.00     0.029 A 
ATOM     22  C   UNL A   1      38.926  31.056  33.200  1.00  0.00     0.049 A 
ATOM     23  H   UNL A   1      39.949  29.887  31.812  1.00  0.00     0.167 HD
ATOM     24  C   UNL A   1      41.840  27.173  28.954  1.00  0.00     0.034 A 
ATOM     25  C   UNL A   1      39.690  31.118  34.308  1.00  0.00     0.034 A 
ATOM     26  C   UNL A   1      42.759  27.254  30.054  1.00  0.00     0.049 A 
ATOM     27  C   UNL A   1      41.006  30.392  34.342  1.00  0.00     0.074 A 
ATOM     28  C   UNL A   1      44.010  26.675  30.171  1.00  0.00     0.029 A 
ATOM     29  N   UNL A   1      42.533  27.968  31.219  1.00  0.00    -0.354 N 
ATOM     30  N   UNL A   1      41.570  29.671  33.406  1.00  0.00    -0.248 NA
ATOM     31  C   UNL A   1      41.797  30.502  35.577  1.00  0.00     0.031 C 
ATOM     32  C   UNL A   1      44.543  27.041  31.411  1.00  0.00     0.029 A 
ATOM     33  C   UNL A   1      43.622  27.847  32.063  1.00  0.00     0.049 A 
ATOM     34  H   UNL A   1      41.720  28.484  31.416  1.00  0.00     0.167 HD
ATOM     35  C   UNL A   1      42.786  29.246  33.932  1.00  0.00     0.074 A 
ATOM     36  C   UNL A   1      42.886  29.811  35.262  1.00  0.00     0.031 C 
ATOM     37  C   UNL A   1      43.723  28.445  33.369  1.00  0.00     0.034 A 
BRANCH  24  38
ATOM     38  C   UNL A   1      42.230  26.351  27.757  1.00  0.00     0.023 A 
ATOM     39  C   UNL A   1      42.976  26.953  26.724  1.00  0.00     0.012 A 
ATOM     40  C   UNL A   1      41.903  24.984  27.674  1.00  0.00     0.148 A 
ATOM     41  C   UNL A   1      43.371  26.213  25.611  1.00  0.00     0.002 A 
ATOM     42  C   UNL A   1      42.329  24.245  26.577  1.00  0.00     0.091 A 
ATOM     43  F   UNL A   1      41.176  24.440  28.658  1.00  0.00    -0.205 F 
ATOM     44  C   UNL A   1      43.056  24.859  25.542  1.00  0.00     0.022 A 
BRANCH  42  45
ATOM     45  S   UNL A   1      42.020  22.484  26.411  1.00  0.00     0.127 S 
ATOM     46  O   UNL A   1      40.558  22.442  26.394  1.00  0.00    -0.237 OA
ATOM     47  O   UNL A   1      42.654  22.181  25.127  1.00  0.00    -0.237 OA
ATOM     48  O   UNL A   1      42.647  21.855  27.564  1.00  0.00    -0.744 OA
ENDBRANCH  42  45
ENDBRANCH  24  38
BRANCH  25  49
ATOM     49  C   UNL A   1      39.243  31.964  35.447  1.00  0.00     0.023 A 
ATOM     50  C   UNL A   1      38.428  31.392  36.441  1.00  0.00     0.012 A 
ATOM     51  C   UNL A   1      39.691  33.290  35.598  1.00  0.00     0.148 A 
ATOM     52  C   UNL A   1      38.062  32.127  37.568  1.00  0.00     0.002 A 
ATOM     53  C   UNL A   1      39.354  34.004  36.742  1.00  0.00     0.091 A 
ATOM     54  F   UNL A   1      40.471  33.808  34.638  1.00  0.00    -0.205 F 
ATOM     55  C   UNL A   1      38.532  33.428  37.723  1.00  0.00     0.022 A 
BRANCH  53  56
ATOM     56  S   UNL A   1      39.993  35.648  37.085  1.00  0.00     0.127 S 
ATOM     57  O   UNL A   1      39.287  35.993  38.319  1.00  0.00    -0.237 OA
ATOM     58  O   UNL A   1      41.423  35.379  37.250  1.00  0.00    -0.237 OA
ATOM     59  O   UNL A   1      39.652  36.459  35.928  1.00  0.00    -0.744 OA
ENDBRANCH  53  56
ENDBRANCH  25  49
BRANCH  37  60
ATOM     60  C   UNL A   1      44.943  28.110  34.180  1.00  0.00     0.023 A 
ATOM     61  C   UNL A   1      46.048  28.983  34.146  1.00  0.00     0.012 A 
ATOM     62  C   UNL A   1      44.950  27.012  35.061  1.00  0.00     0.148 A 
ATOM     63  C   UNL A   1      47.148  28.763  34.973  1.00  0.00     0.002 A 
ATOM     64  C   UNL A   1      46.037  26.816  35.906  1.00  0.00     0.091 A 
ATOM     65  F   UNL A   1      43.890  26.192  35.068  1.00  0.00    -0.205 F 
ATOM     66  C   UNL A   1      47.138  27.688  35.859  1.00  0.00     0.022 A 
BRANCH  64  67
ATOM     67  S   UNL A   1      46.086  25.507  37.134  1.00  0.00     0.127 S 
ATOM     68  O   UNL A   1      47.259  25.883  37.922  1.00  0.00    -0.237 OA
ATOM     69  O   UNL A   1      44.806  25.678  37.822  1.00  0.00    -0.237 OA
ATOM     70  O   UNL A   1      46.212  24.260  36.390  1.00  0.00    -0.744 OA
ENDBRANCH  64  67
ENDBRANCH  37  60
ENDBRANCH  11  12
ENDBRANCH   4   6
ENDBRANCH   1   2
BRANCH   1  71
ATOM     71  C   UNL A   1      33.561  27.540  26.049  1.00  0.00     0.042 C 
BRANCH  71  72
ATOM     72  C   UNL A   1      32.292  26.738  25.803  1.00  0.00     0.118 C 
BRANCH  72  73
ATOM     73  N   UNL A   1      32.394  25.862  24.645  1.00  0.00    -0.352 N 
ATOM     74  C   UNL A   1      31.570  25.711  23.571  1.00  0.00     0.251 C 
ATOM     75  H   UNL A   1      33.190  25.283  24.637  1.00  0.00     0.163 HD
ATOM     76  O   UNL A   1      31.793  24.826  22.749  1.00  0.00    -0.269 OA
BRANCH  74  77
ATOM     77  C   UNL A   1      30.399  26.618  23.414  1.00  0.00     0.042 A 
ATOM     78  C   UNL A   1      29.115  26.314  24.033  1.00  0.00     0.016 A 
ATOM     79  C   UNL A   1      30.634  27.757  22.742  1.00  0.00     0.044 A 
ATOM     80  C   UNL A   1      28.025  27.078  23.876  1.00  0.00     0.031 A 
ATOM     81  C   UNL A   1      29.511  28.682  22.580  1.00  0.00     0.087 A 
ATOM     82  C   UNL A   1      28.182  28.319  23.116  1.00  0.00     0.086 A 
ATOM     83  N   UNL A   1      29.499  29.826  21.991  1.00  0.00    -0.247 NA
ATOM     84  N   UNL A   1      27.283  29.199  22.842  1.00  0.00    -0.247 NA
ATOM     85  C   UNL A   1      28.073  30.278  22.150  1.00  0.00     0.326 C 
BRANCH  85  86
ATOM     86  C   UNL A   1      27.972  31.626  22.922  1.00  0.00     0.431 C 
ATOM     87  F   UNL A   1      27.007  31.578  23.873  1.00  0.00    -0.167 F 
ATOM     88  F   UNL A   1      29.138  31.932  23.544  1.00  0.00    -0.167 F 
ATOM     89  F   UNL A   1      27.665  32.658  22.102  1.00  0.00    -0.167 F 
ENDBRANCH  85  86
ENDBRANCH  74  77
ENDBRANCH  72  73
ENDBRANCH  71  72
ENDBRANCH   1  71
TORSDOF 14
ENDMDL
MODEL 3
REMARK VINA RESULT:     -12.3      1.385      1.718
REMARK SMILES O=C(NCCCNC(=O)c1ccc2c(c1)=N[C@H](C(F)(F)F)N=2)c1ccc(-c2c3nc(c(-c4cccc(S(=O)(=O)[O-])c4F)c4ccc([nH]4)c(-c4cccc(S(=O)(=O)[O-])c4F)c4nc(c(-c5cccc(S(=O)(=O)[O-])c5F)c5ccc2[nH]5)C=C4)C=C3)cc1
REMARK SMILES IDX 4 1 3 2 1 3 2 4 23 6 24 7 85 8 25 9 84 10 26 11 27 12 28 13
REMARK SMILES IDX 78 14 29 15 83 16 77 17 79 18 30 19 82 20 76 21 75 22 31 24
REMARK SMILES IDX 63 25 43 26 62 27 44 28 47 29 61 30 80 31 45 32 46 33 60 35
REMARK SMILES IDX 81 36 48 37 32 38 33 39 41 40 34 41 36 42 42 43 35 44 37 45
REMARK SMILES IDX 38 46 39 47 40 48 64 49 65 50 73 51 66 52 68 53 74 54 67 55
REMARK SMILES IDX 69 56 70 57 71 58 72 59 49 60 50 61 58 62 51 63 53 64 59 65
REMARK SMILES IDX 52 66 54 67 55 68 56 69 57 70 5 71 6 72 7 73 8 74 9 76 10 77
REMARK SMILES IDX 11 78 15 79 12 80 14 81 13 82 16 83 22 84 17 85 18 86 19 87
REMARK SMILES IDX 20 88 21 89
REMARK H PARENT 3 5 79 23 47 34 7 75
REMARK Flexibility Score: inf
ROOT
ATOM      1  C   UNL A   1      33.039  29.162  25.329  1.00  0.00     0.118 C 
ENDROOT
BRANCH   1   2
ATOM      2  N   UNL A   1      32.604  30.456  25.836  1.00  0.00    -0.352 N 
ATOM      3  O   UNL A   1      32.425  32.183  27.251  1.00  0.00    -0.269 OA
ATOM      4  C   UNL A   1      33.088  31.221  26.867  1.00  0.00     0.251 C 
ATOM      5  H   UNL A   1      31.837  30.847  25.360  1.00  0.00     0.163 HD
BRANCH   4   6
ATOM      6  C   UNL A   1      34.384  30.913  27.517  1.00  0.00     0.039 A 
ATOM      7  C   UNL A   1      34.625  29.604  27.953  1.00  0.00     0.014 A 
ATOM      8  C   UNL A   1      35.324  31.912  27.780  1.00  0.00     0.014 A 
ATOM      9  C   UNL A   1      35.808  29.299  28.632  1.00  0.00     0.010 A 
ATOM     10  C   UNL A   1      36.540  31.590  28.375  1.00  0.00     0.010 A 
ATOM     11  C   UNL A   1      36.777  30.290  28.845  1.00  0.00    -0.014 A 
BRANCH  11  12
ATOM     12  C   UNL A   1      37.998  30.032  29.648  1.00  0.00     0.031 A 
ATOM     13  C   UNL A   1      39.067  29.127  29.092  1.00  0.00     0.074 A 
ATOM     14  C   UNL A   1      38.127  30.544  30.886  1.00  0.00     0.049 A 
ATOM     15  N   UNL A   1      40.137  28.656  29.677  1.00  0.00    -0.248 NA
ATOM     16  C   UNL A   1      38.892  28.667  27.703  1.00  0.00     0.031 C 
ATOM     17  C   UNL A   1      37.152  31.406  31.554  1.00  0.00     0.029 A 
ATOM     18  N   UNL A   1      39.130  30.392  31.811  1.00  0.00    -0.354 N 
ATOM     19  C   UNL A   1      40.730  27.807  28.751  1.00  0.00     0.074 A 
ATOM     20  C   UNL A   1      39.890  27.806  27.575  1.00  0.00     0.031 C 
ATOM     21  C   UNL A   1      37.609  31.715  32.778  1.00  0.00     0.029 A 
ATOM     22  C   UNL A   1      38.890  31.048  32.995  1.00  0.00     0.049 A 
ATOM     23  H   UNL A   1      39.943  29.863  31.643  1.00  0.00     0.167 HD
ATOM     24  C   UNL A   1      41.890  27.118  28.852  1.00  0.00     0.034 A 
ATOM     25  C   UNL A   1      39.616  31.098  34.129  1.00  0.00     0.034 A 
ATOM     26  C   UNL A   1      42.770  27.184  29.984  1.00  0.00     0.049 A 
ATOM     27  C   UNL A   1      40.917  30.351  34.209  1.00  0.00     0.074 A 
ATOM     28  C   UNL A   1      44.007  26.585  30.145  1.00  0.00     0.029 A 
ATOM     29  N   UNL A   1      42.515  27.901  31.140  1.00  0.00    -0.354 N 
ATOM     30  N   UNL A   1      41.503  29.620  33.293  1.00  0.00    -0.248 NA
ATOM     31  C   UNL A   1      41.666  30.447  35.471  1.00  0.00     0.031 C 
ATOM     32  C   UNL A   1      44.501  26.942  31.403  1.00  0.00     0.029 A 
ATOM     33  C   UNL A   1      43.572  27.763  32.022  1.00  0.00     0.049 A 
ATOM     34  H   UNL A   1      41.704  28.431  31.309  1.00  0.00     0.167 HD
ATOM     35  C   UNL A   1      42.692  29.176  33.861  1.00  0.00     0.074 A 
ATOM     36  C   UNL A   1      42.754  29.739  35.195  1.00  0.00     0.031 C 
ATOM     37  C   UNL A   1      43.636  28.360  33.332  1.00  0.00     0.034 A 
BRANCH  24  38
ATOM     38  C   UNL A   1      42.309  26.290  27.669  1.00  0.00     0.023 A 
ATOM     39  C   UNL A   1      43.132  26.869  26.683  1.00  0.00     0.012 A 
ATOM     40  C   UNL A   1      41.931  24.939  27.555  1.00  0.00     0.148 A 
ATOM     41  C   UNL A   1      43.555  26.122  25.584  1.00  0.00     0.002 A 
ATOM     42  C   UNL A   1      42.384  24.191  26.475  1.00  0.00     0.091 A 
ATOM     43  F   UNL A   1      41.131  24.417  28.495  1.00  0.00    -0.205 F 
ATOM     44  C   UNL A   1      43.189  24.782  25.486  1.00  0.00     0.022 A 
BRANCH  42  45
ATOM     45  S   UNL A   1      42.012  22.445  26.275  1.00  0.00     0.127 S 
ATOM     46  O   UNL A   1      42.676  22.146  25.007  1.00  0.00    -0.237 OA
ATOM     47  O   UNL A   1      42.653  21.859  27.453  1.00  0.00    -0.237 OA
ATOM     48  O   UNL A   1      40.560  22.342  26.256  1.00  0.00    -0.744 OA
ENDBRANCH  42  45
ENDBRANCH  24  38
BRANCH  25  49
ATOM     49  C   UNL A   1      39.143  31.951  35.252  1.00  0.00     0.023 A 
ATOM     50  C   UNL A   1      38.242  31.407  36.187  1.00  0.00     0.012 A 
ATOM     51  C   UNL A   1      39.644  33.252  35.449  1.00  0.00     0.148 A 
ATOM     52  C   UNL A   1      37.845  32.146  37.301  1.00  0.00     0.002 A 
ATOM     53  C   UNL A   1      39.274  33.967  36.581  1.00  0.00     0.091 A 
ATOM     54  F   UNL A   1      40.503  33.742  34.545  1.00  0.00    -0.205 F 
ATOM     55  C   UNL A   1      38.367  33.420  37.503  1.00  0.00     0.022 A 
BRANCH  53  56
ATOM     56  S   UNL A   1      39.969  35.574  36.986  1.00  0.00     0.127 S 
ATOM     57  O   UNL A   1      39.279  35.894  38.235  1.00  0.00    -0.237 OA
ATOM     58  O   UNL A   1      41.389  35.250  37.134  1.00  0.00    -0.237 OA
ATOM     59  O   UNL A   1      39.653  36.441  35.863  1.00  0.00    -0.744 OA
ENDBRANCH  53  56
ENDBRANCH  25  49
BRANCH  37  60
ATOM     60  C   UNL A   1      44.821  28.004  34.186  1.00  0.00     0.023 A 
ATOM     61  C   UNL A   1      45.939  28.861  34.194  1.00  0.00     0.012 A 
ATOM     62  C   UNL A   1      44.779  26.904  35.063  1.00  0.00     0.148 A 
ATOM     63  C   UNL A   1      47.005  28.622  35.059  1.00  0.00     0.002 A 
ATOM     64  C   UNL A   1      45.832  26.690  35.946  1.00  0.00     0.091 A 
ATOM     65  F   UNL A   1      43.708  26.100  35.029  1.00  0.00    -0.205 F 
ATOM     66  C   UNL A   1      46.946  27.546  35.942  1.00  0.00     0.022 A 
BRANCH  64  67
ATOM     67  S   UNL A   1      45.817  25.377  37.172  1.00  0.00     0.127 S 
ATOM     68  O   UNL A   1      47.102  25.579  37.838  1.00  0.00    -0.237 OA
ATOM     69  O   UNL A   1      44.647  25.721  37.981  1.00  0.00    -0.237 OA
ATOM     70  O   UNL A   1      45.693  24.131  36.426  1.00  0.00    -0.744 OA
ENDBRANCH  64  67
ENDBRANCH  37  60
ENDBRANCH  11  12
ENDBRANCH   4   6
ENDBRANCH   1   2
BRANCH   1  71
ATOM     71  C   UNL A   1      32.914  29.056  23.815  1.00  0.00     0.042 C 
BRANCH  71  72
ATOM     72  C   UNL A   1      32.095  27.868  23.331  1.00  0.00     0.118 C 
BRANCH  72  73
ATOM     73  N   UNL A   1      32.550  27.356  22.047  1.00  0.00    -0.352 N 
ATOM     74  C   UNL A   1      32.790  26.080  21.636  1.00  0.00     0.251 C 
ATOM     75  H   UNL A   1      32.712  28.046  21.363  1.00  0.00     0.163 HD
ATOM     76  O   UNL A   1      33.277  25.876  20.527  1.00  0.00    -0.269 OA
BRANCH  74  77
ATOM     77  C   UNL A   1      32.464  24.945  22.545  1.00  0.00     0.042 A 
ATOM     78  C   UNL A   1      31.112  24.737  23.045  1.00  0.00     0.016 A 
ATOM     79  C   UNL A   1      33.475  24.096  22.797  1.00  0.00     0.044 A 
ATOM     80  C   UNL A   1      30.788  23.759  23.902  1.00  0.00     0.031 A 
ATOM     81  C   UNL A   1      33.190  22.959  23.673  1.00  0.00     0.087 A 
ATOM     82  C   UNL A   1      31.844  22.813  24.266  1.00  0.00     0.086 A 
ATOM     83  N   UNL A   1      33.987  22.020  24.044  1.00  0.00    -0.247 NA
ATOM     84  N   UNL A   1      31.763  21.805  25.063  1.00  0.00    -0.247 NA
ATOM     85  C   UNL A   1      33.122  21.169  24.934  1.00  0.00     0.326 C 
BRANCH  85  86
ATOM     86  C   UNL A   1      33.007  19.708  24.411  1.00  0.00     0.431 C 
ATOM     87  F   UNL A   1      34.216  19.092  24.398  1.00  0.00    -0.167 F 
ATOM     88  F   UNL A   1      32.183  18.963  25.190  1.00  0.00    -0.167 F 
ATOM     89  F   UNL A   1      32.526  19.657  23.147  1.00  0.00    -0.167 F 
ENDBRANCH  85  86
ENDBRANCH  74  77
ENDBRANCH  72  73
ENDBRANCH  71  72
ENDBRANCH   1  71
TORSDOF 14
ENDMDL
