MODEL 1
REMARK VINA RESULT:     -10.8      0.000      0.000
REMARK SMILES CC[C@@H](C)CNC(=O)N1CCO[C@@H](CC(=O)NCCCNC(=O)c2ccc(-c3c4nc(c(-c5cccc(S(=O)(=O)[O-])c5F)c5ccc([nH]5)c(-c5cccc(S(=O)(=O)[O-])c5F)c5nc(c(-c6cccc(S(=O)(=O)[O-])c6F)c6ccc3[nH]6)C=C5)C=C4)cc2)C1
REMARK SMILES IDX 18 1 17 2 15 3 16 4 14 6 13 7 9 8 10 9 87 10 11 11 12 12
REMARK SMILES IDX 7 13 6 14 8 16 5 17 3 18 4 19 2 20 1 21 19 22 20 23 21 24
REMARK SMILES IDX 22 25 23 27 24 28 25 29 86 30 26 31 85 32 27 33 28 34 29 35
REMARK SMILES IDX 79 36 30 37 84 38 78 39 80 40 31 41 83 42 77 43 76 44 32 46
REMARK SMILES IDX 64 47 44 48 63 49 45 50 48 51 62 52 81 53 46 54 47 55 61 57
REMARK SMILES IDX 82 58 49 59 33 60 34 61 42 62 35 63 37 64 43 65 36 66 38 67
REMARK SMILES IDX 39 68 40 69 41 70 65 71 66 72 74 73 67 74 69 75 75 76 68 77
REMARK SMILES IDX 70 78 71 79 72 80 73 81 50 82 51 83 59 84 52 85 54 86 60 87
REMARK SMILES IDX 53 88 55 89 56 90 57 91 58 92
REMARK H PARENT 17 5 6 15 21 26 80 45 48 56
REMARK Flexibility Score: inf
ROOT
ATOM      1  C   UNL A   1      36.085  20.437  25.092  1.00  0.00     0.117 C 
ENDROOT
BRANCH   1   2
ATOM      2  N   UNL A   1      34.824  19.711  24.957  1.00  0.00    -0.356 N 
ATOM      3  C   UNL A   1      33.552  20.023  25.340  1.00  0.00     0.222 C 
ATOM      4  O   UNL A   1      32.661  19.201  25.112  1.00  0.00    -0.275 OA
ATOM      5  H   UNL A   1      34.908  18.839  24.507  1.00  0.00     0.163 HD
BRANCH   3   6
ATOM      6  C   UNL A   1      33.229  21.331  26.034  1.00  0.00     0.133 C 
BRANCH   6   7
ATOM      7  C   UNL A   1      32.770  22.430  25.067  1.00  0.00     0.147 C 
ATOM      8  N   UNL A   1      32.939  24.909  24.740  1.00  0.00    -0.320 N 
ATOM      9  C   UNL A   1      33.678  24.669  23.506  1.00  0.00     0.150 C 
ATOM     10  C   UNL A   1      33.038  23.811  25.675  1.00  0.00     0.154 C 
ATOM     11  C   UNL A   1      33.235  23.335  22.906  1.00  0.00     0.182 C 
ATOM     12  O   UNL A   1      33.497  22.256  23.828  1.00  0.00    -0.374 OA
BRANCH   8  13
ATOM     13  C   UNL A   1      32.832  26.169  25.283  1.00  0.00     0.317 C 
ATOM     14  N   UNL A   1      31.714  26.882  25.019  1.00  0.00    -0.338 N 
ATOM     15  H   UNL A   1      31.767  27.842  25.236  1.00  0.00     0.165 HD
ATOM     16  O   UNL A   1      33.677  26.621  26.054  1.00  0.00    -0.249 OA
BRANCH  14  17
ATOM     17  C   UNL A   1      30.450  26.440  24.466  1.00  0.00     0.121 C 
BRANCH  17  18
ATOM     18  C   UNL A   1      30.080  27.161  23.153  1.00  0.00     0.005 C 
ATOM     19  C   UNL A   1      31.254  27.024  22.178  1.00  0.00     0.009 C 
BRANCH  18  20
ATOM     20  C   UNL A   1      29.707  28.631  23.435  1.00  0.00     0.002 C 
ATOM     21  C   UNL A   1      28.491  29.134  22.669  1.00  0.00     0.004 C 
ENDBRANCH  18  20
ENDBRANCH  17  18
ENDBRANCH  14  17
ENDBRANCH   8  13
ENDBRANCH   6   7
ENDBRANCH   3   6
ENDBRANCH   1   2
BRANCH   1  22
ATOM     22  C   UNL A   1      37.307  19.520  25.023  1.00  0.00     0.042 C 
BRANCH  22  23
ATOM     23  C   UNL A   1      38.649  20.192  25.266  1.00  0.00     0.118 C 
BRANCH  23  24
ATOM     24  N   UNL A   1      39.648  19.256  25.750  1.00  0.00    -0.352 N 
ATOM     25  C   UNL A   1      40.928  19.478  26.201  1.00  0.00     0.251 C 
ATOM     26  H   UNL A   1      39.364  18.314  25.756  1.00  0.00     0.163 HD
ATOM     27  O   UNL A   1      41.678  18.511  26.327  1.00  0.00    -0.269 OA
BRANCH  25  28
ATOM     28  C   UNL A   1      41.430  20.840  26.532  1.00  0.00     0.039 A 
ATOM     29  C   UNL A   1      41.508  21.786  25.503  1.00  0.00     0.014 A 
ATOM     30  C   UNL A   1      41.893  21.183  27.804  1.00  0.00     0.014 A 
ATOM     31  C   UNL A   1      41.999  23.073  25.759  1.00  0.00     0.010 A 
ATOM     32  C   UNL A   1      42.305  22.491  28.079  1.00  0.00     0.010 A 
ATOM     33  C   UNL A   1      42.373  23.450  27.059  1.00  0.00    -0.014 A 
BRANCH  33  34
ATOM     34  C   UNL A   1      42.813  24.843  27.359  1.00  0.00     0.031 A 
ATOM     35  C   UNL A   1      41.871  25.835  27.992  1.00  0.00     0.074 A 
ATOM     36  C   UNL A   1      44.051  25.241  26.999  1.00  0.00     0.049 A 
ATOM     37  N   UNL A   1      42.078  27.093  28.293  1.00  0.00    -0.248 NA
ATOM     38  C   UNL A   1      40.514  25.363  28.311  1.00  0.00     0.031 C 
ATOM     39  C   UNL A   1      45.037  24.406  26.308  1.00  0.00     0.029 A 
ATOM     40  N   UNL A   1      44.683  26.453  27.137  1.00  0.00    -0.354 N 
ATOM     41  C   UNL A   1      40.874  27.571  28.799  1.00  0.00     0.074 A 
ATOM     42  C   UNL A   1      39.933  26.474  28.746  1.00  0.00     0.031 C 
ATOM     43  C   UNL A   1      46.146  25.128  26.084  1.00  0.00     0.029 A 
ATOM     44  C   UNL A   1      45.940  26.486  26.578  1.00  0.00     0.049 A 
ATOM     45  H   UNL A   1      44.275  27.225  27.592  1.00  0.00     0.167 HD
ATOM     46  C   UNL A   1      40.583  28.802  29.286  1.00  0.00     0.034 A 
ATOM     47  C   UNL A   1      46.824  27.497  26.456  1.00  0.00     0.034 A 
ATOM     48  C   UNL A   1      41.529  29.884  29.375  1.00  0.00     0.049 A 
ATOM     49  C   UNL A   1      46.486  28.845  27.035  1.00  0.00     0.074 A 
ATOM     50  C   UNL A   1      41.353  31.132  29.946  1.00  0.00     0.029 A 
ATOM     51  N   UNL A   1      42.819  29.854  28.870  1.00  0.00    -0.354 N 
ATOM     52  N   UNL A   1      45.403  29.222  27.667  1.00  0.00    -0.248 NA
ATOM     53  C   UNL A   1      47.506  29.897  26.913  1.00  0.00     0.031 C 
ATOM     54  C   UNL A   1      42.525  31.873  29.751  1.00  0.00     0.029 A 
ATOM     55  C   UNL A   1      43.442  31.071  29.093  1.00  0.00     0.049 A 
ATOM     56  H   UNL A   1      43.232  29.083  28.418  1.00  0.00     0.167 HD
ATOM     57  C   UNL A   1      45.619  30.544  28.041  1.00  0.00     0.074 A 
ATOM     58  C   UNL A   1      46.950  30.892  27.591  1.00  0.00     0.031 C 
ATOM     59  C   UNL A   1      44.784  31.398  28.681  1.00  0.00     0.034 A 
BRANCH  46  60
ATOM     60  C   UNL A   1      39.189  29.048  29.806  1.00  0.00     0.023 A 
ATOM     61  C   UNL A   1      38.855  28.656  31.118  1.00  0.00     0.012 A 
ATOM     62  C   UNL A   1      38.241  29.747  29.033  1.00  0.00     0.148 A 
ATOM     63  C   UNL A   1      37.593  28.931  31.643  1.00  0.00     0.002 A 
ATOM     64  C   UNL A   1      36.999  30.056  29.578  1.00  0.00     0.091 A 
ATOM     65  F   UNL A   1      38.571  30.099  27.782  1.00  0.00    -0.205 F 
ATOM     66  C   UNL A   1      36.670  29.639  30.878  1.00  0.00     0.022 A 
BRANCH  64  67
ATOM     67  S   UNL A   1      35.770  31.036  28.708  1.00  0.00     0.127 S 
ATOM     68  O   UNL A   1      34.932  31.504  29.810  1.00  0.00    -0.237 OA
ATOM     69  O   UNL A   1      36.589  32.071  28.081  1.00  0.00    -0.237 OA
ATOM     70  O   UNL A   1      35.118  30.126  27.773  1.00  0.00    -0.744 OA
ENDBRANCH  64  67
ENDBRANCH  46  60
BRANCH  47  71
ATOM     71  C   UNL A   1      48.134  27.263  25.784  1.00  0.00     0.023 A 
ATOM     72  C   UNL A   1      49.241  26.831  26.540  1.00  0.00     0.012 A 
ATOM     73  C   UNL A   1      48.283  27.451  24.395  1.00  0.00     0.148 A 
ATOM     74  C   UNL A   1      50.480  26.624  25.932  1.00  0.00     0.002 A 
ATOM     75  C   UNL A   1      49.504  27.185  23.786  1.00  0.00     0.091 A 
ATOM     76  F   UNL A   1      47.223  27.878  23.692  1.00  0.00    -0.205 F 
ATOM     77  C   UNL A   1      50.609  26.791  24.555  1.00  0.00     0.022 A 
BRANCH  75  78
ATOM     78  S   UNL A   1      49.716  27.242  22.002  1.00  0.00     0.127 S 
ATOM     79  O   UNL A   1      48.729  26.265  21.550  1.00  0.00    -0.237 OA
ATOM     80  O   UNL A   1      49.385  28.635  21.701  1.00  0.00    -0.237 OA
ATOM     81  O   UNL A   1      51.110  26.895  21.756  1.00  0.00    -0.744 OA
ENDBRANCH  75  78
ENDBRANCH  47  71
BRANCH  59  82
ATOM     82  C   UNL A   1      45.284  32.792  28.962  1.00  0.00     0.023 A 
ATOM     83  C   UNL A   1      46.004  33.051  30.147  1.00  0.00     0.012 A 
ATOM     84  C   UNL A   1      45.104  33.826  28.023  1.00  0.00     0.148 A 
ATOM     85  C   UNL A   1      46.505  34.327  30.407  1.00  0.00     0.002 A 
ATOM     86  C   UNL A   1      45.650  35.080  28.266  1.00  0.00     0.091 A 
ATOM     87  F   UNL A   1      44.405  33.564  26.910  1.00  0.00    -0.205 F 
ATOM     88  C   UNL A   1      46.339  35.336  29.463  1.00  0.00     0.022 A 
BRANCH  86  89
ATOM     89  S   UNL A   1      45.571  36.418  27.068  1.00  0.00     0.127 S 
ATOM     90  O   UNL A   1      46.188  35.803  25.894  1.00  0.00    -0.237 OA
ATOM     91  O   UNL A   1      44.129  36.643  26.951  1.00  0.00    -0.237 OA
ATOM     92  O   UNL A   1      46.311  37.527  27.652  1.00  0.00    -0.744 OA
ENDBRANCH  86  89
ENDBRANCH  59  82
ENDBRANCH  33  34
ENDBRANCH  25  28
ENDBRANCH  23  24
ENDBRANCH  22  23
ENDBRANCH   1  22
TORSDOF 18
ENDMDL
MODEL 2
REMARK VINA RESULT:     -10.5      2.934      8.412
REMARK SMILES CC[C@@H](C)CNC(=O)N1CCO[C@@H](CC(=O)NCCCNC(=O)c2ccc(-c3c4nc(c(-c5cccc(S(=O)(=O)[O-])c5F)c5ccc([nH]5)c(-c5cccc(S(=O)(=O)[O-])c5F)c5nc(c(-c6cccc(S(=O)(=O)[O-])c6F)c6ccc3[nH]6)C=C5)C=C4)cc2)C1
REMARK SMILES IDX 18 1 17 2 15 3 16 4 14 6 13 7 9 8 10 9 87 10 11 11 12 12
REMARK SMILES IDX 7 13 6 14 8 16 5 17 3 18 4 19 2 20 1 21 19 22 20 23 21 24
REMARK SMILES IDX 22 25 23 27 24 28 25 29 86 30 26 31 85 32 27 33 28 34 29 35
REMARK SMILES IDX 79 36 30 37 84 38 78 39 80 40 31 41 83 42 77 43 76 44 32 46
REMARK SMILES IDX 64 47 44 48 63 49 45 50 48 51 62 52 81 53 46 54 47 55 61 57
REMARK SMILES IDX 82 58 49 59 33 60 34 61 42 62 35 63 37 64 43 65 36 66 38 67
REMARK SMILES IDX 39 68 40 69 41 70 65 71 66 72 74 73 67 74 69 75 75 76 68 77
REMARK SMILES IDX 70 78 71 79 72 80 73 81 50 82 51 83 59 84 52 85 54 86 60 87
REMARK SMILES IDX 53 88 55 89 56 90 57 91 58 92
REMARK H PARENT 17 5 6 15 21 26 80 45 48 56
REMARK Flexibility Score: inf
ROOT
ATOM      1  C   UNL A   1      36.015  21.923  24.027  1.00  0.00     0.117 C 
ENDROOT
BRANCH   1   2
ATOM      2  N   UNL A   1      35.157  21.052  24.829  1.00  0.00    -0.356 N 
ATOM      3  C   UNL A   1      33.813  20.819  24.790  1.00  0.00     0.222 C 
ATOM      4  O   UNL A   1      33.339  20.032  25.614  1.00  0.00    -0.275 OA
ATOM      5  H   UNL A   1      35.636  20.542  25.522  1.00  0.00     0.163 HD
BRANCH   3   6
ATOM      6  C   UNL A   1      32.915  21.504  23.780  1.00  0.00     0.133 C 
BRANCH   6   7
ATOM      7  C   UNL A   1      32.483  22.910  24.212  1.00  0.00     0.147 C 
ATOM      8  N   UNL A   1      31.779  25.103  23.226  1.00  0.00    -0.320 N 
ATOM      9  C   UNL A   1      30.469  24.931  23.844  1.00  0.00     0.150 C 
ATOM     10  C   UNL A   1      32.462  23.850  23.002  1.00  0.00     0.154 C 
ATOM     11  C   UNL A   1      30.621  24.101  25.118  1.00  0.00     0.182 C 
ATOM     12  O   UNL A   1      31.169  22.802  24.811  1.00  0.00    -0.374 OA
BRANCH   8  13
ATOM     13  C   UNL A   1      32.018  26.104  22.312  1.00  0.00     0.317 C 
ATOM     14  N   UNL A   1      32.250  27.351  22.780  1.00  0.00    -0.338 N 
ATOM     15  H   UNL A   1      32.201  28.069  22.108  1.00  0.00     0.165 HD
ATOM     16  O   UNL A   1      32.104  25.879  21.105  1.00  0.00    -0.249 OA
BRANCH  14  17
ATOM     17  C   UNL A   1      32.565  27.784  24.127  1.00  0.00     0.121 C 
BRANCH  17  18
ATOM     18  C   UNL A   1      31.349  28.373  24.872  1.00  0.00     0.005 C 
ATOM     19  C   UNL A   1      30.605  29.312  23.916  1.00  0.00     0.009 C 
BRANCH  18  20
ATOM     20  C   UNL A   1      31.802  29.077  26.167  1.00  0.00     0.002 C 
ATOM     21  C   UNL A   1      31.615  28.253  27.434  1.00  0.00     0.004 C 
ENDBRANCH  18  20
ENDBRANCH  17  18
ENDBRANCH  14  17
ENDBRANCH   8  13
ENDBRANCH   6   7
ENDBRANCH   3   6
ENDBRANCH   1   2
BRANCH   1  22
ATOM     22  C   UNL A   1      36.180  23.316  24.637  1.00  0.00     0.042 C 
BRANCH  22  23
ATOM     23  C   UNL A   1      36.749  23.353  26.047  1.00  0.00     0.118 C 
BRANCH  23  24
ATOM     24  N   UNL A   1      37.917  22.503  26.186  1.00  0.00    -0.352 N 
ATOM     25  C   UNL A   1      39.225  22.828  26.462  1.00  0.00     0.251 C 
ATOM     26  H   UNL A   1      37.747  21.541  26.064  1.00  0.00     0.163 HD
ATOM     27  O   UNL A   1      40.089  21.970  26.287  1.00  0.00    -0.269 OA
BRANCH  25  28
ATOM     28  C   UNL A   1      39.623  24.175  26.954  1.00  0.00     0.039 A 
ATOM     29  C   UNL A   1      39.439  24.466  28.312  1.00  0.00     0.014 A 
ATOM     30  C   UNL A   1      40.096  25.177  26.104  1.00  0.00     0.014 A 
ATOM     31  C   UNL A   1      39.773  25.729  28.817  1.00  0.00     0.010 A 
ATOM     32  C   UNL A   1      40.507  26.409  26.623  1.00  0.00     0.010 A 
ATOM     33  C   UNL A   1      40.342  26.706  27.983  1.00  0.00    -0.014 A 
BRANCH  33  34
ATOM     34  C   UNL A   1      40.782  28.022  28.529  1.00  0.00     0.031 A 
ATOM     35  C   UNL A   1      42.245  28.339  28.706  1.00  0.00     0.074 A 
ATOM     36  C   UNL A   1      39.856  28.917  28.933  1.00  0.00     0.049 A 
ATOM     37  N   UNL A   1      42.802  29.420  29.194  1.00  0.00    -0.248 NA
ATOM     38  C   UNL A   1      43.210  27.303  28.303  1.00  0.00     0.031 C 
ATOM     39  C   UNL A   1      38.407  28.707  28.892  1.00  0.00     0.029 A 
ATOM     40  N   UNL A   1      39.993  30.169  29.482  1.00  0.00    -0.354 N 
ATOM     41  C   UNL A   1      44.172  29.182  29.191  1.00  0.00     0.074 A 
ATOM     42  C   UNL A   1      44.363  27.844  28.672  1.00  0.00     0.031 C 
ATOM     43  C   UNL A   1      37.791  29.789  29.392  1.00  0.00     0.029 A 
ATOM     44  C   UNL A   1      38.796  30.754  29.825  1.00  0.00     0.049 A 
ATOM     45  H   UNL A   1      40.865  30.605  29.618  1.00  0.00     0.167 HD
ATOM     46  C   UNL A   1      45.181  30.006  29.563  1.00  0.00     0.034 A 
ATOM     47  C   UNL A   1      38.532  31.926  30.438  1.00  0.00     0.034 A 
ATOM     48  C   UNL A   1      44.995  31.351  30.043  1.00  0.00     0.049 A 
ATOM     49  C   UNL A   1      39.672  32.836  30.810  1.00  0.00     0.074 A 
ATOM     50  C   UNL A   1      45.960  32.294  30.347  1.00  0.00     0.029 A 
ATOM     51  N   UNL A   1      43.767  31.938  30.303  1.00  0.00    -0.354 N 
ATOM     52  N   UNL A   1      40.958  32.660  30.636  1.00  0.00    -0.248 NA
ATOM     53  C   UNL A   1      39.322  34.121  31.434  1.00  0.00     0.031 C 
ATOM     54  C   UNL A   1      45.318  33.440  30.829  1.00  0.00     0.029 A 
ATOM     55  C   UNL A   1      43.950  33.222  30.788  1.00  0.00     0.049 A 
ATOM     56  H   UNL A   1      42.893  31.506  30.164  1.00  0.00     0.167 HD
ATOM     57  C   UNL A   1      41.570  33.818  31.103  1.00  0.00     0.074 A 
ATOM     58  C   UNL A   1      40.509  34.702  31.539  1.00  0.00     0.031 C 
ATOM     59  C   UNL A   1      42.890  34.115  31.181  1.00  0.00     0.034 A 
BRANCH  46  60
ATOM     60  C   UNL A   1      46.595  29.501  29.430  1.00  0.00     0.023 A 
ATOM     61  C   UNL A   1      47.224  28.889  30.533  1.00  0.00     0.012 A 
ATOM     62  C   UNL A   1      47.268  29.550  28.192  1.00  0.00     0.148 A 
ATOM     63  C   UNL A   1      48.508  28.357  30.415  1.00  0.00     0.002 A 
ATOM     64  C   UNL A   1      48.530  28.979  28.071  1.00  0.00     0.091 A 
ATOM     65  F   UNL A   1      46.660  30.149  27.158  1.00  0.00    -0.205 F 
ATOM     66  C   UNL A   1      49.156  28.393  29.183  1.00  0.00     0.022 A 
BRANCH  64  67
ATOM     67  S   UNL A   1      49.416  28.897  26.510  1.00  0.00     0.127 S 
ATOM     68  O   UNL A   1      49.933  30.258  26.392  1.00  0.00    -0.237 OA
ATOM     69  O   UNL A   1      50.430  27.880  26.785  1.00  0.00    -0.237 OA
ATOM     70  O   UNL A   1      48.429  28.515  25.505  1.00  0.00    -0.744 OA
ENDBRANCH  64  67
ENDBRANCH  46  60
BRANCH  47  71
ATOM     71  C   UNL A   1      37.120  32.323  30.708  1.00  0.00     0.023 A 
ATOM     72  C   UNL A   1      36.573  32.127  31.991  1.00  0.00     0.012 A 
ATOM     73  C   UNL A   1      36.323  32.908  29.704  1.00  0.00     0.148 A 
ATOM     74  C   UNL A   1      35.248  32.475  32.259  1.00  0.00     0.002 A 
ATOM     75  C   UNL A   1      35.025  33.308  29.995  1.00  0.00     0.091 A 
ATOM     76  F   UNL A   1      36.855  33.073  28.484  1.00  0.00    -0.205 F 
ATOM     77  C   UNL A   1      34.478  33.074  31.265  1.00  0.00     0.022 A 
BRANCH  75  78
ATOM     78  S   UNL A   1      34.014  34.210  28.813  1.00  0.00     0.127 S 
ATOM     79  O   UNL A   1      34.913  35.287  28.409  1.00  0.00    -0.237 OA
ATOM     80  O   UNL A   1      33.768  33.196  27.787  1.00  0.00    -0.237 OA
ATOM     81  O   UNL A   1      32.820  34.620  29.542  1.00  0.00    -0.744 OA
ENDBRANCH  75  78
ENDBRANCH  47  71
BRANCH  59  82
ATOM     82  C   UNL A   1      43.275  35.462  31.737  1.00  0.00     0.023 A 
ATOM     83  C   UNL A   1      43.448  35.621  33.127  1.00  0.00     0.012 A 
ATOM     84  C   UNL A   1      43.534  36.549  30.880  1.00  0.00     0.148 A 
ATOM     85  C   UNL A   1      43.839  36.851  33.657  1.00  0.00     0.002 A 
ATOM     86  C   UNL A   1      43.972  37.756  31.410  1.00  0.00     0.091 A 
ATOM     87  F   UNL A   1      43.349  36.382  29.562  1.00  0.00    -0.205 F 
ATOM     88  C   UNL A   1      44.113  37.913  32.799  1.00  0.00     0.022 A 
BRANCH  86  89
ATOM     89  S   UNL A   1      44.440  39.153  30.380  1.00  0.00     0.127 S 
ATOM     90  O   UNL A   1      44.845  40.139  31.381  1.00  0.00    -0.237 OA
ATOM     91  O   UNL A   1      45.541  38.598  29.590  1.00  0.00    -0.237 OA
ATOM     92  O   UNL A   1      43.255  39.498  29.607  1.00  0.00    -0.744 OA
ENDBRANCH  86  89
ENDBRANCH  59  82
ENDBRANCH  33  34
ENDBRANCH  25  28
ENDBRANCH  23  24
ENDBRANCH  22  23
ENDBRANCH   1  22
TORSDOF 18
ENDMDL
MODEL 3
REMARK VINA RESULT:     -10.2      4.262     10.685
REMARK SMILES CC[C@@H](C)CNC(=O)N1CCO[C@@H](CC(=O)NCCCNC(=O)c2ccc(-c3c4nc(c(-c5cccc(S(=O)(=O)[O-])c5F)c5ccc([nH]5)c(-c5cccc(S(=O)(=O)[O-])c5F)c5nc(c(-c6cccc(S(=O)(=O)[O-])c6F)c6ccc3[nH]6)C=C5)C=C4)cc2)C1
REMARK SMILES IDX 18 1 17 2 15 3 16 4 14 6 13 7 9 8 10 9 87 10 11 11 12 12
REMARK SMILES IDX 7 13 6 14 8 16 5 17 3 18 4 19 2 20 1 21 19 22 20 23 21 24
REMARK SMILES IDX 22 25 23 27 24 28 25 29 86 30 26 31 85 32 27 33 28 34 29 35
REMARK SMILES IDX 79 36 30 37 84 38 78 39 80 40 31 41 83 42 77 43 76 44 32 46
REMARK SMILES IDX 64 47 44 48 63 49 45 50 48 51 62 52 81 53 46 54 47 55 61 57
REMARK SMILES IDX 82 58 49 59 33 60 34 61 42 62 35 63 37 64 43 65 36 66 38 67
REMARK SMILES IDX 39 68 40 69 41 70 65 71 66 72 74 73 67 74 69 75 75 76 68 77
REMARK SMILES IDX 70 78 71 79 72 80 73 81 50 82 51 83 59 84 52 85 54 86 60 87
REMARK SMILES IDX 53 88 55 89 56 90 57 91 58 92
REMARK H PARENT 17 5 6 15 21 26 80 45 48 56
REMARK Flexibility Score: inf
ROOT
ATOM      1  C   UNL A   1      43.033  21.028  25.682  1.00  0.00     0.117 C 
ENDROOT
BRANCH   1   2
ATOM      2  N   UNL A   1      42.760  22.398  25.255  1.00  0.00    -0.356 N 
ATOM      3  C   UNL A   1      43.589  23.456  25.015  1.00  0.00     0.222 C 
ATOM      4  O   UNL A   1      43.077  24.526  24.676  1.00  0.00    -0.275 OA
ATOM      5  H   UNL A   1      41.805  22.593  25.113  1.00  0.00     0.163 HD
BRANCH   3   6
ATOM      6  C   UNL A   1      45.092  23.338  25.168  1.00  0.00     0.133 C 
BRANCH   6   7
ATOM      7  C   UNL A   1      45.752  24.633  25.656  1.00  0.00     0.147 C 
ATOM      8  N   UNL A   1      47.566  25.414  27.198  1.00  0.00    -0.320 N 
ATOM      9  C   UNL A   1      48.286  25.940  26.044  1.00  0.00     0.150 C 
ATOM     10  C   UNL A   1      46.661  24.342  26.854  1.00  0.00     0.154 C 
ATOM     11  C   UNL A   1      47.281  26.332  24.962  1.00  0.00     0.182 C 
ATOM     12  O   UNL A   1      46.507  25.186  24.551  1.00  0.00    -0.374 OA
BRANCH   8  13
ATOM     13  C   UNL A   1      48.150  25.349  28.443  1.00  0.00     0.317 C 
ATOM     14  N   UNL A   1      47.347  25.434  29.528  1.00  0.00    -0.338 N 
ATOM     15  H   UNL A   1      47.810  25.601  30.381  1.00  0.00     0.165 HD
ATOM     16  O   UNL A   1      49.354  25.137  28.589  1.00  0.00    -0.249 OA
BRANCH  14  17
ATOM     17  C   UNL A   1      45.906  25.311  29.618  1.00  0.00     0.121 C 
BRANCH  17  18
ATOM     18  C   UNL A   1      45.382  25.391  31.067  1.00  0.00     0.005 C 
ATOM     19  C   UNL A   1      44.449  24.201  31.310  1.00  0.00     0.009 C 
BRANCH  18  20
ATOM     20  C   UNL A   1      44.694  26.749  31.314  1.00  0.00     0.002 C 
ATOM     21  C   UNL A   1      44.456  27.079  32.782  1.00  0.00     0.004 C 
ENDBRANCH  18  20
ENDBRANCH  17  18
ENDBRANCH  14  17
ENDBRANCH   8  13
ENDBRANCH   6   7
ENDBRANCH   3   6
ENDBRANCH   1   2
BRANCH   1  22
ATOM     22  C   UNL A   1      41.844  20.382  26.396  1.00  0.00     0.042 C 
BRANCH  22  23
ATOM     23  C   UNL A   1      40.929  21.337  27.147  1.00  0.00     0.118 C 
BRANCH  23  24
ATOM     24  N   UNL A   1      39.698  21.596  26.422  1.00  0.00    -0.352 N 
ATOM     25  C   UNL A   1      38.923  22.731  26.363  1.00  0.00     0.251 C 
ATOM     26  H   UNL A   1      39.365  20.838  25.890  1.00  0.00     0.163 HD
ATOM     27  O   UNL A   1      37.793  22.642  25.885  1.00  0.00    -0.269 OA
BRANCH  25  28
ATOM     28  C   UNL A   1      39.404  24.048  26.862  1.00  0.00     0.039 A 
ATOM     29  C   UNL A   1      39.985  24.933  25.945  1.00  0.00     0.014 A 
ATOM     30  C   UNL A   1      39.367  24.400  28.213  1.00  0.00     0.014 A 
ATOM     31  C   UNL A   1      40.477  26.173  26.371  1.00  0.00     0.010 A 
ATOM     32  C   UNL A   1      39.782  25.671  28.625  1.00  0.00     0.010 A 
ATOM     33  C   UNL A   1      40.351  26.570  27.712  1.00  0.00    -0.014 A 
BRANCH  33  34
ATOM     34  C   UNL A   1      40.791  27.923  28.158  1.00  0.00     0.031 A 
ATOM     35  C   UNL A   1      42.252  28.292  28.195  1.00  0.00     0.074 A 
ATOM     36  C   UNL A   1      39.872  28.808  28.598  1.00  0.00     0.049 A 
ATOM     37  N   UNL A   1      42.810  29.412  28.583  1.00  0.00    -0.248 NA
ATOM     38  C   UNL A   1      43.214  27.268  27.758  1.00  0.00     0.031 C 
ATOM     39  C   UNL A   1      38.432  28.553  28.691  1.00  0.00     0.029 A 
ATOM     40  N   UNL A   1      40.012  30.090  29.076  1.00  0.00    -0.354 N 
ATOM     41  C   UNL A   1      44.183  29.215  28.474  1.00  0.00     0.074 A 
ATOM     42  C   UNL A   1      44.375  27.861  28.003  1.00  0.00     0.031 C 
ATOM     43  C   UNL A   1      37.824  29.640  29.192  1.00  0.00     0.029 A 
ATOM     44  C   UNL A   1      38.829  30.655  29.493  1.00  0.00     0.049 A 
ATOM     45  H   UNL A   1      40.877  30.558  29.117  1.00  0.00     0.167 HD
ATOM     46  C   UNL A   1      45.191  30.087  28.720  1.00  0.00     0.034 A 
ATOM     47  C   UNL A   1      38.577  31.846  30.072  1.00  0.00     0.034 A 
ATOM     48  C   UNL A   1      45.000  31.447  29.152  1.00  0.00     0.049 A 
ATOM     49  C   UNL A   1      39.713  32.807  30.303  1.00  0.00     0.074 A 
ATOM     50  C   UNL A   1      45.955  32.433  29.330  1.00  0.00     0.029 A 
ATOM     51  N   UNL A   1      43.779  32.009  29.490  1.00  0.00    -0.354 N 
ATOM     52  N   UNL A   1      40.985  32.661  30.028  1.00  0.00    -0.248 NA
ATOM     53  C   UNL A   1      39.373  34.110  30.896  1.00  0.00     0.031 C 
ATOM     54  C   UNL A   1      45.316  33.581  29.811  1.00  0.00     0.029 A 
ATOM     55  C   UNL A   1      43.958  33.320  29.898  1.00  0.00     0.049 A 
ATOM     56  H   UNL A   1      42.912  31.545  29.446  1.00  0.00     0.167 HD
ATOM     57  C   UNL A   1      41.593  33.859  30.387  1.00  0.00     0.074 A 
ATOM     58  C   UNL A   1      40.544  34.730  30.872  1.00  0.00     0.031 C 
ATOM     59  C   UNL A   1      42.905  34.198  30.339  1.00  0.00     0.034 A 
BRANCH  46  60
ATOM     60  C   UNL A   1      46.605  29.619  28.490  1.00  0.00     0.023 A 
ATOM     61  C   UNL A   1      47.174  29.724  27.204  1.00  0.00     0.012 A 
ATOM     62  C   UNL A   1      47.401  29.164  29.561  1.00  0.00     0.148 A 
ATOM     63  C   UNL A   1      48.501  29.357  26.981  1.00  0.00     0.002 A 
ATOM     64  C   UNL A   1      48.736  28.842  29.340  1.00  0.00     0.091 A 
ATOM     65  F   UNL A   1      46.839  29.058  30.774  1.00  0.00    -0.205 F 
ATOM     66  C   UNL A   1      49.284  28.928  28.049  1.00  0.00     0.022 A 
BRANCH  64  67
ATOM     67  S   UNL A   1      49.853  28.358  30.661  1.00  0.00     0.127 S 
ATOM     68  O   UNL A   1      49.873  29.563  31.487  1.00  0.00    -0.237 OA
ATOM     69  O   UNL A   1      49.151  27.222  31.256  1.00  0.00    -0.237 OA
ATOM     70  O   UNL A   1      51.118  28.023  30.017  1.00  0.00    -0.744 OA
ENDBRANCH  64  67
ENDBRANCH  46  60
BRANCH  47  71
ATOM     71  C   UNL A   1      37.181  32.213  30.443  1.00  0.00     0.023 A 
ATOM     72  C   UNL A   1      36.719  31.973  31.752  1.00  0.00     0.012 A 
ATOM     73  C   UNL A   1      36.312  32.814  29.510  1.00  0.00     0.148 A 
ATOM     74  C   UNL A   1      35.410  32.291  32.114  1.00  0.00     0.002 A 
ATOM     75  C   UNL A   1      35.030  33.184  29.894  1.00  0.00     0.091 A 
ATOM     76  F   UNL A   1      36.762  33.021  28.263  1.00  0.00    -0.205 F 
ATOM     77  C   UNL A   1      34.569  32.906  31.189  1.00  0.00     0.022 A 
BRANCH  75  78
ATOM     78  S   UNL A   1      33.932  34.103  28.806  1.00  0.00     0.127 S 
ATOM     79  O   UNL A   1      34.813  35.159  28.314  1.00  0.00    -0.237 OA
ATOM     80  O   UNL A   1      33.570  33.091  27.814  1.00  0.00    -0.237 OA
ATOM     81  O   UNL A   1      32.821  34.543  29.641  1.00  0.00    -0.744 OA
ENDBRANCH  75  78
ENDBRANCH  47  71
BRANCH  59  82
ATOM     82  C   UNL A   1      43.289  35.582  30.797  1.00  0.00     0.023 A 
ATOM     83  C   UNL A   1      43.553  35.818  32.162  1.00  0.00     0.012 A 
ATOM     84  C   UNL A   1      43.458  36.628  29.871  1.00  0.00     0.148 A 
ATOM     85  C   UNL A   1      43.945  37.083  32.600  1.00  0.00     0.002 A 
ATOM     86  C   UNL A   1      43.897  37.872  30.307  1.00  0.00     0.091 A 
ATOM     87  F   UNL A   1      43.187  36.389  28.580  1.00  0.00    -0.205 F 
ATOM     88  C   UNL A   1      44.128  38.105  31.673  1.00  0.00     0.022 A 
BRANCH  86  89
ATOM     89  S   UNL A   1      44.253  39.224  29.177  1.00  0.00     0.127 S 
ATOM     90  O   UNL A   1      44.733  40.258  30.093  1.00  0.00    -0.237 OA
ATOM     91  O   UNL A   1      45.285  38.644  28.317  1.00  0.00    -0.237 OA
ATOM     92  O   UNL A   1      42.999  39.524  28.500  1.00  0.00    -0.744 OA
ENDBRANCH  86  89
ENDBRANCH  59  82
ENDBRANCH  33  34
ENDBRANCH  25  28
ENDBRANCH  23  24
ENDBRANCH  22  23
ENDBRANCH   1  22
TORSDOF 18
ENDMDL
