MODEL 1
REMARK VINA RESULT:     -12.3      0.000      0.000
REMARK SMILES COc1ccc(C(=O)N[C@H](C(=O)NCCCNC(=O)c2ccc(-c3c4nc(c(-c5cccc(S(=O)(=O)[O-])c5F)c5ccc([nH]5)c(-c5cccc(S(=O)(=O)[O-])c5F)c5nc(c(-c6cccc(S(=O)(=O)[O-])c6F)c6ccc3[nH]6)C=C5)C=C4)cc2)C2=C(C)N=N[C@H]2C)c(F)c1F
REMARK SMILES IDX 15 1 14 2 13 3 11 4 12 5 10 7 9 8 7 9 8 10 6 12 3 13 4 14
REMARK SMILES IDX 92 15 5 16 90 17 93 18 91 19 2 20 1 21 83 22 84 23 88 24
REMARK SMILES IDX 85 25 86 26 87 27 89 28 16 29 17 30 18 31 19 33 20 34 21 35
REMARK SMILES IDX 82 36 22 37 81 38 23 39 24 40 25 41 75 42 26 43 80 44 74 45
REMARK SMILES IDX 76 46 27 47 79 48 73 49 72 50 28 52 60 53 40 54 59 55 41 56
REMARK SMILES IDX 44 57 58 58 77 59 42 60 43 61 57 63 78 64 45 65 29 66 30 67
REMARK SMILES IDX 38 68 31 69 33 70 39 71 32 72 34 73 35 74 36 75 37 76 61 77
REMARK SMILES IDX 62 78 70 79 63 80 65 81 71 82 64 83 66 84 67 85 68 86 69 87
REMARK SMILES IDX 46 88 47 89 55 90 48 91 50 92 56 93 49 94 51 95 52 96 53 97
REMARK SMILES IDX 54 98
REMARK H PARENT 13 6 9 11 17 32 76 51 44 62
REMARK Flexibility Score: inf
ROOT
ATOM      1  C   UNL A   1      32.026  29.028  26.837  1.00  0.00     0.042 C 
ENDROOT
BRANCH   1   2
ATOM      2  C   UNL A   1      32.541  27.596  26.870  1.00  0.00     0.117 C 
BRANCH   2   3
ATOM      3  N   UNL A   1      31.430  26.675  26.992  1.00  0.00    -0.354 N 
ATOM      4  C   UNL A   1      30.810  25.920  26.048  1.00  0.00     0.247 C 
ATOM      5  O   UNL A   1      29.721  25.434  26.360  1.00  0.00    -0.272 OA
ATOM      6  H   UNL A   1      31.065  26.582  27.902  1.00  0.00     0.163 HD
BRANCH   4   7
ATOM      7  C   UNL A   1      31.478  25.719  24.671  1.00  0.00     0.202 C 
BRANCH   7   8
ATOM      8  N   UNL A   1      31.304  24.464  23.925  1.00  0.00    -0.336 N 
ATOM      9  C   UNL A   1      32.019  23.342  23.615  1.00  0.00     0.255 C 
ATOM     10  O   UNL A   1      31.506  22.579  22.791  1.00  0.00    -0.269 OA
ATOM     11  H   UNL A   1      30.403  24.419  23.531  1.00  0.00     0.165 HD
BRANCH   9  12
ATOM     12  C   UNL A   1      33.357  22.977  24.116  1.00  0.00     0.078 A 
ATOM     13  C   UNL A   1      35.983  22.308  24.902  1.00  0.00     0.157 A 
ATOM     14  C   UNL A   1      35.754  22.851  23.639  1.00  0.00     0.050 A 
ATOM     15  C   UNL A   1      34.886  22.016  25.718  1.00  0.00     0.201 A 
ATOM     16  C   UNL A   1      34.451  23.197  23.258  1.00  0.00     0.021 A 
ATOM     17  C   UNL A   1      33.583  22.300  25.304  1.00  0.00     0.175 A 
ATOM     18  F   UNL A   1      35.084  21.450  26.919  1.00  0.00    -0.200 F 
ATOM     19  F   UNL A   1      32.554  21.850  26.033  1.00  0.00    -0.203 F 
BRANCH  13  20
ATOM     20  O   UNL A   1      37.219  21.960  25.373  1.00  0.00    -0.494 OA
ATOM     21  C   UNL A   1      37.682  20.668  24.986  1.00  0.00     0.278 C 
ENDBRANCH  13  20
ENDBRANCH   9  12
ENDBRANCH   7   8
BRANCH   7  22
ATOM     22  C   UNL A   1      31.105  26.876  23.788  1.00  0.00     0.011 C 
ATOM     23  C   UNL A   1      31.873  27.499  22.883  1.00  0.00     0.064 C 
ATOM     24  C   UNL A   1      29.916  27.763  23.957  1.00  0.00     0.156 C 
ATOM     25  C   UNL A   1      33.264  27.171  22.451  1.00  0.00     0.069 C 
ATOM     26  N   UNL A   1      31.306  28.661  22.422  1.00  0.00    -0.160 NA
ATOM     27  N   UNL A   1      30.224  28.886  23.026  1.00  0.00    -0.181 NA
ATOM     28  C   UNL A   1      28.580  27.180  23.508  1.00  0.00     0.040 C 
ENDBRANCH   7  22
ENDBRANCH   4   7
ENDBRANCH   2   3
ENDBRANCH   1   2
BRANCH   1  29
ATOM     29  C   UNL A   1      32.998  29.997  26.176  1.00  0.00     0.118 C 
BRANCH  29  30
ATOM     30  N   UNL A   1      32.803  31.372  26.609  1.00  0.00    -0.352 N 
ATOM     31  C   UNL A   1      33.581  32.093  27.485  1.00  0.00     0.251 C 
ATOM     32  H   UNL A   1      32.024  31.840  26.233  1.00  0.00     0.163 HD
ATOM     33  O   UNL A   1      33.219  33.203  27.865  1.00  0.00    -0.269 OA
BRANCH  31  34
ATOM     34  C   UNL A   1      34.836  31.493  27.983  1.00  0.00     0.039 A 
ATOM     35  C   UNL A   1      35.990  32.275  28.030  1.00  0.00     0.014 A 
ATOM     36  C   UNL A   1      34.847  30.182  28.472  1.00  0.00     0.014 A 
ATOM     37  C   UNL A   1      37.146  31.760  28.621  1.00  0.00     0.010 A 
ATOM     38  C   UNL A   1      35.972  29.706  29.139  1.00  0.00     0.010 A 
ATOM     39  C   UNL A   1      37.137  30.484  29.212  1.00  0.00    -0.014 A 
BRANCH  39  40
ATOM     40  C   UNL A   1      38.337  29.947  29.905  1.00  0.00     0.031 A 
ATOM     41  C   UNL A   1      38.690  30.429  31.287  1.00  0.00     0.074 A 
ATOM     42  C   UNL A   1      39.151  29.081  29.267  1.00  0.00     0.049 A 
ATOM     43  N   UNL A   1      39.714  30.108  32.036  1.00  0.00    -0.248 NA
ATOM     44  C   UNL A   1      37.790  31.422  31.899  1.00  0.00     0.031 C 
ATOM     45  C   UNL A   1      38.966  28.595  27.898  1.00  0.00     0.029 A 
ATOM     46  N   UNL A   1      40.312  28.473  29.679  1.00  0.00    -0.354 N 
ATOM     47  C   UNL A   1      39.600  30.881  33.185  1.00  0.00     0.074 A 
ATOM     48  C   UNL A   1      38.432  31.716  33.020  1.00  0.00     0.031 C 
ATOM     49  C   UNL A   1      39.970  27.760  27.588  1.00  0.00     0.029 A 
ATOM     50  C   UNL A   1      40.888  27.673  28.719  1.00  0.00     0.049 A 
ATOM     51  H   UNL A   1      40.696  28.600  30.576  1.00  0.00     0.167 HD
ATOM     52  C   UNL A   1      40.378  30.875  34.294  1.00  0.00     0.034 A 
ATOM     53  C   UNL A   1      42.029  26.958  28.743  1.00  0.00     0.034 A 
ATOM     54  C   UNL A   1      41.516  30.017  34.474  1.00  0.00     0.049 A 
ATOM     55  C   UNL A   1      42.861  26.946  29.998  1.00  0.00     0.074 A 
ATOM     56  C   UNL A   1      42.317  29.875  35.594  1.00  0.00     0.029 A 
ATOM     57  N   UNL A   1      42.025  29.163  33.509  1.00  0.00    -0.354 N 
ATOM     58  N   UNL A   1      42.646  27.562  31.136  1.00  0.00    -0.248 NA
ATOM     59  C   UNL A   1      44.071  26.113  29.987  1.00  0.00     0.031 C 
ATOM     60  C   UNL A   1      43.327  28.955  35.295  1.00  0.00     0.029 A 
ATOM     61  C   UNL A   1      43.135  28.499  34.001  1.00  0.00     0.049 A 
ATOM     62  H   UNL A   1      41.651  29.045  32.605  1.00  0.00     0.167 HD
ATOM     63  C   UNL A   1      43.671  27.161  31.986  1.00  0.00     0.074 A 
ATOM     64  C   UNL A   1      44.493  26.233  31.238  1.00  0.00     0.031 C 
ATOM     65  C   UNL A   1      43.914  27.536  33.266  1.00  0.00     0.034 A 
BRANCH  52  66
ATOM     66  C   UNL A   1      39.991  31.795  35.424  1.00  0.00     0.023 A 
ATOM     67  C   UNL A   1      40.553  33.087  35.496  1.00  0.00     0.012 A 
ATOM     68  C   UNL A   1      39.034  31.405  36.381  1.00  0.00     0.148 A 
ATOM     69  C   UNL A   1      40.199  33.961  36.522  1.00  0.00     0.002 A 
ATOM     70  C   UNL A   1      38.649  32.300  37.373  1.00  0.00     0.091 A 
ATOM     71  F   UNL A   1      38.525  30.167  36.309  1.00  0.00    -0.205 F 
ATOM     72  C   UNL A   1      39.240  33.572  37.452  1.00  0.00     0.022 A 
BRANCH  70  73
ATOM     73  S   UNL A   1      37.362  31.927  38.568  1.00  0.00     0.127 S 
ATOM     74  O   UNL A   1      37.048  30.538  38.238  1.00  0.00    -0.237 OA
ATOM     75  O   UNL A   1      38.062  32.108  39.839  1.00  0.00    -0.237 OA
ATOM     76  O   UNL A   1      36.293  32.884  38.319  1.00  0.00    -0.744 OA
ENDBRANCH  70  73
ENDBRANCH  52  66
BRANCH  53  77
ATOM     77  C   UNL A   1      42.424  26.140  27.561  1.00  0.00     0.023 A 
ATOM     78  C   UNL A   1      43.224  26.717  26.554  1.00  0.00     0.012 A 
ATOM     79  C   UNL A   1      42.031  24.794  27.436  1.00  0.00     0.148 A 
ATOM     80  C   UNL A   1      43.595  25.981  25.430  1.00  0.00     0.002 A 
ATOM     81  C   UNL A   1      42.453  24.048  26.341  1.00  0.00     0.091 A 
ATOM     82  F   UNL A   1      41.262  24.265  28.398  1.00  0.00    -0.205 F 
ATOM     83  C   UNL A   1      43.218  24.644  25.327  1.00  0.00     0.022 A 
BRANCH  81  84
ATOM     84  S   UNL A   1      42.130  22.287  26.193  1.00  0.00     0.127 S 
ATOM     85  O   UNL A   1      42.889  21.944  24.994  1.00  0.00    -0.237 OA
ATOM     86  O   UNL A   1      42.687  21.773  27.446  1.00  0.00    -0.237 OA
ATOM     87  O   UNL A   1      40.683  22.159  26.085  1.00  0.00    -0.744 OA
ENDBRANCH  81  84
ENDBRANCH  53  77
BRANCH  65  88
ATOM     88  C   UNL A   1      45.094  26.914  33.966  1.00  0.00     0.023 A 
ATOM     89  C   UNL A   1      46.347  27.558  33.948  1.00  0.00     0.012 A 
ATOM     90  C   UNL A   1      44.940  25.726  34.708  1.00  0.00     0.148 A 
ATOM     91  C   UNL A   1      47.435  27.012  34.627  1.00  0.00     0.002 A 
ATOM     92  C   UNL A   1      46.015  25.215  35.426  1.00  0.00     0.091 A 
ATOM     93  F   UNL A   1      43.745  25.118  34.701  1.00  0.00    -0.205 F 
ATOM     94  C   UNL A   1      47.266  25.850  35.376  1.00  0.00     0.022 A 
BRANCH  92  95
ATOM     95  S   UNL A   1      45.865  23.780  36.496  1.00  0.00     0.127 S 
ATOM     96  O   UNL A   1      45.620  22.713  35.528  1.00  0.00    -0.237 OA
ATOM     97  O   UNL A   1      47.179  23.734  37.138  1.00  0.00    -0.237 OA
ATOM     98  O   UNL A   1      44.760  24.068  37.401  1.00  0.00    -0.744 OA
ENDBRANCH  92  95
ENDBRANCH  65  88
ENDBRANCH  39  40
ENDBRANCH  31  34
ENDBRANCH  29  30
ENDBRANCH   1  29
TORSDOF 17
ENDMDL
MODEL 2
REMARK VINA RESULT:     -12.3      1.416      2.106
REMARK SMILES COc1ccc(C(=O)N[C@H](C(=O)NCCCNC(=O)c2ccc(-c3c4nc(c(-c5cccc(S(=O)(=O)[O-])c5F)c5ccc([nH]5)c(-c5cccc(S(=O)(=O)[O-])c5F)c5nc(c(-c6cccc(S(=O)(=O)[O-])c6F)c6ccc3[nH]6)C=C5)C=C4)cc2)C2=C(C)N=N[C@H]2C)c(F)c1F
REMARK SMILES IDX 15 1 14 2 13 3 11 4 12 5 10 7 9 8 7 9 8 10 6 12 3 13 4 14
REMARK SMILES IDX 92 15 5 16 90 17 93 18 91 19 2 20 1 21 83 22 84 23 88 24
REMARK SMILES IDX 85 25 86 26 87 27 89 28 16 29 17 30 18 31 19 33 20 34 21 35
REMARK SMILES IDX 82 36 22 37 81 38 23 39 24 40 25 41 75 42 26 43 80 44 74 45
REMARK SMILES IDX 76 46 27 47 79 48 73 49 72 50 28 52 60 53 40 54 59 55 41 56
REMARK SMILES IDX 44 57 58 58 77 59 42 60 43 61 57 63 78 64 45 65 29 66 30 67
REMARK SMILES IDX 38 68 31 69 33 70 39 71 32 72 34 73 35 74 36 75 37 76 61 77
REMARK SMILES IDX 62 78 70 79 63 80 65 81 71 82 64 83 66 84 67 85 68 86 69 87
REMARK SMILES IDX 46 88 47 89 55 90 48 91 50 92 56 93 49 94 51 95 52 96 53 97
REMARK SMILES IDX 54 98
REMARK H PARENT 13 6 9 11 17 32 76 51 44 62
REMARK Flexibility Score: inf
ROOT
ATOM      1  C   UNL A   1      31.828  30.337  26.889  1.00  0.00     0.042 C 
ENDROOT
BRANCH   1   2
ATOM      2  C   UNL A   1      31.593  30.288  25.386  1.00  0.00     0.117 C 
BRANCH   2   3
ATOM      3  N   UNL A   1      32.754  29.729  24.723  1.00  0.00    -0.354 N 
ATOM      4  C   UNL A   1      32.894  28.568  24.031  1.00  0.00     0.247 C 
ATOM      5  O   UNL A   1      34.047  28.198  23.805  1.00  0.00    -0.272 OA
ATOM      6  H   UNL A   1      33.571  30.275  24.785  1.00  0.00     0.163 HD
BRANCH   4   7
ATOM      7  C   UNL A   1      31.638  27.792  23.580  1.00  0.00     0.202 C 
BRANCH   7   8
ATOM      8  N   UNL A   1      31.630  27.041  22.317  1.00  0.00    -0.336 N 
ATOM      9  C   UNL A   1      32.032  25.827  21.837  1.00  0.00     0.255 C 
ATOM     10  O   UNL A   1      31.962  25.673  20.614  1.00  0.00    -0.269 OA
ATOM     11  H   UNL A   1      31.208  27.572  21.603  1.00  0.00     0.165 HD
BRANCH   9  12
ATOM     12  C   UNL A   1      32.591  24.706  22.617  1.00  0.00     0.078 A 
ATOM     13  C   UNL A   1      33.828  22.605  24.035  1.00  0.00     0.157 A 
ATOM     14  C   UNL A   1      34.609  23.527  23.342  1.00  0.00     0.050 A 
ATOM     15  C   UNL A   1      32.435  22.687  23.930  1.00  0.00     0.201 A 
ATOM     16  C   UNL A   1      33.993  24.579  22.653  1.00  0.00     0.021 A 
ATOM     17  C   UNL A   1      31.828  23.698  23.183  1.00  0.00     0.175 A 
ATOM     18  F   UNL A   1      31.669  21.779  24.553  1.00  0.00    -0.200 F 
ATOM     19  F   UNL A   1      30.508  23.643  22.963  1.00  0.00    -0.203 F 
BRANCH  13  20
ATOM     20  O   UNL A   1      34.336  21.558  24.755  1.00  0.00    -0.494 OA
ATOM     21  C   UNL A   1      34.679  21.852  26.107  1.00  0.00     0.278 C 
ENDBRANCH  13  20
ENDBRANCH   9  12
ENDBRANCH   7   8
BRANCH   7  22
ATOM     22  C   UNL A   1      31.214  26.884  24.699  1.00  0.00     0.011 C 
ATOM     23  C   UNL A   1      30.015  26.311  24.882  1.00  0.00     0.064 C 
ATOM     24  C   UNL A   1      31.934  26.684  25.992  1.00  0.00     0.156 C 
ATOM     25  C   UNL A   1      28.813  26.351  23.998  1.00  0.00     0.069 C 
ATOM     26  N   UNL A   1      29.890  25.736  26.122  1.00  0.00    -0.160 NA
ATOM     27  N   UNL A   1      30.923  25.956  26.809  1.00  0.00    -0.181 NA
ATOM     28  C   UNL A   1      33.172  25.794  25.934  1.00  0.00     0.040 C 
ENDBRANCH   7  22
ENDBRANCH   4   7
ENDBRANCH   2   3
ENDBRANCH   1   2
BRANCH   1  29
ATOM     29  C   UNL A   1      33.142  31.008  27.267  1.00  0.00     0.118 C 
BRANCH  29  30
ATOM     30  N   UNL A   1      33.044  32.458  27.300  1.00  0.00    -0.352 N 
ATOM     31  C   UNL A   1      33.835  33.337  28.003  1.00  0.00     0.251 C 
ATOM     32  H   UNL A   1      32.328  32.858  26.755  1.00  0.00     0.163 HD
ATOM     33  O   UNL A   1      33.551  34.530  28.043  1.00  0.00    -0.269 OA
BRANCH  31  34
ATOM     34  C   UNL A   1      35.008  32.811  28.733  1.00  0.00     0.039 A 
ATOM     35  C   UNL A   1      34.805  31.983  29.837  1.00  0.00     0.014 A 
ATOM     36  C   UNL A   1      36.303  33.080  28.276  1.00  0.00     0.014 A 
ATOM     37  C   UNL A   1      35.902  31.374  30.451  1.00  0.00     0.010 A 
ATOM     38  C   UNL A   1      37.383  32.403  28.834  1.00  0.00     0.010 A 
ATOM     39  C   UNL A   1      37.197  31.552  29.934  1.00  0.00    -0.014 A 
BRANCH  39  40
ATOM     40  C   UNL A   1      38.368  30.859  30.533  1.00  0.00     0.031 A 
ATOM     41  C   UNL A   1      38.846  31.237  31.910  1.00  0.00     0.074 A 
ATOM     42  C   UNL A   1      39.047  29.943  29.813  1.00  0.00     0.049 A 
ATOM     43  N   UNL A   1      39.868  30.775  32.583  1.00  0.00    -0.248 NA
ATOM     44  C   UNL A   1      38.093  32.289  32.613  1.00  0.00     0.031 C 
ATOM     45  C   UNL A   1      38.736  29.543  28.439  1.00  0.00     0.029 A 
ATOM     46  N   UNL A   1      40.157  29.197  30.131  1.00  0.00    -0.354 N 
ATOM     47  C   UNL A   1      39.902  31.501  33.767  1.00  0.00     0.074 A 
ATOM     48  C   UNL A   1      38.824  32.462  33.706  1.00  0.00     0.031 C 
ATOM     49  C   UNL A   1      39.625  28.621  28.037  1.00  0.00     0.029 A 
ATOM     50  C   UNL A   1      40.589  28.386  29.107  1.00  0.00     0.049 A 
ATOM     51  H   UNL A   1      40.600  29.241  31.007  1.00  0.00     0.167 HD
ATOM     52  C   UNL A   1      40.735  31.362  34.827  1.00  0.00     0.034 A 
ATOM     53  C   UNL A   1      41.646  27.554  29.034  1.00  0.00     0.034 A 
ATOM     54  C   UNL A   1      41.781  30.381  34.904  1.00  0.00     0.049 A 
ATOM     55  C   UNL A   1      42.539  27.397  30.236  1.00  0.00     0.074 A 
ATOM     56  C   UNL A   1      42.622  30.104  35.968  1.00  0.00     0.029 A 
ATOM     57  N   UNL A   1      42.141  29.524  33.877  1.00  0.00    -0.354 N 
ATOM     58  N   UNL A   1      42.454  27.978  31.409  1.00  0.00    -0.248 NA
ATOM     59  C   UNL A   1      43.650  26.441  30.120  1.00  0.00     0.031 C 
ATOM     60  C   UNL A   1      43.509  29.097  35.572  1.00  0.00     0.029 A 
ATOM     61  C   UNL A   1      43.198  28.724  34.275  1.00  0.00     0.049 A 
ATOM     62  H   UNL A   1      41.708  29.488  32.993  1.00  0.00     0.167 HD
ATOM     63  C   UNL A   1      43.475  27.432  32.180  1.00  0.00     0.074 A 
ATOM     64  C   UNL A   1      44.150  26.458  31.347  1.00  0.00     0.031 C 
ATOM     65  C   UNL A   1      43.827  27.720  33.457  1.00  0.00     0.034 A 
BRANCH  52  66
ATOM     66  C   UNL A   1      40.511  32.264  36.014  1.00  0.00     0.023 A 
ATOM     67  C   UNL A   1      41.361  33.372  36.218  1.00  0.00     0.012 A 
ATOM     68  C   UNL A   1      39.434  32.050  36.895  1.00  0.00     0.148 A 
ATOM     69  C   UNL A   1      41.165  34.230  37.298  1.00  0.00     0.002 A 
ATOM     70  C   UNL A   1      39.215  32.938  37.942  1.00  0.00     0.091 A 
ATOM     71  F   UNL A   1      38.649  30.981  36.698  1.00  0.00    -0.205 F 
ATOM     72  C   UNL A   1      40.087  34.019  38.153  1.00  0.00     0.022 A 
BRANCH  70  73
ATOM     73  S   UNL A   1      37.808  32.803  39.049  1.00  0.00     0.127 S 
ATOM     74  O   UNL A   1      36.688  32.890  38.112  1.00  0.00    -0.237 OA
ATOM     75  O   UNL A   1      38.007  31.480  39.639  1.00  0.00    -0.237 OA
ATOM     76  O   UNL A   1      37.924  33.912  39.985  1.00  0.00    -0.744 OA
ENDBRANCH  70  73
ENDBRANCH  52  66
BRANCH  53  77
ATOM     77  C   UNL A   1      41.885  26.755  27.798  1.00  0.00     0.023 A 
ATOM     78  C   UNL A   1      42.466  27.373  26.674  1.00  0.00     0.012 A 
ATOM     79  C   UNL A   1      41.560  25.386  27.736  1.00  0.00     0.148 A 
ATOM     80  C   UNL A   1      42.686  26.654  25.500  1.00  0.00     0.002 A 
ATOM     81  C   UNL A   1      41.835  24.661  26.582  1.00  0.00     0.091 A 
ATOM     82  F   UNL A   1      40.999  24.817  28.812  1.00  0.00    -0.205 F 
ATOM     83  C   UNL A   1      42.379  25.297  25.456  1.00  0.00     0.022 A 
BRANCH  81  84
ATOM     84  S   UNL A   1      41.602  22.882  26.484  1.00  0.00     0.127 S 
ATOM     85  O   UNL A   1      42.232  22.569  25.205  1.00  0.00    -0.237 OA
ATOM     86  O   UNL A   1      42.333  22.417  27.664  1.00  0.00    -0.237 OA
ATOM     87  O   UNL A   1      40.162  22.670  26.550  1.00  0.00    -0.744 OA
ENDBRANCH  81  84
ENDBRANCH  53  77
BRANCH  65  88
ATOM     88  C   UNL A   1      44.970  26.944  34.060  1.00  0.00     0.023 A 
ATOM     89  C   UNL A   1      46.296  27.380  33.871  1.00  0.00     0.012 A 
ATOM     90  C   UNL A   1      44.720  25.826  34.880  1.00  0.00     0.148 A 
ATOM     91  C   UNL A   1      47.358  26.693  34.459  1.00  0.00     0.002 A 
ATOM     92  C   UNL A   1      45.778  25.178  35.505  1.00  0.00     0.091 A 
ATOM     93  F   UNL A   1      43.452  25.416  35.034  1.00  0.00    -0.205 F 
ATOM     94  C   UNL A   1      47.099  25.603  35.286  1.00  0.00     0.022 A 
BRANCH  92  95
ATOM     95  S   UNL A   1      45.533  23.827  36.664  1.00  0.00     0.127 S 
ATOM     96  O   UNL A   1      44.862  22.835  35.826  1.00  0.00    -0.237 OA
ATOM     97  O   UNL A   1      46.906  23.484  37.036  1.00  0.00    -0.237 OA
ATOM     98  O   UNL A   1      44.730  24.372  37.751  1.00  0.00    -0.744 OA
ENDBRANCH  92  95
ENDBRANCH  65  88
ENDBRANCH  39  40
ENDBRANCH  31  34
ENDBRANCH  29  30
ENDBRANCH   1  29
TORSDOF 17
ENDMDL
MODEL 3
REMARK VINA RESULT:     -12.2      1.824      2.330
REMARK SMILES COc1ccc(C(=O)N[C@H](C(=O)NCCCNC(=O)c2ccc(-c3c4nc(c(-c5cccc(S(=O)(=O)[O-])c5F)c5ccc([nH]5)c(-c5cccc(S(=O)(=O)[O-])c5F)c5nc(c(-c6cccc(S(=O)(=O)[O-])c6F)c6ccc3[nH]6)C=C5)C=C4)cc2)C2=C(C)N=N[C@H]2C)c(F)c1F
REMARK SMILES IDX 15 1 14 2 13 3 11 4 12 5 10 7 9 8 7 9 8 10 6 12 3 13 4 14
REMARK SMILES IDX 92 15 5 16 90 17 93 18 91 19 2 20 1 21 83 22 84 23 88 24
REMARK SMILES IDX 85 25 86 26 87 27 89 28 16 29 17 30 18 31 19 33 20 34 21 35
REMARK SMILES IDX 82 36 22 37 81 38 23 39 24 40 25 41 75 42 26 43 80 44 74 45
REMARK SMILES IDX 76 46 27 47 79 48 73 49 72 50 28 52 60 53 40 54 59 55 41 56
REMARK SMILES IDX 44 57 58 58 77 59 42 60 43 61 57 63 78 64 45 65 29 66 30 67
REMARK SMILES IDX 38 68 31 69 33 70 39 71 32 72 34 73 35 74 36 75 37 76 61 77
REMARK SMILES IDX 62 78 70 79 63 80 65 81 71 82 64 83 66 84 67 85 68 86 69 87
REMARK SMILES IDX 46 88 47 89 55 90 48 91 50 92 56 93 49 94 51 95 52 96 53 97
REMARK SMILES IDX 54 98
REMARK H PARENT 13 6 9 11 17 32 76 51 44 62
REMARK Flexibility Score: inf
ROOT
ATOM      1  C   UNL A   1      33.435  27.426  26.502  1.00  0.00     0.042 C 
ENDROOT
BRANCH   1   2
ATOM      2  C   UNL A   1      31.987  27.897  26.473  1.00  0.00     0.117 C 
BRANCH   2   3
ATOM      3  N   UNL A   1      31.103  26.796  26.798  1.00  0.00    -0.354 N 
ATOM      4  C   UNL A   1      30.583  25.825  26.003  1.00  0.00     0.247 C 
ATOM      5  O   UNL A   1      29.646  25.176  26.469  1.00  0.00    -0.272 OA
ATOM      6  H   UNL A   1      30.836  26.744  27.744  1.00  0.00     0.163 HD
BRANCH   4   7
ATOM      7  C   UNL A   1      31.172  25.595  24.595  1.00  0.00     0.202 C 
BRANCH   7   8
ATOM      8  N   UNL A   1      31.133  24.265  23.970  1.00  0.00    -0.336 N 
ATOM      9  C   UNL A   1      31.953  23.187  23.791  1.00  0.00     0.255 C 
ATOM     10  O   UNL A   1      31.538  22.307  23.031  1.00  0.00    -0.269 OA
ATOM     11  H   UNL A   1      30.254  24.103  23.558  1.00  0.00     0.165 HD
BRANCH   9  12
ATOM     12  C   UNL A   1      33.299  22.991  24.361  1.00  0.00     0.078 A 
ATOM     13  C   UNL A   1      35.944  22.686  25.295  1.00  0.00     0.157 A 
ATOM     14  C   UNL A   1      35.702  23.380  24.111  1.00  0.00     0.050 A 
ATOM     15  C   UNL A   1      34.870  22.070  25.945  1.00  0.00     0.201 A 
ATOM     16  C   UNL A   1      34.386  23.544  23.658  1.00  0.00     0.021 A 
ATOM     17  C   UNL A   1      33.569  22.179  25.451  1.00  0.00     0.175 A 
ATOM     18  F   UNL A   1      35.091  21.359  27.061  1.00  0.00    -0.200 F 
ATOM     19  F   UNL A   1      32.599  21.436  25.999  1.00  0.00    -0.203 F 
BRANCH  13  20
ATOM     20  O   UNL A   1      37.188  22.493  25.829  1.00  0.00    -0.494 OA
ATOM     21  C   UNL A   1      37.962  23.674  26.026  1.00  0.00     0.278 C 
ENDBRANCH  13  20
ENDBRANCH   9  12
ENDBRANCH   7   8
BRANCH   7  22
ATOM     22  C   UNL A   1      30.568  26.601  23.657  1.00  0.00     0.011 C 
ATOM     23  C   UNL A   1      31.125  27.143  22.563  1.00  0.00     0.064 C 
ATOM     24  C   UNL A   1      29.356  27.432  23.919  1.00  0.00     0.156 C 
ATOM     25  C   UNL A   1      32.447  26.842  21.939  1.00  0.00     0.069 C 
ATOM     26  N   UNL A   1      30.399  28.198  22.071  1.00  0.00    -0.160 NA
ATOM     27  N   UNL A   1      29.416  28.437  22.821  1.00  0.00    -0.181 NA
ATOM     28  C   UNL A   1      28.015  26.717  23.783  1.00  0.00     0.040 C 
ENDBRANCH   7  22
ENDBRANCH   4   7
ENDBRANCH   2   3
ENDBRANCH   1   2
BRANCH   1  29
ATOM     29  C   UNL A   1      34.434  28.553  26.280  1.00  0.00     0.118 C 
BRANCH  29  30
ATOM     30  N   UNL A   1      33.935  29.844  26.725  1.00  0.00    -0.352 N 
ATOM     31  C   UNL A   1      34.491  30.680  27.665  1.00  0.00     0.251 C 
ATOM     32  H   UNL A   1      33.101  30.156  26.306  1.00  0.00     0.163 HD
ATOM     33  O   UNL A   1      33.886  31.680  28.041  1.00  0.00    -0.269 OA
BRANCH  31  34
ATOM     34  C   UNL A   1      35.810  30.333  28.235  1.00  0.00     0.039 A 
ATOM     35  C   UNL A   1      35.866  29.652  29.451  1.00  0.00     0.014 A 
ATOM     36  C   UNL A   1      36.982  30.617  27.526  1.00  0.00     0.014 A 
ATOM     37  C   UNL A   1      37.098  29.202  29.931  1.00  0.00     0.010 A 
ATOM     38  C   UNL A   1      38.194  30.091  27.963  1.00  0.00     0.010 A 
ATOM     39  C   UNL A   1      38.269  29.388  29.175  1.00  0.00    -0.014 A 
BRANCH  39  40
ATOM     40  C   UNL A   1      39.578  28.858  29.638  1.00  0.00     0.031 A 
ATOM     41  C   UNL A   1      40.324  29.550  30.747  1.00  0.00     0.074 A 
ATOM     42  C   UNL A   1      40.132  27.799  29.014  1.00  0.00     0.049 A 
ATOM     43  N   UNL A   1      41.492  29.262  31.261  1.00  0.00    -0.248 NA
ATOM     44  C   UNL A   1      39.687  30.738  31.341  1.00  0.00     0.031 C 
ATOM     45  C   UNL A   1      39.551  27.086  27.875  1.00  0.00     0.029 A 
ATOM     46  N   UNL A   1      41.323  27.151  29.236  1.00  0.00    -0.354 N 
ATOM     47  C   UNL A   1      41.744  30.247  32.208  1.00  0.00     0.074 A 
ATOM     48  C   UNL A   1      40.627  31.165  32.172  1.00  0.00     0.031 C 
ATOM     49  C   UNL A   1      40.380  26.096  27.505  1.00  0.00     0.029 A 
ATOM     50  C   UNL A   1      41.566  26.122  28.356  1.00  0.00     0.049 A 
ATOM     51  H   UNL A   1      41.945  27.400  29.957  1.00  0.00     0.167 HD
ATOM     52  C   UNL A   1      42.794  30.363  33.056  1.00  0.00     0.034 A 
ATOM     53  C   UNL A   1      42.624  25.297  28.240  1.00  0.00     0.034 A 
ATOM     54  C   UNL A   1      43.884  29.430  33.119  1.00  0.00     0.049 A 
ATOM     55  C   UNL A   1      43.766  25.429  29.214  1.00  0.00     0.074 A 
ATOM     56  C   UNL A   1      44.950  29.413  34.001  1.00  0.00     0.029 A 
ATOM     57  N   UNL A   1      44.057  28.355  32.262  1.00  0.00    -0.354 N 
ATOM     58  N   UNL A   1      43.907  26.271  30.209  1.00  0.00    -0.248 NA
ATOM     59  C   UNL A   1      44.874  24.474  29.073  1.00  0.00     0.031 C 
ATOM     60  C   UNL A   1      45.783  28.342  33.658  1.00  0.00     0.029 A 
ATOM     61  C   UNL A   1      45.218  27.673  32.585  1.00  0.00     0.049 A 
ATOM     62  H   UNL A   1      43.444  28.111  31.531  1.00  0.00     0.167 HD
ATOM     63  C   UNL A   1      45.100  25.923  30.836  1.00  0.00     0.074 A 
ATOM     64  C   UNL A   1      45.629  24.782  30.119  1.00  0.00     0.031 C 
ATOM     65  C   UNL A   1      45.706  26.505  31.899  1.00  0.00     0.034 A 
BRANCH  52  66
ATOM     66  C   UNL A   1      42.786  31.520  34.024  1.00  0.00     0.023 A 
ATOM     67  C   UNL A   1      43.375  32.746  33.649  1.00  0.00     0.012 A 
ATOM     68  C   UNL A   1      42.153  31.413  35.277  1.00  0.00     0.148 A 
ATOM     69  C   UNL A   1      43.366  33.834  34.519  1.00  0.00     0.002 A 
ATOM     70  C   UNL A   1      42.106  32.517  36.120  1.00  0.00     0.091 A 
ATOM     71  F   UNL A   1      41.618  30.234  35.624  1.00  0.00    -0.205 F 
ATOM     72  C   UNL A   1      42.723  33.724  35.748  1.00  0.00     0.022 A 
BRANCH  70  73
ATOM     73  S   UNL A   1      41.230  32.503  37.687  1.00  0.00     0.127 S 
ATOM     74  O   UNL A   1      42.064  31.603  38.481  1.00  0.00    -0.237 OA
ATOM     75  O   UNL A   1      41.297  33.909  38.088  1.00  0.00    -0.237 OA
ATOM     76  O   UNL A   1      39.890  32.017  37.394  1.00  0.00    -0.744 OA
ENDBRANCH  70  73
ENDBRANCH  52  66
BRANCH  53  77
ATOM     77  C   UNL A   1      42.631  24.229  27.200  1.00  0.00     0.023 A 
ATOM     78  C   UNL A   1      43.312  24.448  25.986  1.00  0.00     0.012 A 
ATOM     79  C   UNL A   1      41.987  22.995  27.411  1.00  0.00     0.148 A 
ATOM     80  C   UNL A   1      43.321  23.473  24.989  1.00  0.00     0.002 A 
ATOM     81  C   UNL A   1      42.048  22.006  26.437  1.00  0.00     0.091 A 
ATOM     82  F   UNL A   1      41.335  22.810  28.568  1.00  0.00    -0.205 F 
ATOM     83  C   UNL A   1      42.698  22.249  25.217  1.00  0.00     0.022 A 
BRANCH  81  84
ATOM     84  S   UNL A   1      41.392  20.354  26.699  1.00  0.00     0.127 S 
ATOM     85  O   UNL A   1      39.964  20.620  26.848  1.00  0.00    -0.237 OA
ATOM     86  O   UNL A   1      41.769  19.680  25.455  1.00  0.00    -0.237 OA
ATOM     87  O   UNL A   1      42.069  19.845  27.884  1.00  0.00    -0.744 OA
ENDBRANCH  81  84
ENDBRANCH  53  77
BRANCH  65  88
ATOM     88  C   UNL A   1      46.993  25.895  32.392  1.00  0.00     0.023 A 
ATOM     89  C   UNL A   1      48.226  26.328  31.866  1.00  0.00     0.012 A 
ATOM     90  C   UNL A   1      46.982  24.946  33.433  1.00  0.00     0.148 A 
ATOM     91  C   UNL A   1      49.425  25.801  32.343  1.00  0.00     0.002 A 
ATOM     92  C   UNL A   1      48.182  24.463  33.941  1.00  0.00     0.091 A 
ATOM     93  F   UNL A   1      45.798  24.533  33.910  1.00  0.00    -0.205 F 
ATOM     94  C   UNL A   1      49.404  24.880  33.389  1.00  0.00     0.022 A 
BRANCH  92  95
ATOM     95  S   UNL A   1      48.256  23.351  35.349  1.00  0.00     0.127 S 
ATOM     96  O   UNL A   1      47.603  22.156  34.819  1.00  0.00    -0.237 OA
ATOM     97  O   UNL A   1      49.697  23.216  35.563  1.00  0.00    -0.237 OA
ATOM     98  O   UNL A   1      47.545  24.023  36.429  1.00  0.00    -0.744 OA
ENDBRANCH  92  95
ENDBRANCH  65  88
ENDBRANCH  39  40
ENDBRANCH  31  34
ENDBRANCH  29  30
ENDBRANCH   1  29
TORSDOF 17
ENDMDL
