MODEL 1
REMARK VINA RESULT:     -14.1      0.000      0.000
REMARK SMILES O=C(NCCCNC(=O)c1ccc(-c2c3nc(c(-c4cccc(S(=O)(=O)[O-])c4F)c4ccc([nH]4)c(-c4cccc(S(=O)(=O)[O-])c4F)c4nc(c(-c5cccc(S(=O)(=O)[O-])c5F)c5ccc2[nH]5)C=C4)C=C3)cc1)C1=Cc2cc(Cl)cc(-c3ccccc3)c2O[C@@H]1C(F)(F)F
REMARK SMILES IDX 6 1 5 2 4 3 3 4 1 5 2 6 73 8 74 9 89 10 75 11 88 12 76 13
REMARK SMILES IDX 87 14 77 15 80 16 78 17 79 18 90 19 91 20 92 21 93 22 81 23
REMARK SMILES IDX 82 24 86 25 83 26 85 27 84 28 7 29 8 30 9 32 10 33 11 34
REMARK SMILES IDX 72 35 12 36 71 37 13 38 14 39 15 40 65 41 16 42 70 43 64 44
REMARK SMILES IDX 66 45 17 46 69 47 63 48 62 49 18 51 50 52 30 53 49 54 31 55
REMARK SMILES IDX 34 56 48 57 67 58 32 59 33 60 47 62 68 63 35 64 19 65 20 66
REMARK SMILES IDX 28 67 21 68 23 69 29 70 22 71 24 72 25 73 26 74 27 75 51 76
REMARK SMILES IDX 52 77 60 78 53 79 55 80 61 81 54 82 56 83 57 84 58 85 59 86
REMARK SMILES IDX 36 87 37 88 45 89 38 90 40 91 46 92 39 93 41 94 42 95 43 96
REMARK SMILES IDX 44 97
REMARK H PARENT 3 7 7 31 66 50 34 61
REMARK Flexibility Score: inf
ROOT
ATOM      1  C   UNL A   1      32.586  29.618  26.064  1.00  0.00     0.118 C 
ENDROOT
BRANCH   1   2
ATOM      2  C   UNL A   1      31.778  28.516  26.746  1.00  0.00     0.042 C 
BRANCH   2   3
ATOM      3  C   UNL A   1      31.664  27.256  25.885  1.00  0.00     0.118 C 
BRANCH   3   4
ATOM      4  N   UNL A   1      31.219  26.084  26.647  1.00  0.00    -0.352 N 
ATOM      5  O   UNL A   1      31.347  23.963  27.455  1.00  0.00    -0.270 OA
ATOM      6  C   UNL A   1      31.658  24.787  26.602  1.00  0.00     0.251 C 
ATOM      7  H   UNL A   1      30.493  26.256  27.289  1.00  0.00     0.163 HD
BRANCH   6   8
ATOM      8  C   UNL A   1      32.593  24.445  25.524  1.00  0.00     0.067 C 
ATOM      9  C   UNL A   1      33.901  24.602  25.759  1.00  0.00     0.025 C 
ATOM     10  C   UNL A   1      32.067  23.633  24.388  1.00  0.00     0.314 C 
ATOM     11  C   UNL A   1      34.747  23.548  25.194  1.00  0.00     0.019 A 
ATOM     12  O   UNL A   1      32.810  22.398  24.239  1.00  0.00    -0.475 OA
ATOM     13  C   UNL A   1      36.087  23.508  25.587  1.00  0.00     0.032 A 
ATOM     14  C   UNL A   1      34.130  22.406  24.636  1.00  0.00     0.135 A 
ATOM     15  C   UNL A   1      36.777  22.303  25.525  1.00  0.00     0.042 A 
ATOM     16  C   UNL A   1      34.805  21.172  24.635  1.00  0.00     0.026 A 
ATOM     17  Cl  UNL A   1      38.381  22.216  26.140  1.00  0.00    -0.084 Cl
ATOM     18  C   UNL A   1      36.139  21.143  25.086  1.00  0.00     0.033 A 
BRANCH  10  19
ATOM     19  C   UNL A   1      32.012  24.441  23.080  1.00  0.00     0.429 C 
ATOM     20  F   UNL A   1      32.547  23.741  22.049  1.00  0.00    -0.167 F 
ATOM     21  F   UNL A   1      30.739  24.736  22.723  1.00  0.00    -0.167 F 
ATOM     22  F   UNL A   1      32.687  25.612  23.156  1.00  0.00    -0.167 F 
ENDBRANCH  10  19
BRANCH  16  23
ATOM     23  C   UNL A   1      34.112  19.895  24.381  1.00  0.00    -0.015 A 
ATOM     24  C   UNL A   1      34.778  18.683  24.626  1.00  0.00     0.009 A 
ATOM     25  C   UNL A   1      32.810  19.832  23.877  1.00  0.00     0.009 A 
ATOM     26  C   UNL A   1      34.201  17.449  24.330  1.00  0.00     0.001 A 
ATOM     27  C   UNL A   1      32.220  18.594  23.588  1.00  0.00     0.001 A 
ATOM     28  C   UNL A   1      32.919  17.406  23.802  1.00  0.00     0.000 A 
ENDBRANCH  16  23
ENDBRANCH   6   8
ENDBRANCH   3   4
ENDBRANCH   2   3
ENDBRANCH   1   2
BRANCH   1  29
ATOM     29  N   UNL A   1      32.467  30.934  26.669  1.00  0.00    -0.352 N 
ATOM     30  C   UNL A   1      33.405  31.672  27.365  1.00  0.00     0.251 C 
ATOM     31  H   UNL A   1      31.586  31.363  26.567  1.00  0.00     0.163 HD
ATOM     32  O   UNL A   1      33.086  32.771  27.817  1.00  0.00    -0.269 OA
BRANCH  30  33
ATOM     33  C   UNL A   1      34.754  31.134  27.671  1.00  0.00     0.039 A 
ATOM     34  C   UNL A   1      35.762  32.052  27.997  1.00  0.00     0.014 A 
ATOM     35  C   UNL A   1      35.031  29.771  27.732  1.00  0.00     0.014 A 
ATOM     36  C   UNL A   1      36.975  31.604  28.519  1.00  0.00     0.010 A 
ATOM     37  C   UNL A   1      36.187  29.327  28.358  1.00  0.00     0.010 A 
ATOM     38  C   UNL A   1      37.158  30.240  28.785  1.00  0.00    -0.014 A 
BRANCH  38  39
ATOM     39  C   UNL A   1      38.309  29.752  29.581  1.00  0.00     0.031 A 
ATOM     40  C   UNL A   1      38.472  30.169  31.014  1.00  0.00     0.074 A 
ATOM     41  C   UNL A   1      39.277  29.052  28.951  1.00  0.00     0.049 A 
ATOM     42  N   UNL A   1      39.459  29.926  31.835  1.00  0.00    -0.248 NA
ATOM     43  C   UNL A   1      37.413  31.018  31.587  1.00  0.00     0.031 C 
ATOM     44  C   UNL A   1      39.284  28.713  27.525  1.00  0.00     0.029 A 
ATOM     45  N   UNL A   1      40.453  28.525  29.418  1.00  0.00    -0.354 N 
ATOM     46  C   UNL A   1      39.171  30.635  32.994  1.00  0.00     0.074 A 
ATOM     47  C   UNL A   1      37.936  31.349  32.758  1.00  0.00     0.031 C 
ATOM     48  C   UNL A   1      40.395  28.016  27.239  1.00  0.00     0.029 A 
ATOM     49  C   UNL A   1      41.190  27.879  28.452  1.00  0.00     0.049 A 
ATOM     50  H   UNL A   1      40.743  28.602  30.356  1.00  0.00     0.167 HD
ATOM     51  C   UNL A   1      39.855  30.660  34.161  1.00  0.00     0.034 A 
ATOM     52  C   UNL A   1      42.371  27.237  28.540  1.00  0.00     0.034 A 
ATOM     53  C   UNL A   1      41.035  29.875  34.401  1.00  0.00     0.049 A 
ATOM     54  C   UNL A   1      43.028  27.147  29.889  1.00  0.00     0.074 A 
ATOM     55  C   UNL A   1      41.751  29.724  35.574  1.00  0.00     0.029 A 
ATOM     56  N   UNL A   1      41.668  29.095  33.442  1.00  0.00    -0.354 N 
ATOM     57  N   UNL A   1      42.649  27.682  31.026  1.00  0.00    -0.248 NA
ATOM     58  C   UNL A   1      44.246  26.330  29.985  1.00  0.00     0.031 C 
ATOM     59  C   UNL A   1      42.814  28.848  35.326  1.00  0.00     0.029 A 
ATOM     60  C   UNL A   1      42.756  28.449  33.998  1.00  0.00     0.049 A 
ATOM     61  H   UNL A   1      41.382  29.014  32.504  1.00  0.00     0.167 HD
ATOM     62  C   UNL A   1      43.562  27.246  31.977  1.00  0.00     0.074 A 
ATOM     63  C   UNL A   1      44.499  26.380  31.286  1.00  0.00     0.031 C 
ATOM     64  C   UNL A   1      43.635  27.548  33.296  1.00  0.00     0.034 A 
BRANCH  51  65
ATOM     65  C   UNL A   1      39.295  31.500  35.280  1.00  0.00     0.023 A 
ATOM     66  C   UNL A   1      38.342  30.941  36.156  1.00  0.00     0.012 A 
ATOM     67  C   UNL A   1      39.715  32.831  35.477  1.00  0.00     0.148 A 
ATOM     68  C   UNL A   1      37.778  31.704  37.178  1.00  0.00     0.002 A 
ATOM     69  C   UNL A   1      39.179  33.571  36.525  1.00  0.00     0.091 A 
ATOM     70  F   UNL A   1      40.604  33.356  34.622  1.00  0.00    -0.205 F 
ATOM     71  C   UNL A   1      38.202  33.015  37.367  1.00  0.00     0.022 A 
BRANCH  69  72
ATOM     72  S   UNL A   1      39.710  35.248  36.896  1.00  0.00     0.127 S 
ATOM     73  O   UNL A   1      39.022  35.503  38.160  1.00  0.00    -0.237 OA
ATOM     74  O   UNL A   1      41.161  35.095  37.012  1.00  0.00    -0.237 OA
ATOM     75  O   UNL A   1      39.277  36.062  35.768  1.00  0.00    -0.744 OA
ENDBRANCH  69  72
ENDBRANCH  51  65
BRANCH  52  76
ATOM     76  C   UNL A   1      42.927  26.535  27.349  1.00  0.00     0.023 A 
ATOM     77  C   UNL A   1      43.824  27.222  26.506  1.00  0.00     0.012 A 
ATOM     78  C   UNL A   1      42.634  25.184  27.079  1.00  0.00     0.148 A 
ATOM     79  C   UNL A   1      44.396  26.587  25.402  1.00  0.00     0.002 A 
ATOM     80  C   UNL A   1      43.247  24.542  26.007  1.00  0.00     0.091 A 
ATOM     81  F   UNL A   1      41.774  24.546  27.885  1.00  0.00    -0.205 F 
ATOM     82  C   UNL A   1      44.117  25.246  25.159  1.00  0.00     0.022 A 
BRANCH  80  83
ATOM     83  S   UNL A   1      43.048  22.781  25.705  1.00  0.00     0.127 S 
ATOM     84  O   UNL A   1      43.930  22.202  26.714  1.00  0.00    -0.237 OA
ATOM     85  O   UNL A   1      41.617  22.586  25.952  1.00  0.00    -0.237 OA
ATOM     86  O   UNL A   1      43.445  22.580  24.318  1.00  0.00    -0.744 OA
ENDBRANCH  80  83
ENDBRANCH  52  76
BRANCH  64  87
ATOM     87  C   UNL A   1      44.750  26.923  34.086  1.00  0.00     0.023 A 
ATOM     88  C   UNL A   1      46.006  27.557  34.133  1.00  0.00     0.012 A 
ATOM     89  C   UNL A   1      44.529  25.759  34.845  1.00  0.00     0.148 A 
ATOM     90  C   UNL A   1      47.036  27.026  34.907  1.00  0.00     0.002 A 
ATOM     91  C   UNL A   1      45.546  25.260  35.649  1.00  0.00     0.091 A 
ATOM     92  F   UNL A   1      43.332  25.157  34.764  1.00  0.00    -0.205 F 
ATOM     93  C   UNL A   1      46.803  25.886  35.674  1.00  0.00     0.022 A 
BRANCH  91  94
ATOM     94  S   UNL A   1      45.292  23.855  36.738  1.00  0.00     0.127 S 
ATOM     95  O   UNL A   1      44.487  24.445  37.805  1.00  0.00    -0.237 OA
ATOM     96  O   UNL A   1      44.571  22.915  35.878  1.00  0.00    -0.237 OA
ATOM     97  O   UNL A   1      46.625  23.411  37.124  1.00  0.00    -0.744 OA
ENDBRANCH  91  94
ENDBRANCH  64  87
ENDBRANCH  38  39
ENDBRANCH  30  33
ENDBRANCH   1  29
TORSDOF 15
ENDMDL
MODEL 2
REMARK VINA RESULT:     -14.0      4.754     10.121
REMARK SMILES O=C(NCCCNC(=O)c1ccc(-c2c3nc(c(-c4cccc(S(=O)(=O)[O-])c4F)c4ccc([nH]4)c(-c4cccc(S(=O)(=O)[O-])c4F)c4nc(c(-c5cccc(S(=O)(=O)[O-])c5F)c5ccc2[nH]5)C=C4)C=C3)cc1)C1=Cc2cc(Cl)cc(-c3ccccc3)c2O[C@@H]1C(F)(F)F
REMARK SMILES IDX 6 1 5 2 4 3 3 4 1 5 2 6 73 8 74 9 89 10 75 11 88 12 76 13
REMARK SMILES IDX 87 14 77 15 80 16 78 17 79 18 90 19 91 20 92 21 93 22 81 23
REMARK SMILES IDX 82 24 86 25 83 26 85 27 84 28 7 29 8 30 9 32 10 33 11 34
REMARK SMILES IDX 72 35 12 36 71 37 13 38 14 39 15 40 65 41 16 42 70 43 64 44
REMARK SMILES IDX 66 45 17 46 69 47 63 48 62 49 18 51 50 52 30 53 49 54 31 55
REMARK SMILES IDX 34 56 48 57 67 58 32 59 33 60 47 62 68 63 35 64 19 65 20 66
REMARK SMILES IDX 28 67 21 68 23 69 29 70 22 71 24 72 25 73 26 74 27 75 51 76
REMARK SMILES IDX 52 77 60 78 53 79 55 80 61 81 54 82 56 83 57 84 58 85 59 86
REMARK SMILES IDX 36 87 37 88 45 89 38 90 40 91 46 92 39 93 41 94 42 95 43 96
REMARK SMILES IDX 44 97
REMARK H PARENT 3 7 7 31 66 50 34 61
REMARK Flexibility Score: inf
ROOT
ATOM      1  C   UNL A   1      36.949  21.787  24.827  1.00  0.00     0.118 C 
ENDROOT
BRANCH   1   2
ATOM      2  C   UNL A   1      35.744  21.632  25.751  1.00  0.00     0.042 C 
BRANCH   2   3
ATOM      3  C   UNL A   1      34.416  21.656  24.991  1.00  0.00     0.118 C 
BRANCH   3   4
ATOM      4  N   UNL A   1      34.478  22.452  23.761  1.00  0.00    -0.352 N 
ATOM      5  O   UNL A   1      34.411  24.351  22.512  1.00  0.00    -0.270 OA
ATOM      6  C   UNL A   1      34.094  23.747  23.531  1.00  0.00     0.251 C 
ATOM      7  H   UNL A   1      34.852  21.984  22.980  1.00  0.00     0.163 HD
BRANCH   6   8
ATOM      8  C   UNL A   1      33.349  24.414  24.606  1.00  0.00     0.067 C 
ATOM      9  C   UNL A   1      34.015  25.272  25.387  1.00  0.00     0.025 C 
ATOM     10  C   UNL A   1      31.858  24.365  24.544  1.00  0.00     0.314 C 
ATOM     11  C   UNL A   1      33.253  26.468  25.756  1.00  0.00     0.019 A 
ATOM     12  O   UNL A   1      31.292  25.698  24.514  1.00  0.00    -0.475 OA
ATOM     13  C   UNL A   1      33.944  27.516  26.370  1.00  0.00     0.032 A 
ATOM     14  C   UNL A   1      32.006  26.700  25.134  1.00  0.00     0.135 A 
ATOM     15  C   UNL A   1      33.446  28.809  26.268  1.00  0.00     0.042 A 
ATOM     16  C   UNL A   1      31.534  28.015  24.973  1.00  0.00     0.026 A 
ATOM     17  Cl  UNL A   1      34.363  30.120  26.898  1.00  0.00    -0.084 Cl
ATOM     18  C   UNL A   1      32.275  29.063  25.554  1.00  0.00     0.033 A 
BRANCH  10  19
ATOM     19  C   UNL A   1      31.264  23.505  25.672  1.00  0.00     0.429 C 
ATOM     20  F   UNL A   1      30.155  24.084  26.197  1.00  0.00    -0.167 F 
ATOM     21  F   UNL A   1      30.884  22.283  25.227  1.00  0.00    -0.167 F 
ATOM     22  F   UNL A   1      32.129  23.307  26.695  1.00  0.00    -0.167 F 
ENDBRANCH  10  19
BRANCH  16  23
ATOM     23  C   UNL A   1      30.427  28.348  24.057  1.00  0.00    -0.015 A 
ATOM     24  C   UNL A   1      30.502  29.510  23.271  1.00  0.00     0.009 A 
ATOM     25  C   UNL A   1      29.277  27.562  23.949  1.00  0.00     0.009 A 
ATOM     26  C   UNL A   1      29.454  29.915  22.447  1.00  0.00     0.001 A 
ATOM     27  C   UNL A   1      28.222  27.958  23.114  1.00  0.00     0.001 A 
ATOM     28  C   UNL A   1      28.306  29.139  22.375  1.00  0.00     0.000 A 
ENDBRANCH  16  23
ENDBRANCH   6   8
ENDBRANCH   3   4
ENDBRANCH   2   3
ENDBRANCH   1   2
BRANCH   1  29
ATOM     29  N   UNL A   1      38.060  20.892  25.106  1.00  0.00    -0.352 N 
ATOM     30  C   UNL A   1      39.181  21.096  25.886  1.00  0.00     0.251 C 
ATOM     31  H   UNL A   1      38.004  20.009  24.672  1.00  0.00     0.163 HD
ATOM     32  O   UNL A   1      40.021  20.201  25.972  1.00  0.00    -0.269 OA
BRANCH  30  33
ATOM     33  C   UNL A   1      39.451  22.399  26.542  1.00  0.00     0.039 A 
ATOM     34  C   UNL A   1      40.426  22.430  27.550  1.00  0.00     0.014 A 
ATOM     35  C   UNL A   1      38.849  23.589  26.143  1.00  0.00     0.014 A 
ATOM     36  C   UNL A   1      40.892  23.652  28.036  1.00  0.00     0.010 A 
ATOM     37  C   UNL A   1      39.389  24.805  26.537  1.00  0.00     0.010 A 
ATOM     38  C   UNL A   1      40.436  24.849  27.466  1.00  0.00    -0.014 A 
BRANCH  38  39
ATOM     39  C   UNL A   1      41.091  26.146  27.756  1.00  0.00     0.031 A 
ATOM     40  C   UNL A   1      42.493  26.410  27.286  1.00  0.00     0.074 A 
ATOM     41  C   UNL A   1      40.461  27.017  28.572  1.00  0.00     0.049 A 
ATOM     42  N   UNL A   1      43.261  27.438  27.527  1.00  0.00    -0.248 NA
ATOM     43  C   UNL A   1      43.138  25.356  26.484  1.00  0.00     0.031 C 
ATOM     44  C   UNL A   1      39.153  26.796  29.198  1.00  0.00     0.029 A 
ATOM     45  N   UNL A   1      40.843  28.248  29.039  1.00  0.00    -0.354 N 
ATOM     46  C   UNL A   1      44.492  27.132  26.960  1.00  0.00     0.074 A 
ATOM     47  C   UNL A   1      44.381  25.806  26.396  1.00  0.00     0.031 C 
ATOM     48  C   UNL A   1      38.833  27.864  29.946  1.00  0.00     0.029 A 
ATOM     49  C   UNL A   1      39.918  28.833  29.873  1.00  0.00     0.049 A 
ATOM     50  H   UNL A   1      41.698  28.674  28.801  1.00  0.00     0.167 HD
ATOM     51  C   UNL A   1      45.603  27.902  26.886  1.00  0.00     0.034 A 
ATOM     52  C   UNL A   1      39.939  30.026  30.499  1.00  0.00     0.034 A 
ATOM     53  C   UNL A   1      45.663  29.250  27.381  1.00  0.00     0.049 A 
ATOM     54  C   UNL A   1      41.121  30.925  30.267  1.00  0.00     0.074 A 
ATOM     55  C   UNL A   1      46.688  30.170  27.262  1.00  0.00     0.029 A 
ATOM     56  N   UNL A   1      44.641  29.876  28.081  1.00  0.00    -0.354 N 
ATOM     57  N   UNL A   1      42.213  30.688  29.579  1.00  0.00    -0.248 NA
ATOM     58  C   UNL A   1      41.060  32.271  30.854  1.00  0.00     0.031 C 
ATOM     59  C   UNL A   1      46.283  31.355  27.888  1.00  0.00     0.029 A 
ATOM     60  C   UNL A   1      45.003  31.174  28.390  1.00  0.00     0.049 A 
ATOM     61  H   UNL A   1      43.784  29.456  28.321  1.00  0.00     0.167 HD
ATOM     62  C   UNL A   1      42.955  31.860  29.623  1.00  0.00     0.074 A 
ATOM     63  C   UNL A   1      42.176  32.816  30.386  1.00  0.00     0.031 C 
ATOM     64  C   UNL A   1      44.179  32.119  29.102  1.00  0.00     0.034 A 
BRANCH  51  65
ATOM     65  C   UNL A   1      46.803  27.326  26.180  1.00  0.00     0.023 A 
ATOM     66  C   UNL A   1      46.883  27.404  24.773  1.00  0.00     0.012 A 
ATOM     67  C   UNL A   1      47.855  26.724  26.897  1.00  0.00     0.148 A 
ATOM     68  C   UNL A   1      47.963  26.849  24.089  1.00  0.00     0.002 A 
ATOM     69  C   UNL A   1      48.950  26.211  26.209  1.00  0.00     0.091 A 
ATOM     70  F   UNL A   1      47.755  26.637  28.231  1.00  0.00    -0.205 F 
ATOM     71  C   UNL A   1      48.999  26.260  24.806  1.00  0.00     0.022 A 
BRANCH  69  72
ATOM     72  S   UNL A   1      50.369  25.493  27.046  1.00  0.00     0.127 S 
ATOM     73  O   UNL A   1      51.256  25.198  25.922  1.00  0.00    -0.237 OA
ATOM     74  O   UNL A   1      50.815  26.594  27.900  1.00  0.00    -0.237 OA
ATOM     75  O   UNL A   1      49.863  24.335  27.769  1.00  0.00    -0.744 OA
ENDBRANCH  69  72
ENDBRANCH  51  65
BRANCH  52  76
ATOM     76  C   UNL A   1      38.758  30.471  31.292  1.00  0.00     0.023 A 
ATOM     77  C   UNL A   1      38.749  30.261  32.685  1.00  0.00     0.012 A 
ATOM     78  C   UNL A   1      37.681  31.157  30.697  1.00  0.00     0.148 A 
ATOM     79  C   UNL A   1      37.679  30.698  33.467  1.00  0.00     0.002 A 
ATOM     80  C   UNL A   1      36.641  31.636  31.489  1.00  0.00     0.091 A 
ATOM     81  F   UNL A   1      37.701  31.344  29.370  1.00  0.00    -0.205 F 
ATOM     82  C   UNL A   1      36.631  31.395  32.872  1.00  0.00     0.022 A 
BRANCH  80  83
ATOM     83  S   UNL A   1      35.323  32.660  30.822  1.00  0.00     0.127 S 
ATOM     84  O   UNL A   1      34.384  32.704  31.939  1.00  0.00    -0.237 OA
ATOM     85  O   UNL A   1      36.019  33.920  30.552  1.00  0.00    -0.237 OA
ATOM     86  O   UNL A   1      34.862  31.967  29.627  1.00  0.00    -0.744 OA
ENDBRANCH  80  83
ENDBRANCH  52  76
BRANCH  64  87
ATOM     87  C   UNL A   1      44.743  33.495  29.317  1.00  0.00     0.023 A 
ATOM     88  C   UNL A   1      45.367  33.804  30.541  1.00  0.00     0.012 A 
ATOM     89  C   UNL A   1      44.730  34.447  28.281  1.00  0.00     0.148 A 
ATOM     90  C   UNL A   1      45.949  35.055  30.740  1.00  0.00     0.002 A 
ATOM     91  C   UNL A   1      45.351  35.675  28.471  1.00  0.00     0.091 A 
ATOM     92  F   UNL A   1      44.108  34.140  27.133  1.00  0.00    -0.205 F 
ATOM     93  C   UNL A   1      45.952  35.985  29.702  1.00  0.00     0.022 A 
BRANCH  91  94
ATOM     94  S   UNL A   1      45.482  36.886  27.151  1.00  0.00     0.127 S 
ATOM     95  O   UNL A   1      44.089  37.288  26.974  1.00  0.00    -0.237 OA
ATOM     96  O   UNL A   1      46.343  37.910  27.747  1.00  0.00    -0.237 OA
ATOM     97  O   UNL A   1      46.084  36.180  26.028  1.00  0.00    -0.744 OA
ENDBRANCH  91  94
ENDBRANCH  64  87
ENDBRANCH  38  39
ENDBRANCH  30  33
ENDBRANCH   1  29
TORSDOF 15
ENDMDL
MODEL 3
REMARK VINA RESULT:     -13.8      2.761      8.124
REMARK SMILES O=C(NCCCNC(=O)c1ccc(-c2c3nc(c(-c4cccc(S(=O)(=O)[O-])c4F)c4ccc([nH]4)c(-c4cccc(S(=O)(=O)[O-])c4F)c4nc(c(-c5cccc(S(=O)(=O)[O-])c5F)c5ccc2[nH]5)C=C4)C=C3)cc1)C1=Cc2cc(Cl)cc(-c3ccccc3)c2O[C@@H]1C(F)(F)F
REMARK SMILES IDX 6 1 5 2 4 3 3 4 1 5 2 6 73 8 74 9 89 10 75 11 88 12 76 13
REMARK SMILES IDX 87 14 77 15 80 16 78 17 79 18 90 19 91 20 92 21 93 22 81 23
REMARK SMILES IDX 82 24 86 25 83 26 85 27 84 28 7 29 8 30 9 32 10 33 11 34
REMARK SMILES IDX 72 35 12 36 71 37 13 38 14 39 15 40 65 41 16 42 70 43 64 44
REMARK SMILES IDX 66 45 17 46 69 47 63 48 62 49 18 51 50 52 30 53 49 54 31 55
REMARK SMILES IDX 34 56 48 57 67 58 32 59 33 60 47 62 68 63 35 64 19 65 20 66
REMARK SMILES IDX 28 67 21 68 23 69 29 70 22 71 24 72 25 73 26 74 27 75 51 76
REMARK SMILES IDX 52 77 60 78 53 79 55 80 61 81 54 82 56 83 57 84 58 85 59 86
REMARK SMILES IDX 36 87 37 88 45 89 38 90 40 91 46 92 39 93 41 94 42 95 43 96
REMARK SMILES IDX 44 97
REMARK H PARENT 3 7 7 31 66 50 34 61
REMARK Flexibility Score: inf
ROOT
ATOM      1  C   UNL A   1      31.951  32.211  27.021  1.00  0.00     0.118 C 
ENDROOT
BRANCH   1   2
ATOM      2  C   UNL A   1      31.113  32.134  25.747  1.00  0.00     0.042 C 
BRANCH   2   3
ATOM      3  C   UNL A   1      30.581  30.724  25.480  1.00  0.00     0.118 C 
BRANCH   3   4
ATOM      4  N   UNL A   1      31.079  30.156  24.222  1.00  0.00    -0.352 N 
ATOM      5  O   UNL A   1      31.871  28.524  22.852  1.00  0.00    -0.270 OA
ATOM      6  C   UNL A   1      31.714  28.965  23.985  1.00  0.00     0.251 C 
ATOM      7  H   UNL A   1      30.935  30.717  23.426  1.00  0.00     0.163 HD
BRANCH   6   8
ATOM      8  C   UNL A   1      32.126  28.193  25.163  1.00  0.00     0.067 C 
ATOM      9  C   UNL A   1      31.212  27.412  25.748  1.00  0.00     0.025 C 
ATOM     10  C   UNL A   1      33.591  28.058  25.419  1.00  0.00     0.314 C 
ATOM     11  C   UNL A   1      31.730  26.124  26.218  1.00  0.00     0.019 A 
ATOM     12  O   UNL A   1      33.989  26.665  25.452  1.00  0.00    -0.475 OA
ATOM     13  C   UNL A   1      30.805  25.160  26.627  1.00  0.00     0.032 A 
ATOM     14  C   UNL A   1      33.045  25.750  25.864  1.00  0.00     0.135 A 
ATOM     15  C   UNL A   1      31.158  23.816  26.577  1.00  0.00     0.042 A 
ATOM     16  C   UNL A   1      33.383  24.389  25.749  1.00  0.00     0.026 A 
ATOM     17  Cl  UNL A   1      29.978  22.620  26.942  1.00  0.00    -0.084 Cl
ATOM     18  C   UNL A   1      32.416  23.432  26.115  1.00  0.00     0.033 A 
BRANCH  10  19
ATOM     19  C   UNL A   1      34.026  28.818  26.684  1.00  0.00     0.429 C 
ATOM     20  F   UNL A   1      33.098  28.706  27.666  1.00  0.00    -0.167 F 
ATOM     21  F   UNL A   1      35.183  28.328  27.192  1.00  0.00    -0.167 F 
ATOM     22  F   UNL A   1      34.214  30.140  26.465  1.00  0.00    -0.167 F 
ENDBRANCH  10  19
BRANCH  16  23
ATOM     23  C   UNL A   1      34.613  23.937  25.074  1.00  0.00    -0.015 A 
ATOM     24  C   UNL A   1      34.553  23.502  23.739  1.00  0.00     0.009 A 
ATOM     25  C   UNL A   1      35.854  23.896  25.716  1.00  0.00     0.009 A 
ATOM     26  C   UNL A   1      35.667  22.992  23.076  1.00  0.00     0.001 A 
ATOM     27  C   UNL A   1      36.981  23.393  25.052  1.00  0.00     0.001 A 
ATOM     28  C   UNL A   1      36.884  22.929  23.739  1.00  0.00     0.000 A 
ENDBRANCH  16  23
ENDBRANCH   6   8
ENDBRANCH   3   4
ENDBRANCH   2   3
ENDBRANCH   1   2
BRANCH   1  29
ATOM     29  N   UNL A   1      32.268  33.556  27.471  1.00  0.00    -0.352 N 
ATOM     30  C   UNL A   1      33.431  34.046  28.033  1.00  0.00     0.251 C 
ATOM     31  H   UNL A   1      31.545  34.216  27.358  1.00  0.00     0.163 HD
ATOM     32  O   UNL A   1      33.482  35.229  28.366  1.00  0.00    -0.269 OA
BRANCH  30  33
ATOM     33  C   UNL A   1      34.583  33.163  28.340  1.00  0.00     0.039 A 
ATOM     34  C   UNL A   1      35.870  33.663  28.092  1.00  0.00     0.014 A 
ATOM     35  C   UNL A   1      34.444  31.913  28.937  1.00  0.00     0.014 A 
ATOM     36  C   UNL A   1      36.989  32.985  28.575  1.00  0.00     0.010 A 
ATOM     37  C   UNL A   1      35.543  31.297  29.518  1.00  0.00     0.010 A 
ATOM     38  C   UNL A   1      36.823  31.842  29.368  1.00  0.00    -0.014 A 
BRANCH  38  39
ATOM     39  C   UNL A   1      37.954  31.248  30.120  1.00  0.00     0.031 A 
ATOM     40  C   UNL A   1      38.845  30.228  29.471  1.00  0.00     0.074 A 
ATOM     41  C   UNL A   1      38.073  31.531  31.434  1.00  0.00     0.049 A 
ATOM     42  N   UNL A   1      39.816  29.530  29.996  1.00  0.00    -0.248 NA
ATOM     43  C   UNL A   1      38.575  29.908  28.058  1.00  0.00     0.031 C 
ATOM     44  C   UNL A   1      37.173  32.402  32.197  1.00  0.00     0.029 A 
ATOM     45  N   UNL A   1      38.977  31.096  32.369  1.00  0.00    -0.354 N 
ATOM     46  C   UNL A   1      40.232  28.652  29.003  1.00  0.00     0.074 A 
ATOM     47  C   UNL A   1      39.383  28.878  27.855  1.00  0.00     0.031 C 
ATOM     48  C   UNL A   1      37.584  32.457  33.474  1.00  0.00     0.029 A 
ATOM     49  C   UNL A   1      38.758  31.609  33.628  1.00  0.00     0.049 A 
ATOM     50  H   UNL A   1      39.713  30.477  32.160  1.00  0.00     0.167 HD
ATOM     51  C   UNL A   1      41.253  27.764  29.034  1.00  0.00     0.034 A 
ATOM     52  C   UNL A   1      39.439  31.423  34.775  1.00  0.00     0.034 A 
ATOM     53  C   UNL A   1      42.136  27.616  30.158  1.00  0.00     0.049 A 
ATOM     54  C   UNL A   1      40.664  30.553  34.737  1.00  0.00     0.074 A 
ATOM     55  C   UNL A   1      43.273  26.837  30.267  1.00  0.00     0.029 A 
ATOM     56  N   UNL A   1      41.984  28.277  31.369  1.00  0.00    -0.354 N 
ATOM     57  N   UNL A   1      41.150  29.860  33.735  1.00  0.00    -0.248 NA
ATOM     58  C   UNL A   1      41.463  30.472  35.968  1.00  0.00     0.031 C 
ATOM     59  C   UNL A   1      43.811  27.032  31.545  1.00  0.00     0.029 A 
ATOM     60  C   UNL A   1      43.012  27.937  32.228  1.00  0.00     0.049 A 
ATOM     61  H   UNL A   1      41.251  28.898  31.583  1.00  0.00     0.167 HD
ATOM     62  C   UNL A   1      42.324  29.285  34.201  1.00  0.00     0.074 A 
ATOM     63  C   UNL A   1      42.490  29.732  35.571  1.00  0.00     0.031 C 
ATOM     64  C   UNL A   1      43.179  28.446  33.566  1.00  0.00     0.034 A 
BRANCH  51  65
ATOM     65  C   UNL A   1      41.506  26.950  27.791  1.00  0.00     0.023 A 
ATOM     66  C   UNL A   1      41.945  27.597  26.617  1.00  0.00     0.012 A 
ATOM     67  C   UNL A   1      41.326  25.553  27.781  1.00  0.00     0.148 A 
ATOM     68  C   UNL A   1      42.153  26.877  25.441  1.00  0.00     0.002 A 
ATOM     69  C   UNL A   1      41.577  24.837  26.615  1.00  0.00     0.091 A 
ATOM     70  F   UNL A   1      40.887  24.955  28.897  1.00  0.00    -0.205 F 
ATOM     71  C   UNL A   1      41.977  25.498  25.443  1.00  0.00     0.022 A 
BRANCH  69  72
ATOM     72  S   UNL A   1      41.447  23.046  26.533  1.00  0.00     0.127 S 
ATOM     73  O   UNL A   1      42.102  22.644  27.776  1.00  0.00    -0.237 OA
ATOM     74  O   UNL A   1      39.998  22.841  26.514  1.00  0.00    -0.237 OA
ATOM     75  O   UNL A   1      42.128  22.652  25.307  1.00  0.00    -0.744 OA
ENDBRANCH  69  72
ENDBRANCH  51  65
BRANCH  52  76
ATOM     76  C   UNL A   1      39.044  32.169  36.003  1.00  0.00     0.023 A 
ATOM     77  C   UNL A   1      39.472  33.503  36.162  1.00  0.00     0.012 A 
ATOM     78  C   UNL A   1      38.200  31.602  36.978  1.00  0.00     0.148 A 
ATOM     79  C   UNL A   1      39.091  34.248  37.279  1.00  0.00     0.002 A 
ATOM     80  C   UNL A   1      37.783  32.366  38.064  1.00  0.00     0.091 A 
ATOM     81  F   UNL A   1      37.808  30.331  36.817  1.00  0.00    -0.205 F 
ATOM     82  C   UNL A   1      38.238  33.684  38.223  1.00  0.00     0.022 A 
BRANCH  80  83
ATOM     83  S   UNL A   1      36.578  31.761  39.253  1.00  0.00     0.127 S 
ATOM     84  O   UNL A   1      37.238  32.053  40.522  1.00  0.00    -0.237 OA
ATOM     85  O   UNL A   1      35.411  32.596  38.960  1.00  0.00    -0.237 OA
ATOM     86  O   UNL A   1      36.396  30.351  38.936  1.00  0.00    -0.744 OA
ENDBRANCH  80  83
ENDBRANCH  52  76
BRANCH  64  87
ATOM     87  C   UNL A   1      44.380  27.973  34.335  1.00  0.00     0.023 A 
ATOM     88  C   UNL A   1      45.550  28.757  34.345  1.00  0.00     0.012 A 
ATOM     89  C   UNL A   1      44.321  26.802  35.112  1.00  0.00     0.148 A 
ATOM     90  C   UNL A   1      46.655  28.367  35.099  1.00  0.00     0.002 A 
ATOM     91  C   UNL A   1      45.409  26.443  35.897  1.00  0.00     0.091 A 
ATOM     92  F   UNL A   1      43.206  26.057  35.068  1.00  0.00    -0.205 F 
ATOM     93  C   UNL A   1      46.580  27.218  35.884  1.00  0.00     0.022 A 
BRANCH  91  94
ATOM     94  S   UNL A   1      45.355  25.033  37.008  1.00  0.00     0.127 S 
ATOM     95  O   UNL A   1      45.414  23.912  36.073  1.00  0.00    -0.237 OA
ATOM     96  O   UNL A   1      46.563  25.220  37.814  1.00  0.00    -0.237 OA
ATOM     97  O   UNL A   1      44.112  25.169  37.755  1.00  0.00    -0.744 OA
ENDBRANCH  91  94
ENDBRANCH  64  87
ENDBRANCH  38  39
ENDBRANCH  30  33
ENDBRANCH   1  29
TORSDOF 15
ENDMDL
