MODEL 1
REMARK VINA RESULT:     -11.7      0.000      0.000
REMARK SMILES Cn1cncc1COc1c(F)cc(C(=O)NCCCNC(=O)c2ccc(-c3c4nc(c(-c5cccc(S(=O)(=O)[O-])c5F)c5ccc([nH]5)c(-c5cccc(S(=O)(=O)[O-])c5F)c5nc(c(-c6cccc(S(=O)(=O)[O-])c6F)c6ccc3[nH]6)C=C5)C=C4)cc2)cc1F
REMARK SMILES IDX 18 1 17 2 16 3 14 4 15 5 13 7 9 8 10 9 87 10 11 11 12 12
REMARK SMILES IDX 86 13 88 14 8 15 7 16 6 17 1 18 2 19 3 20 4 21 5 22 19 23
REMARK SMILES IDX 20 24 21 25 22 27 23 28 24 29 85 30 25 31 84 32 26 33 27 34
REMARK SMILES IDX 28 35 78 36 29 37 83 38 77 39 79 40 30 41 82 42 76 43 75 44
REMARK SMILES IDX 31 46 63 47 43 48 62 49 44 50 47 51 61 52 80 53 45 54 46 55
REMARK SMILES IDX 60 57 81 58 48 59 32 60 33 61 41 62 34 63 36 64 42 65 35 66
REMARK SMILES IDX 37 67 38 68 39 69 40 70 64 71 65 72 73 73 66 74 68 75 74 76
REMARK SMILES IDX 67 77 69 78 70 79 71 80 72 81 49 82 50 83 58 84 51 85 53 86
REMARK SMILES IDX 59 87 52 88 54 89 55 90 56 91 57 92
REMARK H PARENT 16 6 20 26 79 45 47 56
REMARK Flexibility Score: inf
ROOT
ATOM      1  C   UNL A   1      31.399  32.141  26.653  1.00  0.00     0.042 C 
ENDROOT
BRANCH   1   2
ATOM      2  C   UNL A   1      31.491  30.663  26.274  1.00  0.00     0.118 C 
BRANCH   2   3
ATOM      3  N   UNL A   1      31.001  30.398  24.930  1.00  0.00    -0.352 N 
ATOM      4  C   UNL A   1      30.893  29.230  24.214  1.00  0.00     0.251 C 
ATOM      5  O   UNL A   1      30.249  29.245  23.167  1.00  0.00    -0.269 OA
ATOM      6  H   UNL A   1      30.694  31.199  24.447  1.00  0.00     0.163 HD
BRANCH   4   7
ATOM      7  C   UNL A   1      31.492  27.946  24.666  1.00  0.00     0.045 A 
ATOM      8  C   UNL A   1      32.531  25.463  25.515  1.00  0.00     0.191 A 
ATOM      9  C   UNL A   1      33.361  26.454  25.007  1.00  0.00     0.168 A 
ATOM     10  C   UNL A   1      31.159  25.695  25.520  1.00  0.00     0.168 A 
ATOM     11  F   UNL A   1      34.676  26.257  24.876  1.00  0.00    -0.203 F 
ATOM     12  C   UNL A   1      32.856  27.678  24.591  1.00  0.00     0.057 A 
ATOM     13  C   UNL A   1      30.636  26.923  25.102  1.00  0.00     0.057 A 
ATOM     14  F   UNL A   1      30.315  24.737  25.929  1.00  0.00    -0.203 F 
BRANCH   8  15
ATOM     15  O   UNL A   1      33.036  24.245  25.882  1.00  0.00    -0.481 OA
BRANCH  15  16
ATOM     16  C   UNL A   1      33.469  23.460  24.757  1.00  0.00     0.285 C 
BRANCH  16  17
ATOM     17  C   UNL A   1      33.122  22.030  24.980  1.00  0.00     0.075 A 
ATOM     18  C   UNL A   1      35.414  21.185  25.624  1.00  0.00     0.151 C 
ATOM     19  N   UNL A   1      34.013  21.038  25.323  1.00  0.00    -0.335 N 
ATOM     20  C   UNL A   1      33.336  19.851  25.337  1.00  0.00     0.199 A 
ATOM     21  N   UNL A   1      32.058  20.027  25.103  1.00  0.00    -0.245 NA
ATOM     22  C   UNL A   1      31.914  21.367  24.864  1.00  0.00     0.138 A 
ENDBRANCH  16  17
ENDBRANCH  15  16
ENDBRANCH   8  15
ENDBRANCH   4   7
ENDBRANCH   2   3
ENDBRANCH   1   2
BRANCH   1  23
ATOM     23  C   UNL A   1      32.684  32.725  27.226  1.00  0.00     0.118 C 
BRANCH  23  24
ATOM     24  N   UNL A   1      32.518  34.103  27.659  1.00  0.00    -0.352 N 
ATOM     25  C   UNL A   1      33.117  34.786  28.688  1.00  0.00     0.251 C 
ATOM     26  H   UNL A   1      31.873  34.629  27.133  1.00  0.00     0.163 HD
ATOM     27  O   UNL A   1      32.669  35.883  29.013  1.00  0.00    -0.269 OA
BRANCH  25  28
ATOM     28  C   UNL A   1      34.284  34.221  29.406  1.00  0.00     0.039 A 
ATOM     29  C   UNL A   1      34.056  33.348  30.476  1.00  0.00     0.014 A 
ATOM     30  C   UNL A   1      35.591  34.580  29.073  1.00  0.00     0.014 A 
ATOM     31  C   UNL A   1      35.135  32.805  31.177  1.00  0.00     0.010 A 
ATOM     32  C   UNL A   1      36.669  33.978  29.720  1.00  0.00     0.010 A 
ATOM     33  C   UNL A   1      36.452  33.095  30.788  1.00  0.00    -0.014 A 
BRANCH  33  34
ATOM     34  C   UNL A   1      37.615  32.482  31.480  1.00  0.00     0.031 A 
ATOM     35  C   UNL A   1      38.369  31.344  30.843  1.00  0.00     0.074 A 
ATOM     36  C   UNL A   1      37.937  32.891  32.723  1.00  0.00     0.049 A 
ATOM     37  N   UNL A   1      39.368  30.647  31.319  1.00  0.00    -0.248 NA
ATOM     38  C   UNL A   1      37.924  30.914  29.507  1.00  0.00     0.031 C 
ATOM     39  C   UNL A   1      37.232  33.927  33.480  1.00  0.00     0.029 A 
ATOM     40  N   UNL A   1      38.920  32.464  33.581  1.00  0.00    -0.354 N 
ATOM     41  C   UNL A   1      39.644  29.674  30.366  1.00  0.00     0.074 A 
ATOM     42  C   UNL A   1      38.686  29.850  29.296  1.00  0.00     0.031 C 
ATOM     43  C   UNL A   1      37.805  34.057  34.686  1.00  0.00     0.029 A 
ATOM     44  C   UNL A   1      38.897  33.096  34.802  1.00  0.00     0.049 A 
ATOM     45  H   UNL A   1      39.579  31.772  33.344  1.00  0.00     0.167 HD
ATOM     46  C   UNL A   1      40.622  28.738  30.365  1.00  0.00     0.034 A 
ATOM     47  C   UNL A   1      39.662  32.917  35.896  1.00  0.00     0.034 A 
ATOM     48  C   UNL A   1      41.599  28.595  31.411  1.00  0.00     0.049 A 
ATOM     49  C   UNL A   1      40.771  31.902  35.853  1.00  0.00     0.074 A 
ATOM     50  C   UNL A   1      42.689  27.744  31.462  1.00  0.00     0.029 A 
ATOM     51  N   UNL A   1      41.600  29.315  32.597  1.00  0.00    -0.354 N 
ATOM     52  N   UNL A   1      41.120  31.101  34.874  1.00  0.00    -0.248 NA
ATOM     53  C   UNL A   1      41.616  31.789  37.050  1.00  0.00     0.031 C 
ATOM     54  C   UNL A   1      43.333  27.931  32.690  1.00  0.00     0.029 A 
ATOM     55  C   UNL A   1      42.663  28.920  33.391  1.00  0.00     0.049 A 
ATOM     56  H   UNL A   1      40.941  30.006  32.837  1.00  0.00     0.167 HD
ATOM     57  C   UNL A   1      42.242  30.416  35.324  1.00  0.00     0.074 A 
ATOM     58  C   UNL A   1      42.529  30.911  36.654  1.00  0.00     0.031 C 
ATOM     59  C   UNL A   1      42.964  29.455  34.695  1.00  0.00     0.034 A 
BRANCH  46  60
ATOM     60  C   UNL A   1      40.715  27.823  29.169  1.00  0.00     0.023 A 
ATOM     61  C   UNL A   1      39.896  26.677  29.104  1.00  0.00     0.012 A 
ATOM     62  C   UNL A   1      41.575  28.118  28.092  1.00  0.00     0.148 A 
ATOM     63  C   UNL A   1      39.959  25.818  28.007  1.00  0.00     0.002 A 
ATOM     64  C   UNL A   1      41.599  27.281  26.982  1.00  0.00     0.091 A 
ATOM     65  F   UNL A   1      42.362  29.199  28.180  1.00  0.00    -0.205 F 
ATOM     66  C   UNL A   1      40.803  26.125  26.944  1.00  0.00     0.022 A 
BRANCH  64  67
ATOM     67  S   UNL A   1      42.590  27.633  25.526  1.00  0.00     0.127 S 
ATOM     68  O   UNL A   1      42.362  26.436  24.718  1.00  0.00    -0.237 OA
ATOM     69  O   UNL A   1      41.958  28.847  25.008  1.00  0.00    -0.237 OA
ATOM     70  O   UNL A   1      43.953  27.816  26.004  1.00  0.00    -0.744 OA
ENDBRANCH  64  67
ENDBRANCH  46  60
BRANCH  47  71
ATOM     71  C   UNL A   1      39.445  33.767  37.099  1.00  0.00     0.023 A 
ATOM     72  C   UNL A   1      39.878  35.107  37.086  1.00  0.00     0.012 A 
ATOM     73  C   UNL A   1      38.778  33.271  38.237  1.00  0.00     0.148 A 
ATOM     74  C   UNL A   1      39.674  35.931  38.193  1.00  0.00     0.002 A 
ATOM     75  C   UNL A   1      38.530  34.112  39.314  1.00  0.00     0.091 A 
ATOM     76  F   UNL A   1      38.382  31.990  38.231  1.00  0.00    -0.205 F 
ATOM     77  C   UNL A   1      38.992  35.438  39.302  1.00  0.00     0.022 A 
BRANCH  75  78
ATOM     78  S   UNL A   1      37.548  33.604  40.729  1.00  0.00     0.127 S 
ATOM     79  O   UNL A   1      38.403  32.588  41.337  1.00  0.00    -0.237 OA
ATOM     80  O   UNL A   1      37.440  34.853  41.483  1.00  0.00    -0.237 OA
ATOM     81  O   UNL A   1      36.288  33.123  40.179  1.00  0.00    -0.744 OA
ENDBRANCH  75  78
ENDBRANCH  47  71
BRANCH  59  82
ATOM     82  C   UNL A   1      44.157  28.891  35.422  1.00  0.00     0.023 A 
ATOM     83  C   UNL A   1      45.425  29.480  35.251  1.00  0.00     0.012 A 
ATOM     84  C   UNL A   1      44.006  27.824  36.330  1.00  0.00     0.148 A 
ATOM     85  C   UNL A   1      46.531  28.994  35.948  1.00  0.00     0.002 A 
ATOM     86  C   UNL A   1      45.102  27.379  37.058  1.00  0.00     0.091 A 
ATOM     87  F   UNL A   1      42.795  27.265  36.465  1.00  0.00    -0.205 F 
ATOM     88  C   UNL A   1      46.368  27.953  36.859  1.00  0.00     0.022 A 
BRANCH  86  89
ATOM     89  S   UNL A   1      44.965  26.111  38.324  1.00  0.00     0.127 S 
ATOM     90  O   UNL A   1      46.327  26.071  38.854  1.00  0.00    -0.237 OA
ATOM     91  O   UNL A   1      43.973  26.687  39.234  1.00  0.00    -0.237 OA
ATOM     92  O   UNL A   1      44.526  24.905  37.637  1.00  0.00    -0.744 OA
ENDBRANCH  86  89
ENDBRANCH  59  82
ENDBRANCH  33  34
ENDBRANCH  25  28
ENDBRANCH  23  24
ENDBRANCH   1  23
TORSDOF 16
ENDMDL
MODEL 2
REMARK VINA RESULT:     -11.7      3.584      8.788
REMARK SMILES Cn1cncc1COc1c(F)cc(C(=O)NCCCNC(=O)c2ccc(-c3c4nc(c(-c5cccc(S(=O)(=O)[O-])c5F)c5ccc([nH]5)c(-c5cccc(S(=O)(=O)[O-])c5F)c5nc(c(-c6cccc(S(=O)(=O)[O-])c6F)c6ccc3[nH]6)C=C5)C=C4)cc2)cc1F
REMARK SMILES IDX 18 1 17 2 16 3 14 4 15 5 13 7 9 8 10 9 87 10 11 11 12 12
REMARK SMILES IDX 86 13 88 14 8 15 7 16 6 17 1 18 2 19 3 20 4 21 5 22 19 23
REMARK SMILES IDX 20 24 21 25 22 27 23 28 24 29 85 30 25 31 84 32 26 33 27 34
REMARK SMILES IDX 28 35 78 36 29 37 83 38 77 39 79 40 30 41 82 42 76 43 75 44
REMARK SMILES IDX 31 46 63 47 43 48 62 49 44 50 47 51 61 52 80 53 45 54 46 55
REMARK SMILES IDX 60 57 81 58 48 59 32 60 33 61 41 62 34 63 36 64 42 65 35 66
REMARK SMILES IDX 37 67 38 68 39 69 40 70 64 71 65 72 73 73 66 74 68 75 74 76
REMARK SMILES IDX 67 77 69 78 70 79 71 80 72 81 49 82 50 83 58 84 51 85 53 86
REMARK SMILES IDX 59 87 52 88 54 89 55 90 56 91 57 92
REMARK H PARENT 16 6 20 26 79 45 47 56
REMARK Flexibility Score: inf
ROOT
ATOM      1  C   UNL A   1      32.842  27.732  26.305  1.00  0.00     0.042 C 
ENDROOT
BRANCH   1   2
ATOM      2  C   UNL A   1      32.076  27.349  25.039  1.00  0.00     0.118 C 
BRANCH   2   3
ATOM      3  N   UNL A   1      32.881  27.484  23.835  1.00  0.00    -0.352 N 
ATOM      4  C   UNL A   1      33.463  26.543  23.020  1.00  0.00     0.251 C 
ATOM      5  O   UNL A   1      33.921  26.911  21.939  1.00  0.00    -0.269 OA
ATOM      6  H   UNL A   1      33.036  28.414  23.555  1.00  0.00     0.163 HD
BRANCH   4   7
ATOM      7  C   UNL A   1      33.536  25.100  23.372  1.00  0.00     0.045 A 
ATOM      8  C   UNL A   1      33.648  22.337  23.938  1.00  0.00     0.191 A 
ATOM      9  C   UNL A   1      34.273  23.266  24.761  1.00  0.00     0.168 A 
ATOM     10  C   UNL A   1      33.032  22.797  22.779  1.00  0.00     0.168 A 
ATOM     11  F   UNL A   1      34.972  22.883  25.834  1.00  0.00    -0.203 F 
ATOM     12  C   UNL A   1      34.218  24.626  24.489  1.00  0.00     0.057 A 
ATOM     13  C   UNL A   1      32.970  24.165  22.491  1.00  0.00     0.057 A 
ATOM     14  F   UNL A   1      32.484  21.929  21.917  1.00  0.00    -0.203 F 
BRANCH   8  15
ATOM     15  O   UNL A   1      33.746  20.996  24.194  1.00  0.00    -0.481 OA
BRANCH  15  16
ATOM     16  C   UNL A   1      32.477  20.393  24.499  1.00  0.00     0.285 C 
BRANCH  16  17
ATOM     17  C   UNL A   1      32.659  18.934  24.735  1.00  0.00     0.075 A 
ATOM     18  C   UNL A   1      32.414  18.137  22.350  1.00  0.00     0.151 C 
ATOM     19  N   UNL A   1      32.583  17.956  23.769  1.00  0.00    -0.335 N 
ATOM     20  C   UNL A   1      32.703  16.744  24.389  1.00  0.00     0.199 A 
ATOM     21  N   UNL A   1      32.928  16.883  25.673  1.00  0.00    -0.245 NA
ATOM     22  C   UNL A   1      32.886  18.232  25.904  1.00  0.00     0.138 A 
ENDBRANCH  16  17
ENDBRANCH  15  16
ENDBRANCH   8  15
ENDBRANCH   4   7
ENDBRANCH   2   3
ENDBRANCH   1   2
BRANCH   1  23
ATOM     23  C   UNL A   1      34.014  28.677  26.070  1.00  0.00     0.118 C 
BRANCH  23  24
ATOM     24  N   UNL A   1      33.771  30.002  26.616  1.00  0.00    -0.352 N 
ATOM     25  C   UNL A   1      34.443  30.694  27.594  1.00  0.00     0.251 C 
ATOM     26  H   UNL A   1      33.004  30.479  26.224  1.00  0.00     0.163 HD
ATOM     27  O   UNL A   1      33.936  31.714  28.053  1.00  0.00    -0.269 OA
BRANCH  25  28
ATOM     28  C   UNL A   1      35.757  30.227  28.097  1.00  0.00     0.039 A 
ATOM     29  C   UNL A   1      35.826  29.679  29.383  1.00  0.00     0.014 A 
ATOM     30  C   UNL A   1      36.922  30.373  27.342  1.00  0.00     0.014 A 
ATOM     31  C   UNL A   1      37.051  29.238  29.889  1.00  0.00     0.010 A 
ATOM     32  C   UNL A   1      38.129  29.861  27.814  1.00  0.00     0.010 A 
ATOM     33  C   UNL A   1      38.210  29.301  29.098  1.00  0.00    -0.014 A 
BRANCH  33  34
ATOM     34  C   UNL A   1      39.512  28.782  29.592  1.00  0.00     0.031 A 
ATOM     35  C   UNL A   1      40.241  29.490  30.704  1.00  0.00     0.074 A 
ATOM     36  C   UNL A   1      40.080  27.726  28.978  1.00  0.00     0.049 A 
ATOM     37  N   UNL A   1      41.411  29.221  31.225  1.00  0.00    -0.248 NA
ATOM     38  C   UNL A   1      39.584  30.671  31.288  1.00  0.00     0.031 C 
ATOM     39  C   UNL A   1      39.511  27.007  27.837  1.00  0.00     0.029 A 
ATOM     40  N   UNL A   1      41.275  27.091  29.208  1.00  0.00    -0.354 N 
ATOM     41  C   UNL A   1      41.648  30.217  32.165  1.00  0.00     0.074 A 
ATOM     42  C   UNL A   1      40.515  31.116  32.120  1.00  0.00     0.031 C 
ATOM     43  C   UNL A   1      40.355  26.030  27.468  1.00  0.00     0.029 A 
ATOM     44  C   UNL A   1      41.535  26.071  28.325  1.00  0.00     0.049 A 
ATOM     45  H   UNL A   1      41.887  27.343  29.938  1.00  0.00     0.167 HD
ATOM     46  C   UNL A   1      42.698  30.358  33.008  1.00  0.00     0.034 A 
ATOM     47  C   UNL A   1      42.608  25.264  28.209  1.00  0.00     0.034 A 
ATOM     48  C   UNL A   1      43.802  29.437  33.078  1.00  0.00     0.049 A 
ATOM     49  C   UNL A   1      43.741  25.411  29.188  1.00  0.00     0.074 A 
ATOM     50  C   UNL A   1      44.866  29.434  33.962  1.00  0.00     0.029 A 
ATOM     51  N   UNL A   1      43.988  28.359  32.225  1.00  0.00    -0.354 N 
ATOM     52  N   UNL A   1      43.871  26.261  30.178  1.00  0.00    -0.248 NA
ATOM     53  C   UNL A   1      44.859  24.466  29.057  1.00  0.00     0.031 C 
ATOM     54  C   UNL A   1      45.710  28.370  33.626  1.00  0.00     0.029 A 
ATOM     55  C   UNL A   1      45.156  27.692  32.553  1.00  0.00     0.049 A 
ATOM     56  H   UNL A   1      43.379  28.106  31.494  1.00  0.00     0.167 HD
ATOM     57  C   UNL A   1      45.065  25.932  30.808  1.00  0.00     0.074 A 
ATOM     58  C   UNL A   1      45.610  24.792  30.101  1.00  0.00     0.031 C 
ATOM     59  C   UNL A   1      45.663  26.528  31.869  1.00  0.00     0.034 A 
BRANCH  46  60
ATOM     60  C   UNL A   1      42.680  31.527  33.961  1.00  0.00     0.023 A 
ATOM     61  C   UNL A   1      43.208  32.769  33.550  1.00  0.00     0.012 A 
ATOM     62  C   UNL A   1      42.102  31.413  35.241  1.00  0.00     0.148 A 
ATOM     63  C   UNL A   1      43.198  33.866  34.409  1.00  0.00     0.002 A 
ATOM     64  C   UNL A   1      42.055  32.525  36.076  1.00  0.00     0.091 A 
ATOM     65  F   UNL A   1      41.624  30.222  35.624  1.00  0.00    -0.205 F 
ATOM     66  C   UNL A   1      42.615  33.747  35.667  1.00  0.00     0.022 A 
BRANCH  64  67
ATOM     67  S   UNL A   1      41.252  32.496  37.682  1.00  0.00     0.127 S 
ATOM     68  O   UNL A   1      42.112  31.577  38.425  1.00  0.00    -0.237 OA
ATOM     69  O   UNL A   1      41.351  33.895  38.102  1.00  0.00    -0.237 OA
ATOM     70  O   UNL A   1      39.894  32.030  37.444  1.00  0.00    -0.744 OA
ENDBRANCH  64  67
ENDBRANCH  46  60
BRANCH  47  71
ATOM     71  C   UNL A   1      42.628  24.202  27.166  1.00  0.00     0.023 A 
ATOM     72  C   UNL A   1      43.320  24.430  25.960  1.00  0.00     0.012 A 
ATOM     73  C   UNL A   1      42.003  22.957  27.375  1.00  0.00     0.148 A 
ATOM     74  C   UNL A   1      43.368  23.448  24.971  1.00  0.00     0.002 A 
ATOM     75  C   UNL A   1      42.101  21.963  26.409  1.00  0.00     0.091 A 
ATOM     76  F   UNL A   1      41.343  22.764  28.526  1.00  0.00    -0.205 F 
ATOM     77  C   UNL A   1      42.768  22.212  25.198  1.00  0.00     0.022 A 
BRANCH  75  78
ATOM     78  S   UNL A   1      41.472  20.301  26.667  1.00  0.00     0.127 S 
ATOM     79  O   UNL A   1      42.169  19.904  27.887  1.00  0.00    -0.237 OA
ATOM     80  O   UNL A   1      40.039  20.544  26.825  1.00  0.00    -0.237 OA
ATOM     81  O   UNL A   1      41.827  19.557  25.465  1.00  0.00    -0.744 OA
ENDBRANCH  75  78
ENDBRANCH  47  71
BRANCH  59  82
ATOM     82  C   UNL A   1      46.962  25.943  32.358  1.00  0.00     0.023 A 
ATOM     83  C   UNL A   1      48.185  26.432  31.857  1.00  0.00     0.012 A 
ATOM     84  C   UNL A   1      46.972  24.961  33.368  1.00  0.00     0.148 A 
ATOM     85  C   UNL A   1      49.396  25.929  32.330  1.00  0.00     0.002 A 
ATOM     86  C   UNL A   1      48.182  24.501  33.870  1.00  0.00     0.091 A 
ATOM     87  F   UNL A   1      45.798  24.495  33.819  1.00  0.00    -0.205 F 
ATOM     88  C   UNL A   1      49.395  24.973  33.344  1.00  0.00     0.022 A 
BRANCH  86  89
ATOM     89  S   UNL A   1      48.278  23.344  35.242  1.00  0.00     0.127 S 
ATOM     90  O   UNL A   1      49.709  23.049  35.284  1.00  0.00    -0.237 OA
ATOM     91  O   UNL A   1      47.788  24.149  36.362  1.00  0.00    -0.237 OA
ATOM     92  O   UNL A   1      47.419  22.224  34.883  1.00  0.00    -0.744 OA
ENDBRANCH  86  89
ENDBRANCH  59  82
ENDBRANCH  33  34
ENDBRANCH  25  28
ENDBRANCH  23  24
ENDBRANCH   1  23
TORSDOF 16
ENDMDL
MODEL 3
REMARK VINA RESULT:     -11.5      6.450     11.777
REMARK SMILES Cn1cncc1COc1c(F)cc(C(=O)NCCCNC(=O)c2ccc(-c3c4nc(c(-c5cccc(S(=O)(=O)[O-])c5F)c5ccc([nH]5)c(-c5cccc(S(=O)(=O)[O-])c5F)c5nc(c(-c6cccc(S(=O)(=O)[O-])c6F)c6ccc3[nH]6)C=C5)C=C4)cc2)cc1F
REMARK SMILES IDX 18 1 17 2 16 3 14 4 15 5 13 7 9 8 10 9 87 10 11 11 12 12
REMARK SMILES IDX 86 13 88 14 8 15 7 16 6 17 1 18 2 19 3 20 4 21 5 22 19 23
REMARK SMILES IDX 20 24 21 25 22 27 23 28 24 29 85 30 25 31 84 32 26 33 27 34
REMARK SMILES IDX 28 35 78 36 29 37 83 38 77 39 79 40 30 41 82 42 76 43 75 44
REMARK SMILES IDX 31 46 63 47 43 48 62 49 44 50 47 51 61 52 80 53 45 54 46 55
REMARK SMILES IDX 60 57 81 58 48 59 32 60 33 61 41 62 34 63 36 64 42 65 35 66
REMARK SMILES IDX 37 67 38 68 39 69 40 70 64 71 65 72 73 73 66 74 68 75 74 76
REMARK SMILES IDX 67 77 69 78 70 79 71 80 72 81 49 82 50 83 58 84 51 85 53 86
REMARK SMILES IDX 59 87 52 88 54 89 55 90 56 91 57 92
REMARK H PARENT 16 6 20 26 79 45 47 56
REMARK Flexibility Score: inf
ROOT
ATOM      1  C   UNL A   1      37.773  19.576  24.852  1.00  0.00     0.042 C 
ENDROOT
BRANCH   1   2
ATOM      2  C   UNL A   1      36.399  20.234  24.980  1.00  0.00     0.118 C 
BRANCH   2   3
ATOM      3  N   UNL A   1      35.309  19.273  24.918  1.00  0.00    -0.352 N 
ATOM      4  C   UNL A   1      33.946  19.444  24.875  1.00  0.00     0.251 C 
ATOM      5  O   UNL A   1      33.244  18.469  24.614  1.00  0.00    -0.269 OA
ATOM      6  H   UNL A   1      35.600  18.332  24.906  1.00  0.00     0.163 HD
BRANCH   4   7
ATOM      7  C   UNL A   1      33.288  20.759  25.098  1.00  0.00     0.045 A 
ATOM      8  C   UNL A   1      31.984  23.239  25.428  1.00  0.00     0.191 A 
ATOM      9  C   UNL A   1      32.588  22.596  26.501  1.00  0.00     0.168 A 
ATOM     10  C   UNL A   1      31.967  22.590  24.198  1.00  0.00     0.168 A 
ATOM     11  F   UNL A   1      32.550  23.115  27.732  1.00  0.00    -0.203 F 
ATOM     12  C   UNL A   1      33.234  21.378  26.343  1.00  0.00     0.057 A 
ATOM     13  C   UNL A   1      32.612  21.361  24.025  1.00  0.00     0.057 A 
ATOM     14  F   UNL A   1      31.328  23.138  23.155  1.00  0.00    -0.203 F 
BRANCH   8  15
ATOM     15  O   UNL A   1      31.313  24.420  25.606  1.00  0.00    -0.481 OA
BRANCH  15  16
ATOM     16  C   UNL A   1      32.090  25.566  25.220  1.00  0.00     0.285 C 
BRANCH  16  17
ATOM     17  C   UNL A   1      31.364  26.335  24.172  1.00  0.00     0.075 A 
ATOM     18  C   UNL A   1      33.208  26.456  22.451  1.00  0.00     0.151 C 
ATOM     19  N   UNL A   1      31.899  26.751  22.974  1.00  0.00    -0.335 N 
ATOM     20  C   UNL A   1      30.959  27.509  22.335  1.00  0.00     0.199 A 
ATOM     21  N   UNL A   1      29.834  27.541  23.006  1.00  0.00    -0.245 NA
ATOM     22  C   UNL A   1      30.075  26.834  24.153  1.00  0.00     0.138 A 
ENDBRANCH  16  17
ENDBRANCH  15  16
ENDBRANCH   8  15
ENDBRANCH   4   7
ENDBRANCH   2   3
ENDBRANCH   1   2
BRANCH   1  23
ATOM     23  C   UNL A   1      38.840  20.164  25.766  1.00  0.00     0.118 C 
BRANCH  23  24
ATOM     24  N   UNL A   1      39.950  19.249  25.977  1.00  0.00    -0.352 N 
ATOM     25  C   UNL A   1      41.281  19.507  26.195  1.00  0.00     0.251 C 
ATOM     26  H   UNL A   1      39.711  18.295  25.960  1.00  0.00     0.163 HD
ATOM     27  O   UNL A   1      42.084  18.579  26.132  1.00  0.00    -0.269 OA
BRANCH  25  28
ATOM     28  C   UNL A   1      41.756  20.878  26.499  1.00  0.00     0.039 A 
ATOM     29  C   UNL A   1      41.900  21.787  25.446  1.00  0.00     0.014 A 
ATOM     30  C   UNL A   1      42.111  21.257  27.795  1.00  0.00     0.014 A 
ATOM     31  C   UNL A   1      42.353  23.084  25.700  1.00  0.00     0.010 A 
ATOM     32  C   UNL A   1      42.487  22.572  28.060  1.00  0.00     0.010 A 
ATOM     33  C   UNL A   1      42.626  23.496  27.014  1.00  0.00    -0.014 A 
BRANCH  33  34
ATOM     34  C   UNL A   1      43.051  24.888  27.315  1.00  0.00     0.031 A 
ATOM     35  C   UNL A   1      42.093  25.856  27.955  1.00  0.00     0.074 A 
ATOM     36  C   UNL A   1      44.273  25.305  26.929  1.00  0.00     0.049 A 
ATOM     37  N   UNL A   1      42.264  27.122  28.238  1.00  0.00    -0.248 NA
ATOM     38  C   UNL A   1      40.756  25.343  28.298  1.00  0.00     0.031 C 
ATOM     39  C   UNL A   1      45.262  24.485  26.226  1.00  0.00     0.029 A 
ATOM     40  N   UNL A   1      44.881  26.530  27.046  1.00  0.00    -0.354 N 
ATOM     41  C   UNL A   1      41.052  27.566  28.751  1.00  0.00     0.074 A 
ATOM     42  C   UNL A   1      40.141  26.443  28.711  1.00  0.00     0.031 C 
ATOM     43  C   UNL A   1      46.351  25.228  25.976  1.00  0.00     0.029 A 
ATOM     44  C   UNL A   1      46.129  26.582  26.473  1.00  0.00     0.049 A 
ATOM     45  H   UNL A   1      44.462  27.298  27.498  1.00  0.00     0.167 HD
ATOM     46  C   UNL A   1      40.731  28.789  29.238  1.00  0.00     0.034 A 
ATOM     47  C   UNL A   1      46.996  27.607  26.352  1.00  0.00     0.034 A 
ATOM     48  C   UNL A   1      41.653  29.890  29.315  1.00  0.00     0.049 A 
ATOM     49  C   UNL A   1      46.635  28.942  26.941  1.00  0.00     0.074 A 
ATOM     50  C   UNL A   1      41.458  31.139  29.878  1.00  0.00     0.029 A 
ATOM     51  N   UNL A   1      42.943  29.879  28.805  1.00  0.00    -0.354 N 
ATOM     52  N   UNL A   1      45.540  29.297  27.570  1.00  0.00    -0.248 NA
ATOM     53  C   UNL A   1      47.640  30.009  26.837  1.00  0.00     0.031 C 
ATOM     54  C   UNL A   1      42.622  31.892  29.685  1.00  0.00     0.029 A 
ATOM     55  C   UNL A   1      43.552  31.103  29.029  1.00  0.00     0.049 A 
ATOM     56  H   UNL A   1      43.364  29.114  28.351  1.00  0.00     0.167 HD
ATOM     57  C   UNL A   1      45.739  30.615  27.966  1.00  0.00     0.074 A 
ATOM     58  C   UNL A   1      47.067  30.988  27.524  1.00  0.00     0.031 C 
ATOM     59  C   UNL A   1      44.893  31.445  28.625  1.00  0.00     0.034 A 
BRANCH  46  60
ATOM     60  C   UNL A   1      39.334  28.987  29.772  1.00  0.00     0.023 A 
ATOM     61  C   UNL A   1      39.004  28.503  31.055  1.00  0.00     0.012 A 
ATOM     62  C   UNL A   1      38.364  29.690  29.030  1.00  0.00     0.148 A 
ATOM     63  C   UNL A   1      37.723  28.678  31.575  1.00  0.00     0.002 A 
ATOM     64  C   UNL A   1      37.101  29.900  29.574  1.00  0.00     0.091 A 
ATOM     65  F   UNL A   1      38.687  30.125  27.805  1.00  0.00    -0.205 F 
ATOM     66  C   UNL A   1      36.775  29.383  30.839  1.00  0.00     0.022 A 
BRANCH  64  67
ATOM     67  S   UNL A   1      35.838  30.867  28.741  1.00  0.00     0.127 S 
ATOM     68  O   UNL A   1      36.635  31.926  28.124  1.00  0.00    -0.237 OA
ATOM     69  O   UNL A   1      35.280  29.897  27.796  1.00  0.00    -0.237 OA
ATOM     70  O   UNL A   1      34.914  31.301  29.779  1.00  0.00    -0.744 OA
ENDBRANCH  64  67
ENDBRANCH  46  60
BRANCH  47  71
ATOM     71  C   UNL A   1      48.317  27.386  25.702  1.00  0.00     0.023 A 
ATOM     72  C   UNL A   1      49.414  26.977  26.486  1.00  0.00     0.012 A 
ATOM     73  C   UNL A   1      48.485  27.536  24.311  1.00  0.00     0.148 A 
ATOM     74  C   UNL A   1      50.660  26.749  25.902  1.00  0.00     0.002 A 
ATOM     75  C   UNL A   1      49.714  27.254  23.728  1.00  0.00     0.091 A 
ATOM     76  F   UNL A   1      47.430  27.934  23.585  1.00  0.00    -0.205 F 
ATOM     77  C   UNL A   1      50.808  26.876  24.523  1.00  0.00     0.022 A 
BRANCH  75  78
ATOM     78  S   UNL A   1      49.964  27.266  21.950  1.00  0.00     0.127 S 
ATOM     79  O   UNL A   1      51.343  26.798  21.839  1.00  0.00    -0.237 OA
ATOM     80  O   UNL A   1      48.950  26.313  21.498  1.00  0.00    -0.237 OA
ATOM     81  O   UNL A   1      49.727  28.641  21.530  1.00  0.00    -0.744 OA
ENDBRANCH  75  78
ENDBRANCH  47  71
BRANCH  59  82
ATOM     82  C   UNL A   1      45.383  32.833  28.942  1.00  0.00     0.023 A 
ATOM     83  C   UNL A   1      46.084  33.074  30.140  1.00  0.00     0.012 A 
ATOM     84  C   UNL A   1      45.213  33.883  28.018  1.00  0.00     0.148 A 
ATOM     85  C   UNL A   1      46.579  34.345  30.429  1.00  0.00     0.002 A 
ATOM     86  C   UNL A   1      45.753  35.134  28.288  1.00  0.00     0.091 A 
ATOM     87  F   UNL A   1      44.528  33.639  26.891  1.00  0.00    -0.205 F 
ATOM     88  C   UNL A   1      46.425  35.371  29.499  1.00  0.00     0.022 A 
BRANCH  86  89
ATOM     89  S   UNL A   1      45.689  36.486  27.107  1.00  0.00     0.127 S 
ATOM     90  O   UNL A   1      44.249  36.713  26.992  1.00  0.00    -0.237 OA
ATOM     91  O   UNL A   1      46.420  37.544  27.806  1.00  0.00    -0.237 OA
ATOM     92  O   UNL A   1      46.343  35.997  25.901  1.00  0.00    -0.744 OA
ENDBRANCH  86  89
ENDBRANCH  59  82
ENDBRANCH  33  34
ENDBRANCH  25  28
ENDBRANCH  23  24
ENDBRANCH   1  23
TORSDOF 16
ENDMDL
