MODEL 1
REMARK VINA RESULT:     -12.6      0.000      0.000
REMARK SMILES CCc1sc(C(=O)Nc2ccc(C(=O)NCCCNC(=O)c3ccc(-c4c5nc(c(-c6cccc(S(=O)(=O)[O-])c6F)c6ccc([nH]6)c(-c6cccc(S(=O)(=O)[O-])c6F)c6nc(c(-c7cccc(S(=O)(=O)[O-])c7F)c7ccc4[nH]7)C=C6)C=C5)cc3)c(O)c2)cc1C
REMARK SMILES IDX 17 1 16 2 15 3 13 4 14 5 12 7 9 8 10 9 87 10 11 11 85 12
REMARK SMILES IDX 8 13 6 14 7 15 5 17 3 18 4 19 89 20 88 21 90 22 2 23 1 24
REMARK SMILES IDX 86 25 18 27 19 28 20 29 21 31 22 32 23 33 84 34 24 35 83 36
REMARK SMILES IDX 25 37 26 38 27 39 77 40 28 41 82 42 76 43 78 44 29 45 81 46
REMARK SMILES IDX 75 47 74 48 30 50 62 51 42 52 61 53 43 54 46 55 60 56 79 57
REMARK SMILES IDX 44 58 45 59 59 61 80 62 47 63 31 64 32 65 40 66 33 67 35 68
REMARK SMILES IDX 41 69 34 70 36 71 37 72 38 73 39 74 63 75 64 76 72 77 65 78
REMARK SMILES IDX 67 79 73 80 66 81 68 82 69 83 70 84 71 85 48 86 49 87 57 88
REMARK SMILES IDX 50 89 52 90 58 91 51 92 53 93 54 94 55 95 56 96
REMARK H PARENT 15 6 8 16 86 26 19 30 78 49 46 60
REMARK Flexibility Score: inf
ROOT
ATOM      1  C   UNL A   1      31.406  30.782  25.956  1.00  0.00     0.042 C 
ENDROOT
BRANCH   1   2
ATOM      2  C   UNL A   1      31.600  29.635  24.977  1.00  0.00     0.118 C 
BRANCH   2   3
ATOM      3  N   UNL A   1      30.816  29.723  23.751  1.00  0.00    -0.352 N 
ATOM      4  C   UNL A   1      30.409  28.757  22.860  1.00  0.00     0.255 C 
ATOM      5  O   UNL A   1      29.718  29.101  21.901  1.00  0.00    -0.269 OA
ATOM      6  H   UNL A   1      30.524  30.635  23.521  1.00  0.00     0.163 HD
BRANCH   4   7
ATOM      7  C   UNL A   1      30.834  27.338  22.969  1.00  0.00     0.081 A 
ATOM      8  C   UNL A   1      31.132  24.548  22.932  1.00  0.00     0.045 A 
ATOM      9  C   UNL A   1      30.262  25.141  23.842  1.00  0.00     0.027 A 
ATOM     10  C   UNL A   1      32.023  25.362  22.229  1.00  0.00     0.073 A 
ATOM     11  C   UNL A   1      30.077  26.526  23.825  1.00  0.00     0.020 A 
ATOM     12  C   UNL A   1      31.900  26.751  22.286  1.00  0.00     0.130 A 
BRANCH   8  13
ATOM     13  N   UNL A   1      31.187  23.167  22.697  1.00  0.00    -0.321 N 
ATOM     14  C   UNL A   1      32.113  22.188  23.013  1.00  0.00     0.265 C 
ATOM     15  O   UNL A   1      31.986  21.131  22.382  1.00  0.00    -0.268 OA
ATOM     16  H   UNL A   1      30.406  22.822  22.206  1.00  0.00     0.170 HD
BRANCH  14  17
ATOM     17  C   UNL A   1      33.142  22.321  24.044  1.00  0.00     0.093 A 
ATOM     18  C   UNL A   1      35.222  22.464  25.390  1.00  0.00     0.008 A 
ATOM     19  S   UNL A   1      34.773  22.752  23.763  1.00  0.00    -0.135 S 
ATOM     20  C   UNL A   1      34.101  22.451  26.204  1.00  0.00    -0.036 A 
ATOM     21  C   UNL A   1      32.911  22.320  25.412  1.00  0.00     0.029 A 
ATOM     22  C   UNL A   1      34.090  22.518  27.694  1.00  0.00     0.045 C 
BRANCH  18  23
ATOM     23  C   UNL A   1      36.680  22.373  25.749  1.00  0.00     0.043 C 
ATOM     24  C   UNL A   1      37.346  23.746  25.782  1.00  0.00     0.010 C 
ENDBRANCH  18  23
ENDBRANCH  14  17
ENDBRANCH   8  13
BRANCH  12  25
ATOM     25  O   UNL A   1      32.886  27.461  21.660  1.00  0.00    -0.507 OA
ATOM     26  H   UNL A   1      33.602  27.013  21.256  1.00  0.00     0.293 HD
ENDBRANCH  12  25
ENDBRANCH   4   7
ENDBRANCH   2   3
ENDBRANCH   1   2
BRANCH   1  27
ATOM     27  C   UNL A   1      32.562  31.048  26.909  1.00  0.00     0.118 C 
BRANCH  27  28
ATOM     28  N   UNL A   1      32.801  32.459  27.191  1.00  0.00    -0.352 N 
ATOM     29  C   UNL A   1      33.844  33.100  27.819  1.00  0.00     0.251 C 
ATOM     30  H   UNL A   1      32.087  33.060  26.876  1.00  0.00     0.163 HD
ATOM     31  O   UNL A   1      33.765  34.312  28.021  1.00  0.00    -0.269 OA
BRANCH  29  32
ATOM     32  C   UNL A   1      35.036  32.355  28.286  1.00  0.00     0.039 A 
ATOM     33  C   UNL A   1      36.279  32.998  28.295  1.00  0.00     0.014 A 
ATOM     34  C   UNL A   1      34.948  31.033  28.716  1.00  0.00     0.014 A 
ATOM     35  C   UNL A   1      37.399  32.349  28.826  1.00  0.00     0.010 A 
ATOM     36  C   UNL A   1      36.027  30.436  29.358  1.00  0.00     0.010 A 
ATOM     37  C   UNL A   1      37.271  31.080  29.416  1.00  0.00    -0.014 A 
BRANCH  37  38
ATOM     38  C   UNL A   1      38.412  30.409  30.097  1.00  0.00     0.031 A 
ATOM     39  C   UNL A   1      38.815  30.820  31.491  1.00  0.00     0.074 A 
ATOM     40  C   UNL A   1      39.160  29.510  29.424  1.00  0.00     0.049 A 
ATOM     41  N   UNL A   1      39.836  30.423  32.206  1.00  0.00    -0.248 NA
ATOM     42  C   UNL A   1      37.988  31.842  32.152  1.00  0.00     0.031 C 
ATOM     43  C   UNL A   1      38.941  29.097  28.035  1.00  0.00     0.029 A 
ATOM     44  N   UNL A   1      40.276  28.807  29.804  1.00  0.00    -0.354 N 
ATOM     45  C   UNL A   1      39.802  31.180  33.371  1.00  0.00     0.074 A 
ATOM     46  C   UNL A   1      38.686  32.091  33.249  1.00  0.00     0.031 C 
ATOM     47  C   UNL A   1      39.889  28.213  27.683  1.00  0.00     0.029 A 
ATOM     48  C   UNL A   1      40.803  28.023  28.804  1.00  0.00     0.049 A 
ATOM     49  H   UNL A   1      40.665  28.861  30.707  1.00  0.00     0.167 HD
ATOM     50  C   UNL A   1      40.604  31.106  34.460  1.00  0.00     0.034 A 
ATOM     51  C   UNL A   1      41.906  27.246  28.782  1.00  0.00     0.034 A 
ATOM     52  C   UNL A   1      41.677  30.161  34.604  1.00  0.00     0.049 A 
ATOM     53  C   UNL A   1      42.742  27.129  30.027  1.00  0.00     0.074 A 
ATOM     54  C   UNL A   1      42.475  29.926  35.710  1.00  0.00     0.029 A 
ATOM     55  N   UNL A   1      42.112  29.301  33.608  1.00  0.00    -0.354 N 
ATOM     56  N   UNL A   1      42.589  27.727  31.183  1.00  0.00    -0.248 NA
ATOM     57  C   UNL A   1      43.882  26.202  29.978  1.00  0.00     0.031 C 
ATOM     58  C   UNL A   1      43.412  28.944  35.371  1.00  0.00     0.029 A 
ATOM     59  C   UNL A   1      43.176  28.543  34.066  1.00  0.00     0.049 A 
ATOM     60  H   UNL A   1      41.722  29.238  32.706  1.00  0.00     0.167 HD
ATOM     61  C   UNL A   1      43.588  27.227  32.008  1.00  0.00     0.074 A 
ATOM     62  C   UNL A   1      44.329  26.258  31.226  1.00  0.00     0.031 C 
ATOM     63  C   UNL A   1      43.876  27.549  33.294  1.00  0.00     0.034 A 
BRANCH  50  64
ATOM     64  C   UNL A   1      40.314  32.042  35.607  1.00  0.00     0.023 A 
ATOM     65  C   UNL A   1      41.111  33.190  35.791  1.00  0.00     0.012 A 
ATOM     66  C   UNL A   1      39.232  31.808  36.477  1.00  0.00     0.148 A 
ATOM     67  C   UNL A   1      40.867  34.066  36.849  1.00  0.00     0.002 A 
ATOM     68  C   UNL A   1      38.962  32.712  37.499  1.00  0.00     0.091 A 
ATOM     69  F   UNL A   1      38.496  30.701  36.302  1.00  0.00    -0.205 F 
ATOM     70  C   UNL A   1      39.788  33.832  37.695  1.00  0.00     0.022 A 
BRANCH  68  71
ATOM     71  S   UNL A   1      37.545  32.547  38.590  1.00  0.00     0.127 S 
ATOM     72  O   UNL A   1      37.899  33.463  39.673  1.00  0.00    -0.237 OA
ATOM     73  O   UNL A   1      36.446  33.006  37.739  1.00  0.00    -0.237 OA
ATOM     74  O   UNL A   1      37.482  31.139  38.955  1.00  0.00    -0.744 OA
ENDBRANCH  68  71
ENDBRANCH  50  64
BRANCH  51  75
ATOM     75  C   UNL A   1      42.245  26.476  27.552  1.00  0.00     0.023 A 
ATOM     76  C   UNL A   1      42.914  27.119  26.492  1.00  0.00     0.012 A 
ATOM     77  C   UNL A   1      41.945  25.104  27.444  1.00  0.00     0.148 A 
ATOM     78  C   UNL A   1      43.251  26.416  25.333  1.00  0.00     0.002 A 
ATOM     79  C   UNL A   1      42.334  24.397  26.313  1.00  0.00     0.091 A 
ATOM     80  F   UNL A   1      41.301  24.514  28.460  1.00  0.00    -0.205 F 
ATOM     81  C   UNL A   1      42.971  25.054  25.249  1.00  0.00     0.022 A 
BRANCH  79  82
ATOM     82  S   UNL A   1      42.140  22.617  26.174  1.00  0.00     0.127 S 
ATOM     83  O   UNL A   1      40.686  22.475  26.163  1.00  0.00    -0.237 OA
ATOM     84  O   UNL A   1      42.796  22.343  24.895  1.00  0.00    -0.237 OA
ATOM     85  O   UNL A   1      42.821  22.055  27.331  1.00  0.00    -0.744 OA
ENDBRANCH  79  82
ENDBRANCH  51  75
BRANCH  63  86
ATOM     86  C   UNL A   1      45.018  26.827  33.959  1.00  0.00     0.023 A 
ATOM     87  C   UNL A   1      46.328  27.338  33.859  1.00  0.00     0.012 A 
ATOM     88  C   UNL A   1      44.779  25.684  34.748  1.00  0.00     0.148 A 
ATOM     89  C   UNL A   1      47.387  26.702  34.508  1.00  0.00     0.002 A 
ATOM     90  C   UNL A   1      45.831  25.088  35.434  1.00  0.00     0.091 A 
ATOM     91  F   UNL A   1      43.530  25.203  34.816  1.00  0.00    -0.205 F 
ATOM     92  C   UNL A   1      47.137  25.588  35.304  1.00  0.00     0.022 A 
BRANCH  90  93
ATOM     93  S   UNL A   1      45.588  23.711  36.560  1.00  0.00     0.127 S 
ATOM     94  O   UNL A   1      46.955  23.438  36.999  1.00  0.00    -0.237 OA
ATOM     95  O   UNL A   1      44.723  24.298  37.585  1.00  0.00    -0.237 OA
ATOM     96  O   UNL A   1      44.962  22.654  35.775  1.00  0.00    -0.744 OA
ENDBRANCH  90  93
ENDBRANCH  63  86
ENDBRANCH  37  38
ENDBRANCH  29  32
ENDBRANCH  27  28
ENDBRANCH   1  27
TORSDOF 17
ENDMDL
MODEL 2
REMARK VINA RESULT:     -12.4      5.188      8.252
REMARK SMILES CCc1sc(C(=O)Nc2ccc(C(=O)NCCCNC(=O)c3ccc(-c4c5nc(c(-c6cccc(S(=O)(=O)[O-])c6F)c6ccc([nH]6)c(-c6cccc(S(=O)(=O)[O-])c6F)c6nc(c(-c7cccc(S(=O)(=O)[O-])c7F)c7ccc4[nH]7)C=C6)C=C5)cc3)c(O)c2)cc1C
REMARK SMILES IDX 17 1 16 2 15 3 13 4 14 5 12 7 9 8 10 9 87 10 11 11 85 12
REMARK SMILES IDX 8 13 6 14 7 15 5 17 3 18 4 19 89 20 88 21 90 22 2 23 1 24
REMARK SMILES IDX 86 25 18 27 19 28 20 29 21 31 22 32 23 33 84 34 24 35 83 36
REMARK SMILES IDX 25 37 26 38 27 39 77 40 28 41 82 42 76 43 78 44 29 45 81 46
REMARK SMILES IDX 75 47 74 48 30 50 62 51 42 52 61 53 43 54 46 55 60 56 79 57
REMARK SMILES IDX 44 58 45 59 59 61 80 62 47 63 31 64 32 65 40 66 33 67 35 68
REMARK SMILES IDX 41 69 34 70 36 71 37 72 38 73 39 74 63 75 64 76 72 77 65 78
REMARK SMILES IDX 67 79 73 80 66 81 68 82 69 83 70 84 71 85 48 86 49 87 57 88
REMARK SMILES IDX 50 89 52 90 58 91 51 92 53 93 54 94 55 95 56 96
REMARK H PARENT 15 6 8 16 86 26 19 30 78 49 46 60
REMARK Flexibility Score: inf
ROOT
ATOM      1  C   UNL A   1      35.992  21.465  24.590  1.00  0.00     0.042 C 
ENDROOT
BRANCH   1   2
ATOM      2  C   UNL A   1      35.253  21.133  25.878  1.00  0.00     0.118 C 
BRANCH   2   3
ATOM      3  N   UNL A   1      34.169  20.168  25.743  1.00  0.00    -0.352 N 
ATOM      4  C   UNL A   1      32.862  20.319  25.342  1.00  0.00     0.255 C 
ATOM      5  O   UNL A   1      32.148  19.317  25.290  1.00  0.00    -0.269 OA
ATOM      6  H   UNL A   1      34.416  19.245  25.980  1.00  0.00     0.163 HD
BRANCH   4   7
ATOM      7  C   UNL A   1      32.264  21.645  25.045  1.00  0.00     0.081 A 
ATOM      8  C   UNL A   1      30.759  23.850  24.179  1.00  0.00     0.045 A 
ATOM      9  C   UNL A   1      31.605  23.194  23.289  1.00  0.00     0.027 A 
ATOM     10  C   UNL A   1      30.862  23.557  25.541  1.00  0.00     0.073 A 
ATOM     11  C   UNL A   1      32.315  22.066  23.709  1.00  0.00     0.020 A 
ATOM     12  C   UNL A   1      31.648  22.487  25.972  1.00  0.00     0.130 A 
BRANCH   8  13
ATOM     13  N   UNL A   1      29.818  24.813  23.788  1.00  0.00    -0.321 N 
ATOM     14  C   UNL A   1      29.767  26.191  23.912  1.00  0.00     0.265 C 
ATOM     15  O   UNL A   1      28.648  26.686  23.729  1.00  0.00    -0.268 OA
ATOM     16  H   UNL A   1      29.033  24.432  23.333  1.00  0.00     0.170 HD
BRANCH  14  17
ATOM     17  C   UNL A   1      30.925  27.044  24.177  1.00  0.00     0.093 A 
ATOM     18  C   UNL A   1      32.625  28.619  25.066  1.00  0.00     0.008 A 
ATOM     19  S   UNL A   1      31.407  27.607  25.718  1.00  0.00    -0.135 S 
ATOM     20  C   UNL A   1      32.935  28.228  23.774  1.00  0.00    -0.036 A 
ATOM     21  C   UNL A   1      31.918  27.356  23.259  1.00  0.00     0.029 A 
ATOM     22  C   UNL A   1      34.122  28.661  22.981  1.00  0.00     0.045 C 
BRANCH  18  23
ATOM     23  C   UNL A   1      33.254  29.671  25.937  1.00  0.00     0.043 C 
ATOM     24  C   UNL A   1      32.218  30.406  26.783  1.00  0.00     0.010 C 
ENDBRANCH  18  23
ENDBRANCH  14  17
ENDBRANCH   8  13
BRANCH  12  25
ATOM     25  O   UNL A   1      31.778  22.353  27.326  1.00  0.00    -0.507 OA
ATOM     26  H   UNL A   1      32.052  21.536  27.692  1.00  0.00     0.293 HD
ENDBRANCH  12  25
ENDBRANCH   4   7
ENDBRANCH   2   3
ENDBRANCH   1   2
BRANCH   1  27
ATOM     27  C   UNL A   1      37.462  21.828  24.741  1.00  0.00     0.118 C 
BRANCH  27  28
ATOM     28  N   UNL A   1      38.290  20.769  25.307  1.00  0.00    -0.352 N 
ATOM     29  C   UNL A   1      39.381  20.814  26.145  1.00  0.00     0.251 C 
ATOM     30  H   UNL A   1      38.020  19.859  25.043  1.00  0.00     0.163 HD
ATOM     31  O   UNL A   1      39.975  19.768  26.408  1.00  0.00    -0.269 OA
BRANCH  29  32
ATOM     32  C   UNL A   1      39.875  22.096  26.699  1.00  0.00     0.039 A 
ATOM     33  C   UNL A   1      40.882  22.074  27.670  1.00  0.00     0.014 A 
ATOM     34  C   UNL A   1      39.359  23.319  26.277  1.00  0.00     0.014 A 
ATOM     35  C   UNL A   1      41.433  23.274  28.134  1.00  0.00     0.010 A 
ATOM     36  C   UNL A   1      39.990  24.504  26.641  1.00  0.00     0.010 A 
ATOM     37  C   UNL A   1      41.031  24.501  27.581  1.00  0.00    -0.014 A 
BRANCH  37  38
ATOM     38  C   UNL A   1      41.677  25.787  27.961  1.00  0.00     0.031 A 
ATOM     39  C   UNL A   1      40.892  26.848  28.689  1.00  0.00     0.074 A 
ATOM     40  C   UNL A   1      42.936  26.051  27.551  1.00  0.00     0.049 A 
ATOM     41  N   UNL A   1      41.251  28.063  29.016  1.00  0.00    -0.248 NA
ATOM     42  C   UNL A   1      39.507  26.516  29.064  1.00  0.00     0.031 C 
ATOM     43  C   UNL A   1      43.772  25.153  26.751  1.00  0.00     0.029 A 
ATOM     44  N   UNL A   1      43.719  27.165  27.721  1.00  0.00    -0.354 N 
ATOM     45  C   UNL A   1      40.127  28.653  29.583  1.00  0.00     0.074 A 
ATOM     46  C   UNL A   1      39.062  27.678  29.517  1.00  0.00     0.031 C 
ATOM     47  C   UNL A   1      44.949  25.749  26.504  1.00  0.00     0.029 A 
ATOM     48  C   UNL A   1      44.941  27.083  27.093  1.00  0.00     0.049 A 
ATOM     49  H   UNL A   1      43.433  27.951  28.242  1.00  0.00     0.167 HD
ATOM     50  C   UNL A   1      39.998  29.880  30.140  1.00  0.00     0.034 A 
ATOM     51  C   UNL A   1      45.940  27.984  26.989  1.00  0.00     0.034 A 
ATOM     52  C   UNL A   1      41.074  30.827  30.256  1.00  0.00     0.049 A 
ATOM     53  C   UNL A   1      45.798  29.316  27.673  1.00  0.00     0.074 A 
ATOM     54  C   UNL A   1      41.077  32.050  30.903  1.00  0.00     0.029 A 
ATOM     55  N   UNL A   1      42.334  30.662  29.705  1.00  0.00    -0.354 N 
ATOM     56  N   UNL A   1      44.784  29.788  28.357  1.00  0.00    -0.248 NA
ATOM     57  C   UNL A   1      46.950  30.226  27.604  1.00  0.00     0.031 C 
ATOM     58  C   UNL A   1      42.333  32.638  30.716  1.00  0.00     0.029 A 
ATOM     59  C   UNL A   1      43.122  31.767  29.983  1.00  0.00     0.049 A 
ATOM     60  H   UNL A   1      42.628  29.876  29.191  1.00  0.00     0.167 HD
ATOM     61  C   UNL A   1      45.186  31.032  28.827  1.00  0.00     0.074 A 
ATOM     62  C   UNL A   1      46.545  31.232  28.368  1.00  0.00     0.031 C 
ATOM     63  C   UNL A   1      44.488  31.934  29.561  1.00  0.00     0.034 A 
BRANCH  50  64
ATOM     64  C   UNL A   1      38.653  30.250  30.713  1.00  0.00     0.023 A 
ATOM     65  C   UNL A   1      38.307  29.831  32.015  1.00  0.00     0.012 A 
ATOM     66  C   UNL A   1      37.747  31.044  29.983  1.00  0.00     0.148 A 
ATOM     67  C   UNL A   1      37.067  30.155  32.563  1.00  0.00     0.002 A 
ATOM     68  C   UNL A   1      36.533  31.407  30.555  1.00  0.00     0.091 A 
ATOM     69  F   UNL A   1      38.081  31.418  28.739  1.00  0.00    -0.205 F 
ATOM     70  C   UNL A   1      36.185  30.951  31.837  1.00  0.00     0.022 A 
BRANCH  68  71
ATOM     71  S   UNL A   1      35.365  32.499  29.737  1.00  0.00     0.127 S 
ATOM     72  O   UNL A   1      34.319  32.624  30.752  1.00  0.00    -0.237 OA
ATOM     73  O   UNL A   1      36.164  33.708  29.533  1.00  0.00    -0.237 OA
ATOM     74  O   UNL A   1      34.970  31.819  28.512  1.00  0.00    -0.744 OA
ENDBRANCH  68  71
ENDBRANCH  50  64
BRANCH  51  75
ATOM     75  C   UNL A   1      47.185  27.626  26.252  1.00  0.00     0.023 A 
ATOM     76  C   UNL A   1      48.243  26.999  26.937  1.00  0.00     0.012 A 
ATOM     77  C   UNL A   1      47.309  27.868  24.870  1.00  0.00     0.148 A 
ATOM     78  C   UNL A   1      49.416  26.646  26.266  1.00  0.00     0.002 A 
ATOM     79  C   UNL A   1      48.455  27.462  24.196  1.00  0.00     0.091 A 
ATOM     80  F   UNL A   1      46.294  28.473  24.238  1.00  0.00    -0.205 F 
ATOM     81  C   UNL A   1      49.516  26.868  24.895  1.00  0.00     0.022 A 
BRANCH  79  82
ATOM     82  S   UNL A   1      48.616  27.580  22.411  1.00  0.00     0.127 S 
ATOM     83  O   UNL A   1      48.704  26.175  22.024  1.00  0.00    -0.237 OA
ATOM     84  O   UNL A   1      47.366  28.245  22.041  1.00  0.00    -0.237 OA
ATOM     85  O   UNL A   1      49.812  28.376  22.175  1.00  0.00    -0.744 OA
ENDBRANCH  79  82
ENDBRANCH  51  75
BRANCH  63  86
ATOM     86  C   UNL A   1      45.187  33.210  29.952  1.00  0.00     0.023 A 
ATOM     87  C   UNL A   1      45.955  33.259  31.132  1.00  0.00     0.012 A 
ATOM     88  C   UNL A   1      45.144  34.337  29.106  1.00  0.00     0.148 A 
ATOM     89  C   UNL A   1      46.643  34.422  31.481  1.00  0.00     0.002 A 
ATOM     90  C   UNL A   1      45.874  35.473  29.434  1.00  0.00     0.091 A 
ATOM     91  F   UNL A   1      44.393  34.276  27.997  1.00  0.00    -0.205 F 
ATOM     92  C   UNL A   1      46.613  35.522  30.628  1.00  0.00     0.022 A 
BRANCH  90  93
ATOM     93  S   UNL A   1      45.976  36.899  28.348  1.00  0.00     0.127 S 
ATOM     94  O   UNL A   1      46.980  37.719  29.024  1.00  0.00    -0.237 OA
ATOM     95  O   UNL A   1      46.424  36.299  27.091  1.00  0.00    -0.237 OA
ATOM     96  O   UNL A   1      44.635  37.466  28.302  1.00  0.00    -0.744 OA
ENDBRANCH  90  93
ENDBRANCH  63  86
ENDBRANCH  37  38
ENDBRANCH  29  32
ENDBRANCH  27  28
ENDBRANCH   1  27
TORSDOF 17
ENDMDL
MODEL 3
REMARK VINA RESULT:     -12.2      2.365      8.108
REMARK SMILES CCc1sc(C(=O)Nc2ccc(C(=O)NCCCNC(=O)c3ccc(-c4c5nc(c(-c6cccc(S(=O)(=O)[O-])c6F)c6ccc([nH]6)c(-c6cccc(S(=O)(=O)[O-])c6F)c6nc(c(-c7cccc(S(=O)(=O)[O-])c7F)c7ccc4[nH]7)C=C6)C=C5)cc3)c(O)c2)cc1C
REMARK SMILES IDX 17 1 16 2 15 3 13 4 14 5 12 7 9 8 10 9 87 10 11 11 85 12
REMARK SMILES IDX 8 13 6 14 7 15 5 17 3 18 4 19 89 20 88 21 90 22 2 23 1 24
REMARK SMILES IDX 86 25 18 27 19 28 20 29 21 31 22 32 23 33 84 34 24 35 83 36
REMARK SMILES IDX 25 37 26 38 27 39 77 40 28 41 82 42 76 43 78 44 29 45 81 46
REMARK SMILES IDX 75 47 74 48 30 50 62 51 42 52 61 53 43 54 46 55 60 56 79 57
REMARK SMILES IDX 44 58 45 59 59 61 80 62 47 63 31 64 32 65 40 66 33 67 35 68
REMARK SMILES IDX 41 69 34 70 36 71 37 72 38 73 39 74 63 75 64 76 72 77 65 78
REMARK SMILES IDX 67 79 73 80 66 81 68 82 69 83 70 84 71 85 48 86 49 87 57 88
REMARK SMILES IDX 50 89 52 90 58 91 51 92 53 93 54 94 55 95 56 96
REMARK H PARENT 15 6 8 16 86 26 19 30 78 49 46 60
REMARK Flexibility Score: inf
ROOT
ATOM      1  C   UNL A   1      31.656  31.934  26.738  1.00  0.00     0.042 C 
ENDROOT
BRANCH   1   2
ATOM      2  C   UNL A   1      31.975  30.574  26.135  1.00  0.00     0.118 C 
BRANCH   2   3
ATOM      3  N   UNL A   1      31.624  29.427  26.964  1.00  0.00    -0.352 N 
ATOM      4  C   UNL A   1      31.647  28.076  26.706  1.00  0.00     0.255 C 
ATOM      5  O   UNL A   1      31.319  27.304  27.607  1.00  0.00    -0.269 OA
ATOM      6  H   UNL A   1      31.316  29.661  27.870  1.00  0.00     0.163 HD
BRANCH   4   7
ATOM      7  C   UNL A   1      31.977  27.524  25.367  1.00  0.00     0.081 A 
ATOM      8  C   UNL A   1      32.568  25.975  23.103  1.00  0.00     0.045 A 
ATOM      9  C   UNL A   1      33.522  26.134  24.103  1.00  0.00     0.027 A 
ATOM     10  C   UNL A   1      31.432  26.788  23.126  1.00  0.00     0.073 A 
ATOM     11  C   UNL A   1      33.208  26.864  25.253  1.00  0.00     0.020 A 
ATOM     12  C   UNL A   1      31.165  27.592  24.235  1.00  0.00     0.130 A 
BRANCH   8  13
ATOM     13  N   UNL A   1      32.691  25.057  22.051  1.00  0.00    -0.321 N 
ATOM     14  C   UNL A   1      33.339  23.840  21.927  1.00  0.00     0.265 C 
ATOM     15  O   UNL A   1      33.494  23.451  20.762  1.00  0.00    -0.268 OA
ATOM     16  H   UNL A   1      32.220  25.334  21.232  1.00  0.00     0.170 HD
BRANCH  14  17
ATOM     17  C   UNL A   1      33.773  23.012  23.052  1.00  0.00     0.093 A 
ATOM     18  C   UNL A   1      33.996  21.607  25.086  1.00  0.00     0.008 A 
ATOM     19  S   UNL A   1      32.778  21.933  23.928  1.00  0.00    -0.135 S 
ATOM     20  C   UNL A   1      35.238  21.972  24.593  1.00  0.00    -0.036 A 
ATOM     21  C   UNL A   1      35.091  22.822  23.445  1.00  0.00     0.029 A 
ATOM     22  C   UNL A   1      36.562  21.592  25.166  1.00  0.00     0.045 C 
BRANCH  18  23
ATOM     23  C   UNL A   1      33.629  20.915  26.369  1.00  0.00     0.043 C 
ATOM     24  C   UNL A   1      33.642  21.871  27.558  1.00  0.00     0.010 C 
ENDBRANCH  18  23
ENDBRANCH  14  17
ENDBRANCH   8  13
BRANCH  12  25
ATOM     25  O   UNL A   1      30.096  28.435  24.114  1.00  0.00    -0.507 OA
ATOM     26  H   UNL A   1      29.914  28.846  23.293  1.00  0.00     0.293 HD
ENDBRANCH  12  25
ENDBRANCH   4   7
ENDBRANCH   2   3
ENDBRANCH   1   2
BRANCH   1  27
ATOM     27  C   UNL A   1      32.836  32.699  27.318  1.00  0.00     0.118 C 
BRANCH  27  28
ATOM     28  N   UNL A   1      32.532  34.070  27.712  1.00  0.00    -0.352 N 
ATOM     29  C   UNL A   1      33.099  34.894  28.657  1.00  0.00     0.251 C 
ATOM     30  H   UNL A   1      31.787  34.479  27.214  1.00  0.00     0.163 HD
ATOM     31  O   UNL A   1      32.592  35.995  28.870  1.00  0.00    -0.269 OA
BRANCH  29  32
ATOM     32  C   UNL A   1      34.278  34.466  29.445  1.00  0.00     0.039 A 
ATOM     33  C   UNL A   1      34.080  33.876  30.699  1.00  0.00     0.014 A 
ATOM     34  C   UNL A   1      35.575  34.636  28.968  1.00  0.00     0.014 A 
ATOM     35  C   UNL A   1      35.172  33.373  31.415  1.00  0.00     0.010 A 
ATOM     36  C   UNL A   1      36.642  34.026  29.618  1.00  0.00     0.010 A 
ATOM     37  C   UNL A   1      36.459  33.392  30.855  1.00  0.00    -0.014 A 
BRANCH  37  38
ATOM     38  C   UNL A   1      37.624  32.760  31.533  1.00  0.00     0.031 A 
ATOM     39  C   UNL A   1      38.346  31.604  30.888  1.00  0.00     0.074 A 
ATOM     40  C   UNL A   1      37.964  33.146  32.781  1.00  0.00     0.049 A 
ATOM     41  N   UNL A   1      39.313  30.864  31.365  1.00  0.00    -0.248 NA
ATOM     42  C   UNL A   1      37.894  31.199  29.546  1.00  0.00     0.031 C 
ATOM     43  C   UNL A   1      37.283  34.182  33.561  1.00  0.00     0.029 A 
ATOM     44  N   UNL A   1      38.944  32.688  33.626  1.00  0.00    -0.354 N 
ATOM     45  C   UNL A   1      39.547  29.881  30.411  1.00  0.00     0.074 A 
ATOM     46  C   UNL A   1      38.592  30.092  29.346  1.00  0.00     0.031 C 
ATOM     47  C   UNL A   1      37.868  34.283  34.766  1.00  0.00     0.029 A 
ATOM     48  C   UNL A   1      38.939  33.297  34.860  1.00  0.00     0.049 A 
ATOM     49  H   UNL A   1      39.590  31.989  33.373  1.00  0.00     0.167 HD
ATOM     50  C   UNL A   1      40.492  28.911  30.400  1.00  0.00     0.034 A 
ATOM     51  C   UNL A   1      39.699  33.079  35.953  1.00  0.00     0.034 A 
ATOM     52  C   UNL A   1      41.478  28.738  31.432  1.00  0.00     0.049 A 
ATOM     53  C   UNL A   1      40.785  32.040  35.893  1.00  0.00     0.074 A 
ATOM     54  C   UNL A   1      42.547  27.861  31.463  1.00  0.00     0.029 A 
ATOM     55  N   UNL A   1      41.511  29.450  32.621  1.00  0.00    -0.354 N 
ATOM     56  N   UNL A   1      41.103  31.235  34.908  1.00  0.00    -0.248 NA
ATOM     57  C   UNL A   1      41.642  31.904  37.078  1.00  0.00     0.031 C 
ATOM     58  C   UNL A   1      43.208  28.022  32.685  1.00  0.00     0.029 A 
ATOM     59  C   UNL A   1      42.572  29.023  33.400  1.00  0.00     0.049 A 
ATOM     60  H   UNL A   1      40.873  30.156  32.875  1.00  0.00     0.167 HD
ATOM     61  C   UNL A   1      42.214  30.522  35.341  1.00  0.00     0.074 A 
ATOM     62  C   UNL A   1      42.528  31.005  36.670  1.00  0.00     0.031 C 
ATOM     63  C   UNL A   1      42.903  29.544  34.701  1.00  0.00     0.034 A 
BRANCH  50  64
ATOM     64  C   UNL A   1      40.535  27.989  29.207  1.00  0.00     0.023 A 
ATOM     65  C   UNL A   1      39.630  26.911  29.121  1.00  0.00     0.012 A 
ATOM     66  C   UNL A   1      41.441  28.212  28.152  1.00  0.00     0.148 A 
ATOM     67  C   UNL A   1      39.656  26.042  28.031  1.00  0.00     0.002 A 
ATOM     68  C   UNL A   1      41.428  27.372  27.044  1.00  0.00     0.091 A 
ATOM     69  F   UNL A   1      42.310  29.228  28.257  1.00  0.00    -0.205 F 
ATOM     70  C   UNL A   1      40.548  26.279  26.989  1.00  0.00     0.022 A 
BRANCH  68  71
ATOM     71  S   UNL A   1      42.478  27.643  25.611  1.00  0.00     0.127 S 
ATOM     72  O   UNL A   1      42.187  26.456  24.807  1.00  0.00    -0.237 OA
ATOM     73  O   UNL A   1      41.942  28.892  25.069  1.00  0.00    -0.237 OA
ATOM     74  O   UNL A   1      43.837  27.736  26.122  1.00  0.00    -0.744 OA
ENDBRANCH  68  71
ENDBRANCH  50  64
BRANCH  51  75
ATOM     75  C   UNL A   1      39.491  33.905  37.175  1.00  0.00     0.023 A 
ATOM     76  C   UNL A   1      39.928  35.243  37.193  1.00  0.00     0.012 A 
ATOM     77  C   UNL A   1      38.829  33.383  38.304  1.00  0.00     0.148 A 
ATOM     78  C   UNL A   1      39.736  36.040  38.324  1.00  0.00     0.002 A 
ATOM     79  C   UNL A   1      38.589  34.198  39.404  1.00  0.00     0.091 A 
ATOM     80  F   UNL A   1      38.428  32.105  38.270  1.00  0.00    -0.205 F 
ATOM     81  C   UNL A   1      39.058  35.521  39.424  1.00  0.00     0.022 A 
BRANCH  79  82
ATOM     82  S   UNL A   1      37.605  33.659  40.807  1.00  0.00     0.127 S 
ATOM     83  O   UNL A   1      38.493  32.687  41.439  1.00  0.00    -0.237 OA
ATOM     84  O   UNL A   1      37.431  34.909  41.549  1.00  0.00    -0.237 OA
ATOM     85  O   UNL A   1      36.376  33.120  40.243  1.00  0.00    -0.744 OA
ENDBRANCH  79  82
ENDBRANCH  51  75
BRANCH  63  86
ATOM     86  C   UNL A   1      44.094  28.950  35.407  1.00  0.00     0.023 A 
ATOM     87  C   UNL A   1      45.372  29.517  35.232  1.00  0.00     0.012 A 
ATOM     88  C   UNL A   1      43.930  27.877  36.307  1.00  0.00     0.148 A 
ATOM     89  C   UNL A   1      46.474  29.004  35.915  1.00  0.00     0.002 A 
ATOM     90  C   UNL A   1      45.024  27.405  37.023  1.00  0.00     0.091 A 
ATOM     91  F   UNL A   1      42.710  27.340  36.446  1.00  0.00    -0.205 F 
ATOM     92  C   UNL A   1      46.298  27.958  36.818  1.00  0.00     0.022 A 
BRANCH  90  93
ATOM     93  S   UNL A   1      44.874  26.132  38.279  1.00  0.00     0.127 S 
ATOM     94  O   UNL A   1      46.269  25.926  38.664  1.00  0.00    -0.237 OA
ATOM     95  O   UNL A   1      44.052  26.792  39.294  1.00  0.00    -0.237 OA
ATOM     96  O   UNL A   1      44.233  24.997  37.628  1.00  0.00    -0.744 OA
ENDBRANCH  90  93
ENDBRANCH  63  86
ENDBRANCH  37  38
ENDBRANCH  29  32
ENDBRANCH  27  28
ENDBRANCH   1  27
TORSDOF 17
ENDMDL
