MODEL 1
REMARK VINA RESULT:     -12.5      0.000      0.000
REMARK SMILES Cc1ccc(NC(=O)CN2C(=O)S/C(=C\c3cc(Cl)c(OCC(=O)NCCCNC(=O)c4ccc(-c5c6nc(c(-c7cccc(S(=O)(=O)[O-])c7F)c7ccc([nH]7)c(-c7cccc(S(=O)(=O)[O-])c7F)c7nc(c(-c8cccc(S(=O)(=O)[O-])c8F)c8ccc5[nH]8)C=C7)C=C6)cc4)c(Cl)c3)C2=O)cc1
REMARK SMILES IDX 23 1 24 2 25 3 22 5 21 6 20 7 16 8 17 9 97 10 18 11 95 12
REMARK SMILES IDX 19 13 96 14 15 15 10 16 11 17 98 18 12 19 13 20 14 21 99 22
REMARK SMILES IDX 9 23 7 24 6 25 8 27 5 28 1 29 2 30 3 31 101 32 4 33 100 34
REMARK SMILES IDX 26 35 27 36 28 37 29 38 30 39 31 41 32 42 33 43 94 44 34 45
REMARK SMILES IDX 93 46 35 47 36 48 37 49 87 50 38 51 92 52 86 53 88 54 39 55
REMARK SMILES IDX 91 56 85 57 84 58 40 60 72 61 52 62 71 63 53 64 56 65 70 66
REMARK SMILES IDX 89 67 54 68 55 69 69 71 90 72 57 73 41 74 42 75 50 76 43 77
REMARK SMILES IDX 45 78 51 79 44 80 46 81 47 82 48 83 49 84 73 85 74 86 82 87
REMARK SMILES IDX 75 88 77 89 83 90 76 91 78 92 79 93 80 94 81 95 58 96 59 97
REMARK SMILES IDX 67 98 60 99 62 100 68 101 61 102 63 103 64 104 65 105 66 106
REMARK H PARENT 25 4 6 26 29 40 88 59 56 70
REMARK Flexibility Score: inf
ROOT
ATOM      1  C   UNL A   1      33.823  36.256  29.048  1.00  0.00     0.257 C 
ATOM      2  O   UNL A   1      33.978  36.828  27.968  1.00  0.00    -0.271 OA
ATOM      3  N   UNL A   1      33.368  37.004  30.093  1.00  0.00    -0.353 N 
ATOM      4  H   UNL A   1      33.361  37.976  29.946  1.00  0.00     0.163 HD
ENDROOT
BRANCH   1   5
ATOM      5  C   UNL A   1      34.067  34.743  29.220  1.00  0.00     0.329 C 
BRANCH   5   6
ATOM      6  O   UNL A   1      34.792  34.042  28.227  1.00  0.00    -0.481 OA
BRANCH   6   7
ATOM      7  C   UNL A   1      34.625  32.707  27.966  1.00  0.00     0.157 A 
ATOM      8  C   UNL A   1      33.902  29.999  27.341  1.00  0.00    -0.021 A 
ATOM      9  C   UNL A   1      32.971  31.019  27.195  1.00  0.00     0.032 A 
ATOM     10  C   UNL A   1      35.165  30.346  27.839  1.00  0.00     0.032 A 
ATOM     11  C   UNL A   1      33.328  32.346  27.516  1.00  0.00     0.085 A 
ATOM     12  C   UNL A   1      35.556  31.673  28.068  1.00  0.00     0.085 A 
ATOM     13  Cl  UNL A   1      32.098  33.556  27.295  1.00  0.00    -0.080 Cl
ATOM     14  Cl  UNL A   1      37.256  31.841  28.310  1.00  0.00    -0.080 Cl
BRANCH   8  15
ATOM     15  C   UNL A   1      33.615  28.576  27.050  1.00  0.00     0.029 C 
ATOM     16  N   UNL A   1      33.645  26.706  24.021  1.00  0.00    -0.259 N 
ATOM     17  C   UNL A   1      33.572  27.929  23.407  1.00  0.00     0.294 C 
ATOM     18  C   UNL A   1      33.444  26.708  25.389  1.00  0.00     0.268 C 
ATOM     19  O   UNL A   1      34.002  28.254  22.317  1.00  0.00    -0.261 OA
ATOM     20  S   UNL A   1      32.777  29.063  24.471  1.00  0.00    -0.022 SA
ATOM     21  C   UNL A   1      33.225  28.119  25.845  1.00  0.00     0.083 C 
ATOM     22  O   UNL A   1      33.534  25.750  26.140  1.00  0.00    -0.268 OA
BRANCH  16  23
ATOM     23  C   UNL A   1      34.297  25.594  23.343  1.00  0.00     0.230 C 
BRANCH  23  24
ATOM     24  C   UNL A   1      33.528  24.276  23.510  1.00  0.00     0.244 C 
ATOM     25  N   UNL A   1      33.928  23.324  24.404  1.00  0.00    -0.325 N 
ATOM     26  H   UNL A   1      33.193  22.783  24.773  1.00  0.00     0.169 HD
ATOM     27  O   UNL A   1      32.491  24.067  22.872  1.00  0.00    -0.273 OA
BRANCH  25  28
ATOM     28  C   UNL A   1      35.196  22.982  24.890  1.00  0.00     0.041 A 
ATOM     29  C   UNL A   1      39.234  22.017  26.061  1.00  0.00     0.044 C 
ATOM     30  C   UNL A   1      37.835  22.342  25.636  1.00  0.00    -0.051 A 
ATOM     31  C   UNL A   1      37.106  23.306  26.339  1.00  0.00     0.005 A 
ATOM     32  C   UNL A   1      37.236  21.706  24.545  1.00  0.00     0.005 A 
ATOM     33  C   UNL A   1      35.798  23.626  25.967  1.00  0.00     0.026 A 
ATOM     34  C   UNL A   1      35.929  22.034  24.168  1.00  0.00     0.026 A 
ENDBRANCH  25  28
ENDBRANCH  23  24
ENDBRANCH  16  23
ENDBRANCH   8  15
ENDBRANCH   6   7
ENDBRANCH   5   6
ENDBRANCH   1   5
BRANCH   3  35
ATOM     35  C   UNL A   1      32.895  36.569  31.390  1.00  0.00     0.117 C 
BRANCH  35  36
ATOM     36  C   UNL A   1      33.762  37.053  32.534  1.00  0.00     0.042 C 
BRANCH  36  37
ATOM     37  C   UNL A   1      33.920  36.040  33.654  1.00  0.00     0.118 C 
BRANCH  37  38
ATOM     38  N   UNL A   1      33.746  34.662  33.220  1.00  0.00    -0.352 N 
ATOM     39  C   UNL A   1      34.646  33.782  32.644  1.00  0.00     0.251 C 
ATOM     40  H   UNL A   1      32.841  34.298  33.358  1.00  0.00     0.163 HD
ATOM     41  O   UNL A   1      34.204  32.747  32.152  1.00  0.00    -0.269 OA
BRANCH  39  42
ATOM     42  C   UNL A   1      36.112  33.982  32.812  1.00  0.00     0.039 A 
ATOM     43  C   UNL A   1      36.853  34.081  31.626  1.00  0.00     0.014 A 
ATOM     44  C   UNL A   1      36.748  33.615  33.988  1.00  0.00     0.014 A 
ATOM     45  C   UNL A   1      38.085  33.449  31.544  1.00  0.00     0.010 A 
ATOM     46  C   UNL A   1      37.881  32.855  33.884  1.00  0.00     0.010 A 
ATOM     47  C   UNL A   1      38.494  32.707  32.637  1.00  0.00    -0.014 A 
BRANCH  47  48
ATOM     48  C   UNL A   1      39.620  31.807  32.668  1.00  0.00     0.031 A 
ATOM     49  C   UNL A   1      39.470  30.536  31.945  1.00  0.00     0.074 A 
ATOM     50  C   UNL A   1      40.817  32.329  33.009  1.00  0.00     0.049 A 
ATOM     51  N   UNL A   1      40.395  29.654  31.850  1.00  0.00    -0.248 NA
ATOM     52  C   UNL A   1      38.230  30.152  31.269  1.00  0.00     0.031 C 
ATOM     53  C   UNL A   1      42.139  31.928  32.540  1.00  0.00     0.029 A 
ATOM     54  N   UNL A   1      41.107  33.302  33.946  1.00  0.00    -0.354 N 
ATOM     55  C   UNL A   1      40.010  28.772  30.868  1.00  0.00     0.074 A 
ATOM     56  C   UNL A   1      38.614  29.035  30.645  1.00  0.00     0.031 C 
ATOM     57  C   UNL A   1      43.075  32.469  33.342  1.00  0.00     0.029 A 
ATOM     58  C   UNL A   1      42.378  33.059  34.470  1.00  0.00     0.049 A 
ATOM     59  H   UNL A   1      40.515  34.046  34.201  1.00  0.00     0.167 HD
ATOM     60  C   UNL A   1      40.984  28.042  30.262  1.00  0.00     0.034 A 
ATOM     61  C   UNL A   1      42.520  32.621  35.764  1.00  0.00     0.034 A 
ATOM     62  C   UNL A   1      42.244  28.178  31.013  1.00  0.00     0.049 A 
ATOM     63  C   UNL A   1      43.033  31.189  35.861  1.00  0.00     0.074 A 
ATOM     64  C   UNL A   1      43.389  28.929  30.816  1.00  0.00     0.029 A 
ATOM     65  N   UNL A   1      42.284  27.738  32.335  1.00  0.00    -0.354 N 
ATOM     66  N   UNL A   1      43.084  30.355  34.856  1.00  0.00    -0.248 NA
ATOM     67  C   UNL A   1      43.566  30.597  37.085  1.00  0.00     0.031 C 
ATOM     68  C   UNL A   1      44.055  29.038  32.072  1.00  0.00     0.029 A 
ATOM     69  C   UNL A   1      43.346  28.311  33.017  1.00  0.00     0.049 A 
ATOM     70  H   UNL A   1      41.644  27.104  32.730  1.00  0.00     0.167 HD
ATOM     71  C   UNL A   1      43.538  29.132  35.269  1.00  0.00     0.074 A 
ATOM     72  C   UNL A   1      43.890  29.359  36.663  1.00  0.00     0.031 C 
ATOM     73  C   UNL A   1      43.547  28.037  34.442  1.00  0.00     0.034 A 
BRANCH  60  74
ATOM     74  C   UNL A   1      40.896  27.366  28.906  1.00  0.00     0.023 A 
ATOM     75  C   UNL A   1      39.773  26.534  28.692  1.00  0.00     0.012 A 
ATOM     76  C   UNL A   1      41.859  27.382  27.864  1.00  0.00     0.148 A 
ATOM     77  C   UNL A   1      39.619  25.757  27.539  1.00  0.00     0.002 A 
ATOM     78  C   UNL A   1      41.679  26.647  26.686  1.00  0.00     0.091 A 
ATOM     79  F   UNL A   1      43.007  28.043  28.014  1.00  0.00    -0.205 F 
ATOM     80  C   UNL A   1      40.566  25.820  26.530  1.00  0.00     0.022 A 
BRANCH  78  81
ATOM     81  S   UNL A   1      42.848  26.703  25.312  1.00  0.00     0.127 S 
ATOM     82  O   UNL A   1      42.439  27.920  24.611  1.00  0.00    -0.237 OA
ATOM     83  O   UNL A   1      44.135  26.804  26.000  1.00  0.00    -0.237 OA
ATOM     84  O   UNL A   1      42.662  25.468  24.560  1.00  0.00    -0.744 OA
ENDBRANCH  78  81
ENDBRANCH  60  74
BRANCH  61  85
ATOM     85  C   UNL A   1      41.532  33.275  36.684  1.00  0.00     0.023 A 
ATOM     86  C   UNL A   1      41.499  34.692  36.642  1.00  0.00     0.012 A 
ATOM     87  C   UNL A   1      40.397  32.585  37.148  1.00  0.00     0.148 A 
ATOM     88  C   UNL A   1      40.302  35.384  36.837  1.00  0.00     0.002 A 
ATOM     89  C   UNL A   1      39.210  33.288  37.364  1.00  0.00     0.091 A 
ATOM     90  F   UNL A   1      40.471  31.257  37.304  1.00  0.00    -0.205 F 
ATOM     91  C   UNL A   1      39.148  34.675  37.146  1.00  0.00     0.022 A 
BRANCH  89  92
ATOM     92  S   UNL A   1      37.682  32.453  37.817  1.00  0.00     0.127 S 
ATOM     93  O   UNL A   1      36.681  33.448  37.445  1.00  0.00    -0.237 OA
ATOM     94  O   UNL A   1      37.703  31.263  36.967  1.00  0.00    -0.237 OA
ATOM     95  O   UNL A   1      37.808  32.171  39.240  1.00  0.00    -0.744 OA
ENDBRANCH  89  92
ENDBRANCH  61  85
BRANCH  73  96
ATOM     96  C   UNL A   1      43.747  26.594  34.892  1.00  0.00     0.023 A 
ATOM     97  C   UNL A   1      42.672  25.707  35.086  1.00  0.00     0.012 A 
ATOM     98  C   UNL A   1      45.048  26.028  34.998  1.00  0.00     0.148 A 
ATOM     99  C   UNL A   1      42.860  24.366  35.443  1.00  0.00     0.002 A 
ATOM    100  C   UNL A   1      45.231  24.666  35.218  1.00  0.00     0.091 A 
ATOM    101  F   UNL A   1      46.133  26.812  34.908  1.00  0.00    -0.205 F 
ATOM    102  C   UNL A   1      44.141  23.838  35.485  1.00  0.00     0.022 A 
BRANCH 100 103
ATOM    103  S   UNL A   1      46.841  23.891  35.004  1.00  0.00     0.127 S 
ATOM    104  O   UNL A   1      47.547  24.320  36.209  1.00  0.00    -0.237 OA
ATOM    105  O   UNL A   1      46.499  22.468  34.971  1.00  0.00    -0.237 OA
ATOM    106  O   UNL A   1      47.350  24.409  33.741  1.00  0.00    -0.744 OA
ENDBRANCH 100 103
ENDBRANCH  73  96
ENDBRANCH  47  48
ENDBRANCH  39  42
ENDBRANCH  37  38
ENDBRANCH  36  37
ENDBRANCH  35  36
ENDBRANCH   3  35
TORSDOF 19
ENDMDL
MODEL 2
REMARK VINA RESULT:     -12.4      4.769     10.021
REMARK SMILES Cc1ccc(NC(=O)CN2C(=O)S/C(=C\c3cc(Cl)c(OCC(=O)NCCCNC(=O)c4ccc(-c5c6nc(c(-c7cccc(S(=O)(=O)[O-])c7F)c7ccc([nH]7)c(-c7cccc(S(=O)(=O)[O-])c7F)c7nc(c(-c8cccc(S(=O)(=O)[O-])c8F)c8ccc5[nH]8)C=C7)C=C6)cc4)c(Cl)c3)C2=O)cc1
REMARK SMILES IDX 23 1 24 2 25 3 22 5 21 6 20 7 16 8 17 9 97 10 18 11 95 12
REMARK SMILES IDX 19 13 96 14 15 15 10 16 11 17 98 18 12 19 13 20 14 21 99 22
REMARK SMILES IDX 9 23 7 24 6 25 8 27 5 28 1 29 2 30 3 31 101 32 4 33 100 34
REMARK SMILES IDX 26 35 27 36 28 37 29 38 30 39 31 41 32 42 33 43 94 44 34 45
REMARK SMILES IDX 93 46 35 47 36 48 37 49 87 50 38 51 92 52 86 53 88 54 39 55
REMARK SMILES IDX 91 56 85 57 84 58 40 60 72 61 52 62 71 63 53 64 56 65 70 66
REMARK SMILES IDX 89 67 54 68 55 69 69 71 90 72 57 73 41 74 42 75 50 76 43 77
REMARK SMILES IDX 45 78 51 79 44 80 46 81 47 82 48 83 49 84 73 85 74 86 82 87
REMARK SMILES IDX 75 88 77 89 83 90 76 91 78 92 79 93 80 94 81 95 58 96 59 97
REMARK SMILES IDX 67 98 60 99 62 100 68 101 61 102 63 103 64 104 65 105 66 106
REMARK H PARENT 25 4 6 26 29 40 88 59 56 70
REMARK Flexibility Score: inf
ROOT
ATOM      1  C   UNL A   1      34.129  34.156  29.865  1.00  0.00     0.257 C 
ATOM      2  O   UNL A   1      33.579  35.079  29.263  1.00  0.00    -0.271 OA
ATOM      3  N   UNL A   1      34.010  34.134  31.223  1.00  0.00    -0.353 N 
ATOM      4  H   UNL A   1      33.637  34.950  31.627  1.00  0.00     0.163 HD
ENDROOT
BRANCH   1   5
ATOM      5  C   UNL A   1      34.875  33.023  29.130  1.00  0.00     0.329 C 
BRANCH   5   6
ATOM      6  O   UNL A   1      34.438  32.628  27.844  1.00  0.00    -0.481 OA
BRANCH   6   7
ATOM      7  C   UNL A   1      34.124  31.336  27.513  1.00  0.00     0.157 A 
ATOM      8  C   UNL A   1      33.099  28.756  26.780  1.00  0.00    -0.021 A 
ATOM      9  C   UNL A   1      32.259  29.862  26.786  1.00  0.00     0.032 A 
ATOM     10  C   UNL A   1      34.425  28.952  27.185  1.00  0.00     0.032 A 
ATOM     11  C   UNL A   1      32.766  31.126  27.158  1.00  0.00     0.085 A 
ATOM     12  C   UNL A   1      34.958  30.218  27.464  1.00  0.00     0.085 A 
ATOM     13  Cl  UNL A   1      31.642  32.453  27.128  1.00  0.00    -0.080 Cl
ATOM     14  Cl  UNL A   1      36.681  30.217  27.562  1.00  0.00    -0.080 Cl
BRANCH   8  15
ATOM     15  C   UNL A   1      32.655  27.389  26.425  1.00  0.00     0.029 C 
ATOM     16  N   UNL A   1      31.251  26.035  23.446  1.00  0.00    -0.259 N 
ATOM     17  C   UNL A   1      30.961  27.337  23.135  1.00  0.00     0.294 C 
ATOM     18  C   UNL A   1      31.684  25.809  24.740  1.00  0.00     0.268 C 
ATOM     19  O   UNL A   1      30.870  27.850  22.036  1.00  0.00    -0.261 OA
ATOM     20  S   UNL A   1      30.772  28.256  24.609  1.00  0.00    -0.022 SA
ATOM     21  C   UNL A   1      31.749  27.119  25.465  1.00  0.00     0.083 C 
ATOM     22  O   UNL A   1      32.061  24.745  25.207  1.00  0.00    -0.268 OA
BRANCH  16  23
ATOM     23  C   UNL A   1      31.485  25.071  22.379  1.00  0.00     0.230 C 
BRANCH  23  24
ATOM     24  C   UNL A   1      32.968  24.977  21.993  1.00  0.00     0.244 C 
ATOM     25  N   UNL A   1      33.632  23.783  21.997  1.00  0.00    -0.325 N 
ATOM     26  H   UNL A   1      34.360  23.724  21.337  1.00  0.00     0.169 HD
ATOM     27  O   UNL A   1      33.585  25.977  21.614  1.00  0.00    -0.273 OA
BRANCH  25  28
ATOM     28  C   UNL A   1      33.462  22.629  22.772  1.00  0.00     0.041 A 
ATOM     29  C   UNL A   1      32.909  19.291  25.449  1.00  0.00     0.044 C 
ATOM     30  C   UNL A   1      33.114  20.459  24.533  1.00  0.00    -0.051 A 
ATOM     31  C   UNL A   1      32.231  20.666  23.469  1.00  0.00     0.005 A 
ATOM     32  C   UNL A   1      34.170  21.356  24.717  1.00  0.00     0.005 A 
ATOM     33  C   UNL A   1      32.402  21.744  22.597  1.00  0.00     0.026 A 
ATOM     34  C   UNL A   1      34.333  22.441  23.850  1.00  0.00     0.026 A 
ENDBRANCH  25  28
ENDBRANCH  23  24
ENDBRANCH  16  23
ENDBRANCH   8  15
ENDBRANCH   6   7
ENDBRANCH   5   6
ENDBRANCH   1   5
BRANCH   3  35
ATOM     35  C   UNL A   1      34.354  33.081  32.154  1.00  0.00     0.117 C 
BRANCH  35  36
ATOM     36  C   UNL A   1      35.689  33.302  32.835  1.00  0.00     0.042 C 
BRANCH  36  37
ATOM     37  C   UNL A   1      36.306  32.034  33.399  1.00  0.00     0.118 C 
BRANCH  37  38
ATOM     38  N   UNL A   1      36.125  30.870  32.546  1.00  0.00    -0.352 N 
ATOM     39  C   UNL A   1      36.812  30.473  31.411  1.00  0.00     0.251 C 
ATOM     40  H   UNL A   1      35.395  30.268  32.819  1.00  0.00     0.163 HD
ATOM     41  O   UNL A   1      36.326  29.575  30.729  1.00  0.00    -0.269 OA
BRANCH  39  42
ATOM     42  C   UNL A   1      38.193  30.967  31.153  1.00  0.00     0.039 A 
ATOM     43  C   UNL A   1      39.204  30.377  31.924  1.00  0.00     0.014 A 
ATOM     44  C   UNL A   1      38.406  32.212  30.580  1.00  0.00     0.014 A 
ATOM     45  C   UNL A   1      40.221  31.175  32.430  1.00  0.00     0.010 A 
ATOM     46  C   UNL A   1      39.303  33.044  31.192  1.00  0.00     0.010 A 
ATOM     47  C   UNL A   1      40.148  32.532  32.181  1.00  0.00    -0.014 A 
BRANCH  47  48
ATOM     48  C   UNL A   1      40.970  33.546  32.796  1.00  0.00     0.031 A 
ATOM     49  C   UNL A   1      40.378  34.283  33.920  1.00  0.00     0.074 A 
ATOM     50  C   UNL A   1      42.299  33.484  32.568  1.00  0.00     0.049 A 
ATOM     51  N   UNL A   1      40.997  35.184  34.591  1.00  0.00    -0.248 NA
ATOM     52  C   UNL A   1      39.004  34.064  34.375  1.00  0.00     0.031 C 
ATOM     53  C   UNL A   1      43.383  33.871  33.463  1.00  0.00     0.029 A 
ATOM     54  N   UNL A   1      42.968  33.128  31.413  1.00  0.00    -0.354 N 
ATOM     55  C   UNL A   1      40.257  35.420  35.725  1.00  0.00     0.074 A 
ATOM     56  C   UNL A   1      38.975  34.818  35.477  1.00  0.00     0.031 C 
ATOM     57  C   UNL A   1      44.528  33.955  32.760  1.00  0.00     0.029 A 
ATOM     58  C   UNL A   1      44.175  33.828  31.357  1.00  0.00     0.049 A 
ATOM     59  H   UNL A   1      42.647  32.487  30.739  1.00  0.00     0.167 HD
ATOM     60  C   UNL A   1      40.901  35.962  36.793  1.00  0.00     0.034 A 
ATOM     61  C   UNL A   1      44.352  34.830  30.437  1.00  0.00     0.034 A 
ATOM     62  C   UNL A   1      42.233  36.435  36.380  1.00  0.00     0.049 A 
ATOM     63  C   UNL A   1      44.449  36.215  31.067  1.00  0.00     0.074 A 
ATOM     64  C   UNL A   1      43.508  35.917  36.518  1.00  0.00     0.029 A 
ATOM     65  N   UNL A   1      42.316  37.433  35.411  1.00  0.00    -0.354 N 
ATOM     66  N   UNL A   1      44.135  36.484  32.306  1.00  0.00    -0.248 NA
ATOM     67  C   UNL A   1      44.946  37.396  30.365  1.00  0.00     0.031 C 
ATOM     68  C   UNL A   1      44.333  36.530  35.529  1.00  0.00     0.029 A 
ATOM     69  C   UNL A   1      43.575  37.458  34.830  1.00  0.00     0.049 A 
ATOM     70  H   UNL A   1      41.580  38.040  35.172  1.00  0.00     0.167 HD
ATOM     71  C   UNL A   1      44.275  37.822  32.558  1.00  0.00     0.074 A 
ATOM     72  C   UNL A   1      44.852  38.336  31.325  1.00  0.00     0.031 C 
ATOM     73  C   UNL A   1      43.870  38.391  33.740  1.00  0.00     0.034 A 
BRANCH  60  74
ATOM     74  C   UNL A   1      40.454  35.906  38.242  1.00  0.00     0.023 A 
ATOM     75  C   UNL A   1      39.760  34.740  38.640  1.00  0.00     0.012 A 
ATOM     76  C   UNL A   1      40.554  36.927  39.221  1.00  0.00     0.148 A 
ATOM     77  C   UNL A   1      39.187  34.599  39.909  1.00  0.00     0.002 A 
ATOM     78  C   UNL A   1      40.029  36.765  40.510  1.00  0.00     0.091 A 
ATOM     79  F   UNL A   1      41.088  38.110  38.914  1.00  0.00    -0.205 F 
ATOM     80  C   UNL A   1      39.330  35.606  40.849  1.00  0.00     0.022 A 
BRANCH  78  81
ATOM     81  S   UNL A   1      40.204  38.015  41.800  1.00  0.00     0.127 S 
ATOM     82  O   UNL A   1      39.365  39.100  41.291  1.00  0.00    -0.237 OA
ATOM     83  O   UNL A   1      39.663  37.331  42.974  1.00  0.00    -0.237 OA
ATOM     84  O   UNL A   1      41.626  38.326  41.885  1.00  0.00    -0.744 OA
ENDBRANCH  78  81
ENDBRANCH  60  74
BRANCH  61  85
ATOM     85  C   UNL A   1      43.714  34.497  29.121  1.00  0.00     0.023 A 
ATOM     86  C   UNL A   1      42.604  35.302  28.756  1.00  0.00     0.012 A 
ATOM     87  C   UNL A   1      44.429  33.831  28.109  1.00  0.00     0.148 A 
ATOM     88  C   UNL A   1      42.359  35.613  27.418  1.00  0.00     0.002 A 
ATOM     89  C   UNL A   1      44.160  34.130  26.771  1.00  0.00     0.091 A 
ATOM     90  F   UNL A   1      45.397  32.976  28.461  1.00  0.00    -0.205 F 
ATOM     91  C   UNL A   1      43.170  35.069  26.431  1.00  0.00     0.022 A 
BRANCH  89  92
ATOM     92  S   UNL A   1      45.131  33.429  25.428  1.00  0.00     0.127 S 
ATOM     93  O   UNL A   1      44.554  34.098  24.267  1.00  0.00    -0.237 OA
ATOM     94  O   UNL A   1      46.491  33.852  25.761  1.00  0.00    -0.237 OA
ATOM     95  O   UNL A   1      44.917  31.991  25.513  1.00  0.00    -0.744 OA
ENDBRANCH  89  92
ENDBRANCH  61  85
BRANCH  73  96
ATOM     96  C   UNL A   1      43.712  39.886  33.990  1.00  0.00     0.023 A 
ATOM     97  C   UNL A   1      44.220  40.517  35.141  1.00  0.00     0.012 A 
ATOM     98  C   UNL A   1      43.167  40.747  32.997  1.00  0.00     0.148 A 
ATOM     99  C   UNL A   1      44.126  41.900  35.342  1.00  0.00     0.002 A 
ATOM    100  C   UNL A   1      43.198  42.132  33.140  1.00  0.00     0.091 A 
ATOM    101  F   UNL A   1      42.588  40.231  31.903  1.00  0.00    -0.205 F 
ATOM    102  C   UNL A   1      43.636  42.711  34.330  1.00  0.00     0.022 A 
BRANCH 100 103
ATOM    103  S   UNL A   1      42.840  43.224  31.756  1.00  0.00     0.127 S 
ATOM    104  O   UNL A   1      44.087  43.169  30.997  1.00  0.00    -0.237 OA
ATOM    105  O   UNL A   1      41.706  42.554  31.116  1.00  0.00    -0.237 OA
ATOM    106  O   UNL A   1      42.508  44.509  32.358  1.00  0.00    -0.744 OA
ENDBRANCH 100 103
ENDBRANCH  73  96
ENDBRANCH  47  48
ENDBRANCH  39  42
ENDBRANCH  37  38
ENDBRANCH  36  37
ENDBRANCH  35  36
ENDBRANCH   3  35
TORSDOF 19
ENDMDL
MODEL 3
REMARK VINA RESULT:     -12.2      4.916     10.200
REMARK SMILES Cc1ccc(NC(=O)CN2C(=O)S/C(=C\c3cc(Cl)c(OCC(=O)NCCCNC(=O)c4ccc(-c5c6nc(c(-c7cccc(S(=O)(=O)[O-])c7F)c7ccc([nH]7)c(-c7cccc(S(=O)(=O)[O-])c7F)c7nc(c(-c8cccc(S(=O)(=O)[O-])c8F)c8ccc5[nH]8)C=C7)C=C6)cc4)c(Cl)c3)C2=O)cc1
REMARK SMILES IDX 23 1 24 2 25 3 22 5 21 6 20 7 16 8 17 9 97 10 18 11 95 12
REMARK SMILES IDX 19 13 96 14 15 15 10 16 11 17 98 18 12 19 13 20 14 21 99 22
REMARK SMILES IDX 9 23 7 24 6 25 8 27 5 28 1 29 2 30 3 31 101 32 4 33 100 34
REMARK SMILES IDX 26 35 27 36 28 37 29 38 30 39 31 41 32 42 33 43 94 44 34 45
REMARK SMILES IDX 93 46 35 47 36 48 37 49 87 50 38 51 92 52 86 53 88 54 39 55
REMARK SMILES IDX 91 56 85 57 84 58 40 60 72 61 52 62 71 63 53 64 56 65 70 66
REMARK SMILES IDX 89 67 54 68 55 69 69 71 90 72 57 73 41 74 42 75 50 76 43 77
REMARK SMILES IDX 45 78 51 79 44 80 46 81 47 82 48 83 49 84 73 85 74 86 82 87
REMARK SMILES IDX 75 88 77 89 83 90 76 91 78 92 79 93 80 94 81 95 58 96 59 97
REMARK SMILES IDX 67 98 60 99 62 100 68 101 61 102 63 103 64 104 65 105 66 106
REMARK H PARENT 25 4 6 26 29 40 88 59 56 70
REMARK Flexibility Score: inf
ROOT
ATOM      1  C   UNL A   1      34.904  34.022  28.933  1.00  0.00     0.257 C 
ATOM      2  O   UNL A   1      34.751  34.762  27.961  1.00  0.00    -0.271 OA
ATOM      3  N   UNL A   1      34.716  34.566  30.170  1.00  0.00    -0.353 N 
ATOM      4  H   UNL A   1      34.640  35.546  30.193  1.00  0.00     0.163 HD
ENDROOT
BRANCH   1   5
ATOM      5  C   UNL A   1      35.232  32.523  28.783  1.00  0.00     0.329 C 
BRANCH   5   6
ATOM      6  O   UNL A   1      35.004  31.887  27.540  1.00  0.00    -0.481 OA
BRANCH   6   7
ATOM      7  C   UNL A   1      34.026  30.949  27.336  1.00  0.00     0.157 A 
ATOM      8  C   UNL A   1      32.257  28.717  26.968  1.00  0.00    -0.021 A 
ATOM      9  C   UNL A   1      33.583  28.503  27.320  1.00  0.00     0.032 A 
ATOM     10  C   UNL A   1      31.851  30.042  26.764  1.00  0.00     0.032 A 
ATOM     11  C   UNL A   1      34.451  29.603  27.487  1.00  0.00     0.085 A 
ATOM     12  C   UNL A   1      32.681  31.142  27.021  1.00  0.00     0.085 A 
ATOM     13  Cl  UNL A   1      36.092  29.237  27.934  1.00  0.00    -0.080 Cl
ATOM     14  Cl  UNL A   1      31.823  32.640  27.053  1.00  0.00    -0.080 Cl
BRANCH   8  15
ATOM     15  C   UNL A   1      31.278  27.628  26.750  1.00  0.00     0.029 C 
ATOM     16  N   UNL A   1      31.588  24.399  25.283  1.00  0.00    -0.259 N 
ATOM     17  C   UNL A   1      32.732  24.899  24.717  1.00  0.00     0.294 C 
ATOM     18  C   UNL A   1      30.769  25.327  25.901  1.00  0.00     0.268 C 
ATOM     19  O   UNL A   1      33.743  24.301  24.401  1.00  0.00    -0.261 OA
ATOM     20  S   UNL A   1      32.578  26.630  24.536  1.00  0.00    -0.022 SA
ATOM     21  C   UNL A   1      31.408  26.679  25.804  1.00  0.00     0.083 C 
ATOM     22  O   UNL A   1      29.745  25.094  26.524  1.00  0.00    -0.268 OA
BRANCH  16  23
ATOM     23  C   UNL A   1      31.484  22.974  25.565  1.00  0.00     0.230 C 
BRANCH  23  24
ATOM     24  C   UNL A   1      32.401  22.539  26.716  1.00  0.00     0.244 C 
ATOM     25  N   UNL A   1      33.389  21.613  26.530  1.00  0.00    -0.325 N 
ATOM     26  H   UNL A   1      34.170  21.733  27.117  1.00  0.00     0.169 HD
ATOM     27  O   UNL A   1      32.303  23.059  27.832  1.00  0.00    -0.273 OA
BRANCH  25  28
ATOM     28  C   UNL A   1      33.488  20.525  25.655  1.00  0.00     0.041 A 
ATOM     29  C   UNL A   1      34.013  17.017  23.198  1.00  0.00     0.044 C 
ATOM     30  C   UNL A   1      33.852  18.236  24.055  1.00  0.00    -0.051 A 
ATOM     31  C   UNL A   1      32.576  18.615  24.483  1.00  0.00     0.005 A 
ATOM     32  C   UNL A   1      34.950  19.007  24.444  1.00  0.00     0.005 A 
ATOM     33  C   UNL A   1      32.395  19.748  25.279  1.00  0.00     0.026 A 
ATOM     34  C   UNL A   1      34.769  20.136  25.250  1.00  0.00     0.026 A 
ENDBRANCH  25  28
ENDBRANCH  23  24
ENDBRANCH  16  23
ENDBRANCH   8  15
ENDBRANCH   6   7
ENDBRANCH   5   6
ENDBRANCH   1   5
BRANCH   3  35
ATOM     35  C   UNL A   1      34.615  33.904  31.453  1.00  0.00     0.117 C 
BRANCH  35  36
ATOM     36  C   UNL A   1      35.828  34.123  32.334  1.00  0.00     0.042 C 
BRANCH  36  37
ATOM     37  C   UNL A   1      36.126  32.961  33.264  1.00  0.00     0.118 C 
BRANCH  37  38
ATOM     38  N   UNL A   1      35.912  31.658  32.655  1.00  0.00    -0.352 N 
ATOM     39  C   UNL A   1      36.661  30.974  31.712  1.00  0.00     0.251 C 
ATOM     40  H   UNL A   1      35.104  31.187  32.962  1.00  0.00     0.163 HD
ATOM     41  O   UNL A   1      36.155  29.990  31.180  1.00  0.00    -0.269 OA
BRANCH  39  42
ATOM     42  C   UNL A   1      38.102  31.293  31.515  1.00  0.00     0.039 A 
ATOM     43  C   UNL A   1      38.987  30.699  32.426  1.00  0.00     0.014 A 
ATOM     44  C   UNL A   1      38.488  32.435  30.831  1.00  0.00     0.014 A 
ATOM     45  C   UNL A   1      40.046  31.445  32.924  1.00  0.00     0.010 A 
ATOM     46  C   UNL A   1      39.425  33.239  31.420  1.00  0.00     0.010 A 
ATOM     47  C   UNL A   1      40.139  32.765  32.523  1.00  0.00    -0.014 A 
BRANCH  47  48
ATOM     48  C   UNL A   1      41.021  33.755  33.090  1.00  0.00     0.031 A 
ATOM     49  C   UNL A   1      40.532  34.476  34.273  1.00  0.00     0.074 A 
ATOM     50  C   UNL A   1      42.326  33.683  32.753  1.00  0.00     0.049 A 
ATOM     51  N   UNL A   1      41.215  35.355  34.909  1.00  0.00    -0.248 NA
ATOM     52  C   UNL A   1      39.197  34.263  34.833  1.00  0.00     0.031 C 
ATOM     53  C   UNL A   1      43.485  34.039  33.565  1.00  0.00     0.029 A 
ATOM     54  N   UNL A   1      42.895  33.345  31.540  1.00  0.00    -0.354 N 
ATOM     55  C   UNL A   1      40.573  35.576  36.104  1.00  0.00     0.074 A 
ATOM     56  C   UNL A   1      39.267  34.994  35.949  1.00  0.00     0.031 C 
ATOM     57  C   UNL A   1      44.570  34.125  32.773  1.00  0.00     0.029 A 
ATOM     58  C   UNL A   1      44.102  34.031  31.401  1.00  0.00     0.049 A 
ATOM     59  H   UNL A   1      42.512  32.721  30.882  1.00  0.00     0.167 HD
ATOM     60  C   UNL A   1      41.308  36.088  37.127  1.00  0.00     0.034 A 
ATOM     61  C   UNL A   1      44.218  35.051  30.489  1.00  0.00     0.034 A 
ATOM     62  C   UNL A   1      42.608  36.555  36.616  1.00  0.00     0.049 A 
ATOM     63  C   UNL A   1      44.383  36.421  31.137  1.00  0.00     0.074 A 
ATOM     64  C   UNL A   1      43.884  36.019  36.640  1.00  0.00     0.029 A 
ATOM     65  N   UNL A   1      42.626  37.571  35.664  1.00  0.00    -0.354 N 
ATOM     66  N   UNL A   1      44.174  36.668  32.403  1.00  0.00    -0.248 NA
ATOM     67  C   UNL A   1      44.837  37.610  30.421  1.00  0.00     0.031 C 
ATOM     68  C   UNL A   1      44.634  36.644  35.599  1.00  0.00     0.029 A 
ATOM     69  C   UNL A   1      43.833  37.594  34.983  1.00  0.00     0.049 A 
ATOM     70  H   UNL A   1      41.880  38.192  35.497  1.00  0.00     0.167 HD
ATOM     71  C   UNL A   1      44.351  37.998  32.669  1.00  0.00     0.074 A 
ATOM     72  C   UNL A   1      44.833  38.531  31.404  1.00  0.00     0.031 C 
ATOM     73  C   UNL A   1      44.051  38.547  33.891  1.00  0.00     0.034 A 
BRANCH  60  74
ATOM     74  C   UNL A   1      40.979  36.006  38.606  1.00  0.00     0.023 A 
ATOM     75  C   UNL A   1      40.697  34.718  39.116  1.00  0.00     0.012 A 
ATOM     76  C   UNL A   1      40.817  37.080  39.519  1.00  0.00     0.148 A 
ATOM     77  C   UNL A   1      40.265  34.505  40.430  1.00  0.00     0.002 A 
ATOM     78  C   UNL A   1      40.437  36.862  40.850  1.00  0.00     0.091 A 
ATOM     79  F   UNL A   1      40.947  38.342  39.110  1.00  0.00    -0.205 F 
ATOM     80  C   UNL A   1      40.145  35.575  41.302  1.00  0.00     0.022 A 
BRANCH  78  81
ATOM     81  S   UNL A   1      40.293  38.198  42.054  1.00  0.00     0.127 S 
ATOM     82  O   UNL A   1      41.661  38.714  42.105  1.00  0.00    -0.237 OA
ATOM     83  O   UNL A   1      39.330  39.095  41.415  1.00  0.00    -0.237 OA
ATOM     84  O   UNL A   1      39.821  37.590  43.292  1.00  0.00    -0.744 OA
ENDBRANCH  78  81
ENDBRANCH  60  74
BRANCH  61  85
ATOM     85  C   UNL A   1      43.470  34.752  29.223  1.00  0.00     0.023 A 
ATOM     86  C   UNL A   1      42.416  35.647  28.908  1.00  0.00     0.012 A 
ATOM     87  C   UNL A   1      44.058  34.006  28.186  1.00  0.00     0.148 A 
ATOM     88  C   UNL A   1      42.115  35.955  27.580  1.00  0.00     0.002 A 
ATOM     89  C   UNL A   1      43.733  34.304  26.860  1.00  0.00     0.091 A 
ATOM     90  F   UNL A   1      44.966  33.073  28.498  1.00  0.00    -0.205 F 
ATOM     91  C   UNL A   1      42.811  35.321  26.559  1.00  0.00     0.022 A 
BRANCH  89  92
ATOM     92  S   UNL A   1      44.551  33.492  25.478  1.00  0.00     0.127 S 
ATOM     93  O   UNL A   1      44.022  32.136  25.578  1.00  0.00    -0.237 OA
ATOM     94  O   UNL A   1      44.063  34.251  24.326  1.00  0.00    -0.237 OA
ATOM     95  O   UNL A   1      45.976  33.646  25.733  1.00  0.00    -0.744 OA
ENDBRANCH  89  92
ENDBRANCH  61  85
BRANCH  73  96
ATOM     96  C   UNL A   1      43.934  40.038  34.183  1.00  0.00     0.023 A 
ATOM     97  C   UNL A   1      44.585  40.649  35.271  1.00  0.00     0.012 A 
ATOM     98  C   UNL A   1      43.272  40.917  33.281  1.00  0.00     0.148 A 
ATOM     99  C   UNL A   1      44.524  42.028  35.504  1.00  0.00     0.002 A 
ATOM    100  C   UNL A   1      43.328  42.299  33.441  1.00  0.00     0.091 A 
ATOM    101  F   UNL A   1      42.557  40.421  32.260  1.00  0.00    -0.205 F 
ATOM    102  C   UNL A   1      43.916  42.857  34.575  1.00  0.00     0.022 A 
BRANCH 100 103
ATOM    103  S   UNL A   1      42.804  43.415  32.131  1.00  0.00     0.127 S 
ATOM    104  O   UNL A   1      41.946  42.552  31.322  1.00  0.00    -0.237 OA
ATOM    105  O   UNL A   1      42.093  44.456  32.875  1.00  0.00    -0.237 OA
ATOM    106  O   UNL A   1      44.036  43.871  31.501  1.00  0.00    -0.744 OA
ENDBRANCH 100 103
ENDBRANCH  73  96
ENDBRANCH  47  48
ENDBRANCH  39  42
ENDBRANCH  37  38
ENDBRANCH  36  37
ENDBRANCH  35  36
ENDBRANCH   3  35
TORSDOF 19
ENDMDL
