MODEL 1
REMARK VINA RESULT:      -9.3      0.000      0.000
REMARK SMILES O=C(NCCCNC(=O)c1cn(C2C[NH+](CCC[C@@H]3CCCO3)C2)nn1)c1ccc(-c2c3nc(c(-c4cccc(S(=O)(=O)[O-])c4F)c4ccc([nH]4)c(-c4cccc(S(=O)(=O)[O-])c4F)c4nc(c(-c5cccc(S(=O)(=O)[O-])c5F)c5ccc2[nH]5)C=C4)C=C3)cc1
REMARK SMILES IDX 6 1 5 2 4 3 3 4 1 5 2 6 27 8 28 9 89 10 29 11 88 12 30 13
REMARK SMILES IDX 31 14 32 15 82 16 33 17 87 18 81 19 83 20 34 21 86 22 80 23
REMARK SMILES IDX 79 24 35 26 67 27 47 28 66 29 48 30 51 31 65 32 84 33 49 34
REMARK SMILES IDX 50 35 64 37 85 38 52 39 36 40 37 41 45 42 38 43 40 44 46 45
REMARK SMILES IDX 39 46 41 47 42 48 43 49 44 50 68 51 69 52 77 53 70 54 72 55
REMARK SMILES IDX 78 56 71 57 73 58 74 59 75 60 76 61 53 62 54 63 62 64 55 65
REMARK SMILES IDX 57 66 63 67 56 68 58 69 59 70 60 71 61 72 7 73 8 74 9 76
REMARK SMILES IDX 10 77 11 78 26 79 12 80 25 81 13 82 14 83 24 84 15 85 16 87
REMARK SMILES IDX 17 88 18 89 19 90 20 91 23 92 21 93 22 94
REMARK H PARENT 3 7 83 25 51 36 7 75 15 86
REMARK Flexibility Score: inf
ROOT
ATOM      1  C   UNL A   1      35.875  34.570  33.033  1.00  0.00     0.118 C 
ENDROOT
BRANCH   1   2
ATOM      2  C   UNL A   1      34.574  34.072  32.395  1.00  0.00     0.042 C 
BRANCH   2   3
ATOM      3  C   UNL A   1      34.643  32.665  31.801  1.00  0.00     0.118 C 
BRANCH   3   4
ATOM      4  N   UNL A   1      34.404  32.588  30.375  1.00  0.00    -0.352 N 
ATOM      5  O   UNL A   1      34.335  31.934  28.274  1.00  0.00    -0.269 OA
ATOM      6  C   UNL A   1      34.942  31.866  29.347  1.00  0.00     0.251 C 
ATOM      7  H   UNL A   1      33.689  33.196  30.079  1.00  0.00     0.163 HD
BRANCH   6   8
ATOM      8  C   UNL A   1      36.214  31.098  29.410  1.00  0.00     0.039 A 
ATOM      9  C   UNL A   1      36.332  29.708  29.457  1.00  0.00     0.014 A 
ATOM     10  C   UNL A   1      37.388  31.875  29.439  1.00  0.00     0.014 A 
ATOM     11  C   UNL A   1      37.582  29.113  29.612  1.00  0.00     0.010 A 
ATOM     12  C   UNL A   1      38.637  31.289  29.587  1.00  0.00     0.010 A 
ATOM     13  C   UNL A   1      38.730  29.906  29.704  1.00  0.00    -0.014 A 
BRANCH  13  14
ATOM     14  C   UNL A   1      40.037  29.251  29.717  1.00  0.00     0.031 A 
ATOM     15  C   UNL A   1      40.603  29.057  31.082  1.00  0.00     0.074 A 
ATOM     16  C   UNL A   1      40.611  28.707  28.623  1.00  0.00     0.049 A 
ATOM     17  N   UNL A   1      41.689  29.560  31.574  1.00  0.00    -0.248 NA
ATOM     18  C   UNL A   1      39.790  28.319  32.062  1.00  0.00     0.031 C 
ATOM     19  C   UNL A   1      40.015  28.561  27.293  1.00  0.00     0.029 A 
ATOM     20  N   UNL A   1      41.796  28.037  28.506  1.00  0.00    -0.354 N 
ATOM     21  C   UNL A   1      41.813  29.006  32.849  1.00  0.00     0.074 A 
ATOM     22  C   UNL A   1      40.536  28.424  33.162  1.00  0.00     0.031 C 
ATOM     23  C   UNL A   1      40.718  27.642  26.591  1.00  0.00     0.029 A 
ATOM     24  C   UNL A   1      41.874  27.232  27.369  1.00  0.00     0.049 A 
ATOM     25  H   UNL A   1      42.526  28.113  29.162  1.00  0.00     0.167 HD
ATOM     26  C   UNL A   1      43.030  28.842  33.439  1.00  0.00     0.034 A 
ATOM     27  C   UNL A   1      42.773  26.245  27.125  1.00  0.00     0.034 A 
ATOM     28  C   UNL A   1      44.039  29.638  32.788  1.00  0.00     0.049 A 
ATOM     29  C   UNL A   1      43.930  26.460  28.018  1.00  0.00     0.074 A 
ATOM     30  C   UNL A   1      44.227  30.980  32.531  1.00  0.00     0.029 A 
ATOM     31  N   UNL A   1      44.915  28.968  31.970  1.00  0.00    -0.354 N 
ATOM     32  N   UNL A   1      44.754  27.461  27.901  1.00  0.00    -0.248 NA
ATOM     33  C   UNL A   1      43.947  25.776  29.299  1.00  0.00     0.031 C 
ATOM     34  C   UNL A   1      44.856  31.023  31.252  1.00  0.00     0.029 A 
ATOM     35  C   UNL A   1      45.067  29.708  30.833  1.00  0.00     0.049 A 
ATOM     36  H   UNL A   1      45.354  28.110  32.168  1.00  0.00     0.167 HD
ATOM     37  C   UNL A   1      45.031  27.825  29.211  1.00  0.00     0.074 A 
ATOM     38  C   UNL A   1      44.611  26.683  30.019  1.00  0.00     0.031 C 
ATOM     39  C   UNL A   1      45.292  29.126  29.531  1.00  0.00     0.034 A 
BRANCH  26  40
ATOM     40  C   UNL A   1      43.422  27.672  34.326  1.00  0.00     0.023 A 
ATOM     41  C   UNL A   1      43.946  27.987  35.603  1.00  0.00     0.012 A 
ATOM     42  C   UNL A   1      43.595  26.343  33.879  1.00  0.00     0.148 A 
ATOM     43  C   UNL A   1      44.686  27.060  36.346  1.00  0.00     0.002 A 
ATOM     44  C   UNL A   1      44.265  25.403  34.656  1.00  0.00     0.091 A 
ATOM     45  F   UNL A   1      43.234  25.995  32.643  1.00  0.00    -0.205 F 
ATOM     46  C   UNL A   1      44.845  25.766  35.873  1.00  0.00     0.022 A 
BRANCH  44  47
ATOM     47  S   UNL A   1      44.465  23.699  34.116  1.00  0.00     0.127 S 
ATOM     48  O   UNL A   1      45.079  23.881  32.805  1.00  0.00    -0.237 OA
ATOM     49  O   UNL A   1      45.351  23.164  35.149  1.00  0.00    -0.237 OA
ATOM     50  O   UNL A   1      43.125  23.126  34.122  1.00  0.00    -0.744 OA
ENDBRANCH  44  47
ENDBRANCH  26  40
BRANCH  27  51
ATOM     51  C   UNL A   1      42.623  24.980  26.364  1.00  0.00     0.023 A 
ATOM     52  C   UNL A   1      43.603  24.612  25.417  1.00  0.00     0.012 A 
ATOM     53  C   UNL A   1      41.691  24.000  26.767  1.00  0.00     0.148 A 
ATOM     54  C   UNL A   1      43.673  23.303  24.919  1.00  0.00     0.002 A 
ATOM     55  C   UNL A   1      41.759  22.704  26.264  1.00  0.00     0.091 A 
ATOM     56  F   UNL A   1      40.799  24.312  27.716  1.00  0.00    -0.205 F 
ATOM     57  C   UNL A   1      42.758  22.347  25.350  1.00  0.00     0.022 A 
BRANCH  55  58
ATOM     58  S   UNL A   1      40.628  21.412  26.796  1.00  0.00     0.127 S 
ATOM     59  O   UNL A   1      41.134  20.249  26.067  1.00  0.00    -0.237 OA
ATOM     60  O   UNL A   1      40.859  21.380  28.237  1.00  0.00    -0.237 OA
ATOM     61  O   UNL A   1      39.302  21.850  26.377  1.00  0.00    -0.744 OA
ENDBRANCH  55  58
ENDBRANCH  27  51
BRANCH  39  62
ATOM     62  C   UNL A   1      45.588  30.089  28.413  1.00  0.00     0.023 A 
ATOM     63  C   UNL A   1      44.574  30.730  27.672  1.00  0.00     0.012 A 
ATOM     64  C   UNL A   1      46.923  30.479  28.222  1.00  0.00     0.148 A 
ATOM     65  C   UNL A   1      44.892  31.723  26.740  1.00  0.00     0.002 A 
ATOM     66  C   UNL A   1      47.229  31.501  27.336  1.00  0.00     0.091 A 
ATOM     67  F   UNL A   1      47.874  29.857  28.937  1.00  0.00    -0.205 F 
ATOM     68  C   UNL A   1      46.219  32.119  26.583  1.00  0.00     0.022 A 
BRANCH  66  69
ATOM     69  S   UNL A   1      48.898  32.143  27.194  1.00  0.00     0.127 S 
ATOM     70  O   UNL A   1      49.583  31.057  26.496  1.00  0.00    -0.237 OA
ATOM     71  O   UNL A   1      48.699  33.355  26.398  1.00  0.00    -0.237 OA
ATOM     72  O   UNL A   1      49.346  32.396  28.557  1.00  0.00    -0.744 OA
ENDBRANCH  66  69
ENDBRANCH  39  62
ENDBRANCH  13  14
ENDBRANCH   6   8
ENDBRANCH   3   4
ENDBRANCH   2   3
ENDBRANCH   1   2
BRANCH   1  73
ATOM     73  N   UNL A   1      35.974  34.237  34.447  1.00  0.00    -0.351 N 
ATOM     74  C   UNL A   1      36.895  33.479  35.132  1.00  0.00     0.273 C 
ATOM     75  H   UNL A   1      35.260  34.617  35.007  1.00  0.00     0.163 HD
ATOM     76  O   UNL A   1      36.646  33.174  36.295  1.00  0.00    -0.267 OA
BRANCH  74  77
ATOM     77  C   UNL A   1      38.123  33.073  34.471  1.00  0.00     0.170 A 
ATOM     78  C   UNL A   1      39.389  33.617  34.585  1.00  0.00     0.145 A 
ATOM     79  N   UNL A   1      38.182  31.991  33.630  1.00  0.00    -0.125 NA
ATOM     80  N   UNL A   1      40.124  32.930  33.661  1.00  0.00    -0.237 N 
ATOM     81  N   UNL A   1      39.409  31.917  33.136  1.00  0.00    -0.066 NA
BRANCH  80  82
ATOM     82  C   UNL A   1      41.362  33.312  33.059  1.00  0.00     0.218 C 
ATOM     83  C   UNL A   1      41.364  33.185  31.516  1.00  0.00     0.295 C 
ATOM     84  C   UNL A   1      41.583  34.810  32.774  1.00  0.00     0.295 C 
ATOM     85  N   UNL A   1      42.088  34.455  31.427  1.00  0.00    -0.331 N 
ATOM     86  H   UNL A   1      41.951  35.098  30.648  1.00  0.00     0.348 HD
BRANCH  85  87
ATOM     87  C   UNL A   1      43.548  34.304  31.299  1.00  0.00     0.262 C 
BRANCH  87  88
ATOM     88  C   UNL A   1      44.345  34.562  30.004  1.00  0.00     0.064 C 
BRANCH  88  89
ATOM     89  C   UNL A   1      44.544  35.996  29.482  1.00  0.00     0.038 C 
BRANCH  89  90
ATOM     90  C   UNL A   1      43.704  36.410  28.269  1.00  0.00     0.118 C 
ATOM     91  C   UNL A   1      42.253  35.960  28.300  1.00  0.00     0.034 C 
ATOM     92  O   UNL A   1      44.251  35.770  27.095  1.00  0.00    -0.378 OA
ATOM     93  C   UNL A   1      41.895  35.917  26.839  1.00  0.00     0.031 C 
ATOM     94  C   UNL A   1      43.170  35.385  26.227  1.00  0.00     0.160 C 
ENDBRANCH  89  90
ENDBRANCH  88  89
ENDBRANCH  87  88
ENDBRANCH  85  87
ENDBRANCH  80  82
ENDBRANCH  74  77
ENDBRANCH   1  73
TORSDOF 18
ENDMDL
MODEL 2
REMARK VINA RESULT:      -9.2      3.584     10.970
REMARK SMILES O=C(NCCCNC(=O)c1cn(C2C[NH+](CCC[C@@H]3CCCO3)C2)nn1)c1ccc(-c2c3nc(c(-c4cccc(S(=O)(=O)[O-])c4F)c4ccc([nH]4)c(-c4cccc(S(=O)(=O)[O-])c4F)c4nc(c(-c5cccc(S(=O)(=O)[O-])c5F)c5ccc2[nH]5)C=C4)C=C3)cc1
REMARK SMILES IDX 6 1 5 2 4 3 3 4 1 5 2 6 27 8 28 9 89 10 29 11 88 12 30 13
REMARK SMILES IDX 31 14 32 15 82 16 33 17 87 18 81 19 83 20 34 21 86 22 80 23
REMARK SMILES IDX 79 24 35 26 67 27 47 28 66 29 48 30 51 31 65 32 84 33 49 34
REMARK SMILES IDX 50 35 64 37 85 38 52 39 36 40 37 41 45 42 38 43 40 44 46 45
REMARK SMILES IDX 39 46 41 47 42 48 43 49 44 50 68 51 69 52 77 53 70 54 72 55
REMARK SMILES IDX 78 56 71 57 73 58 74 59 75 60 76 61 53 62 54 63 62 64 55 65
REMARK SMILES IDX 57 66 63 67 56 68 58 69 59 70 60 71 61 72 7 73 8 74 9 76
REMARK SMILES IDX 10 77 11 78 26 79 12 80 25 81 13 82 14 83 24 84 15 85 16 87
REMARK SMILES IDX 17 88 18 89 19 90 20 91 23 92 21 93 22 94
REMARK H PARENT 3 7 83 25 51 36 7 75 15 86
REMARK Flexibility Score: inf
ROOT
ATOM      1  C   UNL A   1      42.115  20.374  27.625  1.00  0.00     0.118 C 
ENDROOT
BRANCH   1   2
ATOM      2  C   UNL A   1      40.647  20.810  27.700  1.00  0.00     0.042 C 
BRANCH   2   3
ATOM      3  C   UNL A   1      40.346  22.174  27.080  1.00  0.00     0.118 C 
BRANCH   3   4
ATOM      4  N   UNL A   1      41.279  22.604  26.060  1.00  0.00    -0.352 N 
ATOM      5  O   UNL A   1      42.922  23.589  24.975  1.00  0.00    -0.269 OA
ATOM      6  C   UNL A   1      42.129  23.665  25.918  1.00  0.00     0.251 C 
ATOM      7  H   UNL A   1      41.306  21.990  25.290  1.00  0.00     0.163 HD
BRANCH   6   8
ATOM      8  C   UNL A   1      42.105  24.901  26.745  1.00  0.00     0.039 A 
ATOM      9  C   UNL A   1      42.863  25.133  27.894  1.00  0.00     0.014 A 
ATOM     10  C   UNL A   1      41.215  25.901  26.311  1.00  0.00     0.014 A 
ATOM     11  C   UNL A   1      42.677  26.298  28.635  1.00  0.00     0.010 A 
ATOM     12  C   UNL A   1      41.029  27.067  27.041  1.00  0.00     0.010 A 
ATOM     13  C   UNL A   1      41.741  27.251  28.222  1.00  0.00    -0.014 A 
BRANCH  13  14
ATOM     14  C   UNL A   1      41.674  28.526  28.935  1.00  0.00     0.031 A 
ATOM     15  C   UNL A   1      42.675  29.530  28.474  1.00  0.00     0.074 A 
ATOM     16  C   UNL A   1      40.693  28.845  29.805  1.00  0.00     0.049 A 
ATOM     17  N   UNL A   1      43.641  30.062  29.151  1.00  0.00    -0.248 NA
ATOM     18  C   UNL A   1      42.682  29.884  27.046  1.00  0.00     0.031 C 
ATOM     19  C   UNL A   1      39.489  28.065  30.103  1.00  0.00     0.029 A 
ATOM     20  N   UNL A   1      40.490  30.004  30.499  1.00  0.00    -0.354 N 
ATOM     21  C   UNL A   1      44.227  30.995  28.295  1.00  0.00     0.074 A 
ATOM     22  C   UNL A   1      43.734  30.700  26.978  1.00  0.00     0.031 C 
ATOM     23  C   UNL A   1      38.579  28.867  30.704  1.00  0.00     0.029 A 
ATOM     24  C   UNL A   1      39.178  30.168  30.943  1.00  0.00     0.049 A 
ATOM     25  H   UNL A   1      41.202  30.661  30.670  1.00  0.00     0.167 HD
ATOM     26  C   UNL A   1      44.866  32.099  28.776  1.00  0.00     0.034 A 
ATOM     27  C   UNL A   1      38.604  31.313  31.392  1.00  0.00     0.034 A 
ATOM     28  C   UNL A   1      45.183  31.954  30.173  1.00  0.00     0.049 A 
ATOM     29  C   UNL A   1      39.689  32.237  31.784  1.00  0.00     0.074 A 
ATOM     30  C   UNL A   1      45.917  31.068  30.934  1.00  0.00     0.029 A 
ATOM     31  N   UNL A   1      44.398  32.652  31.056  1.00  0.00    -0.354 N 
ATOM     32  N   UNL A   1      40.472  32.037  32.805  1.00  0.00    -0.248 NA
ATOM     33  C   UNL A   1      40.167  33.192  30.801  1.00  0.00     0.031 C 
ATOM     34  C   UNL A   1      45.198  30.954  32.159  1.00  0.00     0.029 A 
ATOM     35  C   UNL A   1      44.104  31.819  32.097  1.00  0.00     0.049 A 
ATOM     36  H   UNL A   1      44.101  33.585  30.957  1.00  0.00     0.167 HD
ATOM     37  C   UNL A   1      41.717  32.459  32.363  1.00  0.00     0.074 A 
ATOM     38  C   UNL A   1      41.445  33.270  31.179  1.00  0.00     0.031 C 
ATOM     39  C   UNL A   1      42.856  31.865  32.823  1.00  0.00     0.034 A 
BRANCH  26  40
ATOM     40  C   UNL A   1      44.847  33.472  28.126  1.00  0.00     0.023 A 
ATOM     41  C   UNL A   1      46.103  34.055  27.827  1.00  0.00     0.012 A 
ATOM     42  C   UNL A   1      43.724  34.329  28.081  1.00  0.00     0.148 A 
ATOM     43  C   UNL A   1      46.244  35.427  27.597  1.00  0.00     0.002 A 
ATOM     44  C   UNL A   1      43.860  35.680  27.775  1.00  0.00     0.091 A 
ATOM     45  F   UNL A   1      42.524  33.888  28.461  1.00  0.00    -0.205 F 
ATOM     46  C   UNL A   1      45.122  36.241  27.571  1.00  0.00     0.022 A 
BRANCH  44  47
ATOM     47  S   UNL A   1      42.437  36.776  27.682  1.00  0.00     0.127 S 
ATOM     48  O   UNL A   1      42.294  37.184  29.075  1.00  0.00    -0.237 OA
ATOM     49  O   UNL A   1      42.924  37.815  26.775  1.00  0.00    -0.237 OA
ATOM     50  O   UNL A   1      41.354  35.967  27.137  1.00  0.00    -0.744 OA
ENDBRANCH  44  47
ENDBRANCH  26  40
BRANCH  27  51
ATOM     51  C   UNL A   1      37.202  31.787  31.287  1.00  0.00     0.023 A 
ATOM     52  C   UNL A   1      36.540  32.279  32.432  1.00  0.00     0.012 A 
ATOM     53  C   UNL A   1      36.616  32.034  30.027  1.00  0.00     0.148 A 
ATOM     54  C   UNL A   1      35.356  33.022  32.321  1.00  0.00     0.002 A 
ATOM     55  C   UNL A   1      35.436  32.765  29.922  1.00  0.00     0.091 A 
ATOM     56  F   UNL A   1      37.266  31.637  28.925  1.00  0.00    -0.205 F 
ATOM     57  C   UNL A   1      34.809  33.272  31.066  1.00  0.00     0.022 A 
BRANCH  55  58
ATOM     58  S   UNL A   1      34.688  33.150  28.332  1.00  0.00     0.127 S 
ATOM     59  O   UNL A   1      34.054  31.879  27.981  1.00  0.00    -0.237 OA
ATOM     60  O   UNL A   1      33.761  34.221  28.686  1.00  0.00    -0.237 OA
ATOM     61  O   UNL A   1      35.791  33.531  27.458  1.00  0.00    -0.744 OA
ENDBRANCH  55  58
ENDBRANCH  27  51
BRANCH  39  62
ATOM     62  C   UNL A   1      42.759  30.979  34.035  1.00  0.00     0.023 A 
ATOM     63  C   UNL A   1      42.777  31.485  35.351  1.00  0.00     0.012 A 
ATOM     64  C   UNL A   1      42.473  29.620  33.830  1.00  0.00     0.148 A 
ATOM     65  C   UNL A   1      42.540  30.642  36.442  1.00  0.00     0.002 A 
ATOM     66  C   UNL A   1      42.187  28.799  34.910  1.00  0.00     0.091 A 
ATOM     67  F   UNL A   1      42.460  29.158  32.570  1.00  0.00    -0.205 F 
ATOM     68  C   UNL A   1      42.230  29.302  36.220  1.00  0.00     0.022 A 
BRANCH  66  69
ATOM     69  S   UNL A   1      41.649  27.104  34.676  1.00  0.00     0.127 S 
ATOM     70  O   UNL A   1      40.393  27.280  33.950  1.00  0.00    -0.237 OA
ATOM     71  O   UNL A   1      42.742  26.537  33.883  1.00  0.00    -0.237 OA
ATOM     72  O   UNL A   1      41.529  26.534  36.012  1.00  0.00    -0.744 OA
ENDBRANCH  66  69
ENDBRANCH  39  62
ENDBRANCH  13  14
ENDBRANCH   6   8
ENDBRANCH   3   4
ENDBRANCH   2   3
ENDBRANCH   1   2
BRANCH   1  73
ATOM     73  N   UNL A   1      42.274  19.010  27.138  1.00  0.00    -0.351 N 
ATOM     74  C   UNL A   1      42.970  18.514  26.060  1.00  0.00     0.273 C 
ATOM     75  H   UNL A   1      41.803  18.330  27.670  1.00  0.00     0.163 HD
ATOM     76  O   UNL A   1      42.781  17.345  25.737  1.00  0.00    -0.267 OA
BRANCH  74  77
ATOM     77  C   UNL A   1      43.900  19.374  25.350  1.00  0.00     0.170 A 
ATOM     78  C   UNL A   1      45.004  20.046  25.838  1.00  0.00     0.145 A 
ATOM     79  N   UNL A   1      43.810  19.596  23.999  1.00  0.00    -0.125 NA
ATOM     80  N   UNL A   1      45.432  20.788  24.774  1.00  0.00    -0.237 N 
ATOM     81  N   UNL A   1      44.749  20.467  23.659  1.00  0.00    -0.066 NA
BRANCH  80  82
ATOM     82  C   UNL A   1      46.264  21.950  24.787  1.00  0.00     0.218 C 
ATOM     83  C   UNL A   1      45.754  23.086  23.867  1.00  0.00     0.295 C 
ATOM     84  C   UNL A   1      46.034  22.978  25.912  1.00  0.00     0.295 C 
ATOM     85  N   UNL A   1      46.101  24.061  24.903  1.00  0.00    -0.331 N 
ATOM     86  H   UNL A   1      45.560  24.915  25.039  1.00  0.00     0.348 HD
BRANCH  85  87
ATOM     87  C   UNL A   1      47.418  24.693  24.713  1.00  0.00     0.262 C 
BRANCH  87  88
ATOM     88  C   UNL A   1      47.637  26.191  24.420  1.00  0.00     0.064 C 
BRANCH  88  89
ATOM     89  C   UNL A   1      47.048  27.264  25.353  1.00  0.00     0.038 C 
BRANCH  89  90
ATOM     90  C   UNL A   1      46.902  26.886  26.832  1.00  0.00     0.118 C 
ATOM     91  C   UNL A   1      45.868  27.685  27.606  1.00  0.00     0.034 C 
ATOM     92  O   UNL A   1      48.150  27.174  27.501  1.00  0.00    -0.378 OA
ATOM     93  C   UNL A   1      46.372  27.584  29.021  1.00  0.00     0.031 C 
ATOM     94  C   UNL A   1      47.868  27.675  28.820  1.00  0.00     0.160 C 
ENDBRANCH  89  90
ENDBRANCH  88  89
ENDBRANCH  87  88
ENDBRANCH  85  87
ENDBRANCH  80  82
ENDBRANCH  74  77
ENDBRANCH   1  73
TORSDOF 18
ENDMDL
MODEL 3
REMARK VINA RESULT:      -9.0      3.723     10.989
REMARK SMILES O=C(NCCCNC(=O)c1cn(C2C[NH+](CCC[C@@H]3CCCO3)C2)nn1)c1ccc(-c2c3nc(c(-c4cccc(S(=O)(=O)[O-])c4F)c4ccc([nH]4)c(-c4cccc(S(=O)(=O)[O-])c4F)c4nc(c(-c5cccc(S(=O)(=O)[O-])c5F)c5ccc2[nH]5)C=C4)C=C3)cc1
REMARK SMILES IDX 6 1 5 2 4 3 3 4 1 5 2 6 27 8 28 9 89 10 29 11 88 12 30 13
REMARK SMILES IDX 31 14 32 15 82 16 33 17 87 18 81 19 83 20 34 21 86 22 80 23
REMARK SMILES IDX 79 24 35 26 67 27 47 28 66 29 48 30 51 31 65 32 84 33 49 34
REMARK SMILES IDX 50 35 64 37 85 38 52 39 36 40 37 41 45 42 38 43 40 44 46 45
REMARK SMILES IDX 39 46 41 47 42 48 43 49 44 50 68 51 69 52 77 53 70 54 72 55
REMARK SMILES IDX 78 56 71 57 73 58 74 59 75 60 76 61 53 62 54 63 62 64 55 65
REMARK SMILES IDX 57 66 63 67 56 68 58 69 59 70 60 71 61 72 7 73 8 74 9 76
REMARK SMILES IDX 10 77 11 78 26 79 12 80 25 81 13 82 14 83 24 84 15 85 16 87
REMARK SMILES IDX 17 88 18 89 19 90 20 91 23 92 21 93 22 94
REMARK H PARENT 3 7 83 25 51 36 7 75 15 86
REMARK Flexibility Score: inf
ROOT
ATOM      1  C   UNL A   1      42.055  20.435  27.592  1.00  0.00     0.118 C 
ENDROOT
BRANCH   1   2
ATOM      2  C   UNL A   1      40.578  20.837  27.664  1.00  0.00     0.042 C 
BRANCH   2   3
ATOM      3  C   UNL A   1      40.168  21.959  26.711  1.00  0.00     0.118 C 
BRANCH   3   4
ATOM      4  N   UNL A   1      41.193  22.378  25.778  1.00  0.00    -0.352 N 
ATOM      5  O   UNL A   1      42.953  23.325  24.853  1.00  0.00    -0.269 OA
ATOM      6  C   UNL A   1      42.093  23.406  25.735  1.00  0.00     0.251 C 
ATOM      7  H   UNL A   1      41.256  21.787  24.994  1.00  0.00     0.163 HD
BRANCH   6   8
ATOM      8  C   UNL A   1      42.055  24.618  26.597  1.00  0.00     0.039 A 
ATOM      9  C   UNL A   1      42.760  24.800  27.788  1.00  0.00     0.014 A 
ATOM     10  C   UNL A   1      41.208  25.651  26.151  1.00  0.00     0.014 A 
ATOM     11  C   UNL A   1      42.562  25.947  28.554  1.00  0.00     0.010 A 
ATOM     12  C   UNL A   1      41.011  26.798  26.906  1.00  0.00     0.010 A 
ATOM     13  C   UNL A   1      41.667  26.932  28.125  1.00  0.00    -0.014 A 
BRANCH  13  14
ATOM     14  C   UNL A   1      41.592  28.187  28.872  1.00  0.00     0.031 A 
ATOM     15  C   UNL A   1      42.610  29.196  28.463  1.00  0.00     0.074 A 
ATOM     16  C   UNL A   1      40.594  28.488  29.728  1.00  0.00     0.049 A 
ATOM     17  N   UNL A   1      43.563  29.702  29.176  1.00  0.00    -0.248 NA
ATOM     18  C   UNL A   1      42.653  29.590  27.045  1.00  0.00     0.031 C 
ATOM     19  C   UNL A   1      39.378  27.709  29.976  1.00  0.00     0.029 A 
ATOM     20  N   UNL A   1      40.383  29.629  30.450  1.00  0.00    -0.354 N 
ATOM     21  C   UNL A   1      44.175  30.655  28.361  1.00  0.00     0.074 A 
ATOM     22  C   UNL A   1      43.711  30.400  27.025  1.00  0.00     0.031 C 
ATOM     23  C   UNL A   1      38.460  28.500  30.579  1.00  0.00     0.029 A 
ATOM     24  C   UNL A   1      39.061  29.790  30.868  1.00  0.00     0.049 A 
ATOM     25  H   UNL A   1      41.095  30.276  30.656  1.00  0.00     0.167 HD
ATOM     26  C   UNL A   1      44.810  31.740  28.887  1.00  0.00     0.034 A 
ATOM     27  C   UNL A   1      38.484  30.925  31.336  1.00  0.00     0.034 A 
ATOM     28  C   UNL A   1      45.094  31.553  30.287  1.00  0.00     0.049 A 
ATOM     29  C   UNL A   1      39.566  31.830  31.779  1.00  0.00     0.074 A 
ATOM     30  C   UNL A   1      45.805  30.641  31.038  1.00  0.00     0.029 A 
ATOM     31  N   UNL A   1      44.293  32.232  31.171  1.00  0.00    -0.354 N 
ATOM     32  N   UNL A   1      40.324  31.595  32.812  1.00  0.00    -0.248 NA
ATOM     33  C   UNL A   1      40.073  32.809  30.835  1.00  0.00     0.031 C 
ATOM     34  C   UNL A   1      45.057  30.498  32.244  1.00  0.00     0.029 A 
ATOM     35  C   UNL A   1      43.970  31.373  32.181  1.00  0.00     0.049 A 
ATOM     36  H   UNL A   1      44.004  33.170  31.091  1.00  0.00     0.167 HD
ATOM     37  C   UNL A   1      41.582  32.021  32.410  1.00  0.00     0.074 A 
ATOM     38  C   UNL A   1      41.342  32.868  31.244  1.00  0.00     0.031 C 
ATOM     39  C   UNL A   1      42.706  31.407  32.879  1.00  0.00     0.034 A 
BRANCH  26  40
ATOM     40  C   UNL A   1      44.815  33.131  28.276  1.00  0.00     0.023 A 
ATOM     41  C   UNL A   1      43.553  33.716  28.008  1.00  0.00     0.012 A 
ATOM     42  C   UNL A   1      45.938  33.748  27.681  1.00  0.00     0.148 A 
ATOM     43  C   UNL A   1      43.409  34.787  27.121  1.00  0.00     0.002 A 
ATOM     44  C   UNL A   1      45.798  34.862  26.859  1.00  0.00     0.091 A 
ATOM     45  F   UNL A   1      47.147  33.195  27.788  1.00  0.00    -0.205 F 
ATOM     46  C   UNL A   1      44.532  35.362  26.545  1.00  0.00     0.022 A 
BRANCH  44  47
ATOM     47  S   UNL A   1      47.220  35.678  26.120  1.00  0.00     0.127 S 
ATOM     48  O   UNL A   1      48.159  35.691  27.237  1.00  0.00    -0.237 OA
ATOM     49  O   UNL A   1      47.558  34.757  25.035  1.00  0.00    -0.237 OA
ATOM     50  O   UNL A   1      46.739  36.979  25.673  1.00  0.00    -0.744 OA
ENDBRANCH  44  47
ENDBRANCH  26  40
BRANCH  27  51
ATOM     51  C   UNL A   1      37.088  31.412  31.212  1.00  0.00     0.023 A 
ATOM     52  C   UNL A   1      36.406  31.883  32.354  1.00  0.00     0.012 A 
ATOM     53  C   UNL A   1      36.530  31.691  29.946  1.00  0.00     0.148 A 
ATOM     54  C   UNL A   1      35.230  32.637  32.236  1.00  0.00     0.002 A 
ATOM     55  C   UNL A   1      35.359  32.433  29.833  1.00  0.00     0.091 A 
ATOM     56  F   UNL A   1      37.201  31.313  28.850  1.00  0.00    -0.205 F 
ATOM     57  C   UNL A   1      34.711  32.920  30.975  1.00  0.00     0.022 A 
BRANCH  55  58
ATOM     58  S   UNL A   1      34.647  32.859  28.237  1.00  0.00     0.127 S 
ATOM     59  O   UNL A   1      33.545  33.741  28.625  1.00  0.00    -0.237 OA
ATOM     60  O   UNL A   1      35.764  33.528  27.577  1.00  0.00    -0.237 OA
ATOM     61  O   UNL A   1      34.223  31.598  27.643  1.00  0.00    -0.744 OA
ENDBRANCH  55  58
ENDBRANCH  27  51
BRANCH  39  62
ATOM     62  C   UNL A   1      42.575  30.488  34.063  1.00  0.00     0.023 A 
ATOM     63  C   UNL A   1      42.055  29.181  33.960  1.00  0.00     0.012 A 
ATOM     64  C   UNL A   1      43.147  30.900  35.277  1.00  0.00     0.148 A 
ATOM     65  C   UNL A   1      42.083  28.314  35.056  1.00  0.00     0.002 A 
ATOM     66  C   UNL A   1      43.222  30.019  36.345  1.00  0.00     0.091 A 
ATOM     67  F   UNL A   1      43.637  32.147  35.356  1.00  0.00    -0.205 F 
ATOM     68  C   UNL A   1      42.681  28.728  36.245  1.00  0.00     0.022 A 
BRANCH  66  69
ATOM     69  S   UNL A   1      44.099  30.450  37.850  1.00  0.00     0.127 S 
ATOM     70  O   UNL A   1      43.106  31.253  38.561  1.00  0.00    -0.237 OA
ATOM     71  O   UNL A   1      44.366  29.139  38.442  1.00  0.00    -0.237 OA
ATOM     72  O   UNL A   1      45.296  31.163  37.424  1.00  0.00    -0.744 OA
ENDBRANCH  66  69
ENDBRANCH  39  62
ENDBRANCH  13  14
ENDBRANCH   6   8
ENDBRANCH   3   4
ENDBRANCH   2   3
ENDBRANCH   1   2
BRANCH   1  73
ATOM     73  N   UNL A   1      42.244  19.060  27.149  1.00  0.00    -0.351 N 
ATOM     74  C   UNL A   1      42.962  18.543  26.095  1.00  0.00     0.273 C 
ATOM     75  H   UNL A   1      41.778  18.387  27.696  1.00  0.00     0.163 HD
ATOM     76  O   UNL A   1      42.798  17.361  25.806  1.00  0.00    -0.267 OA
BRANCH  74  77
ATOM     77  C   UNL A   1      43.886  19.397  25.371  1.00  0.00     0.170 A 
ATOM     78  C   UNL A   1      45.010  20.050  25.839  1.00  0.00     0.145 A 
ATOM     79  N   UNL A   1      43.768  19.632  24.024  1.00  0.00    -0.125 NA
ATOM     80  N   UNL A   1      45.424  20.796  24.771  1.00  0.00    -0.237 N 
ATOM     81  N   UNL A   1      44.710  20.494  23.670  1.00  0.00    -0.066 NA
BRANCH  80  82
ATOM     82  C   UNL A   1      46.271  21.947  24.775  1.00  0.00     0.218 C 
ATOM     83  C   UNL A   1      45.773  23.084  23.849  1.00  0.00     0.295 C 
ATOM     84  C   UNL A   1      46.059  22.984  25.894  1.00  0.00     0.295 C 
ATOM     85  N   UNL A   1      46.137  24.060  24.879  1.00  0.00    -0.331 N 
ATOM     86  H   UNL A   1      45.608  24.922  25.011  1.00  0.00     0.348 HD
BRANCH  85  87
ATOM     87  C   UNL A   1      47.461  24.673  24.681  1.00  0.00     0.262 C 
BRANCH  87  88
ATOM     88  C   UNL A   1      48.154  25.610  25.691  1.00  0.00     0.064 C 
BRANCH  88  89
ATOM     89  C   UNL A   1      48.433  25.138  27.129  1.00  0.00     0.038 C 
BRANCH  89  90
ATOM     90  C   UNL A   1      47.828  25.977  28.260  1.00  0.00     0.118 C 
ATOM     91  C   UNL A   1      46.312  25.954  28.347  1.00  0.00     0.034 C 
ATOM     92  O   UNL A   1      48.151  27.365  28.020  1.00  0.00    -0.378 OA
ATOM     93  C   UNL A   1      46.005  27.258  29.032  1.00  0.00     0.031 C 
ATOM     94  C   UNL A   1      47.030  28.179  28.410  1.00  0.00     0.160 C 
ENDBRANCH  89  90
ENDBRANCH  88  89
ENDBRANCH  87  88
ENDBRANCH  85  87
ENDBRANCH  80  82
ENDBRANCH  74  77
ENDBRANCH   1  73
TORSDOF 18
ENDMDL
