MODEL 1
REMARK VINA RESULT:     -13.4      0.000      0.000
REMARK SMILES C[C@H](C(=O)NCCCNC(=O)c1ccc(-c2c3nc(c(-c4cccc(S(=O)(=O)[O-])c4F)c4ccc([nH]4)c(-c4cccc(S(=O)(=O)[O-])c4F)c4nc(c(-c5cccc(S(=O)(=O)[O-])c5F)c5ccc2[nH]5)C=C4)C=C3)cc1)c1ccc2c3cc(Cl)ccc3n(C(=O)c3ccc(Cl)cc3)c2c1
REMARK SMILES IDX 7 1 6 2 5 3 3 4 4 5 2 7 1 8 75 9 76 10 97 11 77 12 96 13
REMARK SMILES IDX 78 14 86 15 79 16 85 17 80 18 84 19 81 20 83 21 82 22 87 23
REMARK SMILES IDX 88 24 89 25 90 26 95 27 91 28 94 29 92 30 93 31 8 32 9 33
REMARK SMILES IDX 10 34 11 36 12 37 13 38 74 39 14 40 73 41 15 42 16 43 17 44
REMARK SMILES IDX 67 45 18 46 72 47 66 48 68 49 19 50 71 51 65 52 64 53 20 55
REMARK SMILES IDX 52 56 32 57 51 58 33 59 36 60 50 61 69 62 34 63 35 64 49 66
REMARK SMILES IDX 70 67 37 68 21 69 22 70 30 71 23 72 25 73 31 74 24 75 26 76
REMARK SMILES IDX 27 77 28 78 29 79 53 80 54 81 62 82 55 83 57 84 63 85 56 86
REMARK SMILES IDX 58 87 59 88 60 89 61 90 38 91 39 92 47 93 40 94 42 95 48 96
REMARK SMILES IDX 41 97 43 98 44 99 45 100 46 101
REMARK H PARENT 5 6 9 35 68 54 36 65
REMARK Flexibility Score: inf
ROOT
ATOM      1  C   UNL A   1      35.540  21.350  26.067  1.00  0.00     0.042 C 
ENDROOT
BRANCH   1   2
ATOM      2  C   UNL A   1      34.617  20.471  25.226  1.00  0.00     0.117 C 
BRANCH   2   3
ATOM      3  N   UNL A   1      33.209  20.647  25.551  1.00  0.00    -0.356 N 
ATOM      4  C   UNL A   1      32.291  21.510  25.013  1.00  0.00     0.227 C 
ATOM      5  O   UNL A   1      31.131  21.452  25.427  1.00  0.00    -0.274 OA
ATOM      6  H   UNL A   1      32.866  20.059  26.263  1.00  0.00     0.163 HD
BRANCH   4   7
ATOM      7  C   UNL A   1      32.726  22.496  23.922  1.00  0.00     0.105 C 
ATOM      8  C   UNL A   1      31.728  22.551  22.762  1.00  0.00     0.023 C 
BRANCH   7   9
ATOM      9  C   UNL A   1      32.963  23.879  24.503  1.00  0.00    -0.034 A 
ATOM     10  C   UNL A   1      34.225  24.274  24.950  1.00  0.00     0.005 A 
ATOM     11  C   UNL A   1      31.908  24.804  24.499  1.00  0.00     0.032 A 
ATOM     12  C   UNL A   1      34.449  25.586  25.368  1.00  0.00     0.011 A 
ATOM     13  C   UNL A   1      32.149  26.146  24.856  1.00  0.00     0.057 A 
ATOM     14  C   UNL A   1      33.403  26.532  25.314  1.00  0.00     0.008 A 
ATOM     15  N   UNL A   1      31.332  27.295  24.782  1.00  0.00    -0.276 N 
ATOM     16  C   UNL A   1      33.295  27.877  25.738  1.00  0.00     0.009 A 
ATOM     17  C   UNL A   1      31.987  28.319  25.481  1.00  0.00     0.057 A 
ATOM     18  C   UNL A   1      34.211  28.708  26.412  1.00  0.00     0.031 A 
ATOM     19  C   UNL A   1      31.571  29.581  25.949  1.00  0.00     0.029 A 
ATOM     20  C   UNL A   1      33.778  29.924  26.922  1.00  0.00     0.041 A 
ATOM     21  C   UNL A   1      32.480  30.361  26.685  1.00  0.00     0.023 A 
ATOM     22  Cl  UNL A   1      34.840  30.805  27.953  1.00  0.00    -0.084 Cl
BRANCH  15  23
ATOM     23  C   UNL A   1      30.065  27.298  24.131  1.00  0.00     0.262 C 
ATOM     24  O   UNL A   1      29.333  26.325  24.348  1.00  0.00    -0.268 OA
BRANCH  23  25
ATOM     25  C   UNL A   1      29.463  28.252  23.164  1.00  0.00     0.040 A 
ATOM     26  C   UNL A   1      30.374  29.037  22.422  1.00  0.00     0.015 A 
ATOM     27  C   UNL A   1      28.105  28.571  23.115  1.00  0.00     0.015 A 
ATOM     28  C   UNL A   1      29.946  30.125  21.661  1.00  0.00     0.021 A 
ATOM     29  C   UNL A   1      27.672  29.652  22.327  1.00  0.00     0.021 A 
ATOM     30  C   UNL A   1      28.593  30.431  21.620  1.00  0.00     0.041 A 
ATOM     31  Cl  UNL A   1      28.067  31.805  20.725  1.00  0.00    -0.084 Cl
ENDBRANCH  23  25
ENDBRANCH  15  23
ENDBRANCH   7   9
ENDBRANCH   4   7
ENDBRANCH   2   3
ENDBRANCH   1   2
BRANCH   1  32
ATOM     32  C   UNL A   1      36.870  21.681  25.401  1.00  0.00     0.118 C 
BRANCH  32  33
ATOM     33  N   UNL A   1      37.917  20.715  25.716  1.00  0.00    -0.352 N 
ATOM     34  C   UNL A   1      39.207  20.928  26.136  1.00  0.00     0.251 C 
ATOM     35  H   UNL A   1      37.661  19.770  25.612  1.00  0.00     0.163 HD
ATOM     36  O   UNL A   1      39.989  19.982  26.206  1.00  0.00    -0.269 OA
BRANCH  34  37
ATOM     37  C   UNL A   1      39.662  22.291  26.484  1.00  0.00     0.039 A 
ATOM     38  C   UNL A   1      40.679  22.447  27.432  1.00  0.00     0.014 A 
ATOM     39  C   UNL A   1      39.085  23.412  25.884  1.00  0.00     0.014 A 
ATOM     40  C   UNL A   1      41.166  23.725  27.727  1.00  0.00     0.010 A 
ATOM     41  C   UNL A   1      39.616  24.675  26.128  1.00  0.00     0.010 A 
ATOM     42  C   UNL A   1      40.660  24.845  27.051  1.00  0.00    -0.014 A 
BRANCH  42  43
ATOM     43  C   UNL A   1      41.191  26.214  27.278  1.00  0.00     0.031 A 
ATOM     44  C   UNL A   1      42.566  26.570  26.785  1.00  0.00     0.074 A 
ATOM     45  C   UNL A   1      40.501  27.088  28.037  1.00  0.00     0.049 A 
ATOM     46  N   UNL A   1      43.291  27.626  27.048  1.00  0.00    -0.248 NA
ATOM     47  C   UNL A   1      43.225  25.590  25.908  1.00  0.00     0.031 C 
ATOM     48  C   UNL A   1      39.179  26.847  28.615  1.00  0.00     0.029 A 
ATOM     49  N   UNL A   1      40.838  28.341  28.486  1.00  0.00    -0.354 N 
ATOM     50  C   UNL A   1      44.511  27.411  26.419  1.00  0.00     0.074 A 
ATOM     51  C   UNL A   1      44.433  26.117  25.777  1.00  0.00     0.031 C 
ATOM     52  C   UNL A   1      38.820  27.911  29.350  1.00  0.00     0.029 A 
ATOM     53  C   UNL A   1      39.904  28.891  29.333  1.00  0.00     0.049 A 
ATOM     54  H   UNL A   1      41.669  28.801  28.229  1.00  0.00     0.167 HD
ATOM     55  C   UNL A   1      45.591  28.226  26.363  1.00  0.00     0.034 A 
ATOM     56  C   UNL A   1      39.929  30.038  30.041  1.00  0.00     0.034 A 
ATOM     57  C   UNL A   1      45.644  29.533  26.958  1.00  0.00     0.049 A 
ATOM     58  C   UNL A   1      41.138  30.926  29.967  1.00  0.00     0.074 A 
ATOM     59  C   UNL A   1      46.654  30.475  26.878  1.00  0.00     0.029 A 
ATOM     60  N   UNL A   1      44.648  30.082  27.751  1.00  0.00    -0.354 N 
ATOM     61  N   UNL A   1      42.237  30.761  29.274  1.00  0.00    -0.248 NA
ATOM     62  C   UNL A   1      41.104  32.164  30.759  1.00  0.00     0.031 C 
ATOM     63  C   UNL A   1      46.276  31.587  27.638  1.00  0.00     0.029 A 
ATOM     64  C   UNL A   1      45.020  31.347  28.172  1.00  0.00     0.049 A 
ATOM     65  H   UNL A   1      43.800  29.637  27.980  1.00  0.00     0.167 HD
ATOM     66  C   UNL A   1      43.006  31.894  29.507  1.00  0.00     0.074 A 
ATOM     67  C   UNL A   1      42.248  32.737  30.409  1.00  0.00     0.031 C 
ATOM     68  C   UNL A   1      44.230  32.203  29.018  1.00  0.00     0.034 A 
BRANCH  55  69
ATOM     69  C   UNL A   1      46.791  27.738  25.593  1.00  0.00     0.023 A 
ATOM     70  C   UNL A   1      46.844  27.918  24.196  1.00  0.00     0.012 A 
ATOM     71  C   UNL A   1      47.876  27.130  26.253  1.00  0.00     0.148 A 
ATOM     72  C   UNL A   1      47.935  27.457  23.461  1.00  0.00     0.002 A 
ATOM     73  C   UNL A   1      48.982  26.716  25.518  1.00  0.00     0.091 A 
ATOM     74  F   UNL A   1      47.801  26.943  27.578  1.00  0.00    -0.205 F 
ATOM     75  C   UNL A   1      49.007  26.865  24.122  1.00  0.00     0.022 A 
BRANCH  73  76
ATOM     76  S   UNL A   1      50.443  26.020  26.298  1.00  0.00     0.127 S 
ATOM     77  O   UNL A   1      49.889  24.852  26.977  1.00  0.00    -0.237 OA
ATOM     78  O   UNL A   1      51.295  25.710  25.148  1.00  0.00    -0.237 OA
ATOM     79  O   UNL A   1      50.963  27.069  27.165  1.00  0.00    -0.744 OA
ENDBRANCH  73  76
ENDBRANCH  55  69
BRANCH  56  80
ATOM     80  C   UNL A   1      38.749  30.422  30.861  1.00  0.00     0.023 A 
ATOM     81  C   UNL A   1      38.597  29.902  32.160  1.00  0.00     0.012 A 
ATOM     82  C   UNL A   1      37.813  31.351  30.385  1.00  0.00     0.148 A 
ATOM     83  C   UNL A   1      37.529  30.302  32.966  1.00  0.00     0.002 A 
ATOM     84  C   UNL A   1      36.798  31.801  31.223  1.00  0.00     0.091 A 
ATOM     85  F   UNL A   1      37.943  31.806  29.130  1.00  0.00    -0.205 F 
ATOM     86  C   UNL A   1      36.639  31.268  32.507  1.00  0.00     0.022 A 
BRANCH  84  87
ATOM     87  S   UNL A   1      35.802  33.208  30.745  1.00  0.00     0.127 S 
ATOM     88  O   UNL A   1      34.450  32.674  30.845  1.00  0.00    -0.237 OA
ATOM     89  O   UNL A   1      36.145  34.216  31.750  1.00  0.00    -0.237 OA
ATOM     90  O   UNL A   1      36.296  33.531  29.412  1.00  0.00    -0.744 OA
ENDBRANCH  84  87
ENDBRANCH  56  80
BRANCH  68  91
ATOM     91  C   UNL A   1      44.814  33.541  29.381  1.00  0.00     0.023 A 
ATOM     92  C   UNL A   1      45.637  33.669  30.515  1.00  0.00     0.012 A 
ATOM     93  C   UNL A   1      44.624  34.648  28.530  1.00  0.00     0.148 A 
ATOM     94  C   UNL A   1      46.254  34.886  30.804  1.00  0.00     0.002 A 
ATOM     95  C   UNL A   1      45.279  35.843  28.799  1.00  0.00     0.091 A 
ATOM     96  F   UNL A   1      43.818  34.505  27.468  1.00  0.00    -0.205 F 
ATOM     97  C   UNL A   1      46.087  35.967  29.940  1.00  0.00     0.022 A 
BRANCH  95  98
ATOM     98  S   UNL A   1      45.200  37.254  27.691  1.00  0.00     0.127 S 
ATOM     99  O   UNL A   1      45.976  38.253  28.425  1.00  0.00    -0.237 OA
ATOM    100  O   UNL A   1      45.851  36.739  26.487  1.00  0.00    -0.237 OA
ATOM    101  O   UNL A   1      43.785  37.563  27.530  1.00  0.00    -0.744 OA
ENDBRANCH  95  98
ENDBRANCH  68  91
ENDBRANCH  42  43
ENDBRANCH  34  37
ENDBRANCH  32  33
ENDBRANCH   1  32
TORSDOF 16
ENDMDL
MODEL 2
REMARK VINA RESULT:     -13.3      1.948      7.539
REMARK SMILES C[C@H](C(=O)NCCCNC(=O)c1ccc(-c2c3nc(c(-c4cccc(S(=O)(=O)[O-])c4F)c4ccc([nH]4)c(-c4cccc(S(=O)(=O)[O-])c4F)c4nc(c(-c5cccc(S(=O)(=O)[O-])c5F)c5ccc2[nH]5)C=C4)C=C3)cc1)c1ccc2c3cc(Cl)ccc3n(C(=O)c3ccc(Cl)cc3)c2c1
REMARK SMILES IDX 7 1 6 2 5 3 3 4 4 5 2 7 1 8 75 9 76 10 97 11 77 12 96 13
REMARK SMILES IDX 78 14 86 15 79 16 85 17 80 18 84 19 81 20 83 21 82 22 87 23
REMARK SMILES IDX 88 24 89 25 90 26 95 27 91 28 94 29 92 30 93 31 8 32 9 33
REMARK SMILES IDX 10 34 11 36 12 37 13 38 74 39 14 40 73 41 15 42 16 43 17 44
REMARK SMILES IDX 67 45 18 46 72 47 66 48 68 49 19 50 71 51 65 52 64 53 20 55
REMARK SMILES IDX 52 56 32 57 51 58 33 59 36 60 50 61 69 62 34 63 35 64 49 66
REMARK SMILES IDX 70 67 37 68 21 69 22 70 30 71 23 72 25 73 31 74 24 75 26 76
REMARK SMILES IDX 27 77 28 78 29 79 53 80 54 81 62 82 55 83 57 84 63 85 56 86
REMARK SMILES IDX 58 87 59 88 60 89 61 90 38 91 39 92 47 93 40 94 42 95 48 96
REMARK SMILES IDX 41 97 43 98 44 99 45 100 46 101
REMARK H PARENT 5 6 9 35 68 54 36 65
REMARK Flexibility Score: inf
ROOT
ATOM      1  C   UNL A   1      37.765  20.161  25.019  1.00  0.00     0.042 C 
ENDROOT
BRANCH   1   2
ATOM      2  C   UNL A   1      36.722  21.271  24.910  1.00  0.00     0.117 C 
BRANCH   2   3
ATOM      3  N   UNL A   1      35.476  20.952  25.593  1.00  0.00    -0.356 N 
ATOM      4  C   UNL A   1      34.207  21.405  25.348  1.00  0.00     0.227 C 
ATOM      5  O   UNL A   1      33.290  20.960  26.042  1.00  0.00    -0.274 OA
ATOM      6  H   UNL A   1      35.559  20.315  26.339  1.00  0.00     0.163 HD
BRANCH   4   7
ATOM      7  C   UNL A   1      33.970  22.428  24.230  1.00  0.00     0.105 C 
ATOM      8  C   UNL A   1      32.703  22.121  23.427  1.00  0.00     0.023 C 
BRANCH   7   9
ATOM      9  C   UNL A   1      33.935  23.841  24.785  1.00  0.00    -0.034 A 
ATOM     10  C   UNL A   1      35.063  24.424  25.364  1.00  0.00     0.005 A 
ATOM     11  C   UNL A   1      32.767  24.603  24.623  1.00  0.00     0.032 A 
ATOM     12  C   UNL A   1      35.045  25.762  25.758  1.00  0.00     0.011 A 
ATOM     13  C   UNL A   1      32.769  25.972  24.957  1.00  0.00     0.057 A 
ATOM     14  C   UNL A   1      33.889  26.544  25.547  1.00  0.00     0.008 A 
ATOM     15  N   UNL A   1      31.812  26.988  24.746  1.00  0.00    -0.276 N 
ATOM     16  C   UNL A   1      33.540  27.867  25.906  1.00  0.00     0.009 A 
ATOM     17  C   UNL A   1      32.224  28.109  25.480  1.00  0.00     0.057 A 
ATOM     18  C   UNL A   1      34.240  28.835  26.654  1.00  0.00     0.031 A 
ATOM     19  C   UNL A   1      31.579  29.305  25.850  1.00  0.00     0.029 A 
ATOM     20  C   UNL A   1      33.579  29.984  27.065  1.00  0.00     0.041 A 
ATOM     21  C   UNL A   1      32.271  30.223  26.660  1.00  0.00     0.023 A 
ATOM     22  Cl  UNL A   1      34.370  31.029  28.182  1.00  0.00    -0.084 Cl
BRANCH  15  23
ATOM     23  C   UNL A   1      30.647  26.794  23.949  1.00  0.00     0.262 C 
ATOM     24  O   UNL A   1      30.247  25.629  23.834  1.00  0.00    -0.268 OA
BRANCH  23  25
ATOM     25  C   UNL A   1      29.831  27.752  23.160  1.00  0.00     0.040 A 
ATOM     26  C   UNL A   1      30.552  28.676  22.370  1.00  0.00     0.015 A 
ATOM     27  C   UNL A   1      28.457  27.937  23.324  1.00  0.00     0.015 A 
ATOM     28  C   UNL A   1      29.925  29.767  21.771  1.00  0.00     0.021 A 
ATOM     29  C   UNL A   1      27.822  29.025  22.699  1.00  0.00     0.021 A 
ATOM     30  C   UNL A   1      28.558  29.940  21.942  1.00  0.00     0.041 A 
ATOM     31  Cl  UNL A   1      27.791  31.317  21.250  1.00  0.00    -0.084 Cl
ENDBRANCH  23  25
ENDBRANCH  15  23
ENDBRANCH   7   9
ENDBRANCH   4   7
ENDBRANCH   2   3
ENDBRANCH   1   2
BRANCH   1  32
ATOM     32  C   UNL A   1      39.031  20.560  25.768  1.00  0.00     0.118 C 
BRANCH  32  33
ATOM     33  N   UNL A   1      40.006  19.478  25.850  1.00  0.00    -0.352 N 
ATOM     34  C   UNL A   1      41.358  19.534  26.083  1.00  0.00     0.251 C 
ATOM     35  H   UNL A   1      39.640  18.574  25.717  1.00  0.00     0.163 HD
ATOM     36  O   UNL A   1      42.039  18.517  25.966  1.00  0.00    -0.269 OA
BRANCH  34  37
ATOM     37  C   UNL A   1      41.998  20.813  26.456  1.00  0.00     0.039 A 
ATOM     38  C   UNL A   1      42.371  21.707  25.446  1.00  0.00     0.014 A 
ATOM     39  C   UNL A   1      42.237  21.129  27.796  1.00  0.00     0.014 A 
ATOM     40  C   UNL A   1      42.920  22.948  25.784  1.00  0.00     0.010 A 
ATOM     41  C   UNL A   1      42.719  22.390  28.131  1.00  0.00     0.010 A 
ATOM     42  C   UNL A   1      43.067  23.312  27.131  1.00  0.00    -0.014 A 
BRANCH  42  43
ATOM     43  C   UNL A   1      43.580  24.644  27.540  1.00  0.00     0.031 A 
ATOM     44  C   UNL A   1      42.619  25.698  28.016  1.00  0.00     0.074 A 
ATOM     45  C   UNL A   1      44.880  24.951  27.360  1.00  0.00     0.049 A 
ATOM     46  N   UNL A   1      42.825  26.971  28.226  1.00  0.00    -0.248 NA
ATOM     47  C   UNL A   1      41.232  25.265  28.250  1.00  0.00     0.031 C 
ATOM     48  C   UNL A   1      45.904  24.034  26.861  1.00  0.00     0.029 A 
ATOM     49  N   UNL A   1      45.550  26.136  27.538  1.00  0.00    -0.354 N 
ATOM     50  C   UNL A   1      41.586  27.504  28.560  1.00  0.00     0.074 A 
ATOM     51  C   UNL A   1      40.632  26.418  28.507  1.00  0.00     0.031 C 
ATOM     52  C   UNL A   1      47.071  24.691  26.763  1.00  0.00     0.029 A 
ATOM     53  C   UNL A   1      46.869  26.085  27.149  1.00  0.00     0.049 A 
ATOM     54  H   UNL A   1      45.128  26.945  27.908  1.00  0.00     0.167 HD
ATOM     55  C   UNL A   1      41.275  28.777  28.901  1.00  0.00     0.034 A 
ATOM     56  C   UNL A   1      47.801  27.056  27.079  1.00  0.00     0.034 A 
ATOM     57  C   UNL A   1      42.237  29.841  29.003  1.00  0.00     0.049 A 
ATOM     58  C   UNL A   1      47.433  28.462  27.459  1.00  0.00     0.074 A 
ATOM     59  C   UNL A   1      42.039  31.141  29.433  1.00  0.00     0.029 A 
ATOM     60  N   UNL A   1      43.577  29.730  28.667  1.00  0.00    -0.354 N 
ATOM     61  N   UNL A   1      46.284  28.925  27.884  1.00  0.00    -0.248 NA
ATOM     62  C   UNL A   1      48.494  29.476  27.364  1.00  0.00     0.031 C 
ATOM     63  C   UNL A   1      43.257  31.822  29.338  1.00  0.00     0.029 A 
ATOM     64  C   UNL A   1      44.218  30.939  28.871  1.00  0.00     0.049 A 
ATOM     65  H   UNL A   1      44.008  28.911  28.330  1.00  0.00     0.167 HD
ATOM     66  C   UNL A   1      46.493  30.271  28.153  1.00  0.00     0.074 A 
ATOM     67  C   UNL A   1      47.879  30.552  27.839  1.00  0.00     0.031 C 
ATOM     68  C   UNL A   1      45.612  31.190  28.616  1.00  0.00     0.034 A 
BRANCH  55  69
ATOM     69  C   UNL A   1      39.835  29.076  29.228  1.00  0.00     0.023 A 
ATOM     70  C   UNL A   1      38.891  29.187  28.187  1.00  0.00     0.012 A 
ATOM     71  C   UNL A   1      39.409  29.216  30.563  1.00  0.00     0.148 A 
ATOM     72  C   UNL A   1      37.557  29.482  28.464  1.00  0.00     0.002 A 
ATOM     73  C   UNL A   1      38.067  29.462  30.834  1.00  0.00     0.091 A 
ATOM     74  F   UNL A   1      40.321  29.132  31.542  1.00  0.00    -0.205 F 
ATOM     75  C   UNL A   1      37.144  29.610  29.787  1.00  0.00     0.022 A 
BRANCH  73  76
ATOM     76  S   UNL A   1      37.432  29.558  32.512  1.00  0.00     0.127 S 
ATOM     77  O   UNL A   1      38.376  30.483  33.134  1.00  0.00    -0.237 OA
ATOM     78  O   UNL A   1      36.089  30.103  32.307  1.00  0.00    -0.237 OA
ATOM     79  O   UNL A   1      37.455  28.193  33.020  1.00  0.00    -0.744 OA
ENDBRANCH  73  76
ENDBRANCH  55  69
BRANCH  56  80
ATOM     80  C   UNL A   1      49.185  26.718  26.655  1.00  0.00     0.023 A 
ATOM     81  C   UNL A   1      49.466  26.476  25.297  1.00  0.00     0.012 A 
ATOM     82  C   UNL A   1      50.238  26.700  27.582  1.00  0.00     0.148 A 
ATOM     83  C   UNL A   1      50.772  26.220  24.875  1.00  0.00     0.002 A 
ATOM     84  C   UNL A   1      51.545  26.521  27.140  1.00  0.00     0.091 A 
ATOM     85  F   UNL A   1      49.952  26.887  28.879  1.00  0.00    -0.205 F 
ATOM     86  C   UNL A   1      51.817  26.262  25.793  1.00  0.00     0.022 A 
BRANCH  84  87
ATOM     87  S   UNL A   1      52.913  26.814  28.255  1.00  0.00     0.127 S 
ATOM     88  O   UNL A   1      52.647  25.859  29.324  1.00  0.00    -0.237 OA
ATOM     89  O   UNL A   1      54.084  26.510  27.432  1.00  0.00    -0.237 OA
ATOM     90  O   UNL A   1      52.785  28.230  28.578  1.00  0.00    -0.744 OA
ENDBRANCH  84  87
ENDBRANCH  56  80
BRANCH  68  91
ATOM     91  C   UNL A   1      46.124  32.578  28.887  1.00  0.00     0.023 A 
ATOM     92  C   UNL A   1      46.836  32.851  30.069  1.00  0.00     0.012 A 
ATOM     93  C   UNL A   1      45.982  33.585  27.911  1.00  0.00     0.148 A 
ATOM     94  C   UNL A   1      47.391  34.113  30.283  1.00  0.00     0.002 A 
ATOM     95  C   UNL A   1      46.577  34.824  28.110  1.00  0.00     0.091 A 
ATOM     96  F   UNL A   1      45.280  33.305  26.804  1.00  0.00    -0.205 F 
ATOM     97  C   UNL A   1      47.273  35.093  29.299  1.00  0.00     0.022 A 
BRANCH  95  98
ATOM     98  S   UNL A   1      46.560  36.112  26.858  1.00  0.00     0.127 S 
ATOM     99  O   UNL A   1      45.147  36.488  26.837  1.00  0.00    -0.237 OA
ATOM    100  O   UNL A   1      47.451  37.117  27.437  1.00  0.00    -0.237 OA
ATOM    101  O   UNL A   1      47.056  35.493  25.636  1.00  0.00    -0.744 OA
ENDBRANCH  95  98
ENDBRANCH  68  91
ENDBRANCH  42  43
ENDBRANCH  34  37
ENDBRANCH  32  33
ENDBRANCH   1  32
TORSDOF 16
ENDMDL
MODEL 3
REMARK VINA RESULT:     -12.8      5.500      9.082
REMARK SMILES C[C@H](C(=O)NCCCNC(=O)c1ccc(-c2c3nc(c(-c4cccc(S(=O)(=O)[O-])c4F)c4ccc([nH]4)c(-c4cccc(S(=O)(=O)[O-])c4F)c4nc(c(-c5cccc(S(=O)(=O)[O-])c5F)c5ccc2[nH]5)C=C4)C=C3)cc1)c1ccc2c3cc(Cl)ccc3n(C(=O)c3ccc(Cl)cc3)c2c1
REMARK SMILES IDX 7 1 6 2 5 3 3 4 4 5 2 7 1 8 75 9 76 10 97 11 77 12 96 13
REMARK SMILES IDX 78 14 86 15 79 16 85 17 80 18 84 19 81 20 83 21 82 22 87 23
REMARK SMILES IDX 88 24 89 25 90 26 95 27 91 28 94 29 92 30 93 31 8 32 9 33
REMARK SMILES IDX 10 34 11 36 12 37 13 38 74 39 14 40 73 41 15 42 16 43 17 44
REMARK SMILES IDX 67 45 18 46 72 47 66 48 68 49 19 50 71 51 65 52 64 53 20 55
REMARK SMILES IDX 52 56 32 57 51 58 33 59 36 60 50 61 69 62 34 63 35 64 49 66
REMARK SMILES IDX 70 67 37 68 21 69 22 70 30 71 23 72 25 73 31 74 24 75 26 76
REMARK SMILES IDX 27 77 28 78 29 79 53 80 54 81 62 82 55 83 57 84 63 85 56 86
REMARK SMILES IDX 58 87 59 88 60 89 61 90 38 91 39 92 47 93 40 94 42 95 48 96
REMARK SMILES IDX 41 97 43 98 44 99 45 100 46 101
REMARK H PARENT 5 6 9 35 68 54 36 65
REMARK Flexibility Score: inf
ROOT
ATOM      1  C   UNL A   1      33.053  29.949  26.012  1.00  0.00     0.042 C 
ENDROOT
BRANCH   1   2
ATOM      2  C   UNL A   1      33.836  28.654  25.805  1.00  0.00     0.117 C 
BRANCH   2   3
ATOM      3  N   UNL A   1      33.429  27.925  24.613  1.00  0.00    -0.356 N 
ATOM      4  C   UNL A   1      32.676  26.786  24.502  1.00  0.00     0.227 C 
ATOM      5  O   UNL A   1      32.425  26.367  23.370  1.00  0.00    -0.274 OA
ATOM      6  H   UNL A   1      33.739  28.309  23.761  1.00  0.00     0.163 HD
BRANCH   4   7
ATOM      7  C   UNL A   1      32.171  26.085  25.769  1.00  0.00     0.105 C 
ATOM      8  C   UNL A   1      30.741  26.500  26.126  1.00  0.00     0.023 C 
BRANCH   7   9
ATOM      9  C   UNL A   1      32.284  24.576  25.637  1.00  0.00    -0.034 A 
ATOM     10  C   UNL A   1      31.154  23.757  25.658  1.00  0.00     0.005 A 
ATOM     11  C   UNL A   1      33.545  24.011  25.393  1.00  0.00     0.032 A 
ATOM     12  C   UNL A   1      31.267  22.388  25.415  1.00  0.00     0.011 A 
ATOM     13  C   UNL A   1      33.652  22.641  25.080  1.00  0.00     0.057 A 
ATOM     14  C   UNL A   1      32.527  21.827  25.117  1.00  0.00     0.008 A 
ATOM     15  N   UNL A   1      34.746  21.866  24.639  1.00  0.00    -0.276 N 
ATOM     16  C   UNL A   1      32.969  20.498  24.917  1.00  0.00     0.009 A 
ATOM     17  C   UNL A   1      34.356  20.520  24.701  1.00  0.00     0.057 A 
ATOM     18  C   UNL A   1      32.277  19.273  25.002  1.00  0.00     0.031 A 
ATOM     19  C   UNL A   1      35.071  19.309  24.626  1.00  0.00     0.029 A 
ATOM     20  C   UNL A   1      32.995  18.086  24.986  1.00  0.00     0.041 A 
ATOM     21  C   UNL A   1      34.371  18.101  24.790  1.00  0.00     0.023 A 
ATOM     22  Cl  UNL A   1      32.162  16.621  25.341  1.00  0.00    -0.084 Cl
BRANCH  15  23
ATOM     23  C   UNL A   1      35.994  22.439  24.262  1.00  0.00     0.262 C 
ATOM     24  O   UNL A   1      36.042  22.968  23.144  1.00  0.00    -0.268 OA
BRANCH  23  25
ATOM     25  C   UNL A   1      37.307  22.470  24.957  1.00  0.00     0.040 A 
ATOM     26  C   UNL A   1      38.013  21.247  25.001  1.00  0.00     0.015 A 
ATOM     27  C   UNL A   1      37.759  23.536  25.737  1.00  0.00     0.015 A 
ATOM     28  C   UNL A   1      39.133  21.082  25.815  1.00  0.00     0.021 A 
ATOM     29  C   UNL A   1      38.903  23.375  26.540  1.00  0.00     0.021 A 
ATOM     30  C   UNL A   1      39.572  22.149  26.586  1.00  0.00     0.041 A 
ATOM     31  Cl  UNL A   1      40.921  21.932  27.634  1.00  0.00    -0.084 Cl
ENDBRANCH  23  25
ENDBRANCH  15  23
ENDBRANCH   7   9
ENDBRANCH   4   7
ENDBRANCH   2   3
ENDBRANCH   1   2
BRANCH   1  32
ATOM     32  C   UNL A   1      33.304  30.628  27.353  1.00  0.00     0.118 C 
BRANCH  32  33
ATOM     33  N   UNL A   1      33.089  32.069  27.307  1.00  0.00    -0.352 N 
ATOM     34  C   UNL A   1      33.722  33.071  28.001  1.00  0.00     0.251 C 
ATOM     35  H   UNL A   1      32.385  32.369  26.688  1.00  0.00     0.163 HD
ATOM     36  O   UNL A   1      33.295  34.222  27.935  1.00  0.00    -0.269 OA
BRANCH  34  37
ATOM     37  C   UNL A   1      34.902  32.768  28.839  1.00  0.00     0.039 A 
ATOM     38  C   UNL A   1      34.742  31.964  29.973  1.00  0.00     0.014 A 
ATOM     39  C   UNL A   1      36.160  33.279  28.514  1.00  0.00     0.014 A 
ATOM     40  C   UNL A   1      35.856  31.615  30.742  1.00  0.00     0.010 A 
ATOM     41  C   UNL A   1      37.276  32.875  29.240  1.00  0.00     0.010 A 
ATOM     42  C   UNL A   1      37.137  32.041  30.360  1.00  0.00    -0.014 A 
BRANCH  42  43
ATOM     43  C   UNL A   1      38.360  31.641  31.103  1.00  0.00     0.031 A 
ATOM     44  C   UNL A   1      39.273  30.595  30.525  1.00  0.00     0.074 A 
ATOM     45  C   UNL A   1      38.578  32.111  32.347  1.00  0.00     0.049 A 
ATOM     46  N   UNL A   1      40.268  29.963  31.089  1.00  0.00    -0.248 NA
ATOM     47  C   UNL A   1      39.006  30.182  29.138  1.00  0.00     0.031 C 
ATOM     48  C   UNL A   1      37.742  33.091  33.040  1.00  0.00     0.029 A 
ATOM     49  N   UNL A   1      39.550  31.794  33.264  1.00  0.00    -0.354 N 
ATOM     50  C   UNL A   1      40.708  29.038  30.150  1.00  0.00     0.074 A 
ATOM     51  C   UNL A   1      39.860  29.181  28.987  1.00  0.00     0.031 C 
ATOM     52  C   UNL A   1      38.229  33.289  34.275  1.00  0.00     0.029 A 
ATOM     53  C   UNL A   1      39.384  32.418  34.479  1.00  0.00     0.049 A 
ATOM     54  H   UNL A   1      40.293  31.178  33.071  1.00  0.00     0.167 HD
ATOM     55  C   UNL A   1      41.739  28.164  30.240  1.00  0.00     0.034 A 
ATOM     56  C   UNL A   1      40.063  32.281  35.635  1.00  0.00     0.034 A 
ATOM     57  C   UNL A   1      42.611  28.063  31.377  1.00  0.00     0.049 A 
ATOM     58  C   UNL A   1      41.200  31.303  35.713  1.00  0.00     0.074 A 
ATOM     59  C   UNL A   1      43.741  27.278  31.528  1.00  0.00     0.029 A 
ATOM     60  N   UNL A   1      42.450  28.763  32.563  1.00  0.00    -0.354 N 
ATOM     61  N   UNL A   1      41.676  30.520  34.778  1.00  0.00    -0.248 NA
ATOM     62  C   UNL A   1      41.904  31.202  37.000  1.00  0.00     0.031 C 
ATOM     63  C   UNL A   1      44.252  27.490  32.813  1.00  0.00     0.029 A 
ATOM     64  C   UNL A   1      43.454  28.425  33.453  1.00  0.00     0.049 A 
ATOM     65  H   UNL A   1      41.727  29.406  32.744  1.00  0.00     0.167 HD
ATOM     66  C   UNL A   1      42.763  29.867  35.345  1.00  0.00     0.074 A 
ATOM     67  C   UNL A   1      42.873  30.345  36.709  1.00  0.00     0.031 C 
ATOM     68  C   UNL A   1      43.591  28.954  34.785  1.00  0.00     0.034 A 
BRANCH  55  69
ATOM     69  C   UNL A   1      42.000  27.275  29.052  1.00  0.00     0.023 A 
ATOM     70  C   UNL A   1      41.466  25.971  29.026  1.00  0.00     0.012 A 
ATOM     71  C   UNL A   1      42.746  27.738  27.950  1.00  0.00     0.148 A 
ATOM     72  C   UNL A   1      41.710  25.124  27.946  1.00  0.00     0.002 A 
ATOM     73  C   UNL A   1      42.944  26.903  26.855  1.00  0.00     0.091 A 
ATOM     74  F   UNL A   1      43.268  28.971  27.999  1.00  0.00    -0.205 F 
ATOM     75  C   UNL A   1      42.441  25.593  26.858  1.00  0.00     0.022 A 
BRANCH  73  76
ATOM     76  S   UNL A   1      43.802  27.453  25.376  1.00  0.00     0.127 S 
ATOM     77  O   UNL A   1      44.612  28.554  25.894  1.00  0.00    -0.237 OA
ATOM     78  O   UNL A   1      44.563  26.263  24.994  1.00  0.00    -0.237 OA
ATOM     79  O   UNL A   1      42.757  27.827  24.432  1.00  0.00    -0.744 OA
ENDBRANCH  73  76
ENDBRANCH  55  69
BRANCH  56  80
ATOM     80  C   UNL A   1      39.695  33.120  36.807  1.00  0.00     0.023 A 
ATOM     81  C   UNL A   1      40.112  34.463  36.868  1.00  0.00     0.012 A 
ATOM     82  C   UNL A   1      38.879  32.612  37.829  1.00  0.00     0.148 A 
ATOM     83  C   UNL A   1      39.721  35.281  37.931  1.00  0.00     0.002 A 
ATOM     84  C   UNL A   1      38.433  33.455  38.840  1.00  0.00     0.091 A 
ATOM     85  F   UNL A   1      38.526  31.318  37.782  1.00  0.00    -0.205 F 
ATOM     86  C   UNL A   1      38.865  34.784  38.908  1.00  0.00     0.022 A 
BRANCH  84  87
ATOM     87  S   UNL A   1      37.147  32.908  39.957  1.00  0.00     0.127 S 
ATOM     88  O   UNL A   1      37.747  31.724  40.559  1.00  0.00    -0.237 OA
ATOM     89  O   UNL A   1      36.986  34.047  40.862  1.00  0.00    -0.237 OA
ATOM     90  O   UNL A   1      36.003  32.703  39.077  1.00  0.00    -0.744 OA
ENDBRANCH  84  87
ENDBRANCH  56  80
BRANCH  68  91
ATOM     91  C   UNL A   1      44.743  28.451  35.611  1.00  0.00     0.023 A 
ATOM     92  C   UNL A   1      46.009  29.056  35.502  1.00  0.00     0.012 A 
ATOM     93  C   UNL A   1      44.534  27.442  36.573  1.00  0.00     0.148 A 
ATOM     94  C   UNL A   1      47.056  28.654  36.331  1.00  0.00     0.002 A 
ATOM     95  C   UNL A   1      45.568  27.080  37.425  1.00  0.00     0.091 A 
ATOM     96  F   UNL A   1      43.324  26.867  36.641  1.00  0.00    -0.205 F 
ATOM     97  C   UNL A   1      46.833  27.678  37.300  1.00  0.00     0.022 A 
BRANCH  95  98
ATOM     98  S   UNL A   1      45.344  25.904  38.765  1.00  0.00     0.127 S 
ATOM     99  O   UNL A   1      44.222  26.494  39.494  1.00  0.00    -0.237 OA
ATOM    100  O   UNL A   1      45.024  24.673  38.044  1.00  0.00    -0.237 OA
ATOM    101  O   UNL A   1      46.608  25.872  39.490  1.00  0.00    -0.744 OA
ENDBRANCH  95  98
ENDBRANCH  68  91
ENDBRANCH  42  43
ENDBRANCH  34  37
ENDBRANCH  32  33
ENDBRANCH   1  32
TORSDOF 16
ENDMDL
