MODEL 1
REMARK VINA RESULT:     -12.9      0.000      0.000
REMARK SMILES N#Cc1ccc2c(c1)C=C(C(=O)NCCCNC(=O)c1ccc(-c3c4nc(c(-c5cccc(S(=O)(=O)[O-])c5F)c5ccc([nH]5)c(-c5cccc(S(=O)(=O)[O-])c5F)c5nc(c(-c6cccc(S(=O)(=O)[O-])c6F)c6ccc3[nH]6)C=C5)C=C4)cc1)[C@@H](C(F)(F)F)O2
REMARK SMILES IDX 16 1 15 2 14 3 13 4 11 5 12 6 10 8 3 9 4 10 8 11 5 12 7 13
REMARK SMILES IDX 6 14 9 15 88 16 83 17 2 18 1 19 84 20 85 21 86 22 87 23
REMARK SMILES IDX 17 24 18 25 19 27 20 28 21 29 82 30 22 31 81 32 23 33 24 34
REMARK SMILES IDX 25 35 75 36 26 37 80 38 74 39 76 40 27 41 79 42 73 43 72 44
REMARK SMILES IDX 28 46 60 47 40 48 59 49 41 50 44 51 58 52 77 53 42 54 43 55
REMARK SMILES IDX 57 57 78 58 45 59 29 60 30 61 38 62 31 63 33 64 39 65 32 66
REMARK SMILES IDX 34 67 35 68 36 69 37 70 61 71 62 72 70 73 63 74 65 75 71 76
REMARK SMILES IDX 64 77 66 78 67 79 68 80 69 81 46 82 47 83 55 84 48 85 50 86
REMARK SMILES IDX 56 87 49 88 51 89 52 90 53 91 54 92
REMARK H PARENT 13 7 17 26 76 45 44 56
REMARK Flexibility Score: inf
ROOT
ATOM      1  C   UNL A   1      32.917  29.229  27.113  1.00  0.00     0.118 C 
ENDROOT
BRANCH   1   2
ATOM      2  C   UNL A   1      33.417  28.728  25.769  1.00  0.00     0.042 C 
BRANCH   2   3
ATOM      3  C   UNL A   1      33.794  27.261  25.826  1.00  0.00     0.118 C 
BRANCH   3   4
ATOM      4  N   UNL A   1      33.788  26.642  24.508  1.00  0.00    -0.352 N 
ATOM      5  C   UNL A   1      32.919  26.518  23.477  1.00  0.00     0.251 C 
ATOM      6  O   UNL A   1      33.351  25.924  22.483  1.00  0.00    -0.270 OA
ATOM      7  H   UNL A   1      34.642  26.194  24.315  1.00  0.00     0.163 HD
BRANCH   5   8
ATOM      8  C   UNL A   1      31.524  27.046  23.473  1.00  0.00     0.067 C 
ATOM      9  C   UNL A   1      28.490  30.737  22.721  1.00  0.00     0.053 A 
ATOM     10  C   UNL A   1      27.403  29.878  22.915  1.00  0.00     0.023 A 
ATOM     11  C   UNL A   1      29.800  30.238  22.777  1.00  0.00     0.031 A 
ATOM     12  C   UNL A   1      27.623  28.526  23.165  1.00  0.00     0.048 A 
ATOM     13  C   UNL A   1      30.021  28.881  23.035  1.00  0.00     0.018 A 
ATOM     14  C   UNL A   1      28.925  28.040  23.231  1.00  0.00     0.128 A 
ATOM     15  C   UNL A   1      31.366  28.316  23.057  1.00  0.00     0.025 C 
ATOM     16  O   UNL A   1      29.049  26.702  23.454  1.00  0.00    -0.475 OA
ATOM     17  C   UNL A   1      30.340  26.243  23.927  1.00  0.00     0.314 C 
BRANCH   9  18
ATOM     18  C   UNL A   1      28.256  32.125  22.458  1.00  0.00     0.099 C 
ATOM     19  N   UNL A   1      28.055  33.249  22.243  1.00  0.00    -0.192 NA
ENDBRANCH   9  18
BRANCH  17  20
ATOM     20  C   UNL A   1      30.289  26.094  25.461  1.00  0.00     0.429 C 
ATOM     21  F   UNL A   1      31.215  25.197  25.882  1.00  0.00    -0.167 F 
ATOM     22  F   UNL A   1      30.550  27.251  26.113  1.00  0.00    -0.167 F 
ATOM     23  F   UNL A   1      29.083  25.668  25.901  1.00  0.00    -0.167 F 
ENDBRANCH  17  20
ENDBRANCH   5   8
ENDBRANCH   3   4
ENDBRANCH   2   3
ENDBRANCH   1   2
BRANCH   1  24
ATOM     24  N   UNL A   1      32.869  30.691  27.175  1.00  0.00    -0.352 N 
ATOM     25  C   UNL A   1      33.793  31.595  27.644  1.00  0.00     0.251 C 
ATOM     26  H   UNL A   1      32.040  31.092  26.826  1.00  0.00     0.163 HD
ATOM     27  O   UNL A   1      33.470  32.765  27.821  1.00  0.00    -0.269 OA
BRANCH  25  28
ATOM     28  C   UNL A   1      35.157  31.131  27.956  1.00  0.00     0.039 A 
ATOM     29  C   UNL A   1      35.366  29.789  28.268  1.00  0.00     0.014 A 
ATOM     30  C   UNL A   1      36.212  32.042  28.014  1.00  0.00     0.014 A 
ATOM     31  C   UNL A   1      36.539  29.419  28.899  1.00  0.00     0.010 A 
ATOM     32  C   UNL A   1      37.451  31.623  28.505  1.00  0.00     0.010 A 
ATOM     33  C   UNL A   1      37.601  30.327  29.024  1.00  0.00    -0.014 A 
BRANCH  33  34
ATOM     34  C   UNL A   1      38.843  29.883  29.707  1.00  0.00     0.031 A 
ATOM     35  C   UNL A   1      39.187  30.372  31.089  1.00  0.00     0.074 A 
ATOM     36  C   UNL A   1      39.628  28.973  29.095  1.00  0.00     0.049 A 
ATOM     37  N   UNL A   1      40.214  30.052  31.834  1.00  0.00    -0.248 NA
ATOM     38  C   UNL A   1      38.274  31.340  31.723  1.00  0.00     0.031 C 
ATOM     39  C   UNL A   1      39.398  28.425  27.754  1.00  0.00     0.029 A 
ATOM     40  N   UNL A   1      40.761  28.330  29.522  1.00  0.00    -0.354 N 
ATOM     41  C   UNL A   1      40.096  30.807  32.995  1.00  0.00     0.074 A 
ATOM     42  C   UNL A   1      38.902  31.609  32.860  1.00  0.00     0.031 C 
ATOM     43  C   UNL A   1      40.323  27.493  27.492  1.00  0.00     0.029 A 
ATOM     44  C   UNL A   1      41.260  27.435  28.606  1.00  0.00     0.049 A 
ATOM     45  H   UNL A   1      41.176  28.494  30.400  1.00  0.00     0.167 HD
ATOM     46  C   UNL A   1      40.901  30.814  34.081  1.00  0.00     0.034 A 
ATOM     47  C   UNL A   1      42.364  26.666  28.639  1.00  0.00     0.034 A 
ATOM     48  C   UNL A   1      42.062  29.981  34.231  1.00  0.00     0.049 A 
ATOM     49  C   UNL A   1      43.251  26.713  29.846  1.00  0.00     0.074 A 
ATOM     50  C   UNL A   1      42.912  29.891  35.319  1.00  0.00     0.029 A 
ATOM     51  N   UNL A   1      42.539  29.105  33.272  1.00  0.00    -0.354 N 
ATOM     52  N   UNL A   1      43.082  27.386  30.956  1.00  0.00    -0.248 NA
ATOM     53  C   UNL A   1      44.469  25.893  29.814  1.00  0.00     0.031 C 
ATOM     54  C   UNL A   1      43.922  28.982  35.006  1.00  0.00     0.029 A 
ATOM     55  C   UNL A   1      43.681  28.480  33.737  1.00  0.00     0.049 A 
ATOM     56  H   UNL A   1      42.128  28.950  32.391  1.00  0.00     0.167 HD
ATOM     57  C   UNL A   1      44.162  27.060  31.764  1.00  0.00     0.074 A 
ATOM     58  C   UNL A   1      44.973  26.117  31.021  1.00  0.00     0.031 C 
ATOM     59  C   UNL A   1      44.455  27.511  33.005  1.00  0.00     0.034 A 
BRANCH  46  60
ATOM     60  C   UNL A   1      40.552  31.723  35.227  1.00  0.00     0.023 A 
ATOM     61  C   UNL A   1      41.206  32.963  35.354  1.00  0.00     0.012 A 
ATOM     62  C   UNL A   1      39.489  31.404  36.096  1.00  0.00     0.148 A 
ATOM     63  C   UNL A   1      40.808  33.877  36.330  1.00  0.00     0.002 A 
ATOM     64  C   UNL A   1      39.080  32.329  37.047  1.00  0.00     0.091 A 
ATOM     65  F   UNL A   1      38.887  30.215  35.956  1.00  0.00    -0.205 F 
ATOM     66  C   UNL A   1      39.737  33.565  37.166  1.00  0.00     0.022 A 
BRANCH  64  67
ATOM     67  S   UNL A   1      37.690  32.044  38.149  1.00  0.00     0.127 S 
ATOM     68  O   UNL A   1      38.287  32.335  39.453  1.00  0.00    -0.237 OA
ATOM     69  O   UNL A   1      36.723  33.038  37.686  1.00  0.00    -0.237 OA
ATOM     70  O   UNL A   1      37.293  30.657  37.951  1.00  0.00    -0.744 OA
ENDBRANCH  64  67
ENDBRANCH  46  60
BRANCH  47  71
ATOM     71  C   UNL A   1      42.661  25.779  27.484  1.00  0.00     0.023 A 
ATOM     72  C   UNL A   1      43.518  26.233  26.465  1.00  0.00     0.012 A 
ATOM     73  C   UNL A   1      42.171  24.459  27.442  1.00  0.00     0.148 A 
ATOM     74  C   UNL A   1      43.882  25.384  25.419  1.00  0.00     0.002 A 
ATOM     75  C   UNL A   1      42.565  23.609  26.418  1.00  0.00     0.091 A 
ATOM     76  F   UNL A   1      41.365  24.052  28.433  1.00  0.00    -0.205 F 
ATOM     77  C   UNL A   1      43.415  24.072  25.401  1.00  0.00     0.022 A 
BRANCH  75  78
ATOM     78  S   UNL A   1      42.083  21.881  26.353  1.00  0.00     0.127 S 
ATOM     79  O   UNL A   1      40.661  21.982  26.030  1.00  0.00    -0.237 OA
ATOM     80  O   UNL A   1      42.927  21.377  25.270  1.00  0.00    -0.237 OA
ATOM     81  O   UNL A   1      42.386  21.332  27.666  1.00  0.00    -0.744 OA
ENDBRANCH  75  78
ENDBRANCH  47  71
BRANCH  59  82
ATOM     82  C   UNL A   1      45.691  26.991  33.680  1.00  0.00     0.023 A 
ATOM     83  C   UNL A   1      46.879  27.743  33.623  1.00  0.00     0.012 A 
ATOM     84  C   UNL A   1      45.623  25.849  34.502  1.00  0.00     0.148 A 
ATOM     85  C   UNL A   1      47.985  27.369  34.386  1.00  0.00     0.002 A 
ATOM     86  C   UNL A   1      46.718  25.500  35.281  1.00  0.00     0.091 A 
ATOM     87  F   UNL A   1      44.476  25.157  34.534  1.00  0.00    -0.205 F 
ATOM     88  C   UNL A   1      47.899  26.258  35.224  1.00  0.00     0.022 A 
BRANCH  86  89
ATOM     89  S   UNL A   1      46.685  24.125  36.435  1.00  0.00     0.127 S 
ATOM     90  O   UNL A   1      48.050  24.147  36.962  1.00  0.00    -0.237 OA
ATOM     91  O   UNL A   1      45.656  24.545  37.386  1.00  0.00    -0.237 OA
ATOM     92  O   UNL A   1      46.350  22.944  35.652  1.00  0.00    -0.744 OA
ENDBRANCH  86  89
ENDBRANCH  59  82
ENDBRANCH  33  34
ENDBRANCH  25  28
ENDBRANCH   1  24
TORSDOF 15
ENDMDL
MODEL 2
REMARK VINA RESULT:     -12.8      5.938     10.657
REMARK SMILES N#Cc1ccc2c(c1)C=C(C(=O)NCCCNC(=O)c1ccc(-c3c4nc(c(-c5cccc(S(=O)(=O)[O-])c5F)c5ccc([nH]5)c(-c5cccc(S(=O)(=O)[O-])c5F)c5nc(c(-c6cccc(S(=O)(=O)[O-])c6F)c6ccc3[nH]6)C=C5)C=C4)cc1)[C@@H](C(F)(F)F)O2
REMARK SMILES IDX 16 1 15 2 14 3 13 4 11 5 12 6 10 8 3 9 4 10 8 11 5 12 7 13
REMARK SMILES IDX 6 14 9 15 88 16 83 17 2 18 1 19 84 20 85 21 86 22 87 23
REMARK SMILES IDX 17 24 18 25 19 27 20 28 21 29 82 30 22 31 81 32 23 33 24 34
REMARK SMILES IDX 25 35 75 36 26 37 80 38 74 39 76 40 27 41 79 42 73 43 72 44
REMARK SMILES IDX 28 46 60 47 40 48 59 49 41 50 44 51 58 52 77 53 42 54 43 55
REMARK SMILES IDX 57 57 78 58 45 59 29 60 30 61 38 62 31 63 33 64 39 65 32 66
REMARK SMILES IDX 34 67 35 68 36 69 37 70 61 71 62 72 70 73 63 74 65 75 71 76
REMARK SMILES IDX 64 77 66 78 67 79 68 80 69 81 46 82 47 83 55 84 48 85 50 86
REMARK SMILES IDX 56 87 49 88 51 89 52 90 53 91 54 92
REMARK H PARENT 13 7 17 26 76 45 44 56
REMARK Flexibility Score: inf
ROOT
ATOM      1  C   UNL A   1      37.035  22.616  24.925  1.00  0.00     0.118 C 
ENDROOT
BRANCH   1   2
ATOM      2  C   UNL A   1      35.954  22.883  25.958  1.00  0.00     0.042 C 
BRANCH   2   3
ATOM      3  C   UNL A   1      35.191  24.156  25.650  1.00  0.00     0.118 C 
BRANCH   3   4
ATOM      4  N   UNL A   1      33.813  24.096  26.116  1.00  0.00    -0.352 N 
ATOM      5  C   UNL A   1      32.740  23.291  25.930  1.00  0.00     0.251 C 
ATOM      6  O   UNL A   1      31.731  23.588  26.578  1.00  0.00    -0.270 OA
ATOM      7  H   UNL A   1      33.605  24.837  26.729  1.00  0.00     0.163 HD
BRANCH   5   8
ATOM      8  C   UNL A   1      32.714  22.105  25.024  1.00  0.00     0.067 C 
ATOM      9  C   UNL A   1      33.692  17.426  24.292  1.00  0.00     0.053 A 
ATOM     10  C   UNL A   1      33.025  17.483  23.064  1.00  0.00     0.023 A 
ATOM     11  C   UNL A   1      33.754  18.562  25.113  1.00  0.00     0.031 A 
ATOM     12  C   UNL A   1      32.423  18.670  22.655  1.00  0.00     0.048 A 
ATOM     13  C   UNL A   1      33.154  19.756  24.700  1.00  0.00     0.018 A 
ATOM     14  C   UNL A   1      32.498  19.797  23.469  1.00  0.00     0.128 A 
ATOM     15  C   UNL A   1      33.159  20.946  25.544  1.00  0.00     0.025 C 
ATOM     16  O   UNL A   1      31.859  20.907  23.005  1.00  0.00    -0.475 OA
ATOM     17  C   UNL A   1      32.249  22.170  23.599  1.00  0.00     0.314 C 
BRANCH   9  18
ATOM     18  C   UNL A   1      34.304  16.200  24.709  1.00  0.00     0.099 C 
ATOM     19  N   UNL A   1      34.794  15.205  25.056  1.00  0.00    -0.192 NA
ENDBRANCH   9  18
BRANCH  17  20
ATOM     20  C   UNL A   1      33.278  22.860  22.681  1.00  0.00     0.429 C 
ATOM     21  F   UNL A   1      33.230  24.206  22.839  1.00  0.00    -0.167 F 
ATOM     22  F   UNL A   1      34.554  22.489  22.943  1.00  0.00    -0.167 F 
ATOM     23  F   UNL A   1      33.063  22.598  21.371  1.00  0.00    -0.167 F 
ENDBRANCH  17  20
ENDBRANCH   5   8
ENDBRANCH   3   4
ENDBRANCH   2   3
ENDBRANCH   1   2
BRANCH   1  24
ATOM     24  N   UNL A   1      37.901  21.499  25.306  1.00  0.00    -0.352 N 
ATOM     25  C   UNL A   1      39.083  21.487  26.010  1.00  0.00     0.251 C 
ATOM     26  H   UNL A   1      37.588  20.614  25.011  1.00  0.00     0.163 HD
ATOM     27  O   UNL A   1      39.774  20.473  26.028  1.00  0.00    -0.269 OA
BRANCH  25  28
ATOM     28  C   UNL A   1      39.515  22.711  26.710  1.00  0.00     0.039 A 
ATOM     29  C   UNL A   1      38.990  23.940  26.320  1.00  0.00     0.014 A 
ATOM     30  C   UNL A   1      40.497  22.643  27.699  1.00  0.00     0.014 A 
ATOM     31  C   UNL A   1      39.634  25.101  26.706  1.00  0.00     0.010 A 
ATOM     32  C   UNL A   1      41.037  23.827  28.207  1.00  0.00     0.010 A 
ATOM     33  C   UNL A   1      40.664  25.064  27.658  1.00  0.00    -0.014 A 
BRANCH  33  34
ATOM     34  C   UNL A   1      41.324  26.337  28.044  1.00  0.00     0.031 A 
ATOM     35  C   UNL A   1      42.733  26.643  27.612  1.00  0.00     0.074 A 
ATOM     36  C   UNL A   1      40.612  27.252  28.733  1.00  0.00     0.049 A 
ATOM     37  N   UNL A   1      43.438  27.723  27.836  1.00  0.00    -0.248 NA
ATOM     38  C   UNL A   1      43.451  25.620  26.832  1.00  0.00     0.031 C 
ATOM     39  C   UNL A   1      39.237  27.069  29.208  1.00  0.00     0.029 A 
ATOM     40  N   UNL A   1      40.931  28.524  29.133  1.00  0.00    -0.354 N 
ATOM     41  C   UNL A   1      44.686  27.492  27.270  1.00  0.00     0.074 A 
ATOM     42  C   UNL A   1      44.652  26.168  26.694  1.00  0.00     0.031 C 
ATOM     43  C   UNL A   1      38.813  28.201  29.785  1.00  0.00     0.029 A 
ATOM     44  C   UNL A   1      39.909  29.162  29.796  1.00  0.00     0.049 A 
ATOM     45  H   UNL A   1      41.807  28.941  28.963  1.00  0.00     0.167 HD
ATOM     46  C   UNL A   1      45.755  28.318  27.220  1.00  0.00     0.034 A 
ATOM     47  C   UNL A   1      39.858  30.375  30.375  1.00  0.00     0.034 A 
ATOM     48  C   UNL A   1      45.770  29.652  27.753  1.00  0.00     0.049 A 
ATOM     49  C   UNL A   1      41.066  31.259  30.325  1.00  0.00     0.074 A 
ATOM     50  C   UNL A   1      46.798  30.577  27.706  1.00  0.00     0.029 A 
ATOM     51  N   UNL A   1      44.720  30.248  28.431  1.00  0.00    -0.354 N 
ATOM     52  N   UNL A   1      42.211  31.043  29.727  1.00  0.00    -0.248 NA
ATOM     53  C   UNL A   1      40.977  32.553  31.014  1.00  0.00     0.031 C 
ATOM     54  C   UNL A   1      46.380  31.723  28.383  1.00  0.00     0.029 A 
ATOM     55  C   UNL A   1      45.081  31.524  28.821  1.00  0.00     0.049 A 
ATOM     56  H   UNL A   1      43.849  29.826  28.609  1.00  0.00     0.167 HD
ATOM     57  C   UNL A   1      42.976  32.179  29.952  1.00  0.00     0.074 A 
ATOM     58  C   UNL A   1      42.158  33.088  30.729  1.00  0.00     0.031 C 
ATOM     59  C   UNL A   1      44.243  32.436  29.556  1.00  0.00     0.034 A 
BRANCH  46  60
ATOM     60  C   UNL A   1      47.004  27.836  26.535  1.00  0.00     0.023 A 
ATOM     61  C   UNL A   1      47.954  27.095  27.264  1.00  0.00     0.012 A 
ATOM     62  C   UNL A   1      47.168  28.003  25.145  1.00  0.00     0.148 A 
ATOM     63  C   UNL A   1      49.053  26.527  26.621  1.00  0.00     0.002 A 
ATOM     64  C   UNL A   1      48.251  27.412  24.507  1.00  0.00     0.091 A 
ATOM     65  F   UNL A   1      46.251  28.715  24.476  1.00  0.00    -0.205 F 
ATOM     66  C   UNL A   1      49.193  26.674  25.242  1.00  0.00     0.022 A 
BRANCH  64  67
ATOM     67  S   UNL A   1      48.506  27.507  22.732  1.00  0.00     0.127 S 
ATOM     68  O   UNL A   1      49.778  28.227  22.658  1.00  0.00    -0.237 OA
ATOM     69  O   UNL A   1      48.581  26.096  22.356  1.00  0.00    -0.237 OA
ATOM     70  O   UNL A   1      47.360  28.228  22.195  1.00  0.00    -0.744 OA
ENDBRANCH  64  67
ENDBRANCH  46  60
BRANCH  47  71
ATOM     71  C   UNL A   1      38.598  30.809  31.034  1.00  0.00     0.023 A 
ATOM     72  C   UNL A   1      38.458  30.662  32.425  1.00  0.00     0.012 A 
ATOM     73  C   UNL A   1      37.581  31.448  30.297  1.00  0.00     0.148 A 
ATOM     74  C   UNL A   1      37.322  31.145  33.075  1.00  0.00     0.002 A 
ATOM     75  C   UNL A   1      36.469  31.957  30.953  1.00  0.00     0.091 A 
ATOM     76  F   UNL A   1      37.748  31.581  28.974  1.00  0.00    -0.205 F 
ATOM     77  C   UNL A   1      36.334  31.800  32.343  1.00  0.00     0.022 A 
BRANCH  75  78
ATOM     78  S   UNL A   1      35.187  32.887  30.109  1.00  0.00     0.127 S 
ATOM     79  O   UNL A   1      34.733  31.925  29.108  1.00  0.00    -0.237 OA
ATOM     80  O   UNL A   1      34.240  33.140  31.195  1.00  0.00    -0.237 OA
ATOM     81  O   UNL A   1      35.838  34.076  29.581  1.00  0.00    -0.744 OA
ENDBRANCH  75  78
ENDBRANCH  47  71
BRANCH  59  82
ATOM     82  C   UNL A   1      44.850  33.760  29.921  1.00  0.00     0.023 A 
ATOM     83  C   UNL A   1      45.636  33.864  31.083  1.00  0.00     0.012 A 
ATOM     84  C   UNL A   1      44.776  34.844  29.025  1.00  0.00     0.148 A 
ATOM     85  C   UNL A   1      46.350  35.032  31.346  1.00  0.00     0.002 A 
ATOM     86  C   UNL A   1      45.514  35.993  29.278  1.00  0.00     0.091 A 
ATOM     87  F   UNL A   1      44.020  34.711  27.926  1.00  0.00    -0.205 F 
ATOM     88  C   UNL A   1      46.300  36.089  30.438  1.00  0.00     0.022 A 
BRANCH  86  89
ATOM     89  S   UNL A   1      45.562  37.382  28.141  1.00  0.00     0.127 S 
ATOM     90  O   UNL A   1      46.089  36.754  26.929  1.00  0.00    -0.237 OA
ATOM     91  O   UNL A   1      44.154  37.769  28.066  1.00  0.00    -0.237 OA
ATOM     92  O   UNL A   1      46.439  38.374  28.747  1.00  0.00    -0.744 OA
ENDBRANCH  86  89
ENDBRANCH  59  82
ENDBRANCH  33  34
ENDBRANCH  25  28
ENDBRANCH   1  24
TORSDOF 15
ENDMDL
MODEL 3
REMARK VINA RESULT:     -12.8      1.948      3.638
REMARK SMILES N#Cc1ccc2c(c1)C=C(C(=O)NCCCNC(=O)c1ccc(-c3c4nc(c(-c5cccc(S(=O)(=O)[O-])c5F)c5ccc([nH]5)c(-c5cccc(S(=O)(=O)[O-])c5F)c5nc(c(-c6cccc(S(=O)(=O)[O-])c6F)c6ccc3[nH]6)C=C5)C=C4)cc1)[C@@H](C(F)(F)F)O2
REMARK SMILES IDX 16 1 15 2 14 3 13 4 11 5 12 6 10 8 3 9 4 10 8 11 5 12 7 13
REMARK SMILES IDX 6 14 9 15 88 16 83 17 2 18 1 19 84 20 85 21 86 22 87 23
REMARK SMILES IDX 17 24 18 25 19 27 20 28 21 29 82 30 22 31 81 32 23 33 24 34
REMARK SMILES IDX 25 35 75 36 26 37 80 38 74 39 76 40 27 41 79 42 73 43 72 44
REMARK SMILES IDX 28 46 60 47 40 48 59 49 41 50 44 51 58 52 77 53 42 54 43 55
REMARK SMILES IDX 57 57 78 58 45 59 29 60 30 61 38 62 31 63 33 64 39 65 32 66
REMARK SMILES IDX 34 67 35 68 36 69 37 70 61 71 62 72 70 73 63 74 65 75 71 76
REMARK SMILES IDX 64 77 66 78 67 79 68 80 69 81 46 82 47 83 55 84 48 85 50 86
REMARK SMILES IDX 56 87 49 88 51 89 52 90 53 91 54 92
REMARK H PARENT 13 7 17 26 76 45 44 56
REMARK Flexibility Score: inf
ROOT
ATOM      1  C   UNL A   1      32.152  30.287  26.774  1.00  0.00     0.118 C 
ENDROOT
BRANCH   1   2
ATOM      2  C   UNL A   1      31.784  29.849  25.367  1.00  0.00     0.042 C 
BRANCH   2   3
ATOM      3  C   UNL A   1      32.992  29.337  24.609  1.00  0.00     0.118 C 
BRANCH   3   4
ATOM      4  N   UNL A   1      32.616  28.515  23.468  1.00  0.00    -0.352 N 
ATOM      5  C   UNL A   1      32.479  27.194  23.203  1.00  0.00     0.251 C 
ATOM      6  O   UNL A   1      32.080  26.915  22.067  1.00  0.00    -0.270 OA
ATOM      7  H   UNL A   1      32.404  29.064  22.680  1.00  0.00     0.163 HD
BRANCH   5   8
ATOM      8  C   UNL A   1      32.769  26.098  24.173  1.00  0.00     0.067 C 
ATOM      9  C   UNL A   1      35.462  22.284  25.436  1.00  0.00     0.053 A 
ATOM     10  C   UNL A   1      34.801  22.230  26.668  1.00  0.00     0.023 A 
ATOM     11  C   UNL A   1      35.145  23.289  24.511  1.00  0.00     0.031 A 
ATOM     12  C   UNL A   1      33.827  23.176  26.974  1.00  0.00     0.048 A 
ATOM     13  C   UNL A   1      34.161  24.236  24.816  1.00  0.00     0.018 A 
ATOM     14  C   UNL A   1      33.508  24.164  26.047  1.00  0.00     0.128 A 
ATOM     15  C   UNL A   1      33.834  25.322  23.899  1.00  0.00     0.025 C 
ATOM     16  O   UNL A   1      32.563  25.063  26.438  1.00  0.00    -0.475 OA
ATOM     17  C   UNL A   1      31.926  25.829  25.386  1.00  0.00     0.314 C 
BRANCH   9  18
ATOM     18  C   UNL A   1      36.468  21.312  25.130  1.00  0.00     0.099 C 
ATOM     19  N   UNL A   1      37.284  20.527  24.869  1.00  0.00    -0.192 NA
ENDBRANCH   9  18
BRANCH  17  20
ATOM     20  C   UNL A   1      30.581  25.166  25.025  1.00  0.00     0.429 C 
ATOM     21  F   UNL A   1      30.041  24.565  26.114  1.00  0.00    -0.167 F 
ATOM     22  F   UNL A   1      29.659  26.051  24.578  1.00  0.00    -0.167 F 
ATOM     23  F   UNL A   1      30.709  24.223  24.064  1.00  0.00    -0.167 F 
ENDBRANCH  17  20
ENDBRANCH   5   8
ENDBRANCH   3   4
ENDBRANCH   2   3
ENDBRANCH   1   2
BRANCH   1  24
ATOM     24  N   UNL A   1      32.111  31.742  26.930  1.00  0.00    -0.352 N 
ATOM     25  C   UNL A   1      33.011  32.604  27.514  1.00  0.00     0.251 C 
ATOM     26  H   UNL A   1      31.309  32.175  26.556  1.00  0.00     0.163 HD
ATOM     27  O   UNL A   1      32.685  33.763  27.746  1.00  0.00    -0.269 OA
BRANCH  25  28
ATOM     28  C   UNL A   1      34.348  32.104  27.880  1.00  0.00     0.039 A 
ATOM     29  C   UNL A   1      34.530  30.741  28.103  1.00  0.00     0.014 A 
ATOM     30  C   UNL A   1      35.401  32.998  28.075  1.00  0.00     0.014 A 
ATOM     31  C   UNL A   1      35.655  30.313  28.782  1.00  0.00     0.010 A 
ATOM     32  C   UNL A   1      36.602  32.532  28.615  1.00  0.00     0.010 A 
ATOM     33  C   UNL A   1      36.711  31.200  29.045  1.00  0.00    -0.014 A 
BRANCH  33  34
ATOM     34  C   UNL A   1      37.903  30.694  29.773  1.00  0.00     0.031 A 
ATOM     35  C   UNL A   1      38.148  31.063  31.212  1.00  0.00     0.074 A 
ATOM     36  C   UNL A   1      38.730  29.835  29.143  1.00  0.00     0.049 A 
ATOM     37  N   UNL A   1      39.120  30.677  31.998  1.00  0.00    -0.248 NA
ATOM     38  C   UNL A   1      37.191  31.978  31.860  1.00  0.00     0.031 C 
ATOM     39  C   UNL A   1      38.596  29.403  27.748  1.00  0.00     0.029 A 
ATOM     40  N   UNL A   1      39.831  29.153  29.593  1.00  0.00    -0.354 N 
ATOM     41  C   UNL A   1      38.920  31.331  33.207  1.00  0.00     0.074 A 
ATOM     42  C   UNL A   1      37.737  32.147  33.057  1.00  0.00     0.031 C 
ATOM     43  C   UNL A   1      39.539  28.492  27.474  1.00  0.00     0.029 A 
ATOM     44  C   UNL A   1      40.395  28.335  28.642  1.00  0.00     0.049 A 
ATOM     45  H   UNL A   1      40.183  29.240  30.509  1.00  0.00     0.167 HD
ATOM     46  C   UNL A   1      39.647  31.244  34.344  1.00  0.00     0.034 A 
ATOM     47  C   UNL A   1      41.494  27.561  28.688  1.00  0.00     0.034 A 
ATOM     48  C   UNL A   1      40.795  30.396  34.504  1.00  0.00     0.049 A 
ATOM     49  C   UNL A   1      42.294  27.503  29.954  1.00  0.00     0.074 A 
ATOM     50  C   UNL A   1      41.566  30.210  35.638  1.00  0.00     0.029 A 
ATOM     51  N   UNL A   1      41.340  29.601  33.510  1.00  0.00    -0.354 N 
ATOM     52  N   UNL A   1      42.046  28.081  31.102  1.00  0.00    -0.248 NA
ATOM     53  C   UNL A   1      43.512  26.683  29.938  1.00  0.00     0.031 C 
ATOM     54  C   UNL A   1      42.597  29.326  35.321  1.00  0.00     0.029 A 
ATOM     55  C   UNL A   1      42.447  28.934  34.000  1.00  0.00     0.049 A 
ATOM     56  H   UNL A   1      40.992  29.523  32.593  1.00  0.00     0.167 HD
ATOM     57  C   UNL A   1      43.067  27.683  31.954  1.00  0.00     0.074 A 
ATOM     58  C   UNL A   1      43.930  26.802  31.192  1.00  0.00     0.031 C 
ATOM     59  C   UNL A   1      43.272  28.027  33.246  1.00  0.00     0.034 A 
BRANCH  46  60
ATOM     60  C   UNL A   1      39.217  32.055  35.535  1.00  0.00     0.023 A 
ATOM     61  C   UNL A   1      39.464  33.440  35.558  1.00  0.00     0.012 A 
ATOM     62  C   UNL A   1      38.454  31.466  36.564  1.00  0.00     0.148 A 
ATOM     63  C   UNL A   1      38.960  34.232  36.590  1.00  0.00     0.002 A 
ATOM     64  C   UNL A   1      37.933  32.265  37.574  1.00  0.00     0.091 A 
ATOM     65  F   UNL A   1      38.237  30.144  36.520  1.00  0.00    -0.205 F 
ATOM     66  C   UNL A   1      38.184  33.646  37.588  1.00  0.00     0.022 A 
BRANCH  64  67
ATOM     67  S   UNL A   1      36.891  31.619  38.887  1.00  0.00     0.127 S 
ATOM     68  O   UNL A   1      37.816  31.615  40.019  1.00  0.00    -0.237 OA
ATOM     69  O   UNL A   1      35.836  32.629  38.965  1.00  0.00    -0.237 OA
ATOM     70  O   UNL A   1      36.452  30.302  38.446  1.00  0.00    -0.744 OA
ENDBRANCH  64  67
ENDBRANCH  46  60
BRANCH  47  71
ATOM     71  C   UNL A   1      41.874  26.774  27.486  1.00  0.00     0.023 A 
ATOM     72  C   UNL A   1      42.529  27.412  26.418  1.00  0.00     0.012 A 
ATOM     73  C   UNL A   1      41.668  25.381  27.441  1.00  0.00     0.148 A 
ATOM     74  C   UNL A   1      42.975  26.674  25.321  1.00  0.00     0.002 A 
ATOM     75  C   UNL A   1      42.144  24.647  26.363  1.00  0.00     0.091 A 
ATOM     76  F   UNL A   1      41.049  24.800  28.479  1.00  0.00    -0.205 F 
ATOM     77  C   UNL A   1      42.792  25.294  25.298  1.00  0.00     0.022 A 
BRANCH  75  78
ATOM     78  S   UNL A   1      42.029  22.857  26.282  1.00  0.00     0.127 S 
ATOM     79  O   UNL A   1      40.585  22.650  26.349  1.00  0.00    -0.237 OA
ATOM     80  O   UNL A   1      42.633  22.579  24.979  1.00  0.00    -0.237 OA
ATOM     81  O   UNL A   1      42.785  22.358  27.421  1.00  0.00    -0.744 OA
ENDBRANCH  75  78
ENDBRANCH  47  71
BRANCH  59  82
ATOM     82  C   UNL A   1      44.458  27.446  33.960  1.00  0.00     0.023 A 
ATOM     83  C   UNL A   1      45.668  28.163  33.988  1.00  0.00     0.012 A 
ATOM     84  C   UNL A   1      44.317  26.278  34.735  1.00  0.00     0.148 A 
ATOM     85  C   UNL A   1      46.724  27.729  34.788  1.00  0.00     0.002 A 
ATOM     86  C   UNL A   1      45.362  25.869  35.552  1.00  0.00     0.091 A 
ATOM     87  F   UNL A   1      43.150  25.620  34.686  1.00  0.00    -0.205 F 
ATOM     88  C   UNL A   1      46.566  26.592  35.580  1.00  0.00     0.022 A 
BRANCH  86  89
ATOM     89  S   UNL A   1      45.233  24.455  36.652  1.00  0.00     0.127 S 
ATOM     90  O   UNL A   1      44.177  24.887  37.567  1.00  0.00    -0.237 OA
ATOM     91  O   UNL A   1      44.846  23.385  35.734  1.00  0.00    -0.237 OA
ATOM     92  O   UNL A   1      46.545  24.295  37.264  1.00  0.00    -0.744 OA
ENDBRANCH  86  89
ENDBRANCH  59  82
ENDBRANCH  33  34
ENDBRANCH  25  28
ENDBRANCH   1  24
TORSDOF 15
ENDMDL
