MODEL 1
REMARK VINA RESULT:     -12.2      0.000      0.000
REMARK SMILES O=C(NCCCNC(=O)[C@@H]1CC[C@H](CNC(=O)C2CCOCC2)O1)c1ccc(-c2c3nc(c(-c4cccc(S(=O)(=O)[O-])c4F)c4ccc([nH]4)c(-c4cccc(S(=O)(=O)[O-])c4F)c4nc(c(-c5cccc(S(=O)(=O)[O-])c5F)c5ccc2[nH]5)C=C4)C=C3)cc1
REMARK SMILES IDX 5 1 4 2 3 3 1 4 2 5 25 7 26 8 87 9 27 10 86 11 28 12 29 13
REMARK SMILES IDX 30 14 80 15 31 16 85 17 79 18 81 19 32 20 84 21 78 22 77 23
REMARK SMILES IDX 33 25 65 26 45 27 64 28 46 29 49 30 63 31 82 32 47 33 48 34
REMARK SMILES IDX 62 36 83 37 50 38 34 39 35 40 43 41 36 42 38 43 44 44 37 45
REMARK SMILES IDX 39 46 40 47 41 48 42 49 66 50 67 51 75 52 68 53 70 54 76 55
REMARK SMILES IDX 69 56 71 57 72 58 73 59 74 60 51 61 52 62 60 63 53 64 55 65
REMARK SMILES IDX 61 66 54 67 56 68 57 69 58 70 59 71 6 72 7 73 8 74 9 76
REMARK SMILES IDX 10 77 11 78 24 79 12 80 13 81 14 82 15 83 16 84 17 86 18 87
REMARK SMILES IDX 19 88 23 89 20 90 22 91 21 92
REMARK H PARENT 3 6 81 24 49 35 7 75 15 85
REMARK Flexibility Score: inf
ROOT
ATOM      1  C   UNL A   1      31.380  31.722  26.338  1.00  0.00     0.042 C 
ENDROOT
BRANCH   1   2
ATOM      2  C   UNL A   1      32.664  32.277  26.931  1.00  0.00     0.118 C 
BRANCH   2   3
ATOM      3  N   UNL A   1      32.520  33.650  27.391  1.00  0.00    -0.352 N 
ATOM      4  O   UNL A   1      32.789  35.410  28.766  1.00  0.00    -0.269 OA
ATOM      5  C   UNL A   1      33.193  34.313  28.390  1.00  0.00     0.251 C 
ATOM      6  H   UNL A   1      31.841  34.184  26.917  1.00  0.00     0.163 HD
BRANCH   5   7
ATOM      7  C   UNL A   1      34.382  33.693  29.014  1.00  0.00     0.039 A 
ATOM      8  C   UNL A   1      34.236  32.636  29.915  1.00  0.00     0.014 A 
ATOM      9  C   UNL A   1      35.658  34.155  28.679  1.00  0.00     0.014 A 
ATOM     10  C   UNL A   1      35.343  32.143  30.592  1.00  0.00     0.010 A 
ATOM     11  C   UNL A   1      36.783  33.582  29.281  1.00  0.00     0.010 A 
ATOM     12  C   UNL A   1      36.632  32.582  30.254  1.00  0.00    -0.014 A 
BRANCH  12  13
ATOM     13  C   UNL A   1      37.802  31.870  30.826  1.00  0.00     0.031 A 
ATOM     14  C   UNL A   1      38.550  30.822  30.052  1.00  0.00     0.074 A 
ATOM     15  C   UNL A   1      38.170  32.181  32.086  1.00  0.00     0.049 A 
ATOM     16  N   UNL A   1      39.593  30.126  30.421  1.00  0.00    -0.248 NA
ATOM     17  C   UNL A   1      38.070  30.507  28.697  1.00  0.00     0.031 C 
ATOM     18  C   UNL A   1      37.479  33.146  32.949  1.00  0.00     0.029 A 
ATOM     19  N   UNL A   1      39.199  31.721  32.866  1.00  0.00    -0.354 N 
ATOM     20  C   UNL A   1      39.869  29.260  29.372  1.00  0.00     0.074 A 
ATOM     21  C   UNL A   1      38.889  29.524  28.340  1.00  0.00     0.031 C 
ATOM     22  C   UNL A   1      38.108  33.214  34.129  1.00  0.00     0.029 A 
ATOM     23  C   UNL A   1      39.204  32.255  34.133  1.00  0.00     0.049 A 
ATOM     24  H   UNL A   1      39.868  31.072  32.549  1.00  0.00     0.167 HD
ATOM     25  C   UNL A   1      40.857  28.337  29.279  1.00  0.00     0.034 A 
ATOM     26  C   UNL A   1      39.979  31.979  35.199  1.00  0.00     0.034 A 
ATOM     27  C   UNL A   1      41.849  28.110  30.298  1.00  0.00     0.049 A 
ATOM     28  C   UNL A   1      41.069  30.959  35.052  1.00  0.00     0.074 A 
ATOM     29  C   UNL A   1      42.949  27.271  30.251  1.00  0.00     0.029 A 
ATOM     30  N   UNL A   1      41.851  28.700  31.552  1.00  0.00    -0.354 N 
ATOM     31  N   UNL A   1      41.421  30.279  33.989  1.00  0.00    -0.248 NA
ATOM     32  C   UNL A   1      41.883  30.684  36.243  1.00  0.00     0.031 C 
ATOM     33  C   UNL A   1      43.594  27.325  31.490  1.00  0.00     0.029 A 
ATOM     34  C   UNL A   1      42.913  28.220  32.299  1.00  0.00     0.049 A 
ATOM     35  H   UNL A   1      41.194  29.363  31.866  1.00  0.00     0.167 HD
ATOM     36  C   UNL A   1      42.505  29.504  34.378  1.00  0.00     0.074 A 
ATOM     37  C   UNL A   1      42.778  29.832  35.762  1.00  0.00     0.031 C 
ATOM     38  C   UNL A   1      43.197  28.584  33.663  1.00  0.00     0.034 A 
BRANCH  25  39
ATOM     39  C   UNL A   1      40.951  27.506  28.027  1.00  0.00     0.023 A 
ATOM     40  C   UNL A   1      41.565  28.042  26.878  1.00  0.00     0.012 A 
ATOM     41  C   UNL A   1      40.555  26.153  28.034  1.00  0.00     0.148 A 
ATOM     42  C   UNL A   1      41.774  27.247  25.751  1.00  0.00     0.002 A 
ATOM     43  C   UNL A   1      40.802  25.358  26.921  1.00  0.00     0.091 A 
ATOM     44  F   UNL A   1      39.960  25.669  29.133  1.00  0.00    -0.205 F 
ATOM     45  C   UNL A   1      41.406  25.905  25.777  1.00  0.00     0.022 A 
BRANCH  43  46
ATOM     46  S   UNL A   1      40.439  23.598  26.882  1.00  0.00     0.127 S 
ATOM     47  O   UNL A   1      40.881  23.176  28.210  1.00  0.00    -0.237 OA
ATOM     48  O   UNL A   1      38.987  23.590  26.693  1.00  0.00    -0.237 OA
ATOM     49  O   UNL A   1      41.205  23.052  25.771  1.00  0.00    -0.744 OA
ENDBRANCH  43  46
ENDBRANCH  25  39
BRANCH  26  50
ATOM     50  C   UNL A   1      39.745  32.680  36.491  1.00  0.00     0.023 A 
ATOM     51  C   UNL A   1      40.513  33.811  36.823  1.00  0.00     0.012 A 
ATOM     52  C   UNL A   1      38.748  32.240  37.384  1.00  0.00     0.148 A 
ATOM     53  C   UNL A   1      40.317  34.470  38.037  1.00  0.00     0.002 A 
ATOM     54  C   UNL A   1      38.514  32.940  38.561  1.00  0.00     0.091 A 
ATOM     55  F   UNL A   1      38.037  31.150  37.062  1.00  0.00    -0.205 F 
ATOM     56  C   UNL A   1      39.311  34.043  38.900  1.00  0.00     0.022 A 
BRANCH  54  57
ATOM     57  S   UNL A   1      37.139  32.538  39.645  1.00  0.00     0.127 S 
ATOM     58  O   UNL A   1      36.001  32.646  38.737  1.00  0.00    -0.237 OA
ATOM     59  O   UNL A   1      37.465  31.175  40.064  1.00  0.00    -0.237 OA
ATOM     60  O   UNL A   1      37.198  33.521  40.719  1.00  0.00    -0.744 OA
ENDBRANCH  54  57
ENDBRANCH  26  50
BRANCH  38  61
ATOM     61  C   UNL A   1      44.322  27.871  34.363  1.00  0.00     0.023 A 
ATOM     62  C   UNL A   1      45.614  28.431  34.350  1.00  0.00     0.012 A 
ATOM     63  C   UNL A   1      44.089  26.681  35.079  1.00  0.00     0.148 A 
ATOM     64  C   UNL A   1      46.667  27.800  35.009  1.00  0.00     0.002 A 
ATOM     65  C   UNL A   1      45.132  26.084  35.775  1.00  0.00     0.091 A 
ATOM     66  F   UNL A   1      42.855  26.156  35.064  1.00  0.00    -0.205 F 
ATOM     67  C   UNL A   1      46.423  26.634  35.731  1.00  0.00     0.022 A 
BRANCH  65  68
ATOM     68  S   UNL A   1      44.896  24.632  36.806  1.00  0.00     0.127 S 
ATOM     69  O   UNL A   1      43.839  25.079  37.713  1.00  0.00    -0.237 OA
ATOM     70  O   UNL A   1      44.477  23.624  35.831  1.00  0.00    -0.237 OA
ATOM     71  O   UNL A   1      46.184  24.369  37.433  1.00  0.00    -0.744 OA
ENDBRANCH  65  68
ENDBRANCH  38  61
ENDBRANCH  12  13
ENDBRANCH   5   7
ENDBRANCH   2   3
ENDBRANCH   1   2
BRANCH   1  72
ATOM     72  C   UNL A   1      31.476  30.261  25.934  1.00  0.00     0.117 C 
BRANCH  72  73
ATOM     73  N   UNL A   1      32.655  29.990  25.126  1.00  0.00    -0.354 N 
ATOM     74  C   UNL A   1      33.127  28.795  24.663  1.00  0.00     0.249 C 
ATOM     75  H   UNL A   1      33.187  30.780  24.878  1.00  0.00     0.163 HD
ATOM     76  O   UNL A   1      34.161  28.800  23.992  1.00  0.00    -0.272 OA
BRANCH  74  77
ATOM     77  C   UNL A   1      32.392  27.498  25.039  1.00  0.00     0.207 C 
ATOM     78  C   UNL A   1      32.599  26.394  24.008  1.00  0.00     0.045 C 
ATOM     79  O   UNL A   1      30.973  27.690  25.146  1.00  0.00    -0.363 OA
ATOM     80  C   UNL A   1      31.285  25.651  24.040  1.00  0.00     0.037 C 
ATOM     81  C   UNL A   1      30.284  26.760  24.307  1.00  0.00     0.138 C 
BRANCH  81  82
ATOM     82  C   UNL A   1      29.815  27.498  23.040  1.00  0.00     0.147 C 
BRANCH  82  83
ATOM     83  N   UNL A   1      28.414  27.870  23.115  1.00  0.00    -0.353 N 
ATOM     84  C   UNL A   1      27.744  29.042  23.053  1.00  0.00     0.223 C 
ATOM     85  H   UNL A   1      27.819  27.095  23.239  1.00  0.00     0.163 HD
ATOM     86  O   UNL A   1      26.527  28.949  23.271  1.00  0.00    -0.275 OA
BRANCH  84  87
ATOM     87  C   UNL A   1      28.329  30.411  22.680  1.00  0.00     0.083 C 
ATOM     88  C   UNL A   1      28.188  31.599  23.626  1.00  0.00     0.042 C 
ATOM     89  C   UNL A   1      27.784  30.789  21.288  1.00  0.00     0.042 C 
ATOM     90  C   UNL A   1      28.712  32.888  22.998  1.00  0.00     0.161 C 
ATOM     91  C   UNL A   1      28.339  32.119  20.804  1.00  0.00     0.161 C 
ATOM     92  O   UNL A   1      28.069  33.143  21.754  1.00  0.00    -0.381 OA
ENDBRANCH  84  87
ENDBRANCH  82  83
ENDBRANCH  81  82
ENDBRANCH  74  77
ENDBRANCH  72  73
ENDBRANCH   1  72
TORSDOF 16
ENDMDL
MODEL 2
REMARK VINA RESULT:     -12.0      6.753     12.145
REMARK SMILES O=C(NCCCNC(=O)[C@@H]1CC[C@H](CNC(=O)C2CCOCC2)O1)c1ccc(-c2c3nc(c(-c4cccc(S(=O)(=O)[O-])c4F)c4ccc([nH]4)c(-c4cccc(S(=O)(=O)[O-])c4F)c4nc(c(-c5cccc(S(=O)(=O)[O-])c5F)c5ccc2[nH]5)C=C4)C=C3)cc1
REMARK SMILES IDX 5 1 4 2 3 3 1 4 2 5 25 7 26 8 87 9 27 10 86 11 28 12 29 13
REMARK SMILES IDX 30 14 80 15 31 16 85 17 79 18 81 19 32 20 84 21 78 22 77 23
REMARK SMILES IDX 33 25 65 26 45 27 64 28 46 29 49 30 63 31 82 32 47 33 48 34
REMARK SMILES IDX 62 36 83 37 50 38 34 39 35 40 43 41 36 42 38 43 44 44 37 45
REMARK SMILES IDX 39 46 40 47 41 48 42 49 66 50 67 51 75 52 68 53 70 54 76 55
REMARK SMILES IDX 69 56 71 57 72 58 73 59 74 60 51 61 52 62 60 63 53 64 55 65
REMARK SMILES IDX 61 66 54 67 56 68 57 69 58 70 59 71 6 72 7 73 8 74 9 76
REMARK SMILES IDX 10 77 11 78 24 79 12 80 13 81 14 82 15 83 16 84 17 86 18 87
REMARK SMILES IDX 19 88 23 89 20 90 22 91 21 92
REMARK H PARENT 3 6 81 24 49 35 7 75 15 85
REMARK Flexibility Score: inf
ROOT
ATOM      1  C   UNL A   1      37.510  19.660  24.996  1.00  0.00     0.042 C 
ENDROOT
BRANCH   1   2
ATOM      2  C   UNL A   1      38.687  20.252  25.752  1.00  0.00     0.118 C 
BRANCH   2   3
ATOM      3  N   UNL A   1      39.776  19.302  25.925  1.00  0.00    -0.352 N 
ATOM      4  O   UNL A   1      41.910  18.606  26.073  1.00  0.00    -0.269 OA
ATOM      5  C   UNL A   1      41.110  19.535  26.159  1.00  0.00     0.251 C 
ATOM      6  H   UNL A   1      39.519  18.353  25.866  1.00  0.00     0.163 HD
BRANCH   5   7
ATOM      7  C   UNL A   1      41.574  20.899  26.491  1.00  0.00     0.039 A 
ATOM      8  C   UNL A   1      41.511  21.918  25.537  1.00  0.00     0.014 A 
ATOM      9  C   UNL A   1      42.052  21.173  27.775  1.00  0.00     0.014 A 
ATOM     10  C   UNL A   1      42.062  23.162  25.813  1.00  0.00     0.010 A 
ATOM     11  C   UNL A   1      42.506  22.458  28.087  1.00  0.00     0.010 A 
ATOM     12  C   UNL A   1      42.529  23.458  27.103  1.00  0.00    -0.014 A 
BRANCH  12  13
ATOM     13  C   UNL A   1      42.892  24.860  27.426  1.00  0.00     0.031 A 
ATOM     14  C   UNL A   1      41.916  25.805  28.067  1.00  0.00     0.074 A 
ATOM     15  C   UNL A   1      44.135  25.276  27.108  1.00  0.00     0.049 A 
ATOM     16  N   UNL A   1      42.096  27.053  28.413  1.00  0.00    -0.248 NA
ATOM     17  C   UNL A   1      40.565  25.295  28.352  1.00  0.00     0.031 C 
ATOM     18  C   UNL A   1      45.147  24.455  26.432  1.00  0.00     0.029 A 
ATOM     19  N   UNL A   1      44.761  26.481  27.294  1.00  0.00    -0.354 N 
ATOM     20  C   UNL A   1      40.879  27.494  28.913  1.00  0.00     0.074 A 
ATOM     21  C   UNL A   1      39.963  26.377  28.836  1.00  0.00     0.031 C 
ATOM     22  C   UNL A   1      46.265  25.174  26.273  1.00  0.00     0.029 A 
ATOM     23  C   UNL A   1      46.032  26.522  26.773  1.00  0.00     0.049 A 
ATOM     24  H   UNL A   1      44.340  27.242  27.756  1.00  0.00     0.167 HD
ATOM     25  C   UNL A   1      40.561  28.720  29.397  1.00  0.00     0.034 A 
ATOM     26  C   UNL A   1      46.906  27.541  26.671  1.00  0.00     0.034 A 
ATOM     27  C   UNL A   1      41.493  29.812  29.502  1.00  0.00     0.049 A 
ATOM     28  C   UNL A   1      46.522  28.879  27.231  1.00  0.00     0.074 A 
ATOM     29  C   UNL A   1      41.292  31.057  30.074  1.00  0.00     0.029 A 
ATOM     30  N   UNL A   1      42.787  29.807  29.005  1.00  0.00    -0.354 N 
ATOM     31  N   UNL A   1      45.424  29.223  27.858  1.00  0.00    -0.248 NA
ATOM     32  C   UNL A   1      47.502  29.962  27.088  1.00  0.00     0.031 C 
ATOM     33  C   UNL A   1      42.452  31.816  29.890  1.00  0.00     0.029 A 
ATOM     34  C   UNL A   1      43.385  31.036  29.228  1.00  0.00     0.049 A 
ATOM     35  H   UNL A   1      43.217  29.042  28.559  1.00  0.00     0.167 HD
ATOM     36  C   UNL A   1      45.587  30.560  28.197  1.00  0.00     0.074 A 
ATOM     37  C   UNL A   1      46.906  30.949  27.743  1.00  0.00     0.031 C 
ATOM     38  C   UNL A   1      44.713  31.397  28.806  1.00  0.00     0.034 A 
BRANCH  25  39
ATOM     39  C   UNL A   1      39.157  28.960  29.884  1.00  0.00     0.023 A 
ATOM     40  C   UNL A   1      38.812  28.632  31.210  1.00  0.00     0.012 A 
ATOM     41  C   UNL A   1      38.223  29.634  29.071  1.00  0.00     0.148 A 
ATOM     42  C   UNL A   1      37.555  28.962  31.716  1.00  0.00     0.002 A 
ATOM     43  C   UNL A   1      36.987  29.994  29.595  1.00  0.00     0.091 A 
ATOM     44  F   UNL A   1      38.569  29.923  27.809  1.00  0.00    -0.205 F 
ATOM     45  C   UNL A   1      36.650  29.654  30.916  1.00  0.00     0.022 A 
BRANCH  43  46
ATOM     46  S   UNL A   1      35.781  30.955  28.673  1.00  0.00     0.127 S 
ATOM     47  O   UNL A   1      35.083  29.911  27.924  1.00  0.00    -0.237 OA
ATOM     48  O   UNL A   1      34.993  31.565  29.745  1.00  0.00    -0.237 OA
ATOM     49  O   UNL A   1      36.545  31.894  27.864  1.00  0.00    -0.744 OA
ENDBRANCH  43  46
ENDBRANCH  25  39
BRANCH  26  50
ATOM     50  C   UNL A   1      48.224  27.329  26.011  1.00  0.00     0.023 A 
ATOM     51  C   UNL A   1      49.330  26.913  26.776  1.00  0.00     0.012 A 
ATOM     52  C   UNL A   1      48.379  27.518  24.624  1.00  0.00     0.148 A 
ATOM     53  C   UNL A   1      50.576  26.723  26.176  1.00  0.00     0.002 A 
ATOM     54  C   UNL A   1      49.606  27.266  24.023  1.00  0.00     0.091 A 
ATOM     55  F   UNL A   1      47.321  27.933  23.913  1.00  0.00    -0.205 F 
ATOM     56  C   UNL A   1      50.711  26.888  24.800  1.00  0.00     0.022 A 
BRANCH  54  57
ATOM     57  S   UNL A   1      49.814  27.311  22.239  1.00  0.00     0.127 S 
ATOM     58  O   UNL A   1      51.193  26.854  22.088  1.00  0.00    -0.237 OA
ATOM     59  O   UNL A   1      48.797  26.360  21.786  1.00  0.00    -0.237 OA
ATOM     60  O   UNL A   1      49.550  28.691  21.857  1.00  0.00    -0.744 OA
ENDBRANCH  54  57
ENDBRANCH  26  50
BRANCH  38  61
ATOM     61  C   UNL A   1      45.159  32.818  29.024  1.00  0.00     0.023 A 
ATOM     62  C   UNL A   1      45.851  33.156  30.203  1.00  0.00     0.012 A 
ATOM     63  C   UNL A   1      44.944  33.802  28.040  1.00  0.00     0.148 A 
ATOM     64  C   UNL A   1      46.291  34.460  30.418  1.00  0.00     0.002 A 
ATOM     65  C   UNL A   1      45.430  35.088  28.237  1.00  0.00     0.091 A 
ATOM     66  F   UNL A   1      44.268  33.463  26.932  1.00  0.00    -0.205 F 
ATOM     67  C   UNL A   1      46.092  35.422  29.430  1.00  0.00     0.022 A 
BRANCH  65  68
ATOM     68  S   UNL A   1      45.302  36.370  26.985  1.00  0.00     0.127 S 
ATOM     69  O   UNL A   1      45.985  37.488  27.634  1.00  0.00    -0.237 OA
ATOM     70  O   UNL A   1      46.030  35.779  25.862  1.00  0.00    -0.237 OA
ATOM     71  O   UNL A   1      43.878  36.562  26.750  1.00  0.00    -0.744 OA
ENDBRANCH  65  68
ENDBRANCH  38  61
ENDBRANCH  12  13
ENDBRANCH   5   7
ENDBRANCH   2   3
ENDBRANCH   1   2
BRANCH   1  72
ATOM     72  C   UNL A   1      36.338  20.616  24.847  1.00  0.00     0.117 C 
BRANCH  72  73
ATOM     73  N   UNL A   1      35.921  21.179  26.121  1.00  0.00    -0.354 N 
ATOM     74  C   UNL A   1      34.977  22.132  26.376  1.00  0.00     0.249 C 
ATOM     75  H   UNL A   1      36.385  20.822  26.913  1.00  0.00     0.163 HD
ATOM     76  O   UNL A   1      34.789  22.465  27.547  1.00  0.00    -0.272 OA
BRANCH  74  77
ATOM     77  C   UNL A   1      34.230  22.785  25.201  1.00  0.00     0.207 C 
ATOM     78  C   UNL A   1      32.820  23.223  25.580  1.00  0.00     0.045 C 
ATOM     79  O   UNL A   1      34.091  21.895  24.083  1.00  0.00    -0.363 OA
ATOM     80  C   UNL A   1      32.045  23.010  24.301  1.00  0.00     0.037 C 
ATOM     81  C   UNL A   1      32.716  21.786  23.707  1.00  0.00     0.138 C 
BRANCH  81  82
ATOM     82  C   UNL A   1      32.166  20.450  24.240  1.00  0.00     0.147 C 
BRANCH  82  83
ATOM     83  N   UNL A   1      32.168  19.416  23.221  1.00  0.00    -0.353 N 
ATOM     84  C   UNL A   1      32.717  18.185  23.127  1.00  0.00     0.223 C 
ATOM     85  H   UNL A   1      31.655  19.669  22.420  1.00  0.00     0.163 HD
ATOM     86  O   UNL A   1      32.574  17.643  22.022  1.00  0.00    -0.275 OA
BRANCH  84  87
ATOM     87  C   UNL A   1      33.412  17.406  24.252  1.00  0.00     0.083 C 
ATOM     88  C   UNL A   1      34.901  17.084  24.168  1.00  0.00     0.042 C 
ATOM     89  C   UNL A   1      32.614  16.107  24.483  1.00  0.00     0.042 C 
ATOM     90  C   UNL A   1      35.351  16.184  25.316  1.00  0.00     0.161 C 
ATOM     91  C   UNL A   1      33.199  15.275  25.614  1.00  0.00     0.161 C 
ATOM     92  O   UNL A   1      34.570  14.995  25.362  1.00  0.00    -0.381 OA
ENDBRANCH  84  87
ENDBRANCH  82  83
ENDBRANCH  81  82
ENDBRANCH  74  77
ENDBRANCH  72  73
ENDBRANCH   1  72
TORSDOF 16
ENDMDL
MODEL 3
REMARK VINA RESULT:     -12.0      4.561      9.915
REMARK SMILES O=C(NCCCNC(=O)[C@@H]1CC[C@H](CNC(=O)C2CCOCC2)O1)c1ccc(-c2c3nc(c(-c4cccc(S(=O)(=O)[O-])c4F)c4ccc([nH]4)c(-c4cccc(S(=O)(=O)[O-])c4F)c4nc(c(-c5cccc(S(=O)(=O)[O-])c5F)c5ccc2[nH]5)C=C4)C=C3)cc1
REMARK SMILES IDX 5 1 4 2 3 3 1 4 2 5 25 7 26 8 87 9 27 10 86 11 28 12 29 13
REMARK SMILES IDX 30 14 80 15 31 16 85 17 79 18 81 19 32 20 84 21 78 22 77 23
REMARK SMILES IDX 33 25 65 26 45 27 64 28 46 29 49 30 63 31 82 32 47 33 48 34
REMARK SMILES IDX 62 36 83 37 50 38 34 39 35 40 43 41 36 42 38 43 44 44 37 45
REMARK SMILES IDX 39 46 40 47 41 48 42 49 66 50 67 51 75 52 68 53 70 54 76 55
REMARK SMILES IDX 69 56 71 57 72 58 73 59 74 60 51 61 52 62 60 63 53 64 55 65
REMARK SMILES IDX 61 66 54 67 56 68 57 69 58 70 59 71 6 72 7 73 8 74 9 76
REMARK SMILES IDX 10 77 11 78 24 79 12 80 13 81 14 82 15 83 16 84 17 86 18 87
REMARK SMILES IDX 19 88 23 89 20 90 22 91 21 92
REMARK H PARENT 3 6 81 24 49 35 7 75 15 85
REMARK Flexibility Score: inf
ROOT
ATOM      1  C   UNL A   1      32.557  27.934  27.111  1.00  0.00     0.042 C 
ENDROOT
BRANCH   1   2
ATOM      2  C   UNL A   1      33.810  28.664  26.660  1.00  0.00     0.118 C 
BRANCH   2   3
ATOM      3  N   UNL A   1      33.749  30.094  26.921  1.00  0.00    -0.352 N 
ATOM      4  O   UNL A   1      34.252  32.035  27.942  1.00  0.00    -0.269 OA
ATOM      5  C   UNL A   1      34.584  30.882  27.677  1.00  0.00     0.251 C 
ATOM      6  H   UNL A   1      32.999  30.568  26.492  1.00  0.00     0.163 HD
BRANCH   5   7
ATOM      7  C   UNL A   1      35.862  30.333  28.178  1.00  0.00     0.039 A 
ATOM      8  C   UNL A   1      37.024  30.433  27.409  1.00  0.00     0.014 A 
ATOM      9  C   UNL A   1      35.909  29.733  29.439  1.00  0.00     0.014 A 
ATOM     10  C   UNL A   1      38.190  29.807  27.828  1.00  0.00     0.010 A 
ATOM     11  C   UNL A   1      37.112  29.198  29.909  1.00  0.00     0.010 A 
ATOM     12  C   UNL A   1      38.258  29.217  29.099  1.00  0.00    -0.014 A 
BRANCH  12  13
ATOM     13  C   UNL A   1      39.578  28.766  29.607  1.00  0.00     0.031 A 
ATOM     14  C   UNL A   1      40.286  29.483  30.721  1.00  0.00     0.074 A 
ATOM     15  C   UNL A   1      40.141  27.691  29.021  1.00  0.00     0.049 A 
ATOM     16  N   UNL A   1      41.437  29.198  31.272  1.00  0.00    -0.248 NA
ATOM     17  C   UNL A   1      39.629  30.671  31.290  1.00  0.00     0.031 C 
ATOM     18  C   UNL A   1      39.565  26.951  27.892  1.00  0.00     0.029 A 
ATOM     19  N   UNL A   1      41.318  27.036  29.275  1.00  0.00    -0.354 N 
ATOM     20  C   UNL A   1      41.669  30.189  32.216  1.00  0.00     0.074 A 
ATOM     21  C   UNL A   1      40.532  31.084  32.174  1.00  0.00     0.031 C 
ATOM     22  C   UNL A   1      40.380  25.942  27.561  1.00  0.00     0.029 A 
ATOM     23  C   UNL A   1      41.565  26.000  28.406  1.00  0.00     0.049 A 
ATOM     24  H   UNL A   1      41.927  27.285  30.008  1.00  0.00     0.167 HD
ATOM     25  C   UNL A   1      42.732  30.331  33.044  1.00  0.00     0.034 A 
ATOM     26  C   UNL A   1      42.642  25.203  28.273  1.00  0.00     0.034 A 
ATOM     27  C   UNL A   1      43.839  29.413  33.102  1.00  0.00     0.049 A 
ATOM     28  C   UNL A   1      43.793  25.384  29.218  1.00  0.00     0.074 A 
ATOM     29  C   UNL A   1      44.910  29.417  33.979  1.00  0.00     0.029 A 
ATOM     30  N   UNL A   1      44.037  28.348  32.237  1.00  0.00    -0.354 N 
ATOM     31  N   UNL A   1      43.911  26.221  30.220  1.00  0.00    -0.248 NA
ATOM     32  C   UNL A   1      44.950  24.499  29.029  1.00  0.00     0.031 C 
ATOM     33  C   UNL A   1      45.773  28.377  33.621  1.00  0.00     0.029 A 
ATOM     34  C   UNL A   1      45.226  27.707  32.539  1.00  0.00     0.049 A 
ATOM     35  H   UNL A   1      43.421  28.086  31.515  1.00  0.00     0.167 HD
ATOM     36  C   UNL A   1      45.149  25.955  30.789  1.00  0.00     0.074 A 
ATOM     37  C   UNL A   1      45.722  24.851  30.048  1.00  0.00     0.031 C 
ATOM     38  C   UNL A   1      45.767  26.585  31.818  1.00  0.00     0.034 A 
BRANCH  25  39
ATOM     39  C   UNL A   1      42.757  31.504  33.989  1.00  0.00     0.023 A 
ATOM     40  C   UNL A   1      43.273  32.740  33.554  1.00  0.00     0.012 A 
ATOM     41  C   UNL A   1      42.144  31.415  35.256  1.00  0.00     0.148 A 
ATOM     42  C   UNL A   1      43.190  33.868  34.370  1.00  0.00     0.002 A 
ATOM     43  C   UNL A   1      42.030  32.552  36.046  1.00  0.00     0.091 A 
ATOM     44  F   UNL A   1      41.673  30.225  35.653  1.00  0.00    -0.205 F 
ATOM     45  C   UNL A   1      42.558  33.778  35.607  1.00  0.00     0.022 A 
BRANCH  43  46
ATOM     46  S   UNL A   1      41.165  32.561  37.621  1.00  0.00     0.127 S 
ATOM     47  O   UNL A   1      39.836  32.095  37.230  1.00  0.00    -0.237 OA
ATOM     48  O   UNL A   1      41.942  31.598  38.403  1.00  0.00    -0.237 OA
ATOM     49  O   UNL A   1      41.223  33.933  38.107  1.00  0.00    -0.744 OA
ENDBRANCH  43  46
ENDBRANCH  25  39
BRANCH  26  50
ATOM     50  C   UNL A   1      42.676  24.168  27.203  1.00  0.00     0.023 A 
ATOM     51  C   UNL A   1      43.315  24.446  25.981  1.00  0.00     0.012 A 
ATOM     52  C   UNL A   1      42.094  22.900  27.402  1.00  0.00     0.148 A 
ATOM     53  C   UNL A   1      43.342  23.493  24.962  1.00  0.00     0.002 A 
ATOM     54  C   UNL A   1      42.181  21.934  26.408  1.00  0.00     0.091 A 
ATOM     55  F   UNL A   1      41.473  22.657  28.565  1.00  0.00    -0.205 F 
ATOM     56  C   UNL A   1      42.786  22.234  25.179  1.00  0.00     0.022 A 
BRANCH  54  57
ATOM     57  S   UNL A   1      41.622  20.247  26.674  1.00  0.00     0.127 S 
ATOM     58  O   UNL A   1      41.997  19.607  25.417  1.00  0.00    -0.237 OA
ATOM     59  O   UNL A   1      42.417  19.840  27.834  1.00  0.00    -0.237 OA
ATOM     60  O   UNL A   1      40.194  20.354  26.940  1.00  0.00    -0.744 OA
ENDBRANCH  54  57
ENDBRANCH  26  50
BRANCH  38  61
ATOM     61  C   UNL A   1      47.134  26.090  32.207  1.00  0.00     0.023 A 
ATOM     62  C   UNL A   1      47.267  25.196  33.287  1.00  0.00     0.012 A 
ATOM     63  C   UNL A   1      48.275  26.463  31.470  1.00  0.00     0.148 A 
ATOM     64  C   UNL A   1      48.520  24.708  33.653  1.00  0.00     0.002 A 
ATOM     65  C   UNL A   1      49.513  25.934  31.808  1.00  0.00     0.091 A 
ATOM     66  F   UNL A   1      48.127  27.329  30.457  1.00  0.00    -0.205 F 
ATOM     67  C   UNL A   1      49.640  25.067  32.906  1.00  0.00     0.022 A 
BRANCH  65  68
ATOM     68  S   UNL A   1      50.997  26.265  30.851  1.00  0.00     0.127 S 
ATOM     69  O   UNL A   1      51.187  27.697  31.084  1.00  0.00    -0.237 OA
ATOM     70  O   UNL A   1      51.984  25.405  31.504  1.00  0.00    -0.237 OA
ATOM     71  O   UNL A   1      50.682  25.894  29.479  1.00  0.00    -0.744 OA
ENDBRANCH  65  68
ENDBRANCH  38  61
ENDBRANCH  12  13
ENDBRANCH   5   7
ENDBRANCH   2   3
ENDBRANCH   1   2
BRANCH   1  72
ATOM     72  C   UNL A   1      32.069  26.890  26.121  1.00  0.00     0.117 C 
BRANCH  72  73
ATOM     73  N   UNL A   1      31.558  25.700  26.782  1.00  0.00    -0.354 N 
ATOM     74  C   UNL A   1      31.984  24.407  26.680  1.00  0.00     0.249 C 
ATOM     75  H   UNL A   1      30.797  25.848  27.389  1.00  0.00     0.163 HD
ATOM     76  O   UNL A   1      31.393  23.547  27.336  1.00  0.00    -0.272 OA
BRANCH  74  77
ATOM     77  C   UNL A   1      33.136  24.066  25.721  1.00  0.00     0.207 C 
ATOM     78  C   UNL A   1      32.639  23.526  24.384  1.00  0.00     0.045 C 
ATOM     79  O   UNL A   1      34.014  23.066  26.260  1.00  0.00    -0.363 OA
ATOM     80  C   UNL A   1      33.712  22.535  24.001  1.00  0.00     0.037 C 
ATOM     81  C   UNL A   1      34.143  21.975  25.344  1.00  0.00     0.138 C 
BRANCH  81  82
ATOM     82  C   UNL A   1      33.270  20.809  25.845  1.00  0.00     0.147 C 
BRANCH  82  83
ATOM     83  N   UNL A   1      32.667  20.073  24.750  1.00  0.00    -0.353 N 
ATOM     84  C   UNL A   1      32.747  18.797  24.313  1.00  0.00     0.223 C 
ATOM     85  H   UNL A   1      32.064  20.627  24.203  1.00  0.00     0.163 HD
ATOM     86  O   UNL A   1      32.144  18.579  23.252  1.00  0.00    -0.275 OA
BRANCH  84  87
ATOM     87  C   UNL A   1      33.435  17.627  25.029  1.00  0.00     0.083 C 
ATOM     88  C   UNL A   1      34.798  17.125  24.564  1.00  0.00     0.042 C 
ATOM     89  C   UNL A   1      32.437  16.452  25.070  1.00  0.00     0.042 C 
ATOM     90  C   UNL A   1      35.228  15.871  25.320  1.00  0.00     0.161 C 
ATOM     91  C   UNL A   1      33.009  15.248  25.801  1.00  0.00     0.161 C 
ATOM     92  O   UNL A   1      34.241  14.851  25.212  1.00  0.00    -0.381 OA
ENDBRANCH  84  87
ENDBRANCH  82  83
ENDBRANCH  81  82
ENDBRANCH  74  77
ENDBRANCH  72  73
ENDBRANCH   1  72
TORSDOF 16
ENDMDL
