MODEL 1
REMARK VINA RESULT:      -8.9      0.000      0.000
REMARK SMILES CCCCCCOC(=O)Nc1cccc(-c2ccc([C@@H](C)C(=O)NCCCNC(=O)c3ccc(-c4c5nc(c(-c6cccc(S(=O)(=O)[O-])c6F)c6ccc([nH]6)c(-c6cccc(S(=O)(=O)[O-])c6F)c6nc(c(-c7cccc(S(=O)(=O)[O-])c7F)c7ccc4[nH]7)C=C6)C=C5)cc3)cc2F)c1
REMARK SMILES IDX 20 1 21 2 19 3 16 4 17 5 95 6 18 7 94 8 96 9 15 10 11 11
REMARK SMILES IDX 12 12 97 13 13 14 14 15 10 16 8 17 9 18 7 20 6 21 5 22 4 23
REMARK SMILES IDX 3 24 2 25 1 26 22 27 23 28 24 29 25 31 26 32 27 33 28 34
REMARK SMILES IDX 29 35 30 37 31 38 32 39 93 40 33 41 92 42 34 43 35 44 36 45
REMARK SMILES IDX 86 46 37 47 91 48 85 49 87 50 38 51 90 52 84 53 83 54 39 56
REMARK SMILES IDX 71 57 51 58 70 59 52 60 55 61 69 62 88 63 53 64 54 65 68 67
REMARK SMILES IDX 89 68 56 69 40 70 41 71 49 72 42 73 44 74 50 75 43 76 45 77
REMARK SMILES IDX 46 78 47 79 48 80 72 81 73 82 81 83 74 84 76 85 82 86 75 87
REMARK SMILES IDX 77 88 78 89 79 90 80 91 57 92 58 93 66 94 59 95 61 96 67 97
REMARK SMILES IDX 60 98 62 99 63 100 64 101 65 102
REMARK H PARENT 10 19 24 30 28 36 87 55 55 66
REMARK Flexibility Score: inf
ROOT
ATOM      1  C   UNL A   1      36.054  33.770  32.729  1.00  0.00     0.105 C 
ATOM      2  C   UNL A   1      36.145  33.319  34.186  1.00  0.00     0.023 C 
ENDROOT
BRANCH   1   3
ATOM      3  C   UNL A   1      37.374  33.858  31.982  1.00  0.00    -0.033 A 
ATOM      4  C   UNL A   1      39.940  33.918  30.702  1.00  0.00     0.018 A 
ATOM      5  C   UNL A   1      38.789  33.472  30.034  1.00  0.00     0.012 A 
ATOM      6  C   UNL A   1      39.756  34.371  32.018  1.00  0.00     0.131 A 
ATOM      7  C   UNL A   1      37.528  33.474  30.648  1.00  0.00     0.005 A 
ATOM      8  C   UNL A   1      38.512  34.322  32.654  1.00  0.00     0.044 A 
ATOM      9  F   UNL A   1      40.778  34.886  32.720  1.00  0.00    -0.206 F 
BRANCH   4  10
ATOM     10  C   UNL A   1      41.267  33.891  30.040  1.00  0.00    -0.013 A 
ATOM     11  C   UNL A   1      43.446  32.821  29.678  1.00  0.00     0.045 A 
ATOM     12  C   UNL A   1      43.822  33.849  28.820  1.00  0.00     0.026 A 
ATOM     13  C   UNL A   1      42.172  32.834  30.261  1.00  0.00     0.035 A 
ATOM     14  C   UNL A   1      42.930  34.881  28.543  1.00  0.00     0.003 A 
ATOM     15  C   UNL A   1      41.678  34.910  29.160  1.00  0.00     0.009 A 
BRANCH  11  16
ATOM     16  N   UNL A   1      44.409  31.861  30.017  1.00  0.00    -0.291 N 
ATOM     17  C   UNL A   1      44.282  30.500  30.014  1.00  0.00     0.411 C 
ATOM     18  O   UNL A   1      44.949  29.794  30.757  1.00  0.00    -0.224 OA
ATOM     19  H   UNL A   1      45.287  32.211  30.291  1.00  0.00     0.173 HD
BRANCH  17  20
ATOM     20  O   UNL A   1      43.451  30.046  29.039  1.00  0.00    -0.449 OA
BRANCH  20  21
ATOM     21  C   UNL A   1      44.010  29.807  27.739  1.00  0.00     0.235 C 
BRANCH  21  22
ATOM     22  C   UNL A   1      43.649  28.421  27.187  1.00  0.00     0.042 C 
BRANCH  22  23
ATOM     23  C   UNL A   1      44.309  28.032  25.857  1.00  0.00     0.003 C 
BRANCH  23  24
ATOM     24  C   UNL A   1      45.775  27.592  25.957  1.00  0.00    -0.000 C 
BRANCH  24  25
ATOM     25  C   UNL A   1      46.069  26.564  27.049  1.00  0.00    -0.003 C 
ATOM     26  C   UNL A   1      47.412  26.791  27.723  1.00  0.00     0.004 C 
ENDBRANCH  24  25
ENDBRANCH  23  24
ENDBRANCH  22  23
ENDBRANCH  21  22
ENDBRANCH  20  21
ENDBRANCH  17  20
ENDBRANCH  11  16
ENDBRANCH   4  10
ENDBRANCH   1   3
BRANCH   1  27
ATOM     27  C   UNL A   1      35.129  34.975  32.496  1.00  0.00     0.227 C 
ATOM     28  O   UNL A   1      35.112  35.903  33.313  1.00  0.00    -0.274 OA
ATOM     29  N   UNL A   1      34.315  35.110  31.414  1.00  0.00    -0.356 N 
ATOM     30  H   UNL A   1      33.814  35.958  31.393  1.00  0.00     0.163 HD
BRANCH  29  31
ATOM     31  C   UNL A   1      34.049  34.239  30.286  1.00  0.00     0.117 C 
BRANCH  31  32
ATOM     32  C   UNL A   1      34.722  34.717  29.003  1.00  0.00     0.042 C 
BRANCH  32  33
ATOM     33  C   UNL A   1      35.373  33.602  28.191  1.00  0.00     0.118 C 
BRANCH  33  34
ATOM     34  N   UNL A   1      34.428  32.545  27.854  1.00  0.00    -0.352 N 
ATOM     35  C   UNL A   1      34.591  31.181  27.801  1.00  0.00     0.251 C 
ATOM     36  H   UNL A   1      33.524  32.859  27.626  1.00  0.00     0.163 HD
ATOM     37  O   UNL A   1      33.708  30.501  27.282  1.00  0.00    -0.269 OA
BRANCH  35  38
ATOM     38  C   UNL A   1      35.802  30.524  28.347  1.00  0.00     0.039 A 
ATOM     39  C   UNL A   1      36.947  30.449  27.543  1.00  0.00     0.014 A 
ATOM     40  C   UNL A   1      35.806  29.925  29.608  1.00  0.00     0.014 A 
ATOM     41  C   UNL A   1      38.102  29.824  28.023  1.00  0.00     0.010 A 
ATOM     42  C   UNL A   1      36.981  29.370  30.115  1.00  0.00     0.010 A 
ATOM     43  C   UNL A   1      38.138  29.301  29.325  1.00  0.00    -0.014 A 
BRANCH  43  44
ATOM     44  C   UNL A   1      39.366  28.675  29.880  1.00  0.00     0.031 A 
ATOM     45  C   UNL A   1      40.039  29.268  31.092  1.00  0.00     0.074 A 
ATOM     46  C   UNL A   1      39.938  27.639  29.233  1.00  0.00     0.049 A 
ATOM     47  N   UNL A   1      41.161  28.918  31.666  1.00  0.00    -0.248 NA
ATOM     48  C   UNL A   1      39.379  30.422  31.725  1.00  0.00     0.031 C 
ATOM     49  C   UNL A   1      39.432  27.031  28.000  1.00  0.00     0.029 A 
ATOM     50  N   UNL A   1      41.088  26.938  29.500  1.00  0.00    -0.354 N 
ATOM     51  C   UNL A   1      41.367  29.837  32.689  1.00  0.00     0.074 A 
ATOM     52  C   UNL A   1      40.264  30.771  32.647  1.00  0.00     0.031 C 
ATOM     53  C   UNL A   1      40.272  26.057  27.613  1.00  0.00     0.029 A 
ATOM     54  C   UNL A   1      41.386  25.985  28.553  1.00  0.00     0.049 A 
ATOM     55  H   UNL A   1      41.646  27.101  30.295  1.00  0.00     0.167 HD
ATOM     56  C   UNL A   1      42.368  29.882  33.601  1.00  0.00     0.034 A 
ATOM     57  C   UNL A   1      42.441  25.153  28.448  1.00  0.00     0.034 A 
ATOM     58  C   UNL A   1      43.424  28.909  33.685  1.00  0.00     0.049 A 
ATOM     59  C   UNL A   1      43.496  25.172  29.523  1.00  0.00     0.074 A 
ATOM     60  C   UNL A   1      44.418  28.800  34.641  1.00  0.00     0.029 A 
ATOM     61  N   UNL A   1      43.624  27.878  32.781  1.00  0.00    -0.354 N 
ATOM     62  N   UNL A   1      43.574  25.933  30.587  1.00  0.00    -0.248 NA
ATOM     63  C   UNL A   1      44.584  24.189  29.407  1.00  0.00     0.031 C 
ATOM     64  C   UNL A   1      45.227  27.709  34.307  1.00  0.00     0.029 A 
ATOM     65  C   UNL A   1      44.728  27.131  33.151  1.00  0.00     0.049 A 
ATOM     66  H   UNL A   1      43.062  27.704  31.990  1.00  0.00     0.167 HD
ATOM     67  C   UNL A   1      44.700  25.504  31.282  1.00  0.00     0.074 A 
ATOM     68  C   UNL A   1      45.257  24.398  30.532  1.00  0.00     0.031 C 
ATOM     69  C   UNL A   1      45.234  25.993  32.428  1.00  0.00     0.034 A 
BRANCH  56  70
ATOM     70  C   UNL A   1      42.338  30.981  34.630  1.00  0.00     0.023 A 
ATOM     71  C   UNL A   1      41.669  30.768  35.852  1.00  0.00     0.012 A 
ATOM     72  C   UNL A   1      43.027  32.192  34.422  1.00  0.00     0.148 A 
ATOM     73  C   UNL A   1      41.662  31.751  36.841  1.00  0.00     0.002 A 
ATOM     74  C   UNL A   1      43.050  33.151  35.427  1.00  0.00     0.091 A 
ATOM     75  F   UNL A   1      43.639  32.386  33.245  1.00  0.00    -0.205 F 
ATOM     76  C   UNL A   1      42.361  32.937  36.632  1.00  0.00     0.022 A 
BRANCH  74  77
ATOM     77  S   UNL A   1      43.983  34.681  35.287  1.00  0.00     0.127 S 
ATOM     78  O   UNL A   1      43.366  35.499  36.330  1.00  0.00    -0.237 OA
ATOM     79  O   UNL A   1      45.347  34.240  35.585  1.00  0.00    -0.237 OA
ATOM     80  O   UNL A   1      43.782  35.150  33.924  1.00  0.00    -0.744 OA
ENDBRANCH  74  77
ENDBRANCH  56  70
BRANCH  57  81
ATOM     81  C   UNL A   1      42.509  24.179  27.321  1.00  0.00     0.023 A 
ATOM     82  C   UNL A   1      43.171  24.548  26.134  1.00  0.00     0.012 A 
ATOM     83  C   UNL A   1      41.958  22.886  27.425  1.00  0.00     0.148 A 
ATOM     84  C   UNL A   1      43.257  23.661  25.061  1.00  0.00     0.002 A 
ATOM     85  C   UNL A   1      42.094  21.987  26.372  1.00  0.00     0.091 A 
ATOM     86  F   UNL A   1      41.326  22.553  28.560  1.00  0.00    -0.205 F 
ATOM     87  C   UNL A   1      42.728  22.379  25.182  1.00  0.00     0.022 A 
BRANCH  85  88
ATOM     88  S   UNL A   1      41.554  20.277  26.479  1.00  0.00     0.127 S 
ATOM     89  O   UNL A   1      40.113  20.399  26.271  1.00  0.00    -0.237 OA
ATOM     90  O   UNL A   1      42.283  19.654  25.374  1.00  0.00    -0.237 OA
ATOM     91  O   UNL A   1      41.959  19.812  27.798  1.00  0.00    -0.744 OA
ENDBRANCH  85  88
ENDBRANCH  57  81
BRANCH  69  92
ATOM     92  C   UNL A   1      46.471  25.326  32.966  1.00  0.00     0.023 A 
ATOM     93  C   UNL A   1      47.740  25.840  32.632  1.00  0.00     0.012 A 
ATOM     94  C   UNL A   1      46.376  24.249  33.869  1.00  0.00     0.148 A 
ATOM     95  C   UNL A   1      48.896  25.277  33.170  1.00  0.00     0.002 A 
ATOM     96  C   UNL A   1      47.531  23.721  34.436  1.00  0.00     0.091 A 
ATOM     97  F   UNL A   1      45.162  23.760  34.158  1.00  0.00    -0.205 F 
ATOM     98  C   UNL A   1      48.792  24.227  34.080  1.00  0.00     0.022 A 
BRANCH  96  99
ATOM     99  S   UNL A   1      47.483  22.432  35.686  1.00  0.00     0.127 S 
ATOM    100  O   UNL A   1      48.904  22.145  35.875  1.00  0.00    -0.237 OA
ATOM    101  O   UNL A   1      46.843  23.112  36.814  1.00  0.00    -0.237 OA
ATOM    102  O   UNL A   1      46.695  21.350  35.112  1.00  0.00    -0.744 OA
ENDBRANCH  96  99
ENDBRANCH  69  92
ENDBRANCH  43  44
ENDBRANCH  35  38
ENDBRANCH  33  34
ENDBRANCH  32  33
ENDBRANCH  31  32
ENDBRANCH  29  31
ENDBRANCH   1  27
TORSDOF 22
ENDMDL
MODEL 2
REMARK VINA RESULT:      -8.2      5.476     12.006
REMARK SMILES CCCCCCOC(=O)Nc1cccc(-c2ccc([C@@H](C)C(=O)NCCCNC(=O)c3ccc(-c4c5nc(c(-c6cccc(S(=O)(=O)[O-])c6F)c6ccc([nH]6)c(-c6cccc(S(=O)(=O)[O-])c6F)c6nc(c(-c7cccc(S(=O)(=O)[O-])c7F)c7ccc4[nH]7)C=C6)C=C5)cc3)cc2F)c1
REMARK SMILES IDX 20 1 21 2 19 3 16 4 17 5 95 6 18 7 94 8 96 9 15 10 11 11
REMARK SMILES IDX 12 12 97 13 13 14 14 15 10 16 8 17 9 18 7 20 6 21 5 22 4 23
REMARK SMILES IDX 3 24 2 25 1 26 22 27 23 28 24 29 25 31 26 32 27 33 28 34
REMARK SMILES IDX 29 35 30 37 31 38 32 39 93 40 33 41 92 42 34 43 35 44 36 45
REMARK SMILES IDX 86 46 37 47 91 48 85 49 87 50 38 51 90 52 84 53 83 54 39 56
REMARK SMILES IDX 71 57 51 58 70 59 52 60 55 61 69 62 88 63 53 64 54 65 68 67
REMARK SMILES IDX 89 68 56 69 40 70 41 71 49 72 42 73 44 74 50 75 43 76 45 77
REMARK SMILES IDX 46 78 47 79 48 80 72 81 73 82 81 83 74 84 76 85 82 86 75 87
REMARK SMILES IDX 77 88 78 89 79 90 80 91 57 92 58 93 66 94 59 95 61 96 67 97
REMARK SMILES IDX 60 98 62 99 63 100 64 101 65 102
REMARK H PARENT 10 19 24 30 28 36 87 55 55 66
REMARK Flexibility Score: inf
ROOT
ATOM      1  C   UNL A   1      35.085  32.997  28.028  1.00  0.00     0.105 C 
ATOM      2  C   UNL A   1      33.974  34.028  28.225  1.00  0.00     0.023 C 
ENDROOT
BRANCH   1   3
ATOM      3  C   UNL A   1      34.625  31.584  27.710  1.00  0.00    -0.033 A 
ATOM      4  C   UNL A   1      33.704  28.978  26.942  1.00  0.00     0.018 A 
ATOM      5  C   UNL A   1      35.023  29.203  27.369  1.00  0.00     0.012 A 
ATOM      6  C   UNL A   1      32.852  30.094  26.951  1.00  0.00     0.131 A 
ATOM      7  C   UNL A   1      35.464  30.470  27.777  1.00  0.00     0.005 A 
ATOM      8  C   UNL A   1      33.302  31.371  27.302  1.00  0.00     0.044 A 
ATOM      9  F   UNL A   1      31.554  29.974  26.631  1.00  0.00    -0.206 F 
BRANCH   4  10
ATOM     10  C   UNL A   1      33.263  27.634  26.498  1.00  0.00    -0.013 A 
ATOM     11  C   UNL A   1      33.705  25.526  25.321  1.00  0.00     0.045 A 
ATOM     12  C   UNL A   1      32.418  25.084  25.605  1.00  0.00     0.026 A 
ATOM     13  C   UNL A   1      34.126  26.779  25.786  1.00  0.00     0.035 A 
ATOM     14  C   UNL A   1      31.558  25.884  26.351  1.00  0.00     0.003 A 
ATOM     15  C   UNL A   1      31.970  27.150  26.774  1.00  0.00     0.009 A 
BRANCH  11  16
ATOM     16  N   UNL A   1      34.501  24.740  24.477  1.00  0.00    -0.291 N 
ATOM     17  C   UNL A   1      34.334  24.498  23.143  1.00  0.00     0.411 C 
ATOM     18  O   UNL A   1      34.742  23.469  22.624  1.00  0.00    -0.224 OA
ATOM     19  H   UNL A   1      35.280  24.310  24.899  1.00  0.00     0.173 HD
BRANCH  17  20
ATOM     20  O   UNL A   1      33.793  25.551  22.475  1.00  0.00    -0.449 OA
BRANCH  20  21
ATOM     21  C   UNL A   1      32.721  25.286  21.559  1.00  0.00     0.235 C 
BRANCH  21  22
ATOM     22  C   UNL A   1      31.559  26.278  21.707  1.00  0.00     0.042 C 
BRANCH  22  23
ATOM     23  C   UNL A   1      31.753  27.398  22.738  1.00  0.00     0.003 C 
BRANCH  23  24
ATOM     24  C   UNL A   1      30.467  27.909  23.400  1.00  0.00    -0.000 C 
BRANCH  24  25
ATOM     25  C   UNL A   1      29.772  29.054  22.664  1.00  0.00    -0.003 C 
ATOM     26  C   UNL A   1      29.580  30.283  23.537  1.00  0.00     0.004 C 
ENDBRANCH  24  25
ENDBRANCH  23  24
ENDBRANCH  22  23
ENDBRANCH  21  22
ENDBRANCH  20  21
ENDBRANCH  17  20
ENDBRANCH  11  16
ENDBRANCH   4  10
ENDBRANCH   1   3
BRANCH   1  27
ATOM     27  C   UNL A   1      36.203  33.062  29.080  1.00  0.00     0.227 C 
ATOM     28  O   UNL A   1      37.346  33.389  28.740  1.00  0.00    -0.274 OA
ATOM     29  N   UNL A   1      36.020  32.798  30.402  1.00  0.00    -0.356 N 
ATOM     30  H   UNL A   1      36.829  32.922  30.951  1.00  0.00     0.163 HD
BRANCH  29  31
ATOM     31  C   UNL A   1      34.857  32.369  31.153  1.00  0.00     0.117 C 
BRANCH  31  32
ATOM     32  C   UNL A   1      35.094  32.380  32.660  1.00  0.00     0.042 C 
BRANCH  32  33
ATOM     33  C   UNL A   1      36.515  32.010  33.069  1.00  0.00     0.118 C 
BRANCH  33  34
ATOM     34  N   UNL A   1      36.734  30.569  33.053  1.00  0.00    -0.352 N 
ATOM     35  C   UNL A   1      37.675  29.813  32.398  1.00  0.00     0.251 C 
ATOM     36  H   UNL A   1      36.103  30.052  33.604  1.00  0.00     0.163 HD
ATOM     37  O   UNL A   1      37.533  28.592  32.365  1.00  0.00    -0.269 OA
BRANCH  35  38
ATOM     38  C   UNL A   1      38.843  30.436  31.731  1.00  0.00     0.039 A 
ATOM     39  C   UNL A   1      39.896  30.912  32.524  1.00  0.00     0.014 A 
ATOM     40  C   UNL A   1      38.887  30.618  30.348  1.00  0.00     0.014 A 
ATOM     41  C   UNL A   1      41.007  31.517  31.926  1.00  0.00     0.010 A 
ATOM     42  C   UNL A   1      40.028  31.150  29.748  1.00  0.00     0.010 A 
ATOM     43  C   UNL A   1      41.094  31.618  30.529  1.00  0.00    -0.014 A 
BRANCH  43  44
ATOM     44  C   UNL A   1      42.284  32.212  29.865  1.00  0.00     0.031 A 
ATOM     45  C   UNL A   1      43.487  31.357  29.559  1.00  0.00     0.074 A 
ATOM     46  C   UNL A   1      42.326  33.539  29.632  1.00  0.00     0.049 A 
ATOM     47  N   UNL A   1      44.646  31.710  29.067  1.00  0.00    -0.248 NA
ATOM     48  C   UNL A   1      43.385  29.922  29.875  1.00  0.00     0.031 C 
ATOM     49  C   UNL A   1      41.260  34.488  29.963  1.00  0.00     0.029 A 
ATOM     50  N   UNL A   1      43.316  34.327  29.098  1.00  0.00    -0.354 N 
ATOM     51  C   UNL A   1      45.425  30.558  29.063  1.00  0.00     0.074 A 
ATOM     52  C   UNL A   1      44.614  29.498  29.619  1.00  0.00     0.031 C 
ATOM     53  C   UNL A   1      41.658  35.728  29.635  1.00  0.00     0.029 A 
ATOM     54  C   UNL A   1      43.012  35.669  29.093  1.00  0.00     0.049 A 
ATOM     55  H   UNL A   1      44.164  33.965  28.751  1.00  0.00     0.167 HD
ATOM     56  C   UNL A   1      46.691  30.391  28.610  1.00  0.00     0.034 A 
ATOM     57  C   UNL A   1      43.742  36.732  28.704  1.00  0.00     0.034 A 
ATOM     58  C   UNL A   1      47.468  31.430  27.991  1.00  0.00     0.049 A 
ATOM     59  C   UNL A   1      45.115  36.504  28.129  1.00  0.00     0.074 A 
ATOM     60  C   UNL A   1      48.713  31.333  27.396  1.00  0.00     0.029 A 
ATOM     61  N   UNL A   1      47.077  32.756  27.888  1.00  0.00    -0.354 N 
ATOM     62  N   UNL A   1      45.764  35.376  27.967  1.00  0.00    -0.248 NA
ATOM     63  C   UNL A   1      45.840  37.687  27.644  1.00  0.00     0.031 C 
ATOM     64  C   UNL A   1      49.080  32.605  26.943  1.00  0.00     0.029 A 
ATOM     65  C   UNL A   1      48.057  33.490  27.244  1.00  0.00     0.049 A 
ATOM     66  H   UNL A   1      46.226  33.120  28.224  1.00  0.00     0.167 HD
ATOM     67  C   UNL A   1      46.957  35.709  27.335  1.00  0.00     0.074 A 
ATOM     68  C   UNL A   1      46.931  37.140  27.120  1.00  0.00     0.031 C 
ATOM     69  C   UNL A   1      47.990  34.904  26.981  1.00  0.00     0.034 A 
BRANCH  56  70
ATOM     70  C   UNL A   1      47.297  29.015  28.701  1.00  0.00     0.023 A 
ATOM     71  C   UNL A   1      47.976  28.634  29.876  1.00  0.00     0.012 A 
ATOM     72  C   UNL A   1      47.135  28.077  27.662  1.00  0.00     0.148 A 
ATOM     73  C   UNL A   1      48.509  27.352  30.007  1.00  0.00     0.002 A 
ATOM     74  C   UNL A   1      47.634  26.789  27.815  1.00  0.00     0.091 A 
ATOM     75  F   UNL A   1      46.505  28.464  26.544  1.00  0.00    -0.205 F 
ATOM     76  C   UNL A   1      48.328  26.428  28.982  1.00  0.00     0.022 A 
BRANCH  74  77
ATOM     77  S   UNL A   1      47.388  25.502  26.586  1.00  0.00     0.127 S 
ATOM     78  O   UNL A   1      47.750  24.302  27.339  1.00  0.00    -0.237 OA
ATOM     79  O   UNL A   1      45.960  25.626  26.288  1.00  0.00    -0.237 OA
ATOM     80  O   UNL A   1      48.269  25.834  25.476  1.00  0.00    -0.744 OA
ENDBRANCH  74  77
ENDBRANCH  56  70
BRANCH  57  81
ATOM     81  C   UNL A   1      43.156  38.102  28.776  1.00  0.00     0.023 A 
ATOM     82  C   UNL A   1      42.304  38.538  27.743  1.00  0.00     0.012 A 
ATOM     83  C   UNL A   1      43.404  38.957  29.868  1.00  0.00     0.148 A 
ATOM     84  C   UNL A   1      41.735  39.812  27.779  1.00  0.00     0.002 A 
ATOM     85  C   UNL A   1      42.792  40.205  29.924  1.00  0.00     0.091 A 
ATOM     86  F   UNL A   1      44.223  38.528  30.839  1.00  0.00    -0.205 F 
ATOM     87  C   UNL A   1      41.971  40.641  28.871  1.00  0.00     0.022 A 
BRANCH  85  88
ATOM     88  S   UNL A   1      42.937  41.295  31.346  1.00  0.00     0.127 S 
ATOM     89  O   UNL A   1      41.956  42.331  31.035  1.00  0.00    -0.237 OA
ATOM     90  O   UNL A   1      42.565  40.409  32.450  1.00  0.00    -0.237 OA
ATOM     91  O   UNL A   1      44.325  41.732  31.374  1.00  0.00    -0.744 OA
ENDBRANCH  85  88
ENDBRANCH  57  81
BRANCH  69  92
ATOM     92  C   UNL A   1      49.172  35.538  26.299  1.00  0.00     0.023 A 
ATOM     93  C   UNL A   1      49.240  35.550  24.892  1.00  0.00     0.012 A 
ATOM     94  C   UNL A   1      50.167  36.198  27.047  1.00  0.00     0.148 A 
ATOM     95  C   UNL A   1      50.294  36.187  24.240  1.00  0.00     0.002 A 
ATOM     96  C   UNL A   1      51.192  36.869  26.388  1.00  0.00     0.091 A 
ATOM     97  F   UNL A   1      50.096  36.158  28.385  1.00  0.00    -0.205 F 
ATOM     98  C   UNL A   1      51.262  36.856  24.986  1.00  0.00     0.022 A 
BRANCH  96  99
ATOM     99  S   UNL A   1      52.425  37.835  27.267  1.00  0.00     0.127 S 
ATOM    100  O   UNL A   1      51.644  38.380  28.376  1.00  0.00    -0.237 OA
ATOM    101  O   UNL A   1      53.405  36.818  27.653  1.00  0.00    -0.237 OA
ATOM    102  O   UNL A   1      52.922  38.813  26.309  1.00  0.00    -0.744 OA
ENDBRANCH  96  99
ENDBRANCH  69  92
ENDBRANCH  43  44
ENDBRANCH  35  38
ENDBRANCH  33  34
ENDBRANCH  32  33
ENDBRANCH  31  32
ENDBRANCH  29  31
ENDBRANCH   1  27
TORSDOF 22
ENDMDL
MODEL 3
REMARK VINA RESULT:      -8.2      4.348      7.769
REMARK SMILES CCCCCCOC(=O)Nc1cccc(-c2ccc([C@@H](C)C(=O)NCCCNC(=O)c3ccc(-c4c5nc(c(-c6cccc(S(=O)(=O)[O-])c6F)c6ccc([nH]6)c(-c6cccc(S(=O)(=O)[O-])c6F)c6nc(c(-c7cccc(S(=O)(=O)[O-])c7F)c7ccc4[nH]7)C=C6)C=C5)cc3)cc2F)c1
REMARK SMILES IDX 20 1 21 2 19 3 16 4 17 5 95 6 18 7 94 8 96 9 15 10 11 11
REMARK SMILES IDX 12 12 97 13 13 14 14 15 10 16 8 17 9 18 7 20 6 21 5 22 4 23
REMARK SMILES IDX 3 24 2 25 1 26 22 27 23 28 24 29 25 31 26 32 27 33 28 34
REMARK SMILES IDX 29 35 30 37 31 38 32 39 93 40 33 41 92 42 34 43 35 44 36 45
REMARK SMILES IDX 86 46 37 47 91 48 85 49 87 50 38 51 90 52 84 53 83 54 39 56
REMARK SMILES IDX 71 57 51 58 70 59 52 60 55 61 69 62 88 63 53 64 54 65 68 67
REMARK SMILES IDX 89 68 56 69 40 70 41 71 49 72 42 73 44 74 50 75 43 76 45 77
REMARK SMILES IDX 46 78 47 79 48 80 72 81 73 82 81 83 74 84 76 85 82 86 75 87
REMARK SMILES IDX 77 88 78 89 79 90 80 91 57 92 58 93 66 94 59 95 61 96 67 97
REMARK SMILES IDX 60 98 62 99 63 100 64 101 65 102
REMARK H PARENT 10 19 24 30 28 36 87 55 55 66
REMARK Flexibility Score: inf
ROOT
ATOM      1  C   UNL A   1      30.637  26.411  23.608  1.00  0.00     0.105 C 
ATOM      2  C   UNL A   1      29.509  26.456  24.638  1.00  0.00     0.023 C 
ENDROOT
BRANCH   1   3
ATOM      3  C   UNL A   1      31.895  25.675  24.039  1.00  0.00    -0.033 A 
ATOM      4  C   UNL A   1      34.354  24.357  24.706  1.00  0.00     0.018 A 
ATOM      5  C   UNL A   1      33.710  25.222  25.604  1.00  0.00     0.012 A 
ATOM      6  C   UNL A   1      33.704  24.143  23.479  1.00  0.00     0.131 A 
ATOM      7  C   UNL A   1      32.490  25.841  25.292  1.00  0.00     0.005 A 
ATOM      8  C   UNL A   1      32.518  24.800  23.141  1.00  0.00     0.044 A 
ATOM      9  F   UNL A   1      34.197  23.277  22.579  1.00  0.00    -0.206 F 
BRANCH   4  10
ATOM     10  C   UNL A   1      35.652  23.727  25.048  1.00  0.00    -0.013 A 
ATOM     11  C   UNL A   1      37.182  21.811  24.949  1.00  0.00     0.045 A 
ATOM     12  C   UNL A   1      38.107  22.494  25.732  1.00  0.00     0.026 A 
ATOM     13  C   UNL A   1      35.978  22.434  24.595  1.00  0.00     0.035 A 
ATOM     14  C   UNL A   1      37.834  23.792  26.153  1.00  0.00     0.003 A 
ATOM     15  C   UNL A   1      36.615  24.392  25.830  1.00  0.00     0.009 A 
BRANCH  11  16
ATOM     16  N   UNL A   1      37.444  20.469  24.638  1.00  0.00    -0.291 N 
ATOM     17  C   UNL A   1      36.665  19.376  24.892  1.00  0.00     0.411 C 
ATOM     18  O   UNL A   1      37.153  18.264  25.040  1.00  0.00    -0.224 OA
ATOM     19  H   UNL A   1      38.297  20.294  24.178  1.00  0.00     0.173 HD
BRANCH  17  20
ATOM     20  O   UNL A   1      35.335  19.646  24.835  1.00  0.00    -0.449 OA
BRANCH  20  21
ATOM     21  C   UNL A   1      34.432  18.544  24.662  1.00  0.00     0.235 C 
BRANCH  21  22
ATOM     22  C   UNL A   1      33.405  18.791  23.549  1.00  0.00     0.042 C 
BRANCH  22  23
ATOM     23  C   UNL A   1      32.446  19.970  23.764  1.00  0.00     0.003 C 
BRANCH  23  24
ATOM     24  C   UNL A   1      32.417  20.539  25.188  1.00  0.00    -0.000 C 
BRANCH  24  25
ATOM     25  C   UNL A   1      31.615  21.830  25.352  1.00  0.00    -0.003 C 
ATOM     26  C   UNL A   1      31.782  22.454  26.728  1.00  0.00     0.004 C 
ENDBRANCH  24  25
ENDBRANCH  23  24
ENDBRANCH  22  23
ENDBRANCH  21  22
ENDBRANCH  20  21
ENDBRANCH  17  20
ENDBRANCH  11  16
ENDBRANCH   4  10
ENDBRANCH   1   3
BRANCH   1  27
ATOM     27  C   UNL A   1      30.912  27.752  22.910  1.00  0.00     0.227 C 
ATOM     28  O   UNL A   1      30.713  27.862  21.695  1.00  0.00    -0.274 OA
ATOM     29  N   UNL A   1      31.353  28.867  23.552  1.00  0.00    -0.356 N 
ATOM     30  H   UNL A   1      31.443  29.656  22.969  1.00  0.00     0.163 HD
BRANCH  29  31
ATOM     31  C   UNL A   1      31.715  29.110  24.935  1.00  0.00     0.117 C 
BRANCH  31  32
ATOM     32  C   UNL A   1      33.224  29.208  25.139  1.00  0.00     0.042 C 
BRANCH  32  33
ATOM     33  C   UNL A   1      33.648  29.316  26.599  1.00  0.00     0.118 C 
BRANCH  33  34
ATOM     34  N   UNL A   1      33.628  30.694  27.076  1.00  0.00    -0.352 N 
ATOM     35  C   UNL A   1      34.445  31.343  27.970  1.00  0.00     0.251 C 
ATOM     36  H   UNL A   1      32.912  31.251  26.694  1.00  0.00     0.163 HD
ATOM     37  O   UNL A   1      34.105  32.452  28.382  1.00  0.00    -0.269 OA
BRANCH  35  38
ATOM     38  C   UNL A   1      35.709  30.736  28.448  1.00  0.00     0.039 A 
ATOM     39  C   UNL A   1      36.924  31.251  27.976  1.00  0.00     0.014 A 
ATOM     40  C   UNL A   1      35.716  29.630  29.300  1.00  0.00     0.014 A 
ATOM     41  C   UNL A   1      38.134  30.693  28.398  1.00  0.00     0.010 A 
ATOM     42  C   UNL A   1      36.923  29.124  29.780  1.00  0.00     0.010 A 
ATOM     43  C   UNL A   1      38.146  29.639  29.325  1.00  0.00    -0.014 A 
BRANCH  43  44
ATOM     44  C   UNL A   1      39.418  29.058  29.828  1.00  0.00     0.031 A 
ATOM     45  C   UNL A   1      40.184  29.748  30.927  1.00  0.00     0.074 A 
ATOM     46  C   UNL A   1      39.939  27.970  29.226  1.00  0.00     0.049 A 
ATOM     47  N   UNL A   1      41.351  29.445  31.436  1.00  0.00    -0.248 NA
ATOM     48  C   UNL A   1      39.573  30.953  31.513  1.00  0.00     0.031 C 
ATOM     49  C   UNL A   1      39.336  27.262  28.094  1.00  0.00     0.029 A 
ATOM     50  N   UNL A   1      41.109  27.290  29.457  1.00  0.00    -0.354 N 
ATOM     51  C   UNL A   1      41.636  30.445  32.358  1.00  0.00     0.074 A 
ATOM     52  C   UNL A   1      40.530  31.376  32.328  1.00  0.00     0.031 C 
ATOM     53  C   UNL A   1      40.146  26.257  27.723  1.00  0.00     0.029 A 
ATOM     54  C   UNL A   1      41.333  26.260  28.572  1.00  0.00     0.049 A 
ATOM     55  H   UNL A   1      41.730  27.518  30.187  1.00  0.00     0.167 HD
ATOM     56  C   UNL A   1      42.707  30.564  33.178  1.00  0.00     0.034 A 
ATOM     57  C   UNL A   1      42.379  25.419  28.451  1.00  0.00     0.034 A 
ATOM     58  C   UNL A   1      43.770  29.599  33.257  1.00  0.00     0.049 A 
ATOM     59  C   UNL A   1      43.518  25.525  29.431  1.00  0.00     0.074 A 
ATOM     60  C   UNL A   1      44.839  29.567  34.135  1.00  0.00     0.029 A 
ATOM     61  N   UNL A   1      43.900  28.495  32.429  1.00  0.00    -0.354 N 
ATOM     62  N   UNL A   1      43.680  26.373  30.418  1.00  0.00    -0.248 NA
ATOM     63  C   UNL A   1      44.597  24.533  29.310  1.00  0.00     0.031 C 
ATOM     64  C   UNL A   1      45.623  28.449  33.830  1.00  0.00     0.029 A 
ATOM     65  C   UNL A   1      45.033  27.778  32.770  1.00  0.00     0.049 A 
ATOM     66  H   UNL A   1      43.277  28.257  31.705  1.00  0.00     0.167 HD
ATOM     67  C   UNL A   1      44.860  26.000  31.053  1.00  0.00     0.074 A 
ATOM     68  C   UNL A   1      45.358  24.833  30.355  1.00  0.00     0.031 C 
ATOM     69  C   UNL A   1      45.484  26.582  32.107  1.00  0.00     0.034 A 
BRANCH  56  70
ATOM     70  C   UNL A   1      42.756  31.746  34.110  1.00  0.00     0.023 A 
ATOM     71  C   UNL A   1      43.490  32.890  33.739  1.00  0.00     0.012 A 
ATOM     72  C   UNL A   1      42.023  31.756  35.313  1.00  0.00     0.148 A 
ATOM     73  C   UNL A   1      43.517  34.016  34.560  1.00  0.00     0.002 A 
ATOM     74  C   UNL A   1      42.021  32.896  36.107  1.00  0.00     0.091 A 
ATOM     75  F   UNL A   1      41.348  30.651  35.660  1.00  0.00    -0.205 F 
ATOM     76  C   UNL A   1      42.775  34.023  35.738  1.00  0.00     0.022 A 
BRANCH  74  77
ATOM     77  S   UNL A   1      41.038  33.033  37.605  1.00  0.00     0.127 S 
ATOM     78  O   UNL A   1      41.413  34.363  38.084  1.00  0.00    -0.237 OA
ATOM     79  O   UNL A   1      39.672  32.935  37.089  1.00  0.00    -0.237 OA
ATOM     80  O   UNL A   1      41.446  31.924  38.455  1.00  0.00    -0.744 OA
ENDBRANCH  74  77
ENDBRANCH  56  70
BRANCH  57  81
ATOM     81  C   UNL A   1      42.359  24.354  27.408  1.00  0.00     0.023 A 
ATOM     82  C   UNL A   1      42.912  24.624  26.141  1.00  0.00     0.012 A 
ATOM     83  C   UNL A   1      41.834  23.072  27.668  1.00  0.00     0.148 A 
ATOM     84  C   UNL A   1      42.914  23.649  25.142  1.00  0.00     0.002 A 
ATOM     85  C   UNL A   1      41.887  22.089  26.685  1.00  0.00     0.091 A 
ATOM     86  F   UNL A   1      41.306  22.835  28.877  1.00  0.00    -0.205 F 
ATOM     87  C   UNL A   1      42.411  22.381  25.416  1.00  0.00     0.022 A 
BRANCH  85  88
ATOM     88  S   UNL A   1      41.376  20.392  26.982  1.00  0.00     0.127 S 
ATOM     89  O   UNL A   1      40.425  20.166  25.897  1.00  0.00    -0.237 OA
ATOM     90  O   UNL A   1      42.639  19.663  26.853  1.00  0.00    -0.237 OA
ATOM     91  O   UNL A   1      40.812  20.373  28.324  1.00  0.00    -0.744 OA
ENDBRANCH  85  88
ENDBRANCH  57  81
BRANCH  69  92
ATOM     92  C   UNL A   1      46.763  25.959  32.596  1.00  0.00     0.023 A 
ATOM     93  C   UNL A   1      46.721  25.004  33.631  1.00  0.00     0.012 A 
ATOM     94  C   UNL A   1      47.993  26.253  31.975  1.00  0.00     0.148 A 
ATOM     95  C   UNL A   1      47.886  24.368  34.056  1.00  0.00     0.002 A 
ATOM     96  C   UNL A   1      49.144  25.583  32.374  1.00  0.00     0.091 A 
ATOM     97  F   UNL A   1      48.016  27.180  31.006  1.00  0.00    -0.205 F 
ATOM     98  C   UNL A   1      49.094  24.647  33.421  1.00  0.00     0.022 A 
BRANCH  96  99
ATOM     99  S   UNL A   1      50.722  25.812  31.548  1.00  0.00     0.127 S 
ATOM    100  O   UNL A   1      51.605  24.964  32.348  1.00  0.00    -0.237 OA
ATOM    101  O   UNL A   1      50.449  25.309  30.201  1.00  0.00    -0.237 OA
ATOM    102  O   UNL A   1      50.999  27.241  31.609  1.00  0.00    -0.744 OA
ENDBRANCH  96  99
ENDBRANCH  69  92
ENDBRANCH  43  44
ENDBRANCH  35  38
ENDBRANCH  33  34
ENDBRANCH  32  33
ENDBRANCH  31  32
ENDBRANCH  29  31
ENDBRANCH   1  27
TORSDOF 22
ENDMDL
