MODEL 1
REMARK VINA RESULT:     -12.1      0.000      0.000
REMARK SMILES Cc1cc(C(=O)N[C@@H](C)C(=O)NCCCNC(=O)c2ccc(-c3c4nc(c(-c5cccc(S(=O)(=O)[O-])c5F)c5ccc([nH]5)c(-c5cccc(S(=O)(=O)[O-])c5F)c5nc(c(-c6cccc(S(=O)(=O)[O-])c6F)c6ccc3[nH]6)C=C5)C=C4)cc2)cc(C)c1OC(F)F
REMARK SMILES IDX 13 1 12 2 10 3 11 4 8 6 9 7 7 8 5 9 6 10 4 12 1 13 2 14 3 15
REMARK SMILES IDX 85 16 83 17 82 18 84 19 86 20 87 21 88 22 89 23 14 24 15 25
REMARK SMILES IDX 16 26 17 27 18 29 19 30 20 31 81 32 21 33 80 34 22 35 23 36
REMARK SMILES IDX 24 37 74 38 25 39 79 40 73 41 75 42 26 43 78 44 72 45 71 46
REMARK SMILES IDX 27 48 59 49 39 50 58 51 40 52 43 53 57 54 76 55 41 56 42 57
REMARK SMILES IDX 56 59 77 60 44 61 28 62 29 63 37 64 30 65 32 66 38 67 31 68
REMARK SMILES IDX 33 69 34 70 35 71 36 72 60 73 61 74 69 75 62 76 64 77 70 78
REMARK SMILES IDX 63 79 65 80 66 81 67 82 68 83 45 84 46 85 54 86 47 87 49 88
REMARK SMILES IDX 55 89 48 90 50 91 51 92 52 93 53 94
REMARK H PARENT 12 5 7 11 16 28 75 47 43 58
REMARK Flexibility Score: inf
ROOT
ATOM      1  C   UNL A   1      35.524  20.913  25.688  1.00  0.00     0.117 C 
ENDROOT
BRANCH   1   2
ATOM      2  N   UNL A   1      34.143  20.521  25.461  1.00  0.00    -0.354 N 
ATOM      3  C   UNL A   1      32.977  21.102  25.868  1.00  0.00     0.242 C 
ATOM      4  O   UNL A   1      31.920  20.611  25.457  1.00  0.00    -0.273 OA
ATOM      5  H   UNL A   1      34.031  19.703  24.926  1.00  0.00     0.163 HD
BRANCH   3   6
ATOM      6  C   UNL A   1      32.959  22.317  26.816  1.00  0.00     0.168 C 
ATOM      7  C   UNL A   1      33.906  22.190  28.002  1.00  0.00     0.041 C 
BRANCH   6   8
ATOM      8  N   UNL A   1      31.572  22.617  27.169  1.00  0.00    -0.341 N 
ATOM      9  C   UNL A   1      30.711  23.621  26.789  1.00  0.00     0.251 C 
ATOM     10  O   UNL A   1      29.537  23.520  27.146  1.00  0.00    -0.269 OA
ATOM     11  H   UNL A   1      31.177  21.976  27.805  1.00  0.00     0.164 HD
BRANCH   9  12
ATOM     12  C   UNL A   1      31.137  24.858  26.075  1.00  0.00     0.040 A 
ATOM     13  C   UNL A   1      31.352  25.734  22.409  1.00  0.00     0.048 C 
ATOM     14  C   UNL A   1      31.369  26.002  23.888  1.00  0.00    -0.008 A 
ATOM     15  C   UNL A   1      31.123  24.844  24.674  1.00  0.00     0.021 A 
ATOM     16  C   UNL A   1      31.534  27.228  24.553  1.00  0.00     0.131 A 
ATOM     17  C   UNL A   1      31.629  27.227  25.967  1.00  0.00    -0.008 A 
ATOM     18  C   UNL A   1      31.523  26.031  26.696  1.00  0.00     0.021 A 
ATOM     19  C   UNL A   1      31.740  28.493  26.782  1.00  0.00     0.048 C 
BRANCH  16  20
ATOM     20  O   UNL A   1      31.544  28.491  24.045  1.00  0.00    -0.434 OA
BRANCH  20  21
ATOM     21  C   UNL A   1      32.658  29.076  23.408  1.00  0.00     0.542 C 
ATOM     22  F   UNL A   1      33.687  28.205  23.325  1.00  0.00    -0.167 F 
ATOM     23  F   UNL A   1      32.309  29.495  22.170  1.00  0.00    -0.167 F 
ENDBRANCH  20  21
ENDBRANCH  16  20
ENDBRANCH   9  12
ENDBRANCH   6   8
ENDBRANCH   3   6
ENDBRANCH   1   2
BRANCH   1  24
ATOM     24  C   UNL A   1      36.527  20.080  24.908  1.00  0.00     0.042 C 
BRANCH  24  25
ATOM     25  C   UNL A   1      37.946  20.631  24.905  1.00  0.00     0.118 C 
BRANCH  25  26
ATOM     26  N   UNL A   1      38.933  19.669  25.384  1.00  0.00    -0.352 N 
ATOM     27  C   UNL A   1      40.121  19.863  26.049  1.00  0.00     0.251 C 
ATOM     28  H   UNL A   1      38.712  18.727  25.200  1.00  0.00     0.163 HD
ATOM     29  O   UNL A   1      40.892  18.921  26.195  1.00  0.00    -0.269 OA
BRANCH  27  30
ATOM     30  C   UNL A   1      40.482  21.203  26.563  1.00  0.00     0.039 A 
ATOM     31  C   UNL A   1      41.343  21.298  27.662  1.00  0.00     0.014 A 
ATOM     32  C   UNL A   1      39.979  22.362  25.970  1.00  0.00     0.014 A 
ATOM     33  C   UNL A   1      41.774  22.554  28.098  1.00  0.00     0.010 A 
ATOM     34  C   UNL A   1      40.478  23.605  26.348  1.00  0.00     0.010 A 
ATOM     35  C   UNL A   1      41.388  23.716  27.409  1.00  0.00    -0.014 A 
BRANCH  35  36
ATOM     36  C   UNL A   1      41.963  25.046  27.741  1.00  0.00     0.031 A 
ATOM     37  C   UNL A   1      41.105  26.114  28.365  1.00  0.00     0.074 A 
ATOM     38  C   UNL A   1      43.230  25.328  27.372  1.00  0.00     0.049 A 
ATOM     39  N   UNL A   1      41.405  27.360  28.627  1.00  0.00    -0.248 NA
ATOM     40  C   UNL A   1      39.724  25.744  28.716  1.00  0.00     0.031 C 
ATOM     41  C   UNL A   1      44.138  24.403  26.687  1.00  0.00     0.029 A 
ATOM     42  N   UNL A   1      43.962  26.484  27.484  1.00  0.00    -0.354 N 
ATOM     43  C   UNL A   1      40.245  27.932  29.134  1.00  0.00     0.074 A 
ATOM     44  C   UNL A   1      39.227  26.904  29.125  1.00  0.00     0.031 C 
ATOM     45  C   UNL A   1      45.297  25.030  26.433  1.00  0.00     0.029 A 
ATOM     46  C   UNL A   1      45.205  26.409  26.897  1.00  0.00     0.049 A 
ATOM     47  H   UNL A   1      43.629  27.291  27.940  1.00  0.00     0.167 HD
ATOM     48  C   UNL A   1      40.050  29.196  29.582  1.00  0.00     0.034 A 
ATOM     49  C   UNL A   1      46.153  27.351  26.724  1.00  0.00     0.034 A 
ATOM     50  C   UNL A   1      41.074  30.203  29.628  1.00  0.00     0.049 A 
ATOM     51  C   UNL A   1      45.914  28.737  27.259  1.00  0.00     0.074 A 
ATOM     52  C   UNL A   1      40.999  31.477  30.163  1.00  0.00     0.029 A 
ATOM     53  N   UNL A   1      42.349  30.064  29.105  1.00  0.00    -0.354 N 
ATOM     54  N   UNL A   1      44.870  29.206  27.897  1.00  0.00    -0.248 NA
ATOM     55  C   UNL A   1      46.996  29.717  27.077  1.00  0.00     0.031 C 
ATOM     56  C   UNL A   1      42.218  32.121  29.932  1.00  0.00     0.029 A 
ATOM     57  C   UNL A   1      43.064  31.236  29.285  1.00  0.00     0.049 A 
ATOM     58  H   UNL A   1      42.695  29.251  28.669  1.00  0.00     0.167 HD
ATOM     59  C   UNL A   1      45.180  30.522  28.220  1.00  0.00     0.074 A 
ATOM     60  C   UNL A   1      46.523  30.766  27.735  1.00  0.00     0.031 C 
ATOM     61  C   UNL A   1      44.417  31.452  28.844  1.00  0.00     0.034 A 
BRANCH  48  62
ATOM     62  C   UNL A   1      38.686  29.561  30.107  1.00  0.00     0.023 A 
ATOM     63  C   UNL A   1      38.356  29.279  31.448  1.00  0.00     0.012 A 
ATOM     64  C   UNL A   1      37.775  30.277  29.306  1.00  0.00     0.148 A 
ATOM     65  C   UNL A   1      37.132  29.686  31.978  1.00  0.00     0.002 A 
ATOM     66  C   UNL A   1      36.577  30.719  29.853  1.00  0.00     0.091 A 
ATOM     67  F   UNL A   1      38.102  30.519  28.028  1.00  0.00    -0.205 F 
ATOM     68  C   UNL A   1      36.250  30.416  31.185  1.00  0.00     0.022 A 
BRANCH  66  69
ATOM     69  S   UNL A   1      35.409  31.737  28.945  1.00  0.00     0.127 S 
ATOM     70  O   UNL A   1      34.777  30.750  28.069  1.00  0.00    -0.237 OA
ATOM     71  O   UNL A   1      34.548  32.241  30.014  1.00  0.00    -0.237 OA
ATOM     72  O   UNL A   1      36.200  32.753  28.265  1.00  0.00    -0.744 OA
ENDBRANCH  66  69
ENDBRANCH  48  62
BRANCH  49  73
ATOM     73  C   UNL A   1      47.434  27.016  26.035  1.00  0.00     0.023 A 
ATOM     74  C   UNL A   1      48.466  26.384  26.754  1.00  0.00     0.012 A 
ATOM     75  C   UNL A   1      47.635  27.326  24.676  1.00  0.00     0.148 A 
ATOM     76  C   UNL A   1      49.692  26.110  26.147  1.00  0.00     0.002 A 
ATOM     77  C   UNL A   1      48.836  26.995  24.061  1.00  0.00     0.091 A 
ATOM     78  F   UNL A   1      46.647  27.940  24.011  1.00  0.00    -0.205 F 
ATOM     79  C   UNL A   1      49.875  26.407  24.800  1.00  0.00     0.022 A 
BRANCH  77  80
ATOM     80  S   UNL A   1      49.104  27.216  22.299  1.00  0.00     0.127 S 
ATOM     81  O   UNL A   1      50.562  27.234  22.219  1.00  0.00    -0.237 OA
ATOM     82  O   UNL A   1      48.470  26.020  21.744  1.00  0.00    -0.237 OA
ATOM     83  O   UNL A   1      48.431  28.462  21.958  1.00  0.00    -0.744 OA
ENDBRANCH  77  80
ENDBRANCH  49  73
BRANCH  61  84
ATOM     84  C   UNL A   1      45.021  32.812  29.075  1.00  0.00     0.023 A 
ATOM     85  C   UNL A   1      45.748  33.065  30.256  1.00  0.00     0.012 A 
ATOM     86  C   UNL A   1      44.925  33.817  28.093  1.00  0.00     0.148 A 
ATOM     87  C   UNL A   1      46.339  34.310  30.471  1.00  0.00     0.002 A 
ATOM     88  C   UNL A   1      45.562  35.036  28.290  1.00  0.00     0.091 A 
ATOM     89  F   UNL A   1      44.217  33.561  26.983  1.00  0.00    -0.205 F 
ATOM     90  C   UNL A   1      46.257  35.289  29.484  1.00  0.00     0.022 A 
BRANCH  88  91
ATOM     91  S   UNL A   1      45.593  36.322  27.036  1.00  0.00     0.127 S 
ATOM     92  O   UNL A   1      46.180  35.615  25.899  1.00  0.00    -0.237 OA
ATOM     93  O   UNL A   1      44.173  36.643  26.887  1.00  0.00    -0.237 OA
ATOM     94  O   UNL A   1      46.403  37.401  27.585  1.00  0.00    -0.744 OA
ENDBRANCH  88  91
ENDBRANCH  61  84
ENDBRANCH  35  36
ENDBRANCH  27  30
ENDBRANCH  25  26
ENDBRANCH  24  25
ENDBRANCH   1  24
TORSDOF 17
ENDMDL
MODEL 2
REMARK VINA RESULT:     -12.0      1.751      7.862
REMARK SMILES Cc1cc(C(=O)N[C@@H](C)C(=O)NCCCNC(=O)c2ccc(-c3c4nc(c(-c5cccc(S(=O)(=O)[O-])c5F)c5ccc([nH]5)c(-c5cccc(S(=O)(=O)[O-])c5F)c5nc(c(-c6cccc(S(=O)(=O)[O-])c6F)c6ccc3[nH]6)C=C5)C=C4)cc2)cc(C)c1OC(F)F
REMARK SMILES IDX 13 1 12 2 10 3 11 4 8 6 9 7 7 8 5 9 6 10 4 12 1 13 2 14 3 15
REMARK SMILES IDX 85 16 83 17 82 18 84 19 86 20 87 21 88 22 89 23 14 24 15 25
REMARK SMILES IDX 16 26 17 27 18 29 19 30 20 31 81 32 21 33 80 34 22 35 23 36
REMARK SMILES IDX 24 37 74 38 25 39 79 40 73 41 75 42 26 43 78 44 72 45 71 46
REMARK SMILES IDX 27 48 59 49 39 50 58 51 40 52 43 53 57 54 76 55 41 56 42 57
REMARK SMILES IDX 56 59 77 60 44 61 28 62 29 63 37 64 30 65 32 66 38 67 31 68
REMARK SMILES IDX 33 69 34 70 35 71 36 72 60 73 61 74 69 75 62 76 64 77 70 78
REMARK SMILES IDX 63 79 65 80 66 81 67 82 68 83 45 84 46 85 54 86 47 87 49 88
REMARK SMILES IDX 55 89 48 90 50 91 51 92 52 93 53 94
REMARK H PARENT 12 5 7 11 16 28 75 47 43 58
REMARK Flexibility Score: inf
ROOT
ATOM      1  C   UNL A   1      35.089  21.232  25.803  1.00  0.00     0.117 C 
ENDROOT
BRANCH   1   2
ATOM      2  N   UNL A   1      35.428  19.954  25.201  1.00  0.00    -0.354 N 
ATOM      3  C   UNL A   1      34.627  18.955  24.726  1.00  0.00     0.242 C 
ATOM      4  O   UNL A   1      35.176  17.996  24.173  1.00  0.00    -0.273 OA
ATOM      5  H   UNL A   1      36.393  19.779  25.124  1.00  0.00     0.163 HD
BRANCH   3   6
ATOM      6  C   UNL A   1      33.094  18.999  24.877  1.00  0.00     0.168 C 
ATOM      7  C   UNL A   1      32.498  17.746  25.502  1.00  0.00     0.041 C 
BRANCH   6   8
ATOM      8  N   UNL A   1      32.506  19.383  23.595  1.00  0.00    -0.341 N 
ATOM      9  C   UNL A   1      32.236  20.605  23.023  1.00  0.00     0.251 C 
ATOM     10  O   UNL A   1      31.870  20.608  21.848  1.00  0.00    -0.269 OA
ATOM     11  H   UNL A   1      32.254  18.617  23.029  1.00  0.00     0.164 HD
BRANCH   9  12
ATOM     12  C   UNL A   1      32.253  21.896  23.768  1.00  0.00     0.040 A 
ATOM     13  C   UNL A   1      30.384  23.097  26.821  1.00  0.00     0.048 C 
ATOM     14  C   UNL A   1      31.427  23.151  25.740  1.00  0.00    -0.008 A 
ATOM     15  C   UNL A   1      31.398  22.027  24.870  1.00  0.00     0.021 A 
ATOM     16  C   UNL A   1      32.426  24.117  25.537  1.00  0.00     0.131 A 
ATOM     17  C   UNL A   1      33.235  24.024  24.377  1.00  0.00    -0.008 A 
ATOM     18  C   UNL A   1      33.071  22.968  23.466  1.00  0.00     0.021 A 
ATOM     19  C   UNL A   1      34.379  24.970  24.097  1.00  0.00     0.048 C 
BRANCH  16  20
ATOM     20  O   UNL A   1      32.816  25.139  26.348  1.00  0.00    -0.434 OA
BRANCH  20  21
ATOM     21  C   UNL A   1      32.164  26.388  26.412  1.00  0.00     0.542 C 
ATOM     22  F   UNL A   1      33.001  27.395  26.077  1.00  0.00    -0.167 F 
ATOM     23  F   UNL A   1      31.092  26.387  25.587  1.00  0.00    -0.167 F 
ENDBRANCH  20  21
ENDBRANCH  16  20
ENDBRANCH   9  12
ENDBRANCH   6   8
ENDBRANCH   3   6
ENDBRANCH   1   2
BRANCH   1  24
ATOM     24  C   UNL A   1      36.284  22.153  25.986  1.00  0.00     0.042 C 
BRANCH  24  25
ATOM     25  C   UNL A   1      37.443  21.887  25.036  1.00  0.00     0.118 C 
BRANCH  25  26
ATOM     26  N   UNL A   1      38.425  20.954  25.580  1.00  0.00    -0.352 N 
ATOM     27  C   UNL A   1      39.595  21.185  26.264  1.00  0.00     0.251 C 
ATOM     28  H   UNL A   1      38.214  20.003  25.432  1.00  0.00     0.163 HD
ATOM     29  O   UNL A   1      40.368  20.257  26.468  1.00  0.00    -0.269 OA
BRANCH  27  30
ATOM     30  C   UNL A   1      39.935  22.549  26.728  1.00  0.00     0.039 A 
ATOM     31  C   UNL A   1      40.854  22.701  27.772  1.00  0.00     0.014 A 
ATOM     32  C   UNL A   1      39.356  23.676  26.140  1.00  0.00     0.014 A 
ATOM     33  C   UNL A   1      41.263  23.981  28.155  1.00  0.00     0.010 A 
ATOM     34  C   UNL A   1      39.829  24.944  26.463  1.00  0.00     0.010 A 
ATOM     35  C   UNL A   1      40.795  25.112  27.466  1.00  0.00    -0.014 A 
BRANCH  35  36
ATOM     36  C   UNL A   1      41.338  26.469  27.736  1.00  0.00     0.031 A 
ATOM     37  C   UNL A   1      42.764  26.804  27.389  1.00  0.00     0.074 A 
ATOM     38  C   UNL A   1      40.577  27.363  28.402  1.00  0.00     0.049 A 
ATOM     39  N   UNL A   1      43.437  27.896  27.644  1.00  0.00    -0.248 NA
ATOM     40  C   UNL A   1      43.543  25.771  26.687  1.00  0.00     0.031 C 
ATOM     41  C   UNL A   1      39.207  27.130  28.866  1.00  0.00     0.029 A 
ATOM     42  N   UNL A   1      40.861  28.633  28.842  1.00  0.00    -0.354 N 
ATOM     43  C   UNL A   1      44.725  27.668  27.175  1.00  0.00     0.074 A 
ATOM     44  C   UNL A   1      44.747  26.326  26.635  1.00  0.00     0.031 C 
ATOM     45  C   UNL A   1      38.775  28.213  29.529  1.00  0.00     0.029 A 
ATOM     46  C   UNL A   1      39.846  29.202  29.577  1.00  0.00     0.049 A 
ATOM     47  H   UNL A   1      41.710  29.093  28.650  1.00  0.00     0.167 HD
ATOM     48  C   UNL A   1      45.788  28.507  27.178  1.00  0.00     0.034 A 
ATOM     49  C   UNL A   1      39.791  30.373  30.241  1.00  0.00     0.034 A 
ATOM     50  C   UNL A   1      45.752  29.855  27.677  1.00  0.00     0.049 A 
ATOM     51  C   UNL A   1      40.981  31.294  30.199  1.00  0.00     0.074 A 
ATOM     52  C   UNL A   1      46.747  30.815  27.625  1.00  0.00     0.029 A 
ATOM     53  N   UNL A   1      44.677  30.429  28.336  1.00  0.00    -0.354 N 
ATOM     54  N   UNL A   1      42.131  31.128  29.593  1.00  0.00    -0.248 NA
ATOM     55  C   UNL A   1      40.857  32.576  30.908  1.00  0.00     0.031 C 
ATOM     56  C   UNL A   1      46.287  31.958  28.285  1.00  0.00     0.029 A 
ATOM     57  C   UNL A   1      44.992  31.723  28.716  1.00  0.00     0.049 A 
ATOM     58  H   UNL A   1      43.817  29.982  28.510  1.00  0.00     0.167 HD
ATOM     59  C   UNL A   1      42.853  32.295  29.820  1.00  0.00     0.074 A 
ATOM     60  C   UNL A   1      41.998  33.171  30.593  1.00  0.00     0.031 C 
ATOM     61  C   UNL A   1      44.116  32.605  29.440  1.00  0.00     0.034 A 
BRANCH  48  62
ATOM     62  C   UNL A   1      47.081  28.018  26.580  1.00  0.00     0.023 A 
ATOM     63  C   UNL A   1      48.075  27.471  27.418  1.00  0.00     0.012 A 
ATOM     64  C   UNL A   1      47.267  28.001  25.184  1.00  0.00     0.148 A 
ATOM     65  C   UNL A   1      49.242  26.934  26.876  1.00  0.00     0.002 A 
ATOM     66  C   UNL A   1      48.411  27.423  24.649  1.00  0.00     0.091 A 
ATOM     67  F   UNL A   1      46.317  28.542  24.407  1.00  0.00    -0.205 F 
ATOM     68  C   UNL A   1      49.403  26.898  25.494  1.00  0.00     0.022 A 
BRANCH  66  69
ATOM     69  S   UNL A   1      48.680  27.250  22.882  1.00  0.00     0.127 S 
ATOM     70  O   UNL A   1      48.351  25.841  22.670  1.00  0.00    -0.237 OA
ATOM     71  O   UNL A   1      47.706  28.193  22.332  1.00  0.00    -0.237 OA
ATOM     72  O   UNL A   1      50.073  27.603  22.648  1.00  0.00    -0.744 OA
ENDBRANCH  66  69
ENDBRANCH  48  62
BRANCH  49  73
ATOM     73  C   UNL A   1      38.558  30.764  30.984  1.00  0.00     0.023 A 
ATOM     74  C   UNL A   1      38.441  30.450  32.352  1.00  0.00     0.012 A 
ATOM     75  C   UNL A   1      37.501  31.437  30.342  1.00  0.00     0.148 A 
ATOM     76  C   UNL A   1      37.275  30.756  33.055  1.00  0.00     0.002 A 
ATOM     77  C   UNL A   1      36.367  31.793  31.063  1.00  0.00     0.091 A 
ATOM     78  F   UNL A   1      37.623  31.714  29.036  1.00  0.00    -0.205 F 
ATOM     79  C   UNL A   1      36.243  31.434  32.415  1.00  0.00     0.022 A 
BRANCH  77  80
ATOM     80  S   UNL A   1      35.052  32.787  30.352  1.00  0.00     0.127 S 
ATOM     81  O   UNL A   1      34.148  32.943  31.488  1.00  0.00    -0.237 OA
ATOM     82  O   UNL A   1      35.768  34.002  29.962  1.00  0.00    -0.237 OA
ATOM     83  O   UNL A   1      34.540  32.009  29.232  1.00  0.00    -0.744 OA
ENDBRANCH  77  80
ENDBRANCH  49  73
BRANCH  61  84
ATOM     84  C   UNL A   1      44.646  33.963  29.819  1.00  0.00     0.023 A 
ATOM     85  C   UNL A   1      45.427  34.112  30.984  1.00  0.00     0.012 A 
ATOM     86  C   UNL A   1      44.428  35.078  28.986  1.00  0.00     0.148 A 
ATOM     87  C   UNL A   1      45.950  35.356  31.332  1.00  0.00     0.002 A 
ATOM     88  C   UNL A   1      44.998  36.303  29.311  1.00  0.00     0.091 A 
ATOM     89  F   UNL A   1      43.671  34.919  27.890  1.00  0.00    -0.205 F 
ATOM     90  C   UNL A   1      45.747  36.447  30.490  1.00  0.00     0.022 A 
BRANCH  88  91
ATOM     91  S   UNL A   1      44.872  37.740  28.240  1.00  0.00     0.127 S 
ATOM     92  O   UNL A   1      45.625  38.740  28.994  1.00  0.00    -0.237 OA
ATOM     93  O   UNL A   1      45.530  37.273  27.019  1.00  0.00    -0.237 OA
ATOM     94  O   UNL A   1      43.448  38.011  28.095  1.00  0.00    -0.744 OA
ENDBRANCH  88  91
ENDBRANCH  61  84
ENDBRANCH  35  36
ENDBRANCH  27  30
ENDBRANCH  25  26
ENDBRANCH  24  25
ENDBRANCH   1  24
TORSDOF 17
ENDMDL
MODEL 3
REMARK VINA RESULT:     -11.8      5.237     10.131
REMARK SMILES Cc1cc(C(=O)N[C@@H](C)C(=O)NCCCNC(=O)c2ccc(-c3c4nc(c(-c5cccc(S(=O)(=O)[O-])c5F)c5ccc([nH]5)c(-c5cccc(S(=O)(=O)[O-])c5F)c5nc(c(-c6cccc(S(=O)(=O)[O-])c6F)c6ccc3[nH]6)C=C5)C=C4)cc2)cc(C)c1OC(F)F
REMARK SMILES IDX 13 1 12 2 10 3 11 4 8 6 9 7 7 8 5 9 6 10 4 12 1 13 2 14 3 15
REMARK SMILES IDX 85 16 83 17 82 18 84 19 86 20 87 21 88 22 89 23 14 24 15 25
REMARK SMILES IDX 16 26 17 27 18 29 19 30 20 31 81 32 21 33 80 34 22 35 23 36
REMARK SMILES IDX 24 37 74 38 25 39 79 40 73 41 75 42 26 43 78 44 72 45 71 46
REMARK SMILES IDX 27 48 59 49 39 50 58 51 40 52 43 53 57 54 76 55 41 56 42 57
REMARK SMILES IDX 56 59 77 60 44 61 28 62 29 63 37 64 30 65 32 66 38 67 31 68
REMARK SMILES IDX 33 69 34 70 35 71 36 72 60 73 61 74 69 75 62 76 64 77 70 78
REMARK SMILES IDX 63 79 65 80 66 81 67 82 68 83 45 84 46 85 54 86 47 87 49 88
REMARK SMILES IDX 55 89 48 90 50 91 51 92 52 93 53 94
REMARK H PARENT 12 5 7 11 16 28 75 47 43 58
REMARK Flexibility Score: inf
ROOT
ATOM      1  C   UNL A   1      31.543  28.282  25.963  1.00  0.00     0.117 C 
ENDROOT
BRANCH   1   2
ATOM      2  N   UNL A   1      30.996  28.251  24.618  1.00  0.00    -0.354 N 
ATOM      3  C   UNL A   1      31.532  27.787  23.451  1.00  0.00     0.242 C 
ATOM      4  O   UNL A   1      30.811  27.795  22.447  1.00  0.00    -0.273 OA
ATOM      5  H   UNL A   1      30.090  28.626  24.534  1.00  0.00     0.163 HD
BRANCH   3   6
ATOM      6  C   UNL A   1      32.985  27.280  23.367  1.00  0.00     0.168 C 
ATOM      7  C   UNL A   1      34.031  28.353  23.635  1.00  0.00     0.041 C 
BRANCH   6   8
ATOM      8  N   UNL A   1      33.158  26.557  22.108  1.00  0.00    -0.341 N 
ATOM      9  C   UNL A   1      33.121  25.218  21.791  1.00  0.00     0.251 C 
ATOM     10  O   UNL A   1      33.155  24.922  20.597  1.00  0.00    -0.269 OA
ATOM     11  H   UNL A   1      33.337  27.142  21.336  1.00  0.00     0.164 HD
BRANCH   9  12
ATOM     12  C   UNL A   1      33.153  24.122  22.799  1.00  0.00     0.040 A 
ATOM     13  C   UNL A   1      35.977  22.074  24.245  1.00  0.00     0.048 C 
ATOM     14  C   UNL A   1      34.570  22.594  24.142  1.00  0.00    -0.008 A 
ATOM     15  C   UNL A   1      34.393  23.544  23.100  1.00  0.00     0.021 A 
ATOM     16  C   UNL A   1      33.469  22.303  24.964  1.00  0.00     0.131 A 
ATOM     17  C   UNL A   1      32.199  22.825  24.610  1.00  0.00    -0.008 A 
ATOM     18  C   UNL A   1      32.047  23.647  23.481  1.00  0.00     0.021 A 
ATOM     19  C   UNL A   1      30.966  22.629  25.459  1.00  0.00     0.048 C 
BRANCH  16  20
ATOM     20  O   UNL A   1      33.428  21.631  26.148  1.00  0.00    -0.434 OA
BRANCH  20  21
ATOM     21  C   UNL A   1      33.950  22.133  27.358  1.00  0.00     0.542 C 
ATOM     22  F   UNL A   1      34.366  23.412  27.218  1.00  0.00    -0.167 F 
ATOM     23  F   UNL A   1      33.010  22.060  28.327  1.00  0.00    -0.167 F 
ENDBRANCH  20  21
ENDBRANCH  16  20
ENDBRANCH   9  12
ENDBRANCH   6   8
ENDBRANCH   3   6
ENDBRANCH   1   2
BRANCH   1  24
ATOM     24  C   UNL A   1      31.479  29.654  26.614  1.00  0.00     0.042 C 
BRANCH  24  25
ATOM     25  C   UNL A   1      32.401  30.695  25.996  1.00  0.00     0.118 C 
BRANCH  25  26
ATOM     26  N   UNL A   1      32.202  32.032  26.546  1.00  0.00    -0.352 N 
ATOM     27  C   UNL A   1      32.939  32.740  27.466  1.00  0.00     0.251 C 
ATOM     28  H   UNL A   1      31.409  32.505  26.202  1.00  0.00     0.163 HD
ATOM     29  O   UNL A   1      32.488  33.780  27.929  1.00  0.00    -0.269 OA
BRANCH  27  30
ATOM     30  C   UNL A   1      34.256  32.237  27.917  1.00  0.00     0.039 A 
ATOM     31  C   UNL A   1      35.349  33.109  27.921  1.00  0.00     0.014 A 
ATOM     32  C   UNL A   1      34.418  30.915  28.336  1.00  0.00     0.014 A 
ATOM     33  C   UNL A   1      36.576  32.681  28.438  1.00  0.00     0.010 A 
ATOM     34  C   UNL A   1      35.613  30.518  28.929  1.00  0.00     0.010 A 
ATOM     35  C   UNL A   1      36.702  31.399  28.997  1.00  0.00    -0.014 A 
BRANCH  35  36
ATOM     36  C   UNL A   1      37.939  30.976  29.705  1.00  0.00     0.031 A 
ATOM     37  C   UNL A   1      38.860  29.956  29.090  1.00  0.00     0.074 A 
ATOM     38  C   UNL A   1      38.170  31.427  30.956  1.00  0.00     0.049 A 
ATOM     39  N   UNL A   1      39.923  29.394  29.604  1.00  0.00    -0.248 NA
ATOM     40  C   UNL A   1      38.531  29.488  27.734  1.00  0.00     0.031 C 
ATOM     41  C   UNL A   1      37.309  32.356  31.693  1.00  0.00     0.029 A 
ATOM     42  N   UNL A   1      39.175  31.135  31.845  1.00  0.00    -0.354 N 
ATOM     43  C   UNL A   1      40.365  28.479  28.656  1.00  0.00     0.074 A 
ATOM     44  C   UNL A   1      39.446  28.547  27.541  1.00  0.00     0.031 C 
ATOM     45  C   UNL A   1      37.817  32.549  32.920  1.00  0.00     0.029 A 
ATOM     46  C   UNL A   1      39.014  31.730  33.076  1.00  0.00     0.049 A 
ATOM     47  H   UNL A   1      39.939  30.555  31.623  1.00  0.00     0.167 HD
ATOM     48  C   UNL A   1      41.450  27.669  28.703  1.00  0.00     0.034 A 
ATOM     49  C   UNL A   1      39.729  31.609  34.211  1.00  0.00     0.034 A 
ATOM     50  C   UNL A   1      42.386  27.635  29.793  1.00  0.00     0.049 A 
ATOM     51  C   UNL A   1      40.944  30.721  34.219  1.00  0.00     0.074 A 
ATOM     52  C   UNL A   1      43.571  26.926  29.883  1.00  0.00     0.029 A 
ATOM     53  N   UNL A   1      42.238  28.318  30.989  1.00  0.00    -0.354 N 
ATOM     54  N   UNL A   1      41.445  30.000  33.246  1.00  0.00    -0.248 NA
ATOM     55  C   UNL A   1      41.711  30.653  35.472  1.00  0.00     0.031 C 
ATOM     56  C   UNL A   1      44.122  27.153  31.149  1.00  0.00     0.029 A 
ATOM     57  C   UNL A   1      43.298  28.031  31.832  1.00  0.00     0.049 A 
ATOM     58  H   UNL A   1      41.488  28.919  31.207  1.00  0.00     0.167 HD
ATOM     59  C   UNL A   1      42.600  29.419  33.758  1.00  0.00     0.074 A 
ATOM     60  C   UNL A   1      42.741  29.898  35.117  1.00  0.00     0.031 C 
ATOM     61  C   UNL A   1      43.456  28.553  33.164  1.00  0.00     0.034 A 
BRANCH  48  62
ATOM     62  C   UNL A   1      41.723  26.777  27.519  1.00  0.00     0.023 A 
ATOM     63  C   UNL A   1      42.392  27.297  26.393  1.00  0.00     0.012 A 
ATOM     64  C   UNL A   1      41.413  25.404  27.568  1.00  0.00     0.148 A 
ATOM     65  C   UNL A   1      42.730  26.468  25.324  1.00  0.00     0.002 A 
ATOM     66  C   UNL A   1      41.794  24.576  26.520  1.00  0.00     0.091 A 
ATOM     67  F   UNL A   1      40.761  24.934  28.642  1.00  0.00    -0.205 F 
ATOM     68  C   UNL A   1      42.443  25.107  25.394  1.00  0.00     0.022 A 
BRANCH  66  69
ATOM     69  S   UNL A   1      41.547  22.797  26.547  1.00  0.00     0.127 S 
ATOM     70  O   UNL A   1      42.217  22.388  25.312  1.00  0.00    -0.237 OA
ATOM     71  O   UNL A   1      42.242  22.410  27.774  1.00  0.00    -0.237 OA
ATOM     72  O   UNL A   1      40.106  22.588  26.567  1.00  0.00    -0.744 OA
ENDBRANCH  66  69
ENDBRANCH  48  62
BRANCH  49  73
ATOM     73  C   UNL A   1      39.336  32.365  35.436  1.00  0.00     0.023 A 
ATOM     74  C   UNL A   1      38.482  31.764  36.381  1.00  0.00     0.012 A 
ATOM     75  C   UNL A   1      39.797  33.675  35.664  1.00  0.00     0.148 A 
ATOM     76  C   UNL A   1      38.057  32.470  37.507  1.00  0.00     0.002 A 
ATOM     77  C   UNL A   1      39.418  34.351  36.818  1.00  0.00     0.091 A 
ATOM     78  F   UNL A   1      40.597  34.237  34.747  1.00  0.00    -0.205 F 
ATOM     79  C   UNL A   1      38.531  33.759  37.730  1.00  0.00     0.022 A 
BRANCH  77  80
ATOM     80  S   UNL A   1      40.091  35.959  37.252  1.00  0.00     0.127 S 
ATOM     81  O   UNL A   1      41.515  35.664  37.375  1.00  0.00    -0.237 OA
ATOM     82  O   UNL A   1      39.726  36.765  36.086  1.00  0.00    -0.237 OA
ATOM     83  O   UNL A   1      39.410  36.344  38.481  1.00  0.00    -0.744 OA
ENDBRANCH  77  80
ENDBRANCH  49  73
BRANCH  61  84
ATOM     84  C   UNL A   1      44.646  28.089  33.962  1.00  0.00     0.023 A 
ATOM     85  C   UNL A   1      44.561  26.908  34.726  1.00  0.00     0.012 A 
ATOM     86  C   UNL A   1      45.869  28.786  33.899  1.00  0.00     0.148 A 
ATOM     87  C   UNL A   1      45.664  26.448  35.446  1.00  0.00     0.002 A 
ATOM     88  C   UNL A   1      46.978  28.293  34.576  1.00  0.00     0.091 A 
ATOM     89  F   UNL A   1      45.925  29.915  33.178  1.00  0.00    -0.205 F 
ATOM     90  C   UNL A   1      46.874  27.133  35.360  1.00  0.00     0.022 A 
BRANCH  88  91
ATOM     91  S   UNL A   1      48.601  29.052  34.448  1.00  0.00     0.127 S 
ATOM     92  O   UNL A   1      49.405  28.181  35.303  1.00  0.00    -0.237 OA
ATOM     93  O   UNL A   1      48.886  28.932  33.017  1.00  0.00    -0.237 OA
ATOM     94  O   UNL A   1      48.446  30.420  34.922  1.00  0.00    -0.744 OA
ENDBRANCH  88  91
ENDBRANCH  61  84
ENDBRANCH  35  36
ENDBRANCH  27  30
ENDBRANCH  25  26
ENDBRANCH  24  25
ENDBRANCH   1  24
TORSDOF 17
ENDMDL
