MODEL 1
REMARK VINA RESULT:     -11.5      0.000      0.000
REMARK SMILES CCCc1cc(OCC(=O)NCCCNC(=O)c2ccc(-c3c4nc(c(-c5cccc(S(=O)(=O)[O-])c5F)c5ccc([nH]5)c(-c5cccc(S(=O)(=O)[O-])c5F)c5nc(c(-c6cccc(S(=O)(=O)[O-])c6F)c6ccc3[nH]6)C=C5)C=C4)cc2)nc(Nc2cccc(Cl)c2Cl)n1
REMARK SMILES IDX 12 1 11 2 9 3 10 4 8 6 7 7 6 8 4 9 5 10 92 11 82 12 81 13
REMARK SMILES IDX 3 14 2 15 1 16 83 17 84 19 85 20 90 21 86 22 88 23 91 24
REMARK SMILES IDX 87 25 89 26 13 27 14 28 15 29 16 30 17 32 18 33 19 34 80 35
REMARK SMILES IDX 20 36 79 37 21 38 22 39 23 40 73 41 24 42 78 43 72 44 74 45
REMARK SMILES IDX 25 46 77 47 71 48 70 49 26 51 58 52 38 53 57 54 39 55 42 56
REMARK SMILES IDX 56 57 75 58 40 59 41 60 55 62 76 63 43 64 27 65 28 66 36 67
REMARK SMILES IDX 29 68 31 69 37 70 30 71 32 72 33 73 34 74 35 75 59 76 60 77
REMARK SMILES IDX 68 78 61 79 63 80 69 81 62 82 64 83 65 84 66 85 67 86 44 87
REMARK SMILES IDX 45 88 53 89 46 90 48 91 54 92 47 93 49 94 50 95 51 96 52 97
REMARK H PARENT 11 5 83 18 15 31 74 50 42 61
REMARK Flexibility Score: inf
ROOT
ATOM      1  C   UNL A   1      31.747  30.843  26.072  1.00  0.00     0.117 C 
ENDROOT
BRANCH   1   2
ATOM      2  N   UNL A   1      31.360  29.663  26.824  1.00  0.00    -0.353 N 
ATOM      3  C   UNL A   1      32.160  28.671  27.313  1.00  0.00     0.258 C 
ATOM      4  O   UNL A   1      31.652  27.757  27.965  1.00  0.00    -0.271 OA
ATOM      5  H   UNL A   1      30.397  29.565  27.006  1.00  0.00     0.163 HD
BRANCH   3   6
ATOM      6  C   UNL A   1      33.671  28.734  27.077  1.00  0.00     0.331 C 
BRANCH   6   7
ATOM      7  O   UNL A   1      34.075  28.719  25.722  1.00  0.00    -0.467 OA
BRANCH   7   8
ATOM      8  C   UNL A   1      33.640  27.699  24.923  1.00  0.00     0.218 A 
ATOM      9  C   UNL A   1      33.448  25.501  24.144  1.00  0.00     0.050 A 
ATOM     10  C   UNL A   1      33.991  26.374  25.059  1.00  0.00     0.092 A 
ATOM     11  N   UNL A   1      32.640  25.923  23.161  1.00  0.00    -0.218 NA
ATOM     12  C   UNL A   1      32.311  27.226  23.117  1.00  0.00     0.230 A 
ATOM     13  N   UNL A   1      32.803  28.135  23.965  1.00  0.00    -0.177 NA
BRANCH   9  14
ATOM     14  C   UNL A   1      33.753  24.025  24.199  1.00  0.00     0.056 C 
BRANCH  14  15
ATOM     15  C   UNL A   1      32.969  23.189  23.181  1.00  0.00     0.003 C 
ATOM     16  C   UNL A   1      32.116  22.099  23.814  1.00  0.00     0.004 C 
ENDBRANCH  14  15
ENDBRANCH   9  14
BRANCH  12  17
ATOM     17  N   UNL A   1      31.426  27.662  22.136  1.00  0.00    -0.323 N 
ATOM     18  H   UNL A   1      31.634  27.425  21.204  1.00  0.00     0.170 HD
BRANCH  17  19
ATOM     19  C   UNL A   1      30.259  28.411  22.365  1.00  0.00     0.061 A 
ATOM     20  C   UNL A   1      30.248  29.751  21.950  1.00  0.00     0.028 A 
ATOM     21  C   UNL A   1      29.125  27.889  23.024  1.00  0.00     0.083 A 
ATOM     22  C   UNL A   1      29.099  30.531  22.079  1.00  0.00     0.004 A 
ATOM     23  C   UNL A   1      27.964  28.670  23.127  1.00  0.00     0.061 A 
ATOM     24  Cl  UNL A   1      29.183  26.291  23.712  1.00  0.00    -0.080 Cl
ATOM     25  C   UNL A   1      27.951  29.982  22.644  1.00  0.00     0.022 A 
ATOM     26  Cl  UNL A   1      26.490  28.063  23.802  1.00  0.00    -0.083 Cl
ENDBRANCH  17  19
ENDBRANCH  12  17
ENDBRANCH   7   8
ENDBRANCH   6   7
ENDBRANCH   3   6
ENDBRANCH   1   2
BRANCH   1  27
ATOM     27  C   UNL A   1      31.534  32.139  26.847  1.00  0.00     0.042 C 
BRANCH  27  28
ATOM     28  C   UNL A   1      32.813  32.919  27.143  1.00  0.00     0.118 C 
BRANCH  28  29
ATOM     29  N   UNL A   1      32.573  34.152  27.886  1.00  0.00    -0.352 N 
ATOM     30  C   UNL A   1      33.224  34.660  28.985  1.00  0.00     0.251 C 
ATOM     31  H   UNL A   1      31.832  34.704  27.548  1.00  0.00     0.163 HD
ATOM     32  O   UNL A   1      32.767  35.649  29.557  1.00  0.00    -0.269 OA
BRANCH  30  33
ATOM     33  C   UNL A   1      34.454  34.015  29.492  1.00  0.00     0.039 A 
ATOM     34  C   UNL A   1      35.695  34.433  29.000  1.00  0.00     0.014 A 
ATOM     35  C   UNL A   1      34.385  32.999  30.447  1.00  0.00     0.014 A 
ATOM     36  C   UNL A   1      36.871  33.891  29.526  1.00  0.00     0.010 A 
ATOM     37  C   UNL A   1      35.556  32.510  31.017  1.00  0.00     0.010 A 
ATOM     38  C   UNL A   1      36.810  32.952  30.568  1.00  0.00    -0.014 A 
BRANCH  38  39
ATOM     39  C   UNL A   1      38.030  32.425  31.234  1.00  0.00     0.031 A 
ATOM     40  C   UNL A   1      38.781  31.278  30.614  1.00  0.00     0.074 A 
ATOM     41  C   UNL A   1      38.365  32.871  32.462  1.00  0.00     0.049 A 
ATOM     42  N   UNL A   1      39.738  30.547  31.123  1.00  0.00    -0.248 NA
ATOM     43  C   UNL A   1      38.379  30.879  29.254  1.00  0.00     0.031 C 
ATOM     44  C   UNL A   1      37.671  33.931  33.197  1.00  0.00     0.029 A 
ATOM     45  N   UNL A   1      39.339  32.447  33.333  1.00  0.00    -0.354 N 
ATOM     46  C   UNL A   1      40.007  29.565  30.177  1.00  0.00     0.074 A 
ATOM     47  C   UNL A   1      39.114  29.793  29.062  1.00  0.00     0.031 C 
ATOM     48  C   UNL A   1      38.220  34.053  34.417  1.00  0.00     0.029 A 
ATOM     49  C   UNL A   1      39.277  33.057  34.566  1.00  0.00     0.049 A 
ATOM     50  H   UNL A   1      40.017  31.772  33.099  1.00  0.00     0.167 HD
ATOM     51  C   UNL A   1      40.927  28.574  30.227  1.00  0.00     0.034 A 
ATOM     52  C   UNL A   1      39.968  32.821  35.700  1.00  0.00     0.034 A 
ATOM     53  C   UNL A   1      41.859  28.396  31.307  1.00  0.00     0.049 A 
ATOM     54  C   UNL A   1      41.032  31.755  35.700  1.00  0.00     0.074 A 
ATOM     55  C   UNL A   1      42.904  27.494  31.398  1.00  0.00     0.029 A 
ATOM     56  N   UNL A   1      41.856  29.128  32.484  1.00  0.00    -0.354 N 
ATOM     57  N   UNL A   1      41.388  30.947  34.731  1.00  0.00    -0.248 NA
ATOM     58  C   UNL A   1      41.812  31.587  36.936  1.00  0.00     0.031 C 
ATOM     59  C   UNL A   1      43.525  27.670  32.637  1.00  0.00     0.029 A 
ATOM     60  C   UNL A   1      42.879  28.696  33.308  1.00  0.00     0.049 A 
ATOM     61  H   UNL A   1      41.220  29.848  32.699  1.00  0.00     0.167 HD
ATOM     62  C   UNL A   1      42.457  30.208  35.224  1.00  0.00     0.074 A 
ATOM     63  C   UNL A   1      42.701  30.671  36.573  1.00  0.00     0.031 C 
ATOM     64  C   UNL A   1      43.163  29.223  34.617  1.00  0.00     0.034 A 
BRANCH  51  65
ATOM     65  C   UNL A   1      41.021  27.630  29.059  1.00  0.00     0.023 A 
ATOM     66  C   UNL A   1      40.101  26.568  28.949  1.00  0.00     0.012 A 
ATOM     67  C   UNL A   1      41.953  27.850  28.025  1.00  0.00     0.148 A 
ATOM     68  C   UNL A   1      40.121  25.726  27.838  1.00  0.00     0.002 A 
ATOM     69  C   UNL A   1      41.938  27.032  26.901  1.00  0.00     0.091 A 
ATOM     70  F   UNL A   1      42.831  28.855  28.159  1.00  0.00    -0.205 F 
ATOM     71  C   UNL A   1      41.029  25.965  26.811  1.00  0.00     0.022 A 
BRANCH  69  72
ATOM     72  S   UNL A   1      43.012  27.306  25.487  1.00  0.00     0.127 S 
ATOM     73  O   UNL A   1      44.232  27.789  26.133  1.00  0.00    -0.237 OA
ATOM     74  O   UNL A   1      43.117  25.963  24.916  1.00  0.00    -0.237 OA
ATOM     75  O   UNL A   1      42.329  28.275  24.643  1.00  0.00    -0.744 OA
ENDBRANCH  69  72
ENDBRANCH  51  65
BRANCH  52  76
ATOM     76  C   UNL A   1      39.712  33.645  36.917  1.00  0.00     0.023 A 
ATOM     77  C   UNL A   1      40.210  34.961  36.974  1.00  0.00     0.012 A 
ATOM     78  C   UNL A   1      38.966  33.146  38.003  1.00  0.00     0.148 A 
ATOM     79  C   UNL A   1      40.003  35.753  38.104  1.00  0.00     0.002 A 
ATOM     80  C   UNL A   1      38.718  33.958  39.104  1.00  0.00     0.091 A 
ATOM     81  F   UNL A   1      38.511  31.886  37.940  1.00  0.00    -0.205 F 
ATOM     82  C   UNL A   1      39.249  35.256  39.164  1.00  0.00     0.022 A 
BRANCH  80  83
ATOM     83  S   UNL A   1      37.644  33.439  40.450  1.00  0.00     0.127 S 
ATOM     84  O   UNL A   1      37.381  34.703  41.131  1.00  0.00    -0.237 OA
ATOM     85  O   UNL A   1      36.499  32.877  39.732  1.00  0.00    -0.237 OA
ATOM     86  O   UNL A   1      38.412  32.454  41.203  1.00  0.00    -0.744 OA
ENDBRANCH  80  83
ENDBRANCH  52  76
BRANCH  64  87
ATOM     87  C   UNL A   1      44.312  28.605  35.366  1.00  0.00     0.023 A 
ATOM     88  C   UNL A   1      45.599  29.167  35.261  1.00  0.00     0.012 A 
ATOM     89  C   UNL A   1      44.086  27.549  36.272  1.00  0.00     0.148 A 
ATOM     90  C   UNL A   1      46.648  28.678  36.038  1.00  0.00     0.002 A 
ATOM     91  C   UNL A   1      45.125  27.098  37.076  1.00  0.00     0.091 A 
ATOM     92  F   UNL A   1      42.855  27.020  36.343  1.00  0.00    -0.205 F 
ATOM     93  C   UNL A   1      46.409  27.655  36.955  1.00  0.00     0.022 A 
BRANCH  91  94
ATOM     94  S   UNL A   1      44.889  25.856  38.353  1.00  0.00     0.127 S 
ATOM     95  O   UNL A   1      44.118  26.598  39.350  1.00  0.00    -0.237 OA
ATOM     96  O   UNL A   1      44.133  24.823  37.644  1.00  0.00    -0.237 OA
ATOM     97  O   UNL A   1      46.221  25.450  38.774  1.00  0.00    -0.744 OA
ENDBRANCH  91  94
ENDBRANCH  64  87
ENDBRANCH  38  39
ENDBRANCH  30  33
ENDBRANCH  28  29
ENDBRANCH  27  28
ENDBRANCH   1  27
TORSDOF 19
ENDMDL
MODEL 2
REMARK VINA RESULT:     -11.4      2.422      4.043
REMARK SMILES CCCc1cc(OCC(=O)NCCCNC(=O)c2ccc(-c3c4nc(c(-c5cccc(S(=O)(=O)[O-])c5F)c5ccc([nH]5)c(-c5cccc(S(=O)(=O)[O-])c5F)c5nc(c(-c6cccc(S(=O)(=O)[O-])c6F)c6ccc3[nH]6)C=C5)C=C4)cc2)nc(Nc2cccc(Cl)c2Cl)n1
REMARK SMILES IDX 12 1 11 2 9 3 10 4 8 6 7 7 6 8 4 9 5 10 92 11 82 12 81 13
REMARK SMILES IDX 3 14 2 15 1 16 83 17 84 19 85 20 90 21 86 22 88 23 91 24
REMARK SMILES IDX 87 25 89 26 13 27 14 28 15 29 16 30 17 32 18 33 19 34 80 35
REMARK SMILES IDX 20 36 79 37 21 38 22 39 23 40 73 41 24 42 78 43 72 44 74 45
REMARK SMILES IDX 25 46 77 47 71 48 70 49 26 51 58 52 38 53 57 54 39 55 42 56
REMARK SMILES IDX 56 57 75 58 40 59 41 60 55 62 76 63 43 64 27 65 28 66 36 67
REMARK SMILES IDX 29 68 31 69 37 70 30 71 32 72 33 73 34 74 35 75 59 76 60 77
REMARK SMILES IDX 68 78 61 79 63 80 69 81 62 82 64 83 65 84 66 85 67 86 44 87
REMARK SMILES IDX 45 88 53 89 46 90 48 91 54 92 47 93 49 94 50 95 51 96 52 97
REMARK H PARENT 11 5 83 18 15 31 74 50 42 61
REMARK Flexibility Score: inf
ROOT
ATOM      1  C   UNL A   1      32.280  29.088  24.769  1.00  0.00     0.117 C 
ENDROOT
BRANCH   1   2
ATOM      2  N   UNL A   1      31.383  28.113  24.175  1.00  0.00    -0.353 N 
ATOM      3  C   UNL A   1      30.902  26.960  24.725  1.00  0.00     0.258 C 
ATOM      4  O   UNL A   1      30.114  26.269  24.076  1.00  0.00    -0.271 OA
ATOM      5  H   UNL A   1      31.081  28.309  23.258  1.00  0.00     0.163 HD
BRANCH   3   6
ATOM      6  C   UNL A   1      31.318  26.569  26.144  1.00  0.00     0.331 C 
BRANCH   6   7
ATOM      7  O   UNL A   1      32.702  26.342  26.331  1.00  0.00    -0.467 OA
BRANCH   7   8
ATOM      8  C   UNL A   1      33.257  25.219  25.788  1.00  0.00     0.218 A 
ATOM      9  C   UNL A   1      34.908  23.895  24.788  1.00  0.00     0.050 A 
ATOM     10  C   UNL A   1      34.541  25.119  25.301  1.00  0.00     0.092 A 
ATOM     11  N   UNL A   1      34.050  22.866  24.743  1.00  0.00    -0.218 NA
ATOM     12  C   UNL A   1      32.826  23.027  25.273  1.00  0.00     0.230 A 
ATOM     13  N   UNL A   1      32.396  24.186  25.784  1.00  0.00    -0.177 NA
BRANCH   9  14
ATOM     14  C   UNL A   1      36.291  23.665  24.234  1.00  0.00     0.056 C 
BRANCH  14  15
ATOM     15  C   UNL A   1      37.278  23.076  25.249  1.00  0.00     0.003 C 
ATOM     16  C   UNL A   1      37.190  21.562  25.379  1.00  0.00     0.004 C 
ENDBRANCH  14  15
ENDBRANCH   9  14
BRANCH  12  17
ATOM     17  N   UNL A   1      31.951  21.946  25.285  1.00  0.00    -0.323 N 
ATOM     18  H   UNL A   1      31.036  22.110  25.611  1.00  0.00     0.170 HD
BRANCH  17  19
ATOM     19  C   UNL A   1      32.261  20.640  24.870  1.00  0.00     0.061 A 
ATOM     20  C   UNL A   1      32.685  19.724  25.846  1.00  0.00     0.028 A 
ATOM     21  C   UNL A   1      32.205  20.226  23.522  1.00  0.00     0.083 A 
ATOM     22  C   UNL A   1      32.939  18.394  25.517  1.00  0.00     0.004 A 
ATOM     23  C   UNL A   1      32.435  18.880  23.201  1.00  0.00     0.061 A 
ATOM     24  Cl  UNL A   1      31.862  21.389  22.273  1.00  0.00    -0.080 Cl
ATOM     25  C   UNL A   1      32.790  17.967  24.199  1.00  0.00     0.022 A 
ATOM     26  Cl  UNL A   1      32.259  18.262  21.594  1.00  0.00    -0.083 Cl
ENDBRANCH  17  19
ENDBRANCH  12  17
ENDBRANCH   7   8
ENDBRANCH   6   7
ENDBRANCH   3   6
ENDBRANCH   1   2
BRANCH   1  27
ATOM     27  C   UNL A   1      31.544  30.223  25.474  1.00  0.00     0.042 C 
BRANCH  27  28
ATOM     28  C   UNL A   1      32.212  30.712  26.756  1.00  0.00     0.118 C 
BRANCH  28  29
ATOM     29  N   UNL A   1      32.143  32.161  26.921  1.00  0.00    -0.352 N 
ATOM     30  C   UNL A   1      33.001  33.016  27.571  1.00  0.00     0.251 C 
ATOM     31  H   UNL A   1      31.364  32.591  26.502  1.00  0.00     0.163 HD
ATOM     32  O   UNL A   1      32.682  34.194  27.725  1.00  0.00    -0.269 OA
BRANCH  30  33
ATOM     33  C   UNL A   1      34.291  32.524  28.101  1.00  0.00     0.039 A 
ATOM     34  C   UNL A   1      35.415  33.355  28.037  1.00  0.00     0.014 A 
ATOM     35  C   UNL A   1      34.394  31.247  28.655  1.00  0.00     0.014 A 
ATOM     36  C   UNL A   1      36.622  32.937  28.605  1.00  0.00     0.010 A 
ATOM     37  C   UNL A   1      35.577  30.861  29.279  1.00  0.00     0.010 A 
ATOM     38  C   UNL A   1      36.701  31.702  29.266  1.00  0.00    -0.014 A 
BRANCH  38  39
ATOM     39  C   UNL A   1      37.928  31.258  29.977  1.00  0.00     0.031 A 
ATOM     40  C   UNL A   1      38.844  30.255  29.329  1.00  0.00     0.074 A 
ATOM     41  C   UNL A   1      38.131  31.635  31.255  1.00  0.00     0.049 A 
ATOM     42  N   UNL A   1      39.843  29.594  29.849  1.00  0.00    -0.248 NA
ATOM     43  C   UNL A   1      38.577  29.928  27.917  1.00  0.00     0.031 C 
ATOM     44  C   UNL A   1      37.275  32.548  32.016  1.00  0.00     0.029 A 
ATOM     45  N   UNL A   1      39.090  31.250  32.161  1.00  0.00    -0.354 N 
ATOM     46  C   UNL A   1      40.284  28.728  28.855  1.00  0.00     0.074 A 
ATOM     47  C   UNL A   1      39.443  28.949  27.698  1.00  0.00     0.031 C 
ATOM     48  C   UNL A   1      37.727  32.629  33.278  1.00  0.00     0.029 A 
ATOM     49  C   UNL A   1      38.879  31.746  33.429  1.00  0.00     0.049 A 
ATOM     50  H   UNL A   1      39.854  30.674  31.927  1.00  0.00     0.167 HD
ATOM     51  C   UNL A   1      41.306  27.843  28.898  1.00  0.00     0.034 A 
ATOM     52  C   UNL A   1      39.520  31.494  34.588  1.00  0.00     0.034 A 
ATOM     53  C   UNL A   1      42.182  27.680  30.026  1.00  0.00     0.049 A 
ATOM     54  C   UNL A   1      40.697  30.554  34.586  1.00  0.00     0.074 A 
ATOM     55  C   UNL A   1      43.316  26.893  30.124  1.00  0.00     0.029 A 
ATOM     56  N   UNL A   1      42.020  28.307  31.250  1.00  0.00    -0.354 N 
ATOM     57  N   UNL A   1      41.204  29.873  33.588  1.00  0.00    -0.248 NA
ATOM     58  C   UNL A   1      41.411  30.371  35.859  1.00  0.00     0.031 C 
ATOM     59  C   UNL A   1      43.832  27.033  31.414  1.00  0.00     0.029 A 
ATOM     60  C   UNL A   1      43.031  27.923  32.112  1.00  0.00     0.049 A 
ATOM     61  H   UNL A   1      41.293  28.933  31.472  1.00  0.00     0.167 HD
ATOM     62  C   UNL A   1      42.318  29.217  34.100  1.00  0.00     0.074 A 
ATOM     63  C   UNL A   1      42.421  29.591  35.494  1.00  0.00     0.031 C 
ATOM     64  C   UNL A   1      43.169  28.368  33.474  1.00  0.00     0.034 A 
BRANCH  51  65
ATOM     65  C   UNL A   1      41.582  27.014  27.672  1.00  0.00     0.023 A 
ATOM     66  C   UNL A   1      42.115  27.631  26.522  1.00  0.00     0.012 A 
ATOM     67  C   UNL A   1      41.408  25.616  27.691  1.00  0.00     0.148 A 
ATOM     68  C   UNL A   1      42.449  26.873  25.401  1.00  0.00     0.002 A 
ATOM     69  C   UNL A   1      41.783  24.862  26.585  1.00  0.00     0.091 A 
ATOM     70  F   UNL A   1      40.884  25.052  28.789  1.00  0.00    -0.205 F 
ATOM     71  C   UNL A   1      42.295  25.489  25.438  1.00  0.00     0.022 A 
BRANCH  69  72
ATOM     72  S   UNL A   1      41.701  23.067  26.562  1.00  0.00     0.127 S 
ATOM     73  O   UNL A   1      42.304  22.762  25.264  1.00  0.00    -0.237 OA
ATOM     74  O   UNL A   1      42.525  22.707  27.716  1.00  0.00    -0.237 OA
ATOM     75  O   UNL A   1      40.292  22.726  26.690  1.00  0.00    -0.744 OA
ENDBRANCH  69  72
ENDBRANCH  51  65
BRANCH  52  76
ATOM     76  C   UNL A   1      39.094  32.182  35.842  1.00  0.00     0.023 A 
ATOM     77  C   UNL A   1      39.451  33.529  36.042  1.00  0.00     0.012 A 
ATOM     78  C   UNL A   1      38.326  31.522  36.821  1.00  0.00     0.148 A 
ATOM     79  C   UNL A   1      39.083  34.197  37.211  1.00  0.00     0.002 A 
ATOM     80  C   UNL A   1      37.917  32.209  37.959  1.00  0.00     0.091 A 
ATOM     81  F   UNL A   1      38.006  30.235  36.623  1.00  0.00    -0.205 F 
ATOM     82  C   UNL A   1      38.308  33.541  38.164  1.00  0.00     0.022 A 
BRANCH  80  83
ATOM     83  S   UNL A   1      36.806  31.476  39.169  1.00  0.00     0.127 S 
ATOM     84  O   UNL A   1      35.754  32.484  39.263  1.00  0.00    -0.237 OA
ATOM     85  O   UNL A   1      36.409  30.231  38.510  1.00  0.00    -0.237 OA
ATOM     86  O   UNL A   1      37.612  31.280  40.368  1.00  0.00    -0.744 OA
ENDBRANCH  80  83
ENDBRANCH  52  76
BRANCH  64  87
ATOM     87  C   UNL A   1      44.331  27.820  34.256  1.00  0.00     0.023 A 
ATOM     88  C   UNL A   1      45.525  28.562  34.348  1.00  0.00     0.012 A 
ATOM     89  C   UNL A   1      44.191  26.633  35.003  1.00  0.00     0.148 A 
ATOM     90  C   UNL A   1      46.568  28.124  35.162  1.00  0.00     0.002 A 
ATOM     91  C   UNL A   1      45.216  26.227  35.848  1.00  0.00     0.091 A 
ATOM     92  F   UNL A   1      43.051  25.936  34.886  1.00  0.00    -0.205 F 
ATOM     93  C   UNL A   1      46.408  26.966  35.923  1.00  0.00     0.022 A 
BRANCH  91  94
ATOM     94  S   UNL A   1      45.062  24.807  36.938  1.00  0.00     0.127 S 
ATOM     95  O   UNL A   1      46.388  24.759  37.552  1.00  0.00    -0.237 OA
ATOM     96  O   UNL A   1      43.988  25.225  37.840  1.00  0.00    -0.237 OA
ATOM     97  O   UNL A   1      44.730  23.676  36.085  1.00  0.00    -0.744 OA
ENDBRANCH  91  94
ENDBRANCH  64  87
ENDBRANCH  38  39
ENDBRANCH  30  33
ENDBRANCH  28  29
ENDBRANCH  27  28
ENDBRANCH   1  27
TORSDOF 19
ENDMDL
MODEL 3
REMARK VINA RESULT:     -11.1      1.398      8.176
REMARK SMILES CCCc1cc(OCC(=O)NCCCNC(=O)c2ccc(-c3c4nc(c(-c5cccc(S(=O)(=O)[O-])c5F)c5ccc([nH]5)c(-c5cccc(S(=O)(=O)[O-])c5F)c5nc(c(-c6cccc(S(=O)(=O)[O-])c6F)c6ccc3[nH]6)C=C5)C=C4)cc2)nc(Nc2cccc(Cl)c2Cl)n1
REMARK SMILES IDX 12 1 11 2 9 3 10 4 8 6 7 7 6 8 4 9 5 10 92 11 82 12 81 13
REMARK SMILES IDX 3 14 2 15 1 16 83 17 84 19 85 20 90 21 86 22 88 23 91 24
REMARK SMILES IDX 87 25 89 26 13 27 14 28 15 29 16 30 17 32 18 33 19 34 80 35
REMARK SMILES IDX 20 36 79 37 21 38 22 39 23 40 73 41 24 42 78 43 72 44 74 45
REMARK SMILES IDX 25 46 77 47 71 48 70 49 26 51 58 52 38 53 57 54 39 55 42 56
REMARK SMILES IDX 56 57 75 58 40 59 41 60 55 62 76 63 43 64 27 65 28 66 36 67
REMARK SMILES IDX 29 68 31 69 37 70 30 71 32 72 33 73 34 74 35 75 59 76 60 77
REMARK SMILES IDX 68 78 61 79 63 80 69 81 62 82 64 83 65 84 66 85 67 86 44 87
REMARK SMILES IDX 45 88 53 89 46 90 48 91 54 92 47 93 49 94 50 95 51 96 52 97
REMARK H PARENT 11 5 83 18 15 31 74 50 42 61
REMARK Flexibility Score: inf
ROOT
ATOM      1  C   UNL A   1      32.440  30.959  26.726  1.00  0.00     0.117 C 
ENDROOT
BRANCH   1   2
ATOM      2  N   UNL A   1      31.722  29.816  27.260  1.00  0.00    -0.353 N 
ATOM      3  C   UNL A   1      32.008  28.491  27.108  1.00  0.00     0.258 C 
ATOM      4  O   UNL A   1      31.297  27.655  27.669  1.00  0.00    -0.271 OA
ATOM      5  H   UNL A   1      30.925  30.023  27.801  1.00  0.00     0.163 HD
BRANCH   3   6
ATOM      6  C   UNL A   1      33.224  28.070  26.280  1.00  0.00     0.331 C 
BRANCH   6   7
ATOM      7  O   UNL A   1      33.127  28.317  24.891  1.00  0.00    -0.467 OA
BRANCH   7   8
ATOM      8  C   UNL A   1      31.946  28.043  24.261  1.00  0.00     0.218 A 
ATOM      9  C   UNL A   1      29.983  28.492  23.068  1.00  0.00     0.050 A 
ATOM     10  C   UNL A   1      31.139  28.971  23.641  1.00  0.00     0.092 A 
ATOM     11  N   UNL A   1      29.651  27.195  23.135  1.00  0.00    -0.218 NA
ATOM     12  C   UNL A   1      30.507  26.342  23.722  1.00  0.00     0.230 A 
ATOM     13  N   UNL A   1      31.646  26.733  24.305  1.00  0.00    -0.177 NA
BRANCH   9  14
ATOM     14  C   UNL A   1      29.026  29.412  22.354  1.00  0.00     0.056 C 
BRANCH  14  15
ATOM     15  C   UNL A   1      27.752  29.724  23.148  1.00  0.00     0.003 C 
ATOM     16  C   UNL A   1      27.588  31.199  23.485  1.00  0.00     0.004 C 
ENDBRANCH  14  15
ENDBRANCH   9  14
BRANCH  12  17
ATOM     17  N   UNL A   1      30.199  24.986  23.742  1.00  0.00    -0.323 N 
ATOM     18  H   UNL A   1      29.486  24.677  23.136  1.00  0.00     0.170 HD
BRANCH  17  19
ATOM     19  C   UNL A   1      30.820  24.019  24.550  1.00  0.00     0.061 A 
ATOM     20  C   UNL A   1      30.428  23.938  25.895  1.00  0.00     0.028 A 
ATOM     21  C   UNL A   1      31.840  23.163  24.083  1.00  0.00     0.083 A 
ATOM     22  C   UNL A   1      30.949  22.956  26.736  1.00  0.00     0.004 A 
ATOM     23  C   UNL A   1      32.341  22.159  24.925  1.00  0.00     0.061 A 
ATOM     24  Cl  UNL A   1      32.473  23.368  22.474  1.00  0.00    -0.080 Cl
ATOM     25  C   UNL A   1      31.887  22.051  26.243  1.00  0.00     0.022 A 
ATOM     26  Cl  UNL A   1      33.496  20.986  24.392  1.00  0.00    -0.083 Cl
ENDBRANCH  17  19
ENDBRANCH  12  17
ENDBRANCH   7   8
ENDBRANCH   6   7
ENDBRANCH   3   6
ENDBRANCH   1   2
BRANCH   1  27
ATOM     27  C   UNL A   1      32.021  32.278  27.368  1.00  0.00     0.042 C 
BRANCH  27  28
ATOM     28  C   UNL A   1      33.077  33.378  27.305  1.00  0.00     0.118 C 
BRANCH  28  29
ATOM     29  N   UNL A   1      32.665  34.607  27.976  1.00  0.00    -0.352 N 
ATOM     30  C   UNL A   1      33.056  35.123  29.189  1.00  0.00     0.251 C 
ATOM     31  H   UNL A   1      32.006  35.149  27.485  1.00  0.00     0.163 HD
ATOM     32  O   UNL A   1      32.472  36.104  29.646  1.00  0.00    -0.269 OA
BRANCH  30  33
ATOM     33  C   UNL A   1      34.156  34.496  29.951  1.00  0.00     0.039 A 
ATOM     34  C   UNL A   1      33.884  33.935  31.204  1.00  0.00     0.014 A 
ATOM     35  C   UNL A   1      35.453  34.464  29.436  1.00  0.00     0.014 A 
ATOM     36  C   UNL A   1      34.895  33.268  31.902  1.00  0.00     0.010 A 
ATOM     37  C   UNL A   1      36.440  33.741  30.100  1.00  0.00     0.010 A 
ATOM     38  C   UNL A   1      36.172  33.133  31.336  1.00  0.00    -0.014 A 
BRANCH  38  39
ATOM     39  C   UNL A   1      37.250  32.343  31.987  1.00  0.00     0.031 A 
ATOM     40  C   UNL A   1      37.826  32.807  33.297  1.00  0.00     0.074 A 
ATOM     41  C   UNL A   1      37.810  31.309  31.328  1.00  0.00     0.049 A 
ATOM     42  N   UNL A   1      38.891  32.385  33.926  1.00  0.00    -0.248 NA
ATOM     43  C   UNL A   1      37.130  33.916  33.973  1.00  0.00     0.031 C 
ATOM     44  C   UNL A   1      37.386  30.808  30.018  1.00  0.00     0.029 A 
ATOM     45  N   UNL A   1      38.898  30.530  31.643  1.00  0.00    -0.354 N 
ATOM     46  C   UNL A   1      39.031  33.215  35.033  1.00  0.00     0.074 A 
ATOM     47  C   UNL A   1      37.941  34.165  34.991  1.00  0.00     0.031 C 
ATOM     48  C   UNL A   1      38.219  29.830  29.629  1.00  0.00     0.029 A 
ATOM     49  C   UNL A   1      39.259  29.659  30.639  1.00  0.00     0.049 A 
ATOM     50  H   UNL A   1      39.373  30.588  32.503  1.00  0.00     0.167 HD
ATOM     51  C   UNL A   1      39.973  33.175  36.003  1.00  0.00     0.034 A 
ATOM     52  C   UNL A   1      40.324  28.839  30.528  1.00  0.00     0.034 A 
ATOM     53  C   UNL A   1      41.012  32.185  36.077  1.00  0.00     0.049 A 
ATOM     54  C   UNL A   1      41.318  28.772  31.658  1.00  0.00     0.074 A 
ATOM     55  C   UNL A   1      41.942  31.991  37.082  1.00  0.00     0.029 A 
ATOM     56  N   UNL A   1      41.261  31.226  35.108  1.00  0.00    -0.354 N 
ATOM     57  N   UNL A   1      41.335  29.449  32.780  1.00  0.00    -0.248 NA
ATOM     58  C   UNL A   1      42.420  27.807  31.525  1.00  0.00     0.031 C 
ATOM     59  C   UNL A   1      42.765  30.924  36.714  1.00  0.00     0.029 A 
ATOM     60  C   UNL A   1      42.332  30.441  35.489  1.00  0.00     0.049 A 
ATOM     61  H   UNL A   1      40.750  31.121  34.273  1.00  0.00     0.167 HD
ATOM     62  C   UNL A   1      42.419  28.964  33.502  1.00  0.00     0.074 A 
ATOM     63  C   UNL A   1      43.028  27.927  32.699  1.00  0.00     0.031 C 
ATOM     64  C   UNL A   1      42.878  29.355  34.716  1.00  0.00     0.034 A 
BRANCH  51  65
ATOM     65  C   UNL A   1      39.902  34.197  37.106  1.00  0.00     0.023 A 
ATOM     66  C   UNL A   1      40.267  35.532  36.840  1.00  0.00     0.012 A 
ATOM     67  C   UNL A   1      39.382  33.860  38.372  1.00  0.00     0.148 A 
ATOM     68  C   UNL A   1      40.138  36.512  37.824  1.00  0.00     0.002 A 
ATOM     69  C   UNL A   1      39.217  34.850  39.333  1.00  0.00     0.091 A 
ATOM     70  F   UNL A   1      39.057  32.580  38.609  1.00  0.00    -0.205 F 
ATOM     71  C   UNL A   1      39.602  36.173  39.063  1.00  0.00     0.022 A 
BRANCH  69  72
ATOM     72  S   UNL A   1      38.461  34.534  40.932  1.00  0.00     0.127 S 
ATOM     73  O   UNL A   1      39.525  33.806  41.622  1.00  0.00    -0.237 OA
ATOM     74  O   UNL A   1      38.226  35.888  41.434  1.00  0.00    -0.237 OA
ATOM     75  O   UNL A   1      37.254  33.767  40.664  1.00  0.00    -0.744 OA
ENDBRANCH  69  72
ENDBRANCH  51  65
BRANCH  52  76
ATOM     76  C   UNL A   1      40.480  27.976  29.322  1.00  0.00     0.023 A 
ATOM     77  C   UNL A   1      39.723  26.792  29.220  1.00  0.00     0.012 A 
ATOM     78  C   UNL A   1      41.351  28.326  28.271  1.00  0.00     0.148 A 
ATOM     79  C   UNL A   1      39.858  25.954  28.112  1.00  0.00     0.002 A 
ATOM     80  C   UNL A   1      41.441  27.513  27.146  1.00  0.00     0.091 A 
ATOM     81  F   UNL A   1      42.076  29.448  28.388  1.00  0.00    -0.205 F 
ATOM     82  C   UNL A   1      40.708  26.319  27.072  1.00  0.00     0.022 A 
BRANCH  80  83
ATOM     83  S   UNL A   1      42.410  27.981  25.706  1.00  0.00     0.127 S 
ATOM     84  O   UNL A   1      43.739  28.165  26.283  1.00  0.00    -0.237 OA
ATOM     85  O   UNL A   1      42.271  26.805  24.844  1.00  0.00    -0.237 OA
ATOM     86  O   UNL A   1      41.770  29.180  25.178  1.00  0.00    -0.744 OA
ENDBRANCH  80  83
ENDBRANCH  52  76
BRANCH  64  87
ATOM     87  C   UNL A   1      44.061  28.631  35.298  1.00  0.00     0.023 A 
ATOM     88  C   UNL A   1      45.366  29.065  34.995  1.00  0.00     0.012 A 
ATOM     89  C   UNL A   1      43.872  27.603  36.244  1.00  0.00     0.148 A 
ATOM     90  C   UNL A   1      46.467  28.479  35.616  1.00  0.00     0.002 A 
ATOM     91  C   UNL A   1      44.971  27.056  36.893  1.00  0.00     0.091 A 
ATOM     92  F   UNL A   1      42.621  27.196  36.504  1.00  0.00    -0.205 F 
ATOM     93  C   UNL A   1      46.270  27.486  36.575  1.00  0.00     0.022 A 
BRANCH  91  94
ATOM     94  S   UNL A   1      44.809  25.846  38.211  1.00  0.00     0.127 S 
ATOM     95  O   UNL A   1      44.228  26.651  39.284  1.00  0.00    -0.237 OA
ATOM     96  O   UNL A   1      43.896  24.866  37.622  1.00  0.00    -0.237 OA
ATOM     97  O   UNL A   1      46.152  25.344  38.467  1.00  0.00    -0.744 OA
ENDBRANCH  91  94
ENDBRANCH  64  87
ENDBRANCH  38  39
ENDBRANCH  30  33
ENDBRANCH  28  29
ENDBRANCH  27  28
ENDBRANCH   1  27
TORSDOF 19
ENDMDL
