MODEL 1
REMARK VINA RESULT:     -11.5      0.000      0.000
REMARK SMILES O=C(C[C@H]1C[N@@H+](Cc2c(F)cccc2F)CCO1)NCCCNC(=O)c1ccc(-c2c3nc(c(-c4cccc(S(=O)(=O)[O-])c4F)c4ccc([nH]4)c(-c4cccc(S(=O)(=O)[O-])c4F)c4nc(c(-c5cccc(S(=O)(=O)[O-])c5F)c5ccc2[nH]5)C=C4)C=C3)cc1
REMARK SMILES IDX 21 1 20 2 19 3 1 4 2 5 3 7 4 8 5 9 18 10 6 11 17 12 16 13
REMARK SMILES IDX 7 15 8 16 9 17 14 18 10 19 11 20 13 21 15 22 12 23 22 24
REMARK SMILES IDX 23 25 24 26 25 28 26 29 27 30 88 31 28 32 87 33 29 34 30 35
REMARK SMILES IDX 31 36 81 37 32 38 86 39 80 40 82 41 33 42 85 43 79 44 78 45
REMARK SMILES IDX 34 47 66 48 46 49 65 50 47 51 50 52 64 53 83 54 48 55 49 56
REMARK SMILES IDX 63 58 84 59 51 60 35 61 36 62 44 63 37 64 39 65 45 66 38 67
REMARK SMILES IDX 40 68 41 69 42 70 43 71 67 72 68 73 76 74 69 75 71 76 77 77
REMARK SMILES IDX 70 78 72 79 73 80 74 81 75 82 52 83 53 84 61 85 54 86 56 87
REMARK SMILES IDX 62 88 55 89 57 90 58 91 59 92 60 93
REMARK H PARENT 19 6 6 14 23 27 82 46 50 57
REMARK Flexibility Score: inf
ROOT
ATOM      1  C   UNL A   1      35.690  22.431  26.098  1.00  0.00     0.042 C 
ENDROOT
BRANCH   1   2
ATOM      2  C   UNL A   1      34.712  22.200  24.951  1.00  0.00     0.117 C 
BRANCH   2   3
ATOM      3  N   UNL A   1      33.996  23.408  24.604  1.00  0.00    -0.356 N 
ATOM      4  O   UNL A   1      34.698  23.499  22.416  1.00  0.00    -0.275 OA
ATOM      5  C   UNL A   1      34.155  24.022  23.381  1.00  0.00     0.222 C 
ATOM      6  H   UNL A   1      33.378  23.802  25.260  1.00  0.00     0.163 HD
BRANCH   5   7
ATOM      7  C   UNL A   1      33.750  25.471  23.415  1.00  0.00     0.138 C 
BRANCH   7   8
ATOM      8  C   UNL A   1      33.195  26.067  22.132  1.00  0.00     0.182 C 
ATOM      9  C   UNL A   1      31.704  26.487  22.299  1.00  0.00     0.295 C 
ATOM     10  O   UNL A   1      33.978  27.182  21.664  1.00  0.00    -0.366 OA
ATOM     11  N   UNL A   1      31.466  27.718  23.054  1.00  0.00    -0.327 N 
ATOM     12  C   UNL A   1      33.834  28.359  22.475  1.00  0.00     0.222 C 
ATOM     13  C   UNL A   1      32.367  28.788  22.640  1.00  0.00     0.291 C 
ATOM     14  H   UNL A   1      30.533  28.010  22.759  1.00  0.00     0.348 HD
BRANCH  11  15
ATOM     15  C   UNL A   1      31.061  27.641  24.462  1.00  0.00     0.305 C 
BRANCH  15  16
ATOM     16  C   UNL A   1      31.836  28.427  25.488  1.00  0.00     0.078 A 
ATOM     17  C   UNL A   1      31.653  29.799  25.668  1.00  0.00     0.135 A 
ATOM     18  C   UNL A   1      32.797  27.806  26.296  1.00  0.00     0.135 A 
ATOM     19  F   UNL A   1      30.686  30.443  25.000  1.00  0.00    -0.206 F 
ATOM     20  C   UNL A   1      32.485  30.549  26.500  1.00  0.00     0.040 A 
ATOM     21  C   UNL A   1      33.638  28.539  27.137  1.00  0.00     0.040 A 
ATOM     22  F   UNL A   1      33.003  26.485  26.190  1.00  0.00    -0.206 F 
ATOM     23  C   UNL A   1      33.501  29.923  27.216  1.00  0.00     0.006 A 
ENDBRANCH  15  16
ENDBRANCH  11  15
ENDBRANCH   7   8
ENDBRANCH   5   7
ENDBRANCH   2   3
ENDBRANCH   1   2
BRANCH   1  24
ATOM     24  C   UNL A   1      37.033  23.023  25.682  1.00  0.00     0.118 C 
BRANCH  24  25
ATOM     25  N   UNL A   1      38.168  22.215  26.105  1.00  0.00    -0.352 N 
ATOM     26  C   UNL A   1      39.372  22.616  26.627  1.00  0.00     0.251 C 
ATOM     27  H   UNL A   1      38.055  21.242  26.002  1.00  0.00     0.163 HD
ATOM     28  O   UNL A   1      40.279  21.805  26.787  1.00  0.00    -0.269 OA
BRANCH  26  29
ATOM     29  C   UNL A   1      39.574  24.037  26.973  1.00  0.00     0.039 A 
ATOM     30  C   UNL A   1      39.300  24.464  28.274  1.00  0.00     0.014 A 
ATOM     31  C   UNL A   1      40.066  24.932  26.021  1.00  0.00     0.014 A 
ATOM     32  C   UNL A   1      39.595  25.779  28.643  1.00  0.00     0.010 A 
ATOM     33  C   UNL A   1      40.427  26.216  26.409  1.00  0.00     0.010 A 
ATOM     34  C   UNL A   1      40.199  26.651  27.724  1.00  0.00    -0.014 A 
BRANCH  34  35
ATOM     35  C   UNL A   1      40.628  28.020  28.111  1.00  0.00     0.031 A 
ATOM     36  C   UNL A   1      42.091  28.366  28.144  1.00  0.00     0.074 A 
ATOM     37  C   UNL A   1      39.712  28.906  28.551  1.00  0.00     0.049 A 
ATOM     38  N   UNL A   1      42.671  29.452  28.583  1.00  0.00    -0.248 NA
ATOM     39  C   UNL A   1      43.027  27.345  27.644  1.00  0.00     0.031 C 
ATOM     40  C   UNL A   1      38.269  28.663  28.632  1.00  0.00     0.029 A 
ATOM     41  N   UNL A   1      39.861  30.176  29.051  1.00  0.00    -0.354 N 
ATOM     42  C   UNL A   1      44.037  29.228  28.458  1.00  0.00     0.074 A 
ATOM     43  C   UNL A   1      44.200  27.893  27.926  1.00  0.00     0.031 C 
ATOM     44  C   UNL A   1      37.669  29.743  29.156  1.00  0.00     0.029 A 
ATOM     45  C   UNL A   1      38.683  30.739  29.486  1.00  0.00     0.049 A 
ATOM     46  H   UNL A   1      40.729  30.639  29.095  1.00  0.00     0.167 HD
ATOM     47  C   UNL A   1      45.062  30.067  28.738  1.00  0.00     0.034 A 
ATOM     48  C   UNL A   1      38.449  31.917  30.099  1.00  0.00     0.034 A 
ATOM     49  C   UNL A   1      44.892  31.409  29.222  1.00  0.00     0.049 A 
ATOM     50  C   UNL A   1      39.603  32.844  30.368  1.00  0.00     0.074 A 
ATOM     51  C   UNL A   1      45.861  32.369  29.452  1.00  0.00     0.029 A 
ATOM     52  N   UNL A   1      43.674  31.981  29.558  1.00  0.00    -0.354 N 
ATOM     53  N   UNL A   1      40.876  32.671  30.107  1.00  0.00    -0.248 NA
ATOM     54  C   UNL A   1      39.287  34.141  30.984  1.00  0.00     0.031 C 
ATOM     55  C   UNL A   1      45.232  33.514  29.950  1.00  0.00     0.029 A 
ATOM     56  C   UNL A   1      43.868  33.278  29.999  1.00  0.00     0.049 A 
ATOM     57  H   UNL A   1      42.801  31.531  29.490  1.00  0.00     0.167 HD
ATOM     58  C   UNL A   1      41.507  33.852  30.484  1.00  0.00     0.074 A 
ATOM     59  C   UNL A   1      40.474  34.736  30.984  1.00  0.00     0.031 C 
ATOM     60  C   UNL A   1      42.822  34.170  30.431  1.00  0.00     0.034 A 
BRANCH  47  61
ATOM     61  C   UNL A   1      46.462  29.575  28.481  1.00  0.00     0.023 A 
ATOM     62  C   UNL A   1      47.067  29.818  27.231  1.00  0.00     0.012 A 
ATOM     63  C   UNL A   1      47.200  28.930  29.492  1.00  0.00     0.148 A 
ATOM     64  C   UNL A   1      48.371  29.394  26.979  1.00  0.00     0.002 A 
ATOM     65  C   UNL A   1      48.516  28.553  29.249  1.00  0.00     0.091 A 
ATOM     66  F   UNL A   1      46.601  28.689  30.667  1.00  0.00    -0.205 F 
ATOM     67  C   UNL A   1      49.098  28.773  27.990  1.00  0.00     0.022 A 
BRANCH  65  68
ATOM     68  S   UNL A   1      49.561  27.820  30.512  1.00  0.00     0.127 S 
ATOM     69  O   UNL A   1      48.862  26.563  30.780  1.00  0.00    -0.237 OA
ATOM     70  O   UNL A   1      50.835  27.670  29.808  1.00  0.00    -0.237 OA
ATOM     71  O   UNL A   1      49.586  28.769  31.615  1.00  0.00    -0.744 OA
ENDBRANCH  65  68
ENDBRANCH  47  61
BRANCH  48  72
ATOM     72  C   UNL A   1      37.054  32.311  30.448  1.00  0.00     0.023 A 
ATOM     73  C   UNL A   1      36.565  32.045  31.742  1.00  0.00     0.012 A 
ATOM     74  C   UNL A   1      36.222  32.968  29.520  1.00  0.00     0.148 A 
ATOM     75  C   UNL A   1      35.262  32.397  32.095  1.00  0.00     0.002 A 
ATOM     76  C   UNL A   1      34.945  33.366  29.897  1.00  0.00     0.091 A 
ATOM     77  F   UNL A   1      36.703  33.204  28.291  1.00  0.00    -0.205 F 
ATOM     78  C   UNL A   1      34.455  33.065  31.177  1.00  0.00     0.022 A 
BRANCH  76  79
ATOM     79  S   UNL A   1      33.886  34.346  28.827  1.00  0.00     0.127 S 
ATOM     80  O   UNL A   1      32.809  34.725  29.737  1.00  0.00    -0.237 OA
ATOM     81  O   UNL A   1      34.778  35.438  28.436  1.00  0.00    -0.237 OA
ATOM     82  O   UNL A   1      33.507  33.463  27.732  1.00  0.00    -0.744 OA
ENDBRANCH  76  79
ENDBRANCH  48  72
BRANCH  60  83
ATOM     83  C   UNL A   1      43.234  35.552  30.866  1.00  0.00     0.023 A 
ATOM     84  C   UNL A   1      43.604  35.789  32.203  1.00  0.00     0.012 A 
ATOM     85  C   UNL A   1      43.356  36.587  29.917  1.00  0.00     0.148 A 
ATOM     86  C   UNL A   1      44.070  37.044  32.595  1.00  0.00     0.002 A 
ATOM     87  C   UNL A   1      43.869  37.818  30.304  1.00  0.00     0.091 A 
ATOM     88  F   UNL A   1      42.983  36.342  28.652  1.00  0.00    -0.205 F 
ATOM     89  C   UNL A   1      44.217  38.052  31.645  1.00  0.00     0.022 A 
BRANCH  87  90
ATOM     90  S   UNL A   1      44.189  39.142  29.132  1.00  0.00     0.127 S 
ATOM     91  O   UNL A   1      44.865  38.426  28.051  1.00  0.00    -0.237 OA
ATOM     92  O   UNL A   1      42.837  39.601  28.809  1.00  0.00    -0.237 OA
ATOM     93  O   UNL A   1      45.008  40.118  29.838  1.00  0.00    -0.744 OA
ENDBRANCH  87  90
ENDBRANCH  60  83
ENDBRANCH  34  35
ENDBRANCH  26  29
ENDBRANCH  24  25
ENDBRANCH   1  24
TORSDOF 16
ENDMDL
MODEL 2
REMARK VINA RESULT:     -11.5      1.840      2.281
REMARK SMILES O=C(C[C@H]1C[N@@H+](Cc2c(F)cccc2F)CCO1)NCCCNC(=O)c1ccc(-c2c3nc(c(-c4cccc(S(=O)(=O)[O-])c4F)c4ccc([nH]4)c(-c4cccc(S(=O)(=O)[O-])c4F)c4nc(c(-c5cccc(S(=O)(=O)[O-])c5F)c5ccc2[nH]5)C=C4)C=C3)cc1
REMARK SMILES IDX 21 1 20 2 19 3 1 4 2 5 3 7 4 8 5 9 18 10 6 11 17 12 16 13
REMARK SMILES IDX 7 15 8 16 9 17 14 18 10 19 11 20 13 21 15 22 12 23 22 24
REMARK SMILES IDX 23 25 24 26 25 28 26 29 27 30 88 31 28 32 87 33 29 34 30 35
REMARK SMILES IDX 31 36 81 37 32 38 86 39 80 40 82 41 33 42 85 43 79 44 78 45
REMARK SMILES IDX 34 47 66 48 46 49 65 50 47 51 50 52 64 53 83 54 48 55 49 56
REMARK SMILES IDX 63 58 84 59 51 60 35 61 36 62 44 63 37 64 39 65 45 66 38 67
REMARK SMILES IDX 40 68 41 69 42 70 43 71 67 72 68 73 76 74 69 75 71 76 77 77
REMARK SMILES IDX 70 78 72 79 73 80 74 81 75 82 52 83 53 84 61 85 54 86 56 87
REMARK SMILES IDX 62 88 55 89 57 90 58 91 59 92 60 93
REMARK H PARENT 19 6 6 14 23 27 82 46 50 57
REMARK Flexibility Score: inf
ROOT
ATOM      1  C   UNL A   1      35.614  22.028  25.848  1.00  0.00     0.042 C 
ENDROOT
BRANCH   1   2
ATOM      2  C   UNL A   1      34.816  22.106  24.551  1.00  0.00     0.117 C 
BRANCH   2   3
ATOM      3  N   UNL A   1      34.106  23.361  24.431  1.00  0.00    -0.356 N 
ATOM      4  O   UNL A   1      34.144  23.456  22.134  1.00  0.00    -0.275 OA
ATOM      5  C   UNL A   1      33.940  23.989  23.217  1.00  0.00     0.222 C 
ATOM      6  H   UNL A   1      33.732  23.776  25.241  1.00  0.00     0.163 HD
BRANCH   5   7
ATOM      7  C   UNL A   1      33.653  25.459  23.372  1.00  0.00     0.138 C 
BRANCH   7   8
ATOM      8  C   UNL A   1      32.965  26.159  22.212  1.00  0.00     0.182 C 
ATOM      9  C   UNL A   1      31.601  26.772  22.646  1.00  0.00     0.295 C 
ATOM     10  O   UNL A   1      33.798  27.169  21.612  1.00  0.00    -0.366 OA
ATOM     11  N   UNL A   1      31.674  28.004  23.433  1.00  0.00    -0.327 N 
ATOM     12  C   UNL A   1      33.966  28.332  22.436  1.00  0.00     0.222 C 
ATOM     13  C   UNL A   1      32.626  28.953  22.864  1.00  0.00     0.291 C 
ATOM     14  H   UNL A   1      30.754  28.428  23.313  1.00  0.00     0.348 HD
BRANCH  11  15
ATOM     15  C   UNL A   1      31.522  27.946  24.892  1.00  0.00     0.305 C 
BRANCH  15  16
ATOM     16  C   UNL A   1      32.436  28.777  25.754  1.00  0.00     0.078 A 
ATOM     17  C   UNL A   1      33.611  28.261  26.305  1.00  0.00     0.135 A 
ATOM     18  C   UNL A   1      32.128  30.109  26.057  1.00  0.00     0.135 A 
ATOM     19  F   UNL A   1      34.021  27.027  25.983  1.00  0.00    -0.206 F 
ATOM     20  C   UNL A   1      34.366  28.981  27.232  1.00  0.00     0.040 A 
ATOM     21  C   UNL A   1      32.872  30.847  26.981  1.00  0.00     0.040 A 
ATOM     22  F   UNL A   1      31.026  30.672  25.538  1.00  0.00    -0.206 F 
ATOM     23  C   UNL A   1      33.981  30.268  27.595  1.00  0.00     0.006 A 
ENDBRANCH  15  16
ENDBRANCH  11  15
ENDBRANCH   7   8
ENDBRANCH   5   7
ENDBRANCH   2   3
ENDBRANCH   1   2
BRANCH   1  24
ATOM     24  C   UNL A   1      36.893  22.859  25.861  1.00  0.00     0.118 C 
BRANCH  24  25
ATOM     25  N   UNL A   1      38.088  22.063  26.107  1.00  0.00    -0.352 N 
ATOM     26  C   UNL A   1      39.336  22.473  26.502  1.00  0.00     0.251 C 
ATOM     27  H   UNL A   1      37.984  21.093  25.971  1.00  0.00     0.163 HD
ATOM     28  O   UNL A   1      40.274  21.679  26.514  1.00  0.00    -0.269 OA
BRANCH  26  29
ATOM     29  C   UNL A   1      39.547  23.881  26.890  1.00  0.00     0.039 A 
ATOM     30  C   UNL A   1      39.300  24.266  28.209  1.00  0.00     0.014 A 
ATOM     31  C   UNL A   1      40.023  24.806  25.957  1.00  0.00     0.014 A 
ATOM     32  C   UNL A   1      39.604  25.568  28.614  1.00  0.00     0.010 A 
ATOM     33  C   UNL A   1      40.394  26.077  26.380  1.00  0.00     0.010 A 
ATOM     34  C   UNL A   1      40.192  26.469  27.713  1.00  0.00    -0.014 A 
BRANCH  34  35
ATOM     35  C   UNL A   1      40.631  27.824  28.136  1.00  0.00     0.031 A 
ATOM     36  C   UNL A   1      42.097  28.131  28.264  1.00  0.00     0.074 A 
ATOM     37  C   UNL A   1      39.712  28.732  28.522  1.00  0.00     0.049 A 
ATOM     38  N   UNL A   1      42.677  29.199  28.746  1.00  0.00    -0.248 NA
ATOM     39  C   UNL A   1      43.036  27.088  27.818  1.00  0.00     0.031 C 
ATOM     40  C   UNL A   1      38.261  28.526  28.510  1.00  0.00     0.029 A 
ATOM     41  N   UNL A   1      39.862  29.994  29.039  1.00  0.00    -0.354 N 
ATOM     42  C   UNL A   1      44.041  28.940  28.707  1.00  0.00     0.074 A 
ATOM     43  C   UNL A   1      44.203  27.604  28.177  1.00  0.00     0.031 C 
ATOM     44  C   UNL A   1      37.657  29.619  29.002  1.00  0.00     0.029 A 
ATOM     45  C   UNL A   1      38.674  30.587  29.402  1.00  0.00     0.049 A 
ATOM     46  H   UNL A   1      40.737  30.434  29.141  1.00  0.00     0.167 HD
ATOM     47  C   UNL A   1      45.068  29.750  29.057  1.00  0.00     0.034 A 
ATOM     48  C   UNL A   1      38.432  31.767  30.007  1.00  0.00     0.034 A 
ATOM     49  C   UNL A   1      44.902  31.094  29.539  1.00  0.00     0.049 A 
ATOM     50  C   UNL A   1      39.590  32.662  30.355  1.00  0.00     0.074 A 
ATOM     51  C   UNL A   1      45.880  32.026  29.836  1.00  0.00     0.029 A 
ATOM     52  N   UNL A   1      43.681  31.696  29.800  1.00  0.00    -0.354 N 
ATOM     53  N   UNL A   1      40.872  32.457  30.174  1.00  0.00    -0.248 NA
ATOM     54  C   UNL A   1      39.270  33.964  30.958  1.00  0.00     0.031 C 
ATOM     55  C   UNL A   1      45.250  33.185  30.301  1.00  0.00     0.029 A 
ATOM     56  C   UNL A   1      43.879  32.985  30.262  1.00  0.00     0.049 A 
ATOM     57  H   UNL A   1      42.802  31.270  29.674  1.00  0.00     0.167 HD
ATOM     58  C   UNL A   1      41.508  33.619  30.599  1.00  0.00     0.074 A 
ATOM     59  C   UNL A   1      40.469  34.527  31.037  1.00  0.00     0.031 C 
ATOM     60  C   UNL A   1      42.832  33.902  30.631  1.00  0.00     0.034 A 
BRANCH  47  61
ATOM     61  C   UNL A   1      46.468  29.223  28.887  1.00  0.00     0.023 A 
ATOM     62  C   UNL A   1      47.199  28.808  30.019  1.00  0.00     0.012 A 
ATOM     63  C   UNL A   1      47.037  29.079  27.606  1.00  0.00     0.148 A 
ATOM     64  C   UNL A   1      48.487  28.292  29.883  1.00  0.00     0.002 A 
ATOM     65  C   UNL A   1      48.303  28.520  27.476  1.00  0.00     0.091 A 
ATOM     66  F   UNL A   1      46.336  29.498  26.543  1.00  0.00    -0.205 F 
ATOM     67  C   UNL A   1      49.034  28.138  28.612  1.00  0.00     0.022 A 
BRANCH  65  68
ATOM     68  S   UNL A   1      49.061  28.204  25.878  1.00  0.00     0.127 S 
ATOM     69  O   UNL A   1      47.911  28.309  24.980  1.00  0.00    -0.237 OA
ATOM     70  O   UNL A   1      50.019  29.304  25.769  1.00  0.00    -0.237 OA
ATOM     71  O   UNL A   1      49.663  26.883  25.971  1.00  0.00    -0.744 OA
ENDBRANCH  65  68
ENDBRANCH  47  61
BRANCH  48  72
ATOM     72  C   UNL A   1      37.028  32.196  30.268  1.00  0.00     0.023 A 
ATOM     73  C   UNL A   1      36.418  31.853  31.491  1.00  0.00     0.012 A 
ATOM     74  C   UNL A   1      36.306  32.961  29.331  1.00  0.00     0.148 A 
ATOM     75  C   UNL A   1      35.104  32.236  31.762  1.00  0.00     0.002 A 
ATOM     76  C   UNL A   1      35.017  33.385  29.631  1.00  0.00     0.091 A 
ATOM     77  F   UNL A   1      36.901  33.269  28.170  1.00  0.00    -0.205 F 
ATOM     78  C   UNL A   1      34.407  33.009  30.837  1.00  0.00     0.022 A 
BRANCH  76  79
ATOM     79  S   UNL A   1      34.094  34.493  28.559  1.00  0.00     0.127 S 
ATOM     80  O   UNL A   1      32.807  34.569  29.244  1.00  0.00    -0.237 OA
ATOM     81  O   UNL A   1      34.899  35.713  28.619  1.00  0.00    -0.237 OA
ATOM     82  O   UNL A   1      34.077  33.852  27.251  1.00  0.00    -0.744 OA
ENDBRANCH  76  79
ENDBRANCH  48  72
BRANCH  60  83
ATOM     83  C   UNL A   1      43.251  35.270  31.101  1.00  0.00     0.023 A 
ATOM     84  C   UNL A   1      43.516  36.287  30.163  1.00  0.00     0.012 A 
ATOM     85  C   UNL A   1      43.273  35.572  32.477  1.00  0.00     0.148 A 
ATOM     86  C   UNL A   1      43.820  37.579  30.591  1.00  0.00     0.002 A 
ATOM     87  C   UNL A   1      43.526  36.873  32.894  1.00  0.00     0.091 A 
ATOM     88  F   UNL A   1      43.032  34.584  33.352  1.00  0.00    -0.205 F 
ATOM     89  C   UNL A   1      43.809  37.876  31.952  1.00  0.00     0.022 A 
BRANCH  87  90
ATOM     90  S   UNL A   1      43.434  37.370  34.617  1.00  0.00     0.127 S 
ATOM     91  O   UNL A   1      42.033  37.090  34.934  1.00  0.00    -0.237 OA
ATOM     92  O   UNL A   1      44.395  36.466  35.251  1.00  0.00    -0.237 OA
ATOM     93  O   UNL A   1      43.810  38.776  34.653  1.00  0.00    -0.744 OA
ENDBRANCH  87  90
ENDBRANCH  60  83
ENDBRANCH  34  35
ENDBRANCH  26  29
ENDBRANCH  24  25
ENDBRANCH   1  24
TORSDOF 16
ENDMDL
MODEL 3
REMARK VINA RESULT:     -11.5      2.970      8.131
REMARK SMILES O=C(C[C@H]1C[N@@H+](Cc2c(F)cccc2F)CCO1)NCCCNC(=O)c1ccc(-c2c3nc(c(-c4cccc(S(=O)(=O)[O-])c4F)c4ccc([nH]4)c(-c4cccc(S(=O)(=O)[O-])c4F)c4nc(c(-c5cccc(S(=O)(=O)[O-])c5F)c5ccc2[nH]5)C=C4)C=C3)cc1
REMARK SMILES IDX 21 1 20 2 19 3 1 4 2 5 3 7 4 8 5 9 18 10 6 11 17 12 16 13
REMARK SMILES IDX 7 15 8 16 9 17 14 18 10 19 11 20 13 21 15 22 12 23 22 24
REMARK SMILES IDX 23 25 24 26 25 28 26 29 27 30 88 31 28 32 87 33 29 34 30 35
REMARK SMILES IDX 31 36 81 37 32 38 86 39 80 40 82 41 33 42 85 43 79 44 78 45
REMARK SMILES IDX 34 47 66 48 46 49 65 50 47 51 50 52 64 53 83 54 48 55 49 56
REMARK SMILES IDX 63 58 84 59 51 60 35 61 36 62 44 63 37 64 39 65 45 66 38 67
REMARK SMILES IDX 40 68 41 69 42 70 43 71 67 72 68 73 76 74 69 75 71 76 77 77
REMARK SMILES IDX 70 78 72 79 73 80 74 81 75 82 52 83 53 84 61 85 54 86 56 87
REMARK SMILES IDX 62 88 55 89 57 90 58 91 59 92 60 93
REMARK H PARENT 19 6 6 14 23 27 82 46 50 57
REMARK Flexibility Score: inf
ROOT
ATOM      1  C   UNL A   1      36.546  21.791  24.243  1.00  0.00     0.042 C 
ENDROOT
BRANCH   1   2
ATOM      2  C   UNL A   1      36.191  23.229  23.883  1.00  0.00     0.117 C 
BRANCH   2   3
ATOM      3  N   UNL A   1      34.804  23.527  24.165  1.00  0.00    -0.356 N 
ATOM      4  O   UNL A   1      34.061  23.358  21.995  1.00  0.00    -0.275 OA
ATOM      5  C   UNL A   1      33.875  23.686  23.160  1.00  0.00     0.222 C 
ATOM      6  H   UNL A   1      34.517  23.620  25.102  1.00  0.00     0.163 HD
BRANCH   5   7
ATOM      7  C   UNL A   1      32.673  24.471  23.615  1.00  0.00     0.138 C 
BRANCH   7   8
ATOM      8  C   UNL A   1      32.831  25.320  24.865  1.00  0.00     0.182 C 
ATOM      9  C   UNL A   1      32.128  26.701  24.705  1.00  0.00     0.295 C 
ATOM     10  O   UNL A   1      32.350  24.649  26.045  1.00  0.00    -0.366 OA
ATOM     11  N   UNL A   1      30.669  26.694  24.811  1.00  0.00    -0.327 N 
ATOM     12  C   UNL A   1      30.919  24.538  26.094  1.00  0.00     0.222 C 
ATOM     13  C   UNL A   1      30.214  25.896  25.946  1.00  0.00     0.291 C 
ATOM     14  H   UNL A   1      30.434  27.660  25.040  1.00  0.00     0.348 HD
BRANCH  11  15
ATOM     15  C   UNL A   1      29.849  26.720  23.594  1.00  0.00     0.305 C 
BRANCH  15  16
ATOM     16  C   UNL A   1      29.373  28.046  23.063  1.00  0.00     0.078 A 
ATOM     17  C   UNL A   1      28.036  28.442  23.141  1.00  0.00     0.135 A 
ATOM     18  C   UNL A   1      30.261  28.936  22.445  1.00  0.00     0.135 A 
ATOM     19  F   UNL A   1      27.147  27.687  23.801  1.00  0.00    -0.206 F 
ATOM     20  C   UNL A   1      27.573  29.594  22.503  1.00  0.00     0.040 A 
ATOM     21  C   UNL A   1      29.817  30.095  21.805  1.00  0.00     0.040 A 
ATOM     22  F   UNL A   1      31.563  28.627  22.362  1.00  0.00    -0.206 F 
ATOM     23  C   UNL A   1      28.460  30.409  21.808  1.00  0.00     0.006 A 
ENDBRANCH  15  16
ENDBRANCH  11  15
ENDBRANCH   7   8
ENDBRANCH   5   7
ENDBRANCH   2   3
ENDBRANCH   1   2
BRANCH   1  24
ATOM     24  C   UNL A   1      37.072  21.600  25.662  1.00  0.00     0.118 C 
BRANCH  24  25
ATOM     25  N   UNL A   1      38.098  20.571  25.757  1.00  0.00    -0.352 N 
ATOM     26  C   UNL A   1      39.411  20.687  26.140  1.00  0.00     0.251 C 
ATOM     27  H   UNL A   1      37.808  19.662  25.511  1.00  0.00     0.163 HD
ATOM     28  O   UNL A   1      40.179  19.738  26.014  1.00  0.00    -0.269 OA
BRANCH  26  29
ATOM     29  C   UNL A   1      39.895  21.972  26.683  1.00  0.00     0.039 A 
ATOM     30  C   UNL A   1      40.861  21.961  27.692  1.00  0.00     0.014 A 
ATOM     31  C   UNL A   1      39.420  23.180  26.168  1.00  0.00     0.014 A 
ATOM     32  C   UNL A   1      41.408  23.168  28.132  1.00  0.00     0.010 A 
ATOM     33  C   UNL A   1      40.018  24.373  26.554  1.00  0.00     0.010 A 
ATOM     34  C   UNL A   1      41.021  24.379  27.537  1.00  0.00    -0.014 A 
BRANCH  34  35
ATOM     35  C   UNL A   1      41.660  25.669  27.901  1.00  0.00     0.031 A 
ATOM     36  C   UNL A   1      40.862  26.728  28.610  1.00  0.00     0.074 A 
ATOM     37  C   UNL A   1      42.915  25.932  27.484  1.00  0.00     0.049 A 
ATOM     38  N   UNL A   1      41.192  27.961  28.889  1.00  0.00    -0.248 NA
ATOM     39  C   UNL A   1      39.500  26.360  29.034  1.00  0.00     0.031 C 
ATOM     40  C   UNL A   1      43.767  25.011  26.728  1.00  0.00     0.029 A 
ATOM     41  N   UNL A   1      43.679  27.067  27.602  1.00  0.00    -0.354 N 
ATOM     42  C   UNL A   1      40.069  28.530  29.476  1.00  0.00     0.074 A 
ATOM     43  C   UNL A   1      39.039  27.515  29.491  1.00  0.00     0.031 C 
ATOM     44  C   UNL A   1      44.930  25.619  26.445  1.00  0.00     0.029 A 
ATOM     45  C   UNL A   1      44.894  26.983  26.961  1.00  0.00     0.049 A 
ATOM     46  H   UNL A   1      43.385  27.865  28.098  1.00  0.00     0.167 HD
ATOM     47  C   UNL A   1      39.917  29.778  29.981  1.00  0.00     0.034 A 
ATOM     48  C   UNL A   1      45.861  27.907  26.792  1.00  0.00     0.034 A 
ATOM     49  C   UNL A   1      40.959  30.766  30.006  1.00  0.00     0.049 A 
ATOM     50  C   UNL A   1      45.680  29.275  27.392  1.00  0.00     0.074 A 
ATOM     51  C   UNL A   1      40.933  32.027  30.574  1.00  0.00     0.029 A 
ATOM     52  N   UNL A   1      42.213  30.610  29.434  1.00  0.00    -0.354 N 
ATOM     53  N   UNL A   1      44.664  29.746  28.073  1.00  0.00    -0.248 NA
ATOM     54  C   UNL A   1      46.789  30.226  27.230  1.00  0.00     0.031 C 
ATOM     55  C   UNL A   1      42.163  32.644  30.324  1.00  0.00     0.029 A 
ATOM     56  C   UNL A   1      42.967  31.753  29.629  1.00  0.00     0.049 A 
ATOM     57  H   UNL A   1      42.521  29.803  28.961  1.00  0.00     0.167 HD
ATOM     58  C   UNL A   1      45.028  31.032  28.459  1.00  0.00     0.074 A 
ATOM     59  C   UNL A   1      46.362  31.261  27.943  1.00  0.00     0.031 C 
ATOM     60  C   UNL A   1      44.318  31.942  29.167  1.00  0.00     0.034 A 
BRANCH  47  61
ATOM     61  C   UNL A   1      38.587  30.130  30.593  1.00  0.00     0.023 A 
ATOM     62  C   UNL A   1      38.306  29.745  31.920  1.00  0.00     0.012 A 
ATOM     63  C   UNL A   1      37.641  30.893  29.880  1.00  0.00     0.148 A 
ATOM     64  C   UNL A   1      37.092  30.082  32.516  1.00  0.00     0.002 A 
ATOM     65  C   UNL A   1      36.452  31.265  30.498  1.00  0.00     0.091 A 
ATOM     66  F   UNL A   1      37.916  31.232  28.612  1.00  0.00    -0.205 F 
ATOM     67  C   UNL A   1      36.171  30.851  31.809  1.00  0.00     0.022 A 
BRANCH  65  68
ATOM     68  S   UNL A   1      35.238  32.322  29.701  1.00  0.00     0.127 S 
ATOM     69  O   UNL A   1      34.304  32.577  30.797  1.00  0.00    -0.237 OA
ATOM     70  O   UNL A   1      36.046  33.477  29.309  1.00  0.00    -0.237 OA
ATOM     71  O   UNL A   1      34.701  31.552  28.589  1.00  0.00    -0.744 OA
ENDBRANCH  65  68
ENDBRANCH  47  61
BRANCH  48  72
ATOM     72  C   UNL A   1      47.115  27.548  26.069  1.00  0.00     0.023 A 
ATOM     73  C   UNL A   1      48.166  26.930  26.775  1.00  0.00     0.012 A 
ATOM     74  C   UNL A   1      47.262  27.787  24.689  1.00  0.00     0.148 A 
ATOM     75  C   UNL A   1      49.353  26.588  26.127  1.00  0.00     0.002 A 
ATOM     76  C   UNL A   1      48.426  27.393  24.039  1.00  0.00     0.091 A 
ATOM     77  F   UNL A   1      46.254  28.384  24.037  1.00  0.00    -0.205 F 
ATOM     78  C   UNL A   1      49.480  26.811  24.759  1.00  0.00     0.022 A 
BRANCH  76  79
ATOM     79  S   UNL A   1      48.624  27.519  22.258  1.00  0.00     0.127 S 
ATOM     80  O   UNL A   1      47.430  28.267  21.875  1.00  0.00    -0.237 OA
ATOM     81  O   UNL A   1      49.881  28.260  22.145  1.00  0.00    -0.237 OA
ATOM     82  O   UNL A   1      48.694  26.147  21.771  1.00  0.00    -0.744 OA
ENDBRANCH  76  79
ENDBRANCH  48  72
BRANCH  60  83
ATOM     83  C   UNL A   1      44.976  33.257  29.490  1.00  0.00     0.023 A 
ATOM     84  C   UNL A   1      45.775  33.383  30.643  1.00  0.00     0.012 A 
ATOM     85  C   UNL A   1      44.888  34.335  28.586  1.00  0.00     0.148 A 
ATOM     86  C   UNL A   1      46.458  34.570  30.902  1.00  0.00     0.002 A 
ATOM     87  C   UNL A   1      45.612  35.496  28.825  1.00  0.00     0.091 A 
ATOM     88  F   UNL A   1      44.109  34.199  27.503  1.00  0.00    -0.205 F 
ATOM     89  C   UNL A   1      46.390  35.619  29.988  1.00  0.00     0.022 A 
BRANCH  87  90
ATOM     90  S   UNL A   1      45.665  36.859  27.656  1.00  0.00     0.127 S 
ATOM     91  O   UNL A   1      46.561  37.797  28.333  1.00  0.00    -0.237 OA
ATOM     92  O   UNL A   1      46.232  36.224  26.466  1.00  0.00    -0.237 OA
ATOM     93  O   UNL A   1      44.290  37.315  27.504  1.00  0.00    -0.744 OA
ENDBRANCH  87  90
ENDBRANCH  60  83
ENDBRANCH  34  35
ENDBRANCH  26  29
ENDBRANCH  24  25
ENDBRANCH   1  24
TORSDOF 16
ENDMDL
