MODEL 1
REMARK VINA RESULT:     -11.7      0.000      0.000
REMARK SMILES CC[NH2+][C@H](C)c1cccn1Cc1ccc(C(=O)NCCCNC(=O)c2ccc(-c3c4nc(c(-c5cccc(S(=O)(=O)[O-])c5F)c5ccc([nH]5)c(-c5cccc(S(=O)(=O)[O-])c5F)c5nc(c(-c6cccc(S(=O)(=O)[O-])c6F)c6ccc3[nH]6)C=C5)C=C4)cc2)cc1
REMARK SMILES IDX 19 1 18 2 16 3 17 4 15 6 12 7 13 8 89 9 14 10 88 11 11 12
REMARK SMILES IDX 10 13 6 14 7 15 8 16 9 17 4 18 5 19 3 20 2 23 1 24 20 25
REMARK SMILES IDX 21 26 22 27 23 28 24 30 25 31 26 32 87 33 27 34 86 35 28 36
REMARK SMILES IDX 29 37 30 38 80 39 31 40 85 41 79 42 81 43 32 44 84 45 78 46
REMARK SMILES IDX 77 47 33 49 65 50 45 51 64 52 46 53 49 54 63 55 82 56 47 57
REMARK SMILES IDX 48 58 62 60 83 61 50 62 34 63 35 64 43 65 36 66 38 67 44 68
REMARK SMILES IDX 37 69 39 70 40 71 41 72 42 73 66 74 67 75 75 76 68 77 70 78
REMARK SMILES IDX 76 79 69 80 71 81 72 82 73 83 74 84 51 85 52 86 60 87 53 88
REMARK SMILES IDX 55 89 61 90 54 91 56 92 57 93 58 94 59 95
REMARK H PARENT 18 5 3 21 3 22 22 29 81 48 49 59
REMARK Flexibility Score: inf
ROOT
ATOM      1  C   UNL A   1      35.801  22.765  24.647  1.00  0.00     0.118 C 
ENDROOT
BRANCH   1   2
ATOM      2  N   UNL A   1      34.949  21.592  24.667  1.00  0.00    -0.352 N 
ATOM      3  C   UNL A   1      33.598  21.434  24.861  1.00  0.00     0.251 C 
ATOM      4  O   UNL A   1      33.129  20.307  24.702  1.00  0.00    -0.269 OA
ATOM      5  H   UNL A   1      35.431  20.747  24.510  1.00  0.00     0.163 HD
BRANCH   3   6
ATOM      6  C   UNL A   1      32.667  22.557  25.187  1.00  0.00     0.039 A 
ATOM      7  C   UNL A   1      31.014  24.844  25.542  1.00  0.00    -0.028 A 
ATOM      8  C   UNL A   1      30.962  24.095  24.364  1.00  0.00     0.006 A 
ATOM      9  C   UNL A   1      31.777  24.331  26.593  1.00  0.00     0.006 A 
ATOM     10  C   UNL A   1      31.794  22.982  24.178  1.00  0.00     0.014 A 
ATOM     11  C   UNL A   1      32.582  23.202  26.419  1.00  0.00     0.014 A 
BRANCH   7  12
ATOM     12  C   UNL A   1      30.278  26.164  25.670  1.00  0.00     0.157 C 
BRANCH  12  13
ATOM     13  N   UNL A   1      30.529  27.063  24.532  1.00  0.00    -0.342 N 
ATOM     14  C   UNL A   1      31.703  27.728  24.182  1.00  0.00     0.076 A 
ATOM     15  C   UNL A   1      31.405  28.471  23.043  1.00  0.00     0.029 A 
ATOM     16  C   UNL A   1      30.085  28.190  22.644  1.00  0.00     0.020 A 
ATOM     17  C   UNL A   1      29.588  27.285  23.544  1.00  0.00     0.086 A 
BRANCH  14  18
ATOM     18  C   UNL A   1      33.048  27.550  24.853  1.00  0.00     0.227 C 
ATOM     19  C   UNL A   1      33.924  26.454  24.218  1.00  0.00     0.082 C 
BRANCH  18  20
ATOM     20  N   UNL A   1      33.824  28.779  25.037  1.00  0.00    -0.339 N 
ATOM     21  H   UNL A   1      34.803  28.519  25.158  1.00  0.00     0.346 HD
ATOM     22  H   UNL A   1      33.650  29.347  24.207  1.00  0.00     0.346 HD
BRANCH  20  23
ATOM     23  C   UNL A   1      33.433  29.605  26.178  1.00  0.00     0.257 C 
ATOM     24  C   UNL A   1      32.971  28.697  27.314  1.00  0.00     0.071 C 
ENDBRANCH  20  23
ENDBRANCH  18  20
ENDBRANCH  14  18
ENDBRANCH  12  13
ENDBRANCH   7  12
ENDBRANCH   3   6
ENDBRANCH   1   2
BRANCH   1  25
ATOM     25  C   UNL A   1      36.235  23.172  26.061  1.00  0.00     0.042 C 
BRANCH  25  26
ATOM     26  C   UNL A   1      37.429  24.116  26.045  1.00  0.00     0.118 C 
BRANCH  26  27
ATOM     27  N   UNL A   1      38.594  23.452  26.614  1.00  0.00    -0.352 N 
ATOM     28  C   UNL A   1      39.707  23.980  27.218  1.00  0.00     0.251 C 
ATOM     29  H   UNL A   1      38.581  22.470  26.557  1.00  0.00     0.163 HD
ATOM     30  O   UNL A   1      40.703  23.274  27.324  1.00  0.00    -0.269 OA
BRANCH  28  31
ATOM     31  C   UNL A   1      39.731  25.370  27.716  1.00  0.00     0.039 A 
ATOM     32  C   UNL A   1      39.222  25.608  29.001  1.00  0.00     0.014 A 
ATOM     33  C   UNL A   1      40.167  26.435  26.924  1.00  0.00     0.014 A 
ATOM     34  C   UNL A   1      39.217  26.899  29.517  1.00  0.00     0.010 A 
ATOM     35  C   UNL A   1      40.188  27.721  27.445  1.00  0.00     0.010 A 
ATOM     36  C   UNL A   1      39.733  27.948  28.747  1.00  0.00    -0.014 A 
BRANCH  36  37
ATOM     37  C   UNL A   1      39.955  29.267  29.376  1.00  0.00     0.031 A 
ATOM     38  C   UNL A   1      38.737  30.204  29.152  1.00  0.00     0.074 A 
ATOM     39  C   UNL A   1      41.152  29.427  30.026  1.00  0.00     0.049 A 
ATOM     40  N   UNL A   1      38.679  31.498  29.022  1.00  0.00    -0.248 NA
ATOM     41  C   UNL A   1      37.392  29.600  28.924  1.00  0.00     0.031 C 
ATOM     42  C   UNL A   1      42.185  28.372  30.170  1.00  0.00     0.029 A 
ATOM     43  N   UNL A   1      41.751  30.472  30.701  1.00  0.00    -0.354 N 
ATOM     44  C   UNL A   1      37.303  31.857  28.954  1.00  0.00     0.074 A 
ATOM     45  C   UNL A   1      36.580  30.645  28.742  1.00  0.00     0.031 C 
ATOM     46  C   UNL A   1      43.283  28.845  30.803  1.00  0.00     0.029 A 
ATOM     47  C   UNL A   1      43.076  30.235  31.157  1.00  0.00     0.049 A 
ATOM     48  H   UNL A   1      41.289  31.327  30.857  1.00  0.00     0.167 HD
ATOM     49  C   UNL A   1      36.840  33.112  29.249  1.00  0.00     0.034 A 
ATOM     50  C   UNL A   1      43.957  31.109  31.740  1.00  0.00     0.034 A 
ATOM     51  C   UNL A   1      37.942  33.918  29.659  1.00  0.00     0.049 A 
ATOM     52  C   UNL A   1      43.183  32.330  31.987  1.00  0.00     0.074 A 
ATOM     53  C   UNL A   1      38.976  34.507  28.984  1.00  0.00     0.029 A 
ATOM     54  N   UNL A   1      38.226  33.867  31.002  1.00  0.00    -0.354 N 
ATOM     55  N   UNL A   1      42.273  32.454  32.908  1.00  0.00    -0.248 NA
ATOM     56  C   UNL A   1      43.340  33.461  31.064  1.00  0.00     0.031 C 
ATOM     57  C   UNL A   1      40.053  34.375  29.882  1.00  0.00     0.029 A 
ATOM     58  C   UNL A   1      39.587  33.923  31.125  1.00  0.00     0.049 A 
ATOM     59  H   UNL A   1      37.574  33.802  31.737  1.00  0.00     0.167 HD
ATOM     60  C   UNL A   1      41.527  33.498  32.425  1.00  0.00     0.074 A 
ATOM     61  C   UNL A   1      42.394  34.257  31.550  1.00  0.00     0.031 C 
ATOM     62  C   UNL A   1      40.181  33.364  32.314  1.00  0.00     0.034 A 
BRANCH  49  63
ATOM     63  C   UNL A   1      35.477  33.732  29.494  1.00  0.00     0.023 A 
ATOM     64  C   UNL A   1      34.819  34.220  28.323  1.00  0.00     0.012 A 
ATOM     65  C   UNL A   1      34.959  34.144  30.732  1.00  0.00     0.148 A 
ATOM     66  C   UNL A   1      33.811  35.180  28.366  1.00  0.00     0.002 A 
ATOM     67  C   UNL A   1      33.904  35.069  30.772  1.00  0.00     0.091 A 
ATOM     68  F   UNL A   1      35.528  33.711  31.861  1.00  0.00    -0.205 F 
ATOM     69  C   UNL A   1      33.367  35.620  29.597  1.00  0.00     0.022 A 
BRANCH  67  70
ATOM     70  S   UNL A   1      33.157  35.642  32.302  1.00  0.00     0.127 S 
ATOM     71  O   UNL A   1      32.172  36.606  31.819  1.00  0.00    -0.237 OA
ATOM     72  O   UNL A   1      32.579  34.406  32.838  1.00  0.00    -0.237 OA
ATOM     73  O   UNL A   1      34.254  36.175  33.099  1.00  0.00    -0.744 OA
ENDBRANCH  67  70
ENDBRANCH  49  63
BRANCH  50  74
ATOM     74  C   UNL A   1      45.441  31.167  32.049  1.00  0.00     0.023 A 
ATOM     75  C   UNL A   1      45.982  31.427  33.315  1.00  0.00     0.012 A 
ATOM     76  C   UNL A   1      46.390  30.838  31.031  1.00  0.00     0.148 A 
ATOM     77  C   UNL A   1      47.362  31.258  33.571  1.00  0.00     0.002 A 
ATOM     78  C   UNL A   1      47.716  30.535  31.313  1.00  0.00     0.091 A 
ATOM     79  F   UNL A   1      46.023  30.860  29.745  1.00  0.00    -0.205 F 
ATOM     80  C   UNL A   1      48.217  30.758  32.589  1.00  0.00     0.022 A 
BRANCH  78  81
ATOM     81  S   UNL A   1      48.768  29.690  30.112  1.00  0.00     0.127 S 
ATOM     82  O   UNL A   1      47.879  28.655  29.589  1.00  0.00    -0.237 OA
ATOM     83  O   UNL A   1      49.070  30.773  29.175  1.00  0.00    -0.237 OA
ATOM     84  O   UNL A   1      49.925  29.200  30.853  1.00  0.00    -0.744 OA
ENDBRANCH  78  81
ENDBRANCH  50  74
BRANCH  62  85
ATOM     85  C   UNL A   1      39.541  32.378  33.290  1.00  0.00     0.023 A 
ATOM     86  C   UNL A   1      39.122  31.140  32.764  1.00  0.00     0.012 A 
ATOM     87  C   UNL A   1      39.246  32.629  34.654  1.00  0.00     0.148 A 
ATOM     88  C   UNL A   1      38.437  30.201  33.540  1.00  0.00     0.002 A 
ATOM     89  C   UNL A   1      38.548  31.695  35.431  1.00  0.00     0.091 A 
ATOM     90  F   UNL A   1      39.641  33.779  35.190  1.00  0.00    -0.205 F 
ATOM     91  C   UNL A   1      38.149  30.477  34.871  1.00  0.00     0.022 A 
BRANCH  89  92
ATOM     92  S   UNL A   1      38.054  31.975  37.147  1.00  0.00     0.127 S 
ATOM     93  O   UNL A   1      37.058  33.042  37.018  1.00  0.00    -0.237 OA
ATOM     94  O   UNL A   1      37.495  30.678  37.522  1.00  0.00    -0.237 OA
ATOM     95  O   UNL A   1      39.256  32.370  37.870  1.00  0.00    -0.744 OA
ENDBRANCH  89  92
ENDBRANCH  62  85
ENDBRANCH  36  37
ENDBRANCH  28  31
ENDBRANCH  26  27
ENDBRANCH  25  26
ENDBRANCH   1  25
TORSDOF 18
ENDMDL
MODEL 2
REMARK VINA RESULT:     -11.7      4.139     10.065
REMARK SMILES CC[NH2+][C@H](C)c1cccn1Cc1ccc(C(=O)NCCCNC(=O)c2ccc(-c3c4nc(c(-c5cccc(S(=O)(=O)[O-])c5F)c5ccc([nH]5)c(-c5cccc(S(=O)(=O)[O-])c5F)c5nc(c(-c6cccc(S(=O)(=O)[O-])c6F)c6ccc3[nH]6)C=C5)C=C4)cc2)cc1
REMARK SMILES IDX 19 1 18 2 16 3 17 4 15 6 12 7 13 8 89 9 14 10 88 11 11 12
REMARK SMILES IDX 10 13 6 14 7 15 8 16 9 17 4 18 5 19 3 20 2 23 1 24 20 25
REMARK SMILES IDX 21 26 22 27 23 28 24 30 25 31 26 32 87 33 27 34 86 35 28 36
REMARK SMILES IDX 29 37 30 38 80 39 31 40 85 41 79 42 81 43 32 44 84 45 78 46
REMARK SMILES IDX 77 47 33 49 65 50 45 51 64 52 46 53 49 54 63 55 82 56 47 57
REMARK SMILES IDX 48 58 62 60 83 61 50 62 34 63 35 64 43 65 36 66 38 67 44 68
REMARK SMILES IDX 37 69 39 70 40 71 41 72 42 73 66 74 67 75 75 76 68 77 70 78
REMARK SMILES IDX 76 79 69 80 71 81 72 82 73 83 74 84 51 85 52 86 60 87 53 88
REMARK SMILES IDX 55 89 61 90 54 91 56 92 57 93 58 94 59 95
REMARK H PARENT 18 5 3 21 3 22 22 29 81 48 49 59
REMARK Flexibility Score: inf
ROOT
ATOM      1  C   UNL A   1      32.294  28.598  26.130  1.00  0.00     0.118 C 
ENDROOT
BRANCH   1   2
ATOM      2  N   UNL A   1      31.335  29.143  25.188  1.00  0.00    -0.352 N 
ATOM      3  C   UNL A   1      30.894  28.707  23.962  1.00  0.00     0.251 C 
ATOM      4  O   UNL A   1      29.969  29.327  23.437  1.00  0.00    -0.269 OA
ATOM      5  H   UNL A   1      30.921  29.986  25.483  1.00  0.00     0.163 HD
BRANCH   3   6
ATOM      6  C   UNL A   1      31.425  27.493  23.270  1.00  0.00     0.039 A 
ATOM      7  C   UNL A   1      32.459  25.047  22.249  1.00  0.00    -0.028 A 
ATOM      8  C   UNL A   1      31.288  25.071  23.011  1.00  0.00     0.006 A 
ATOM      9  C   UNL A   1      33.001  26.278  21.871  1.00  0.00     0.006 A 
ATOM     10  C   UNL A   1      30.791  26.273  23.535  1.00  0.00     0.014 A 
ATOM     11  C   UNL A   1      32.485  27.478  22.366  1.00  0.00     0.014 A 
BRANCH   7  12
ATOM     12  C   UNL A   1      33.120  23.739  21.858  1.00  0.00     0.157 C 
BRANCH  12  13
ATOM     13  N   UNL A   1      33.136  22.764  22.960  1.00  0.00    -0.342 N 
ATOM     14  C   UNL A   1      33.864  22.796  24.149  1.00  0.00     0.076 A 
ATOM     15  C   UNL A   1      33.544  21.626  24.832  1.00  0.00     0.029 A 
ATOM     16  C   UNL A   1      32.557  20.928  24.112  1.00  0.00     0.020 A 
ATOM     17  C   UNL A   1      32.288  21.673  22.995  1.00  0.00     0.086 A 
BRANCH  14  18
ATOM     18  C   UNL A   1      34.718  23.950  24.626  1.00  0.00     0.227 C 
ATOM     19  C   UNL A   1      34.028  24.852  25.664  1.00  0.00     0.082 C 
BRANCH  18  20
ATOM     20  N   UNL A   1      36.064  23.587  25.080  1.00  0.00    -0.339 N 
ATOM     21  H   UNL A   1      36.626  24.438  25.109  1.00  0.00     0.346 HD
ATOM     22  H   UNL A   1      35.943  23.144  25.991  1.00  0.00     0.346 HD
BRANCH  20  23
ATOM     23  C   UNL A   1      36.767  22.611  24.249  1.00  0.00     0.257 C 
ATOM     24  C   UNL A   1      37.834  21.919  25.091  1.00  0.00     0.071 C 
ENDBRANCH  20  23
ENDBRANCH  18  20
ENDBRANCH  14  18
ENDBRANCH  12  13
ENDBRANCH   7  12
ENDBRANCH   3   6
ENDBRANCH   1   2
BRANCH   1  25
ATOM     25  C   UNL A   1      33.737  28.864  25.685  1.00  0.00     0.042 C 
BRANCH  25  26
ATOM     26  C   UNL A   1      34.709  28.860  26.857  1.00  0.00     0.118 C 
BRANCH  26  27
ATOM     27  N   UNL A   1      35.111  30.224  27.173  1.00  0.00    -0.352 N 
ATOM     28  C   UNL A   1      36.198  30.688  27.869  1.00  0.00     0.251 C 
ATOM     29  H   UNL A   1      34.508  30.923  26.832  1.00  0.00     0.163 HD
ATOM     30  O   UNL A   1      36.169  31.835  28.298  1.00  0.00    -0.269 OA
BRANCH  28  31
ATOM     31  C   UNL A   1      37.375  29.833  28.125  1.00  0.00     0.039 A 
ATOM     32  C   UNL A   1      38.343  29.743  27.115  1.00  0.00     0.014 A 
ATOM     33  C   UNL A   1      37.501  29.073  29.290  1.00  0.00     0.014 A 
ATOM     34  C   UNL A   1      39.469  28.949  27.303  1.00  0.00     0.010 A 
ATOM     35  C   UNL A   1      38.636  28.300  29.493  1.00  0.00     0.010 A 
ATOM     36  C   UNL A   1      39.627  28.256  28.508  1.00  0.00    -0.014 A 
BRANCH  36  37
ATOM     37  C   UNL A   1      40.924  27.614  28.810  1.00  0.00     0.031 A 
ATOM     38  C   UNL A   1      40.933  26.131  28.348  1.00  0.00     0.074 A 
ATOM     39  C   UNL A   1      41.859  28.410  29.420  1.00  0.00     0.049 A 
ATOM     40  N   UNL A   1      41.548  25.096  28.842  1.00  0.00    -0.248 NA
ATOM     41  C   UNL A   1      40.030  25.714  27.236  1.00  0.00     0.031 C 
ATOM     42  C   UNL A   1      41.669  29.845  29.743  1.00  0.00     0.029 A 
ATOM     43  N   UNL A   1      43.144  28.207  29.883  1.00  0.00    -0.354 N 
ATOM     44  C   UNL A   1      41.306  23.999  27.967  1.00  0.00     0.074 A 
ATOM     45  C   UNL A   1      40.249  24.404  27.098  1.00  0.00     0.031 C 
ATOM     46  C   UNL A   1      42.739  30.346  30.400  1.00  0.00     0.029 A 
ATOM     47  C   UNL A   1      43.741  29.309  30.552  1.00  0.00     0.049 A 
ATOM     48  H   UNL A   1      43.617  27.353  29.757  1.00  0.00     0.167 HD
ATOM     49  C   UNL A   1      42.112  22.893  27.909  1.00  0.00     0.034 A 
ATOM     50  C   UNL A   1      44.939  29.369  31.217  1.00  0.00     0.034 A 
ATOM     51  C   UNL A   1      43.200  23.077  28.811  1.00  0.00     0.049 A 
ATOM     52  C   UNL A   1      45.600  28.089  30.937  1.00  0.00     0.074 A 
ATOM     53  C   UNL A   1      43.308  23.028  30.174  1.00  0.00     0.029 A 
ATOM     54  N   UNL A   1      44.291  23.719  28.276  1.00  0.00    -0.354 N 
ATOM     55  N   UNL A   1      46.122  27.763  29.792  1.00  0.00    -0.248 NA
ATOM     56  C   UNL A   1      45.572  27.044  31.967  1.00  0.00     0.031 C 
ATOM     57  C   UNL A   1      44.235  24.051  30.453  1.00  0.00     0.029 A 
ATOM     58  C   UNL A   1      44.807  24.516  29.260  1.00  0.00     0.049 A 
ATOM     59  H   UNL A   1      44.636  23.623  27.359  1.00  0.00     0.167 HD
ATOM     60  C   UNL A   1      46.126  26.394  29.867  1.00  0.00     0.074 A 
ATOM     61  C   UNL A   1      46.128  26.056  31.273  1.00  0.00     0.031 C 
ATOM     62  C   UNL A   1      45.579  25.666  28.860  1.00  0.00     0.034 A 
BRANCH  49  63
ATOM     63  C   UNL A   1      42.262  21.713  26.967  1.00  0.00     0.023 A 
ATOM     64  C   UNL A   1      41.414  20.600  27.257  1.00  0.00     0.012 A 
ATOM     65  C   UNL A   1      43.324  21.487  26.076  1.00  0.00     0.148 A 
ATOM     66  C   UNL A   1      41.687  19.306  26.821  1.00  0.00     0.002 A 
ATOM     67  C   UNL A   1      43.562  20.192  25.593  1.00  0.00     0.091 A 
ATOM     68  F   UNL A   1      44.143  22.494  25.760  1.00  0.00    -0.205 F 
ATOM     69  C   UNL A   1      42.779  19.100  26.001  1.00  0.00     0.022 A 
BRANCH  67  70
ATOM     70  S   UNL A   1      44.879  19.803  24.433  1.00  0.00     0.127 S 
ATOM     71  O   UNL A   1      46.074  20.135  25.204  1.00  0.00    -0.237 OA
ATOM     72  O   UNL A   1      44.679  18.367  24.219  1.00  0.00    -0.237 OA
ATOM     73  O   UNL A   1      44.616  20.617  23.254  1.00  0.00    -0.744 OA
ENDBRANCH  67  70
ENDBRANCH  49  63
BRANCH  50  74
ATOM     74  C   UNL A   1      45.635  30.298  32.193  1.00  0.00     0.023 A 
ATOM     75  C   UNL A   1      47.000  30.611  32.161  1.00  0.00     0.012 A 
ATOM     76  C   UNL A   1      44.865  31.007  33.168  1.00  0.00     0.148 A 
ATOM     77  C   UNL A   1      47.535  31.642  32.966  1.00  0.00     0.002 A 
ATOM     78  C   UNL A   1      45.358  32.111  33.854  1.00  0.00     0.091 A 
ATOM     79  F   UNL A   1      43.636  30.585  33.483  1.00  0.00    -0.205 F 
ATOM     80  C   UNL A   1      46.707  32.428  33.767  1.00  0.00     0.022 A 
BRANCH  78  81
ATOM     81  S   UNL A   1      44.259  33.255  34.716  1.00  0.00     0.127 S 
ATOM     82  O   UNL A   1      45.200  34.181  35.342  1.00  0.00    -0.237 OA
ATOM     83  O   UNL A   1      43.491  33.817  33.604  1.00  0.00    -0.237 OA
ATOM     84  O   UNL A   1      43.471  32.449  35.641  1.00  0.00    -0.744 OA
ENDBRANCH  78  81
ENDBRANCH  50  74
BRANCH  62  85
ATOM     85  C   UNL A   1      45.593  26.339  27.488  1.00  0.00     0.023 A 
ATOM     86  C   UNL A   1      44.356  26.788  26.985  1.00  0.00     0.012 A 
ATOM     87  C   UNL A   1      46.717  26.469  26.635  1.00  0.00     0.148 A 
ATOM     88  C   UNL A   1      44.231  27.329  25.702  1.00  0.00     0.002 A 
ATOM     89  C   UNL A   1      46.594  26.998  25.344  1.00  0.00     0.091 A 
ATOM     90  F   UNL A   1      47.905  26.071  27.081  1.00  0.00    -0.205 F 
ATOM     91  C   UNL A   1      45.347  27.433  24.881  1.00  0.00     0.022 A 
BRANCH  89  92
ATOM     92  S   UNL A   1      47.957  27.114  24.163  1.00  0.00     0.127 S 
ATOM     93  O   UNL A   1      47.297  27.648  22.970  1.00  0.00    -0.237 OA
ATOM     94  O   UNL A   1      48.856  28.058  24.822  1.00  0.00    -0.237 OA
ATOM     95  O   UNL A   1      48.482  25.764  23.996  1.00  0.00    -0.744 OA
ENDBRANCH  89  92
ENDBRANCH  62  85
ENDBRANCH  36  37
ENDBRANCH  28  31
ENDBRANCH  26  27
ENDBRANCH  25  26
ENDBRANCH   1  25
TORSDOF 18
ENDMDL
MODEL 3
REMARK VINA RESULT:     -11.5      4.630      9.938
REMARK SMILES CC[NH2+][C@H](C)c1cccn1Cc1ccc(C(=O)NCCCNC(=O)c2ccc(-c3c4nc(c(-c5cccc(S(=O)(=O)[O-])c5F)c5ccc([nH]5)c(-c5cccc(S(=O)(=O)[O-])c5F)c5nc(c(-c6cccc(S(=O)(=O)[O-])c6F)c6ccc3[nH]6)C=C5)C=C4)cc2)cc1
REMARK SMILES IDX 19 1 18 2 16 3 17 4 15 6 12 7 13 8 89 9 14 10 88 11 11 12
REMARK SMILES IDX 10 13 6 14 7 15 8 16 9 17 4 18 5 19 3 20 2 23 1 24 20 25
REMARK SMILES IDX 21 26 22 27 23 28 24 30 25 31 26 32 87 33 27 34 86 35 28 36
REMARK SMILES IDX 29 37 30 38 80 39 31 40 85 41 79 42 81 43 32 44 84 45 78 46
REMARK SMILES IDX 77 47 33 49 65 50 45 51 64 52 46 53 49 54 63 55 82 56 47 57
REMARK SMILES IDX 48 58 62 60 83 61 50 62 34 63 35 64 43 65 36 66 38 67 44 68
REMARK SMILES IDX 37 69 39 70 40 71 41 72 42 73 66 74 67 75 75 76 68 77 70 78
REMARK SMILES IDX 76 79 69 80 71 81 72 82 73 83 74 84 51 85 52 86 60 87 53 88
REMARK SMILES IDX 55 89 61 90 54 91 56 92 57 93 58 94 59 95
REMARK H PARENT 18 5 3 21 3 22 22 29 81 48 49 59
REMARK Flexibility Score: inf
ROOT
ATOM      1  C   UNL A   1      33.262  29.383  24.918  1.00  0.00     0.118 C 
ENDROOT
BRANCH   1   2
ATOM      2  N   UNL A   1      31.896  29.524  24.450  1.00  0.00    -0.352 N 
ATOM      3  C   UNL A   1      31.063  28.677  23.761  1.00  0.00     0.251 C 
ATOM      4  O   UNL A   1      29.895  29.032  23.604  1.00  0.00    -0.269 OA
ATOM      5  H   UNL A   1      31.488  30.393  24.669  1.00  0.00     0.163 HD
BRANCH   3   6
ATOM      6  C   UNL A   1      31.477  27.332  23.255  1.00  0.00     0.039 A 
ATOM      7  C   UNL A   1      32.536  24.813  22.468  1.00  0.00    -0.028 A 
ATOM      8  C   UNL A   1      32.339  25.120  23.817  1.00  0.00     0.006 A 
ATOM      9  C   UNL A   1      32.040  25.717  21.526  1.00  0.00     0.006 A 
ATOM     10  C   UNL A   1      31.839  26.371  24.207  1.00  0.00     0.014 A 
ATOM     11  C   UNL A   1      31.510  26.950  21.916  1.00  0.00     0.014 A 
BRANCH   7  12
ATOM     12  C   UNL A   1      33.269  23.554  22.045  1.00  0.00     0.157 C 
BRANCH  12  13
ATOM     13  N   UNL A   1      34.115  23.006  23.119  1.00  0.00    -0.342 N 
ATOM     14  C   UNL A   1      33.768  22.132  24.148  1.00  0.00     0.076 A 
ATOM     15  C   UNL A   1      34.920  21.949  24.908  1.00  0.00     0.029 A 
ATOM     16  C   UNL A   1      35.988  22.631  24.294  1.00  0.00     0.020 A 
ATOM     17  C   UNL A   1      35.478  23.227  23.172  1.00  0.00     0.086 A 
BRANCH  14  18
ATOM     18  C   UNL A   1      32.432  21.439  24.300  1.00  0.00     0.227 C 
ATOM     19  C   UNL A   1      32.356  20.067  23.607  1.00  0.00     0.082 C 
BRANCH  18  20
ATOM     20  N   UNL A   1      31.928  21.344  25.674  1.00  0.00    -0.339 N 
ATOM     21  H   UNL A   1      31.125  20.716  25.671  1.00  0.00     0.346 HD
ATOM     22  H   UNL A   1      32.710  21.009  26.237  1.00  0.00     0.346 HD
BRANCH  20  23
ATOM     23  C   UNL A   1      31.510  22.607  26.279  1.00  0.00     0.257 C 
ATOM     24  C   UNL A   1      32.383  22.887  27.499  1.00  0.00     0.071 C 
ENDBRANCH  20  23
ENDBRANCH  18  20
ENDBRANCH  14  18
ENDBRANCH  12  13
ENDBRANCH   7  12
ENDBRANCH   3   6
ENDBRANCH   1   2
BRANCH   1  25
ATOM     25  C   UNL A   1      33.314  28.876  26.364  1.00  0.00     0.042 C 
BRANCH  25  26
ATOM     26  C   UNL A   1      34.730  28.885  26.924  1.00  0.00     0.118 C 
BRANCH  26  27
ATOM     27  N   UNL A   1      35.092  30.234  27.337  1.00  0.00    -0.352 N 
ATOM     28  C   UNL A   1      36.155  30.677  28.082  1.00  0.00     0.251 C 
ATOM     29  H   UNL A   1      34.478  30.940  27.031  1.00  0.00     0.163 HD
ATOM     30  O   UNL A   1      36.091  31.793  28.585  1.00  0.00    -0.269 OA
BRANCH  28  31
ATOM     31  C   UNL A   1      37.349  29.836  28.302  1.00  0.00     0.039 A 
ATOM     32  C   UNL A   1      38.314  29.799  27.286  1.00  0.00     0.014 A 
ATOM     33  C   UNL A   1      37.495  29.037  29.440  1.00  0.00     0.014 A 
ATOM     34  C   UNL A   1      39.455  29.020  27.441  1.00  0.00     0.010 A 
ATOM     35  C   UNL A   1      38.644  28.279  29.610  1.00  0.00     0.010 A 
ATOM     36  C   UNL A   1      39.631  28.287  28.621  1.00  0.00    -0.014 A 
BRANCH  36  37
ATOM     37  C   UNL A   1      40.942  27.659  28.895  1.00  0.00     0.031 A 
ATOM     38  C   UNL A   1      40.951  26.173  28.445  1.00  0.00     0.074 A 
ATOM     39  C   UNL A   1      41.884  28.468  29.474  1.00  0.00     0.049 A 
ATOM     40  N   UNL A   1      41.588  25.147  28.931  1.00  0.00    -0.248 NA
ATOM     41  C   UNL A   1      40.024  25.738  27.359  1.00  0.00     0.031 C 
ATOM     42  C   UNL A   1      41.690  29.905  29.789  1.00  0.00     0.029 A 
ATOM     43  N   UNL A   1      43.182  28.280  29.905  1.00  0.00    -0.354 N 
ATOM     44  C   UNL A   1      41.333  24.041  28.072  1.00  0.00     0.074 A 
ATOM     45  C   UNL A   1      40.251  24.429  27.227  1.00  0.00     0.031 C 
ATOM     46  C   UNL A   1      42.772  30.420  30.415  1.00  0.00     0.029 A 
ATOM     47  C   UNL A   1      43.787  29.393  30.550  1.00  0.00     0.049 A 
ATOM     48  H   UNL A   1      43.659  27.429  29.774  1.00  0.00     0.167 HD
ATOM     49  C   UNL A   1      42.147  22.942  28.003  1.00  0.00     0.034 A 
ATOM     50  C   UNL A   1      45.001  29.469  31.183  1.00  0.00     0.034 A 
ATOM     51  C   UNL A   1      43.257  23.142  28.875  1.00  0.00     0.049 A 
ATOM     52  C   UNL A   1      45.666  28.193  30.897  1.00  0.00     0.074 A 
ATOM     53  C   UNL A   1      43.400  23.106  30.235  1.00  0.00     0.029 A 
ATOM     54  N   UNL A   1      44.328  23.789  28.306  1.00  0.00    -0.354 N 
ATOM     55  N   UNL A   1      46.161  27.862  29.742  1.00  0.00    -0.248 NA
ATOM     56  C   UNL A   1      45.674  27.156  31.936  1.00  0.00     0.031 C 
ATOM     57  C   UNL A   1      44.325  24.139  30.481  1.00  0.00     0.029 A 
ATOM     58  C   UNL A   1      44.861  24.599  29.270  1.00  0.00     0.049 A 
ATOM     59  H   UNL A   1      44.650  23.688  27.382  1.00  0.00     0.167 HD
ATOM     60  C   UNL A   1      46.179  26.493  29.828  1.00  0.00     0.074 A 
ATOM     61  C   UNL A   1      46.220  26.167  31.237  1.00  0.00     0.031 C 
ATOM     62  C   UNL A   1      45.613  25.752  28.841  1.00  0.00     0.034 A 
BRANCH  49  63
ATOM     63  C   UNL A   1      42.284  21.755  27.067  1.00  0.00     0.023 A 
ATOM     64  C   UNL A   1      41.459  20.634  27.392  1.00  0.00     0.012 A 
ATOM     65  C   UNL A   1      43.321  21.534  26.146  1.00  0.00     0.148 A 
ATOM     66  C   UNL A   1      41.736  19.340  26.960  1.00  0.00     0.002 A 
ATOM     67  C   UNL A   1      43.561  20.237  25.667  1.00  0.00     0.091 A 
ATOM     68  F   UNL A   1      44.117  22.548  25.796  1.00  0.00    -0.205 F 
ATOM     69  C   UNL A   1      42.804  19.140  26.109  1.00  0.00     0.022 A 
BRANCH  67  70
ATOM     70  S   UNL A   1      44.846  19.854  24.471  1.00  0.00     0.127 S 
ATOM     71  O   UNL A   1      44.512  20.748  23.366  1.00  0.00    -0.237 OA
ATOM     72  O   UNL A   1      46.060  20.226  25.202  1.00  0.00    -0.237 OA
ATOM     73  O   UNL A   1      44.727  18.425  24.212  1.00  0.00    -0.744 OA
ENDBRANCH  67  70
ENDBRANCH  49  63
BRANCH  50  74
ATOM     74  C   UNL A   1      45.714  30.413  32.133  1.00  0.00     0.023 A 
ATOM     75  C   UNL A   1      45.204  30.839  33.366  1.00  0.00     0.012 A 
ATOM     76  C   UNL A   1      47.046  30.843  31.838  1.00  0.00     0.148 A 
ATOM     77  C   UNL A   1      46.008  31.547  34.287  1.00  0.00     0.002 A 
ATOM     78  C   UNL A   1      47.879  31.411  32.794  1.00  0.00     0.091 A 
ATOM     79  F   UNL A   1      47.516  30.746  30.589  1.00  0.00    -0.205 F 
ATOM     80  C   UNL A   1      47.358  31.781  34.027  1.00  0.00     0.022 A 
BRANCH  78  81
ATOM     81  S   UNL A   1      49.665  31.520  32.546  1.00  0.00     0.127 S 
ATOM     82  O   UNL A   1      49.994  30.187  32.047  1.00  0.00    -0.237 OA
ATOM     83  O   UNL A   1      49.756  32.590  31.551  1.00  0.00    -0.237 OA
ATOM     84  O   UNL A   1      50.239  31.858  33.843  1.00  0.00    -0.744 OA
ENDBRANCH  78  81
ENDBRANCH  50  74
BRANCH  62  85
ATOM     85  C   UNL A   1      45.586  26.414  27.464  1.00  0.00     0.023 A 
ATOM     86  C   UNL A   1      44.329  26.823  26.977  1.00  0.00     0.012 A 
ATOM     87  C   UNL A   1      46.692  26.568  26.592  1.00  0.00     0.148 A 
ATOM     88  C   UNL A   1      44.168  27.349  25.692  1.00  0.00     0.002 A 
ATOM     89  C   UNL A   1      46.533  27.082  25.299  1.00  0.00     0.091 A 
ATOM     90  F   UNL A   1      47.898  26.209  27.022  1.00  0.00    -0.205 F 
ATOM     91  C   UNL A   1      45.268  27.478  24.853  1.00  0.00     0.022 A 
BRANCH  89  92
ATOM     92  S   UNL A   1      47.874  27.227  24.095  1.00  0.00     0.127 S 
ATOM     93  O   UNL A   1      47.251  28.002  23.020  1.00  0.00    -0.237 OA
ATOM     94  O   UNL A   1      48.888  27.960  24.850  1.00  0.00    -0.237 OA
ATOM     95  O   UNL A   1      48.241  25.869  23.712  1.00  0.00    -0.744 OA
ENDBRANCH  89  92
ENDBRANCH  62  85
ENDBRANCH  36  37
ENDBRANCH  28  31
ENDBRANCH  26  27
ENDBRANCH  25  26
ENDBRANCH   1  25
TORSDOF 18
ENDMDL
