MODEL 1
REMARK VINA RESULT:     -12.5      0.000      0.000
REMARK SMILES O=C(NCCCNC(=O)[C@H]1Cc2[nH]cnc2CN1S(=O)(=O)c1cccs1)c1ccc(-c2c3nc(c(-c4cccc(S(=O)(=O)[O-])c4F)c4ccc([nH]4)c(-c4cccc(S(=O)(=O)[O-])c4F)c4nc(c(-c5cccc(S(=O)(=O)[O-])c5F)c5ccc2[nH]5)C=C4)C=C3)cc1
REMARK SMILES IDX 4 1 3 2 1 3 2 4 27 6 28 7 89 8 29 9 88 10 30 11 31 12 32 13
REMARK SMILES IDX 82 14 33 15 87 16 81 17 83 18 34 19 86 20 80 21 79 22 35 24
REMARK SMILES IDX 67 25 47 26 66 27 48 28 51 29 65 30 84 31 49 32 50 33 64 35
REMARK SMILES IDX 85 36 52 37 36 38 37 39 45 40 38 41 40 42 46 43 39 44 41 45
REMARK SMILES IDX 42 46 43 47 44 48 68 49 69 50 77 51 70 52 72 53 78 54 71 55
REMARK SMILES IDX 73 56 74 57 75 58 76 59 53 60 54 61 62 62 55 63 57 64 63 65
REMARK SMILES IDX 56 66 58 67 59 68 60 69 61 70 5 71 6 72 7 73 8 74 9 76 10 77
REMARK SMILES IDX 11 78 18 79 12 80 17 81 13 82 16 83 14 84 15 86 19 87 20 88
REMARK SMILES IDX 21 89 22 90 23 91 26 92 24 93 25 94
REMARK H PARENT 3 5 83 23 51 34 7 75 13 85
REMARK Flexibility Score: inf
ROOT
ATOM      1  C   UNL A   1      40.026  21.546  26.621  1.00  0.00     0.118 C 
ENDROOT
BRANCH   1   2
ATOM      2  N   UNL A   1      41.218  21.923  25.889  1.00  0.00    -0.352 N 
ATOM      3  O   UNL A   1      42.967  22.923  25.031  1.00  0.00    -0.269 OA
ATOM      4  C   UNL A   1      42.005  23.036  25.798  1.00  0.00     0.251 C 
ATOM      5  H   UNL A   1      41.544  21.194  25.314  1.00  0.00     0.163 HD
BRANCH   4   6
ATOM      6  C   UNL A   1      41.777  24.341  26.480  1.00  0.00     0.039 A 
ATOM      7  C   UNL A   1      40.842  25.315  26.124  1.00  0.00     0.014 A 
ATOM      8  C   UNL A   1      42.615  24.593  27.586  1.00  0.00     0.014 A 
ATOM      9  C   UNL A   1      40.798  26.532  26.815  1.00  0.00     0.010 A 
ATOM     10  C   UNL A   1      42.571  25.799  28.278  1.00  0.00     0.010 A 
ATOM     11  C   UNL A   1      41.684  26.787  27.871  1.00  0.00    -0.014 A 
BRANCH  11  12
ATOM     12  C   UNL A   1      41.539  28.021  28.647  1.00  0.00     0.031 A 
ATOM     13  C   UNL A   1      42.527  29.082  28.286  1.00  0.00     0.074 A 
ATOM     14  C   UNL A   1      40.521  28.273  29.501  1.00  0.00     0.049 A 
ATOM     15  N   UNL A   1      43.470  29.572  29.022  1.00  0.00    -0.248 NA
ATOM     16  C   UNL A   1      42.556  29.554  26.892  1.00  0.00     0.031 C 
ATOM     17  C   UNL A   1      39.315  27.470  29.725  1.00  0.00     0.029 A 
ATOM     18  N   UNL A   1      40.290  29.380  30.269  1.00  0.00    -0.354 N 
ATOM     19  C   UNL A   1      44.071  30.575  28.259  1.00  0.00     0.074 A 
ATOM     20  C   UNL A   1      43.588  30.399  26.916  1.00  0.00     0.031 C 
ATOM     21  C   UNL A   1      38.387  28.220  30.363  1.00  0.00     0.029 A 
ATOM     22  C   UNL A   1      38.974  29.500  30.720  1.00  0.00     0.049 A 
ATOM     23  H   UNL A   1      40.990  30.038  30.484  1.00  0.00     0.167 HD
ATOM     24  C   UNL A   1      44.749  31.605  28.839  1.00  0.00     0.034 A 
ATOM     25  C   UNL A   1      38.397  30.592  31.288  1.00  0.00     0.034 A 
ATOM     26  C   UNL A   1      45.045  31.321  30.219  1.00  0.00     0.049 A 
ATOM     27  C   UNL A   1      39.485  31.453  31.795  1.00  0.00     0.074 A 
ATOM     28  C   UNL A   1      45.774  30.364  30.893  1.00  0.00     0.029 A 
ATOM     29  N   UNL A   1      44.231  31.910  31.153  1.00  0.00    -0.354 N 
ATOM     30  N   UNL A   1      40.268  31.114  32.778  1.00  0.00    -0.248 NA
ATOM     31  C   UNL A   1      39.976  32.508  30.927  1.00  0.00     0.031 C 
ATOM     32  C   UNL A   1      45.016  30.097  32.070  1.00  0.00     0.029 A 
ATOM     33  C   UNL A   1      43.914  30.955  32.077  1.00  0.00     0.049 A 
ATOM     34  H   UNL A   1      43.931  32.848  31.157  1.00  0.00     0.167 HD
ATOM     35  C   UNL A   1      41.519  31.559  32.378  1.00  0.00     0.074 A 
ATOM     36  C   UNL A   1      41.262  32.494  31.284  1.00  0.00     0.031 C 
ATOM     37  C   UNL A   1      42.650  30.907  32.771  1.00  0.00     0.034 A 
BRANCH  24  38
ATOM     38  C   UNL A   1      44.828  33.027  28.318  1.00  0.00     0.023 A 
ATOM     39  C   UNL A   1      43.604  33.725  28.169  1.00  0.00     0.012 A 
ATOM     40  C   UNL A   1      45.961  33.589  27.690  1.00  0.00     0.148 A 
ATOM     41  C   UNL A   1      43.496  34.866  27.368  1.00  0.00     0.002 A 
ATOM     42  C   UNL A   1      45.862  34.764  26.950  1.00  0.00     0.091 A 
ATOM     43  F   UNL A   1      47.124  32.934  27.697  1.00  0.00    -0.205 F 
ATOM     44  C   UNL A   1      44.627  35.386  26.756  1.00  0.00     0.022 A 
BRANCH  42  45
ATOM     45  S   UNL A   1      47.294  35.508  26.155  1.00  0.00     0.127 S 
ATOM     46  O   UNL A   1      46.769  36.815  25.775  1.00  0.00    -0.237 OA
ATOM     47  O   UNL A   1      48.265  35.521  27.250  1.00  0.00    -0.237 OA
ATOM     48  O   UNL A   1      47.643  34.615  25.058  1.00  0.00    -0.744 OA
ENDBRANCH  42  45
ENDBRANCH  24  38
BRANCH  25  49
ATOM     49  C   UNL A   1      37.007  31.109  31.182  1.00  0.00     0.023 A 
ATOM     50  C   UNL A   1      36.324  31.545  32.339  1.00  0.00     0.012 A 
ATOM     51  C   UNL A   1      36.476  31.466  29.925  1.00  0.00     0.148 A 
ATOM     52  C   UNL A   1      35.170  32.337  32.244  1.00  0.00     0.002 A 
ATOM     53  C   UNL A   1      35.330  32.252  29.835  1.00  0.00     0.091 A 
ATOM     54  F   UNL A   1      37.150  31.116  28.822  1.00  0.00    -0.205 F 
ATOM     55  C   UNL A   1      34.679  32.699  30.993  1.00  0.00     0.022 A 
BRANCH  53  56
ATOM     56  S   UNL A   1      34.662  32.796  28.257  1.00  0.00     0.127 S 
ATOM     57  O   UNL A   1      34.219  31.533  27.667  1.00  0.00    -0.237 OA
ATOM     58  O   UNL A   1      33.584  33.688  28.676  1.00  0.00    -0.237 OA
ATOM     59  O   UNL A   1      35.768  33.433  27.555  1.00  0.00    -0.744 OA
ENDBRANCH  53  56
ENDBRANCH  25  49
BRANCH  37  60
ATOM     60  C   UNL A   1      42.542  29.875  33.859  1.00  0.00     0.023 A 
ATOM     61  C   UNL A   1      42.004  28.589  33.642  1.00  0.00     0.012 A 
ATOM     62  C   UNL A   1      43.201  30.148  35.067  1.00  0.00     0.148 A 
ATOM     63  C   UNL A   1      42.124  27.596  34.619  1.00  0.00     0.002 A 
ATOM     64  C   UNL A   1      43.368  29.144  36.009  1.00  0.00     0.091 A 
ATOM     65  F   UNL A   1      43.701  31.380  35.249  1.00  0.00    -0.205 F 
ATOM     66  C   UNL A   1      42.824  27.868  35.795  1.00  0.00     0.022 A 
BRANCH  64  67
ATOM     67  S   UNL A   1      44.392  29.388  37.460  1.00  0.00     0.127 S 
ATOM     68  O   UNL A   1      43.647  30.413  38.188  1.00  0.00    -0.237 OA
ATOM     69  O   UNL A   1      44.372  28.061  38.078  1.00  0.00    -0.237 OA
ATOM     70  O   UNL A   1      45.702  29.797  36.970  1.00  0.00    -0.744 OA
ENDBRANCH  64  67
ENDBRANCH  37  60
ENDBRANCH  11  12
ENDBRANCH   4   6
ENDBRANCH   1   2
BRANCH   1  71
ATOM     71  C   UNL A   1      38.767  21.560  25.754  1.00  0.00     0.042 C 
BRANCH  71  72
ATOM     72  C   UNL A   1      37.942  22.845  25.928  1.00  0.00     0.117 C 
BRANCH  72  73
ATOM     73  N   UNL A   1      37.460  23.329  24.641  1.00  0.00    -0.355 N 
ATOM     74  C   UNL A   1      36.550  22.849  23.752  1.00  0.00     0.238 C 
ATOM     75  H   UNL A   1      37.876  24.175  24.360  1.00  0.00     0.163 HD
ATOM     76  O   UNL A   1      36.786  23.123  22.568  1.00  0.00    -0.273 OA
BRANCH  74  77
ATOM     77  C   UNL A   1      35.266  22.096  24.098  1.00  0.00     0.168 C 
ATOM     78  C   UNL A   1      35.551  20.723  24.750  1.00  0.00     0.086 C 
ATOM     79  N   UNL A   1      34.200  22.865  24.898  1.00  0.00    -0.178 NA
ATOM     80  C   UNL A   1      34.283  19.999  24.917  1.00  0.00     0.041 A 
ATOM     81  C   UNL A   1      32.859  22.091  24.936  1.00  0.00     0.161 C 
ATOM     82  N   UNL A   1      34.075  18.669  25.107  1.00  0.00    -0.348 N 
ATOM     83  C   UNL A   1      33.068  20.615  25.046  1.00  0.00     0.077 A 
ATOM     84  C   UNL A   1      32.731  18.525  25.338  1.00  0.00     0.197 A 
ATOM     85  H   UNL A   1      34.752  17.955  25.086  1.00  0.00     0.167 HD
ATOM     86  N   UNL A   1      32.095  19.680  25.287  1.00  0.00    -0.240 NA
BRANCH  79  87
ATOM     87  S   UNL A   1      33.827  24.463  24.359  1.00  0.00     0.253 S 
ATOM     88  O   UNL A   1      34.794  25.359  24.947  1.00  0.00    -0.206 OA
ATOM     89  O   UNL A   1      33.709  24.392  22.909  1.00  0.00    -0.206 OA
BRANCH  87  90
ATOM     90  C   UNL A   1      32.236  25.059  24.919  1.00  0.00     0.135 A 
ATOM     91  C   UNL A   1      31.816  25.583  26.130  1.00  0.00     0.033 A 
ATOM     92  S   UNL A   1      30.979  25.160  23.754  1.00  0.00    -0.131 S 
ATOM     93  C   UNL A   1      30.462  26.024  26.114  1.00  0.00     0.013 A 
ATOM     94  C   UNL A   1      29.908  25.909  24.861  1.00  0.00     0.066 A 
ENDBRANCH  87  90
ENDBRANCH  79  87
ENDBRANCH  74  77
ENDBRANCH  72  73
ENDBRANCH  71  72
ENDBRANCH   1  71
TORSDOF 15
ENDMDL
MODEL 2
REMARK VINA RESULT:     -12.5      3.419      9.051
REMARK SMILES O=C(NCCCNC(=O)[C@H]1Cc2[nH]cnc2CN1S(=O)(=O)c1cccs1)c1ccc(-c2c3nc(c(-c4cccc(S(=O)(=O)[O-])c4F)c4ccc([nH]4)c(-c4cccc(S(=O)(=O)[O-])c4F)c4nc(c(-c5cccc(S(=O)(=O)[O-])c5F)c5ccc2[nH]5)C=C4)C=C3)cc1
REMARK SMILES IDX 4 1 3 2 1 3 2 4 27 6 28 7 89 8 29 9 88 10 30 11 31 12 32 13
REMARK SMILES IDX 82 14 33 15 87 16 81 17 83 18 34 19 86 20 80 21 79 22 35 24
REMARK SMILES IDX 67 25 47 26 66 27 48 28 51 29 65 30 84 31 49 32 50 33 64 35
REMARK SMILES IDX 85 36 52 37 36 38 37 39 45 40 38 41 40 42 46 43 39 44 41 45
REMARK SMILES IDX 42 46 43 47 44 48 68 49 69 50 77 51 70 52 72 53 78 54 71 55
REMARK SMILES IDX 73 56 74 57 75 58 76 59 53 60 54 61 62 62 55 63 57 64 63 65
REMARK SMILES IDX 56 66 58 67 59 68 60 69 61 70 5 71 6 72 7 73 8 74 9 76 10 77
REMARK SMILES IDX 11 78 18 79 12 80 17 81 13 82 16 83 14 84 15 86 19 87 20 88
REMARK SMILES IDX 21 89 22 90 23 91 26 92 24 93 25 94
REMARK H PARENT 3 5 83 23 51 34 7 75 13 85
REMARK Flexibility Score: inf
ROOT
ATOM      1  C   UNL A   1      33.923  30.926  27.360  1.00  0.00     0.118 C 
ENDROOT
BRANCH   1   2
ATOM      2  N   UNL A   1      34.060  31.705  28.574  1.00  0.00    -0.352 N 
ATOM      3  O   UNL A   1      34.729  32.702  30.404  1.00  0.00    -0.269 OA
ATOM      4  C   UNL A   1      35.045  31.931  29.492  1.00  0.00     0.251 C 
ATOM      5  H   UNL A   1      33.235  32.197  28.790  1.00  0.00     0.163 HD
BRANCH   4   6
ATOM      6  C   UNL A   1      36.397  31.307  29.512  1.00  0.00     0.039 A 
ATOM      7  C   UNL A   1      37.624  31.975  29.489  1.00  0.00     0.014 A 
ATOM      8  C   UNL A   1      36.406  29.897  29.545  1.00  0.00     0.014 A 
ATOM      9  C   UNL A   1      38.819  31.248  29.431  1.00  0.00     0.010 A 
ATOM     10  C   UNL A   1      37.591  29.171  29.493  1.00  0.00     0.010 A 
ATOM     11  C   UNL A   1      38.802  29.846  29.401  1.00  0.00    -0.014 A 
BRANCH  11  12
ATOM     12  C   UNL A   1      40.068  29.112  29.455  1.00  0.00     0.031 A 
ATOM     13  C   UNL A   1      40.589  28.906  30.840  1.00  0.00     0.074 A 
ATOM     14  C   UNL A   1      40.654  28.519  28.391  1.00  0.00     0.049 A 
ATOM     15  N   UNL A   1      41.670  29.389  31.361  1.00  0.00    -0.248 NA
ATOM     16  C   UNL A   1      39.735  28.190  31.802  1.00  0.00     0.031 C 
ATOM     17  C   UNL A   1      40.113  28.361  27.037  1.00  0.00     0.029 A 
ATOM     18  N   UNL A   1      41.825  27.813  28.328  1.00  0.00    -0.354 N 
ATOM     19  C   UNL A   1      41.746  28.856  32.650  1.00  0.00     0.074 A 
ATOM     20  C   UNL A   1      40.458  28.276  32.919  1.00  0.00     0.031 C 
ATOM     21  C   UNL A   1      40.821  27.415  26.376  1.00  0.00     0.029 A 
ATOM     22  C   UNL A   1      41.946  27.004  27.198  1.00  0.00     0.049 A 
ATOM     23  H   UNL A   1      42.521  27.871  29.021  1.00  0.00     0.167 HD
ATOM     24  C   UNL A   1      42.934  28.742  33.306  1.00  0.00     0.034 A 
ATOM     25  C   UNL A   1      42.865  26.026  26.983  1.00  0.00     0.034 A 
ATOM     26  C   UNL A   1      43.956  29.534  32.672  1.00  0.00     0.049 A 
ATOM     27  C   UNL A   1      43.999  26.277  27.897  1.00  0.00     0.074 A 
ATOM     28  C   UNL A   1      44.144  30.875  32.413  1.00  0.00     0.029 A 
ATOM     29  N   UNL A   1      44.840  28.861  31.867  1.00  0.00    -0.354 N 
ATOM     30  N   UNL A   1      44.786  27.310  27.797  1.00  0.00    -0.248 NA
ATOM     31  C   UNL A   1      43.994  25.605  29.184  1.00  0.00     0.031 C 
ATOM     32  C   UNL A   1      44.766  30.910  31.131  1.00  0.00     0.029 A 
ATOM     33  C   UNL A   1      44.985  29.592  30.723  1.00  0.00     0.049 A 
ATOM     34  H   UNL A   1      45.287  28.009  32.076  1.00  0.00     0.167 HD
ATOM     35  C   UNL A   1      44.999  27.696  29.111  1.00  0.00     0.074 A 
ATOM     36  C   UNL A   1      44.573  26.556  29.920  1.00  0.00     0.031 C 
ATOM     37  C   UNL A   1      45.222  29.004  29.426  1.00  0.00     0.034 A 
BRANCH  24  38
ATOM     38  C   UNL A   1      43.314  27.646  34.283  1.00  0.00     0.023 A 
ATOM     39  C   UNL A   1      43.741  28.054  35.571  1.00  0.00     0.012 A 
ATOM     40  C   UNL A   1      43.569  26.305  33.924  1.00  0.00     0.148 A 
ATOM     41  C   UNL A   1      44.459  27.203  36.416  1.00  0.00     0.002 A 
ATOM     42  C   UNL A   1      44.225  25.440  34.796  1.00  0.00     0.091 A 
ATOM     43  F   UNL A   1      43.293  25.878  32.690  1.00  0.00    -0.205 F 
ATOM     44  C   UNL A   1      44.704  25.893  36.027  1.00  0.00     0.022 A 
BRANCH  42  45
ATOM     45  S   UNL A   1      44.547  23.724  34.367  1.00  0.00     0.127 S 
ATOM     46  O   UNL A   1      45.455  23.872  33.235  1.00  0.00    -0.237 OA
ATOM     47  O   UNL A   1      45.162  23.223  35.597  1.00  0.00    -0.237 OA
ATOM     48  O   UNL A   1      43.244  23.142  34.071  1.00  0.00    -0.744 OA
ENDBRANCH  42  45
ENDBRANCH  24  38
BRANCH  25  49
ATOM     49  C   UNL A   1      42.740  24.728  26.270  1.00  0.00     0.023 A 
ATOM     50  C   UNL A   1      43.792  24.266  25.449  1.00  0.00     0.012 A 
ATOM     51  C   UNL A   1      41.738  23.807  26.641  1.00  0.00     0.148 A 
ATOM     52  C   UNL A   1      43.859  22.926  25.040  1.00  0.00     0.002 A 
ATOM     53  C   UNL A   1      41.807  22.478  26.233  1.00  0.00     0.091 A 
ATOM     54  F   UNL A   1      40.770  24.215  27.473  1.00  0.00    -0.205 F 
ATOM     55  C   UNL A   1      42.872  22.030  25.440  1.00  0.00     0.022 A 
BRANCH  53  56
ATOM     56  S   UNL A   1      40.594  21.253  26.746  1.00  0.00     0.127 S 
ATOM     57  O   UNL A   1      40.763  21.254  28.199  1.00  0.00    -0.237 OA
ATOM     58  O   UNL A   1      39.346  21.847  26.273  1.00  0.00    -0.237 OA
ATOM     59  O   UNL A   1      40.985  20.009  26.096  1.00  0.00    -0.744 OA
ENDBRANCH  53  56
ENDBRANCH  25  49
BRANCH  37  60
ATOM     60  C   UNL A   1      45.505  29.972  28.312  1.00  0.00     0.023 A 
ATOM     61  C   UNL A   1      44.491  30.703  27.657  1.00  0.00     0.012 A 
ATOM     62  C   UNL A   1      46.848  30.304  28.079  1.00  0.00     0.148 A 
ATOM     63  C   UNL A   1      44.818  31.746  26.785  1.00  0.00     0.002 A 
ATOM     64  C   UNL A   1      47.166  31.376  27.258  1.00  0.00     0.091 A 
ATOM     65  F   UNL A   1      47.793  29.591  28.711  1.00  0.00    -0.205 F 
ATOM     66  C   UNL A   1      46.155  32.094  26.600  1.00  0.00     0.022 A 
BRANCH  64  67
ATOM     67  S   UNL A   1      48.852  31.968  27.110  1.00  0.00     0.127 S 
ATOM     68  O   UNL A   1      49.532  30.810  26.534  1.00  0.00    -0.237 OA
ATOM     69  O   UNL A   1      48.699  33.105  26.201  1.00  0.00    -0.237 OA
ATOM     70  O   UNL A   1      49.273  32.335  28.457  1.00  0.00    -0.744 OA
ENDBRANCH  64  67
ENDBRANCH  37  60
ENDBRANCH  11  12
ENDBRANCH   4   6
ENDBRANCH   1   2
BRANCH   1  71
ATOM     71  C   UNL A   1      33.340  29.535  27.609  1.00  0.00     0.042 C 
BRANCH  71  72
ATOM     72  C   UNL A   1      33.792  28.506  26.561  1.00  0.00     0.117 C 
BRANCH  72  73
ATOM     73  N   UNL A   1      32.967  27.307  26.622  1.00  0.00    -0.355 N 
ATOM     74  C   UNL A   1      31.720  27.015  26.164  1.00  0.00     0.238 C 
ATOM     75  H   UNL A   1      33.400  26.556  27.087  1.00  0.00     0.163 HD
ATOM     76  O   UNL A   1      31.094  26.195  26.849  1.00  0.00    -0.273 OA
BRANCH  74  77
ATOM     77  C   UNL A   1      31.089  27.543  24.876  1.00  0.00     0.168 C 
ATOM     78  C   UNL A   1      31.065  29.088  24.827  1.00  0.00     0.086 C 
ATOM     79  N   UNL A   1      31.621  26.966  23.553  1.00  0.00    -0.178 NA
ATOM     80  C   UNL A   1      30.317  29.518  23.638  1.00  0.00     0.041 A 
ATOM     81  C   UNL A   1      30.718  27.371  22.361  1.00  0.00     0.161 C 
ATOM     82  N   UNL A   1      29.748  30.724  23.374  1.00  0.00    -0.348 N 
ATOM     83  C   UNL A   1      30.194  28.763  22.503  1.00  0.00     0.077 A 
ATOM     84  C   UNL A   1      29.290  30.653  22.084  1.00  0.00     0.197 A 
ATOM     85  H   UNL A   1      29.680  31.493  23.985  1.00  0.00     0.167 HD
ATOM     86  N   UNL A   1      29.527  29.475  21.540  1.00  0.00    -0.240 NA
BRANCH  79  87
ATOM     87  S   UNL A   1      31.801  25.251  23.469  1.00  0.00     0.253 S 
ATOM     88  O   UNL A   1      30.642  24.660  24.095  1.00  0.00    -0.206 OA
ATOM     89  O   UNL A   1      32.102  24.934  22.080  1.00  0.00    -0.206 OA
BRANCH  87  90
ATOM     90  C   UNL A   1      33.200  24.627  24.394  1.00  0.00     0.135 A 
ATOM     91  C   UNL A   1      34.521  25.035  24.465  1.00  0.00     0.033 A 
ATOM     92  S   UNL A   1      32.897  23.380  25.535  1.00  0.00    -0.131 S 
ATOM     93  C   UNL A   1      35.288  24.301  25.414  1.00  0.00     0.013 A 
ATOM     94  C   UNL A   1      34.508  23.410  26.113  1.00  0.00     0.066 A 
ENDBRANCH  87  90
ENDBRANCH  79  87
ENDBRANCH  74  77
ENDBRANCH  72  73
ENDBRANCH  71  72
ENDBRANCH   1  71
TORSDOF 15
ENDMDL
MODEL 3
REMARK VINA RESULT:     -12.4      3.562      9.357
REMARK SMILES O=C(NCCCNC(=O)[C@H]1Cc2[nH]cnc2CN1S(=O)(=O)c1cccs1)c1ccc(-c2c3nc(c(-c4cccc(S(=O)(=O)[O-])c4F)c4ccc([nH]4)c(-c4cccc(S(=O)(=O)[O-])c4F)c4nc(c(-c5cccc(S(=O)(=O)[O-])c5F)c5ccc2[nH]5)C=C4)C=C3)cc1
REMARK SMILES IDX 4 1 3 2 1 3 2 4 27 6 28 7 89 8 29 9 88 10 30 11 31 12 32 13
REMARK SMILES IDX 82 14 33 15 87 16 81 17 83 18 34 19 86 20 80 21 79 22 35 24
REMARK SMILES IDX 67 25 47 26 66 27 48 28 51 29 65 30 84 31 49 32 50 33 64 35
REMARK SMILES IDX 85 36 52 37 36 38 37 39 45 40 38 41 40 42 46 43 39 44 41 45
REMARK SMILES IDX 42 46 43 47 44 48 68 49 69 50 77 51 70 52 72 53 78 54 71 55
REMARK SMILES IDX 73 56 74 57 75 58 76 59 53 60 54 61 62 62 55 63 57 64 63 65
REMARK SMILES IDX 56 66 58 67 59 68 60 69 61 70 5 71 6 72 7 73 8 74 9 76 10 77
REMARK SMILES IDX 11 78 18 79 12 80 17 81 13 82 16 83 14 84 15 86 19 87 20 88
REMARK SMILES IDX 21 89 22 90 23 91 26 92 24 93 25 94
REMARK H PARENT 3 5 83 23 51 34 7 75 13 85
REMARK Flexibility Score: inf
ROOT
ATOM      1  C   UNL A   1      34.929  31.785  27.989  1.00  0.00     0.118 C 
ENDROOT
BRANCH   1   2
ATOM      2  N   UNL A   1      34.774  31.964  29.419  1.00  0.00    -0.352 N 
ATOM      3  O   UNL A   1      34.996  32.035  31.595  1.00  0.00    -0.269 OA
ATOM      4  C   UNL A   1      35.524  31.701  30.530  1.00  0.00     0.251 C 
ATOM      5  H   UNL A   1      33.912  32.380  29.646  1.00  0.00     0.163 HD
BRANCH   4   6
ATOM      6  C   UNL A   1      36.851  31.024  30.564  1.00  0.00     0.039 A 
ATOM      7  C   UNL A   1      38.095  31.635  30.732  1.00  0.00     0.014 A 
ATOM      8  C   UNL A   1      36.813  29.624  30.394  1.00  0.00     0.014 A 
ATOM      9  C   UNL A   1      39.267  30.874  30.663  1.00  0.00     0.010 A 
ATOM     10  C   UNL A   1      37.976  28.864  30.328  1.00  0.00     0.010 A 
ATOM     11  C   UNL A   1      39.210  29.493  30.429  1.00  0.00    -0.014 A 
BRANCH  11  12
ATOM     12  C   UNL A   1      40.444  28.705  30.474  1.00  0.00     0.031 A 
ATOM     13  C   UNL A   1      41.073  28.644  31.828  1.00  0.00     0.074 A 
ATOM     14  C   UNL A   1      40.911  27.956  29.450  1.00  0.00     0.049 A 
ATOM     15  N   UNL A   1      42.214  29.130  32.196  1.00  0.00    -0.248 NA
ATOM     16  C   UNL A   1      40.276  28.097  32.938  1.00  0.00     0.031 C 
ATOM     17  C   UNL A   1      40.250  27.663  28.175  1.00  0.00     0.029 A 
ATOM     18  N   UNL A   1      42.041  27.188  29.384  1.00  0.00    -0.354 N 
ATOM     19  C   UNL A   1      42.378  28.756  33.531  1.00  0.00     0.074 A 
ATOM     20  C   UNL A   1      41.095  28.282  33.975  1.00  0.00     0.031 C 
ATOM     21  C   UNL A   1      40.858  26.607  27.585  1.00  0.00     0.029 A 
ATOM     22  C   UNL A   1      42.031  26.241  28.359  1.00  0.00     0.049 A 
ATOM     23  H   UNL A   1      42.796  27.294  30.007  1.00  0.00     0.167 HD
ATOM     24  C   UNL A   1      43.613  28.661  34.100  1.00  0.00     0.034 A 
ATOM     25  C   UNL A   1      42.886  25.197  28.197  1.00  0.00     0.034 A 
ATOM     26  C   UNL A   1      44.609  29.315  33.291  1.00  0.00     0.049 A 
ATOM     27  C   UNL A   1      44.104  25.499  28.979  1.00  0.00     0.074 A 
ATOM     28  C   UNL A   1      44.829  30.602  32.850  1.00  0.00     0.029 A 
ATOM     29  N   UNL A   1      45.391  28.503  32.510  1.00  0.00    -0.354 N 
ATOM     30  N   UNL A   1      44.922  26.469  28.686  1.00  0.00    -0.248 NA
ATOM     31  C   UNL A   1      44.181  24.991  30.337  1.00  0.00     0.031 C 
ATOM     32  C   UNL A   1      45.340  30.447  31.528  1.00  0.00     0.029 A 
ATOM     33  C   UNL A   1      45.467  29.079  31.274  1.00  0.00     0.049 A 
ATOM     34  H   UNL A   1      45.818  27.660  32.788  1.00  0.00     0.167 HD
ATOM     35  C   UNL A   1      45.263  27.002  29.919  1.00  0.00     0.074 A 
ATOM     36  C   UNL A   1      44.861  25.994  30.897  1.00  0.00     0.031 C 
ATOM     37  C   UNL A   1      45.567  28.325  30.048  1.00  0.00     0.034 A 
BRANCH  24  38
ATOM     38  C   UNL A   1      44.028  27.675  35.174  1.00  0.00     0.023 A 
ATOM     39  C   UNL A   1      44.690  28.204  36.310  1.00  0.00     0.012 A 
ATOM     40  C   UNL A   1      44.089  26.275  34.998  1.00  0.00     0.148 A 
ATOM     41  C   UNL A   1      45.442  27.398  37.170  1.00  0.00     0.002 A 
ATOM     42  C   UNL A   1      44.783  25.468  35.894  1.00  0.00     0.091 A 
ATOM     43  F   UNL A   1      43.582  25.717  33.896  1.00  0.00    -0.205 F 
ATOM     44  C   UNL A   1      45.491  26.027  36.961  1.00  0.00     0.022 A 
BRANCH  42  45
ATOM     45  S   UNL A   1      44.860  23.682  35.700  1.00  0.00     0.127 S 
ATOM     46  O   UNL A   1      45.679  23.555  34.498  1.00  0.00    -0.237 OA
ATOM     47  O   UNL A   1      45.516  23.278  36.944  1.00  0.00    -0.237 OA
ATOM     48  O   UNL A   1      43.477  23.239  35.582  1.00  0.00    -0.744 OA
ENDBRANCH  42  45
ENDBRANCH  24  38
BRANCH  25  49
ATOM     49  C   UNL A   1      42.646  23.830  27.666  1.00  0.00     0.023 A 
ATOM     50  C   UNL A   1      41.363  23.246  27.769  1.00  0.00     0.012 A 
ATOM     51  C   UNL A   1      43.575  23.235  26.788  1.00  0.00     0.148 A 
ATOM     52  C   UNL A   1      41.012  22.128  26.999  1.00  0.00     0.002 A 
ATOM     53  C   UNL A   1      43.222  22.124  26.025  1.00  0.00     0.091 A 
ATOM     54  F   UNL A   1      44.771  23.818  26.630  1.00  0.00    -0.205 F 
ATOM     55  C   UNL A   1      41.937  21.574  26.120  1.00  0.00     0.022 A 
BRANCH  53  56
ATOM     56  S   UNL A   1      44.348  21.381  24.836  1.00  0.00     0.127 S 
ATOM     57  O   UNL A   1      43.731  20.073  24.615  1.00  0.00    -0.237 OA
ATOM     58  O   UNL A   1      44.250  22.304  23.709  1.00  0.00    -0.237 OA
ATOM     59  O   UNL A   1      45.647  21.330  25.496  1.00  0.00    -0.744 OA
ENDBRANCH  53  56
ENDBRANCH  25  49
BRANCH  37  60
ATOM     60  C   UNL A   1      45.794  29.133  28.800  1.00  0.00     0.023 A 
ATOM     61  C   UNL A   1      44.743  29.737  28.078  1.00  0.00     0.012 A 
ATOM     62  C   UNL A   1      47.120  29.464  28.485  1.00  0.00     0.148 A 
ATOM     63  C   UNL A   1      45.017  30.654  27.059  1.00  0.00     0.002 A 
ATOM     64  C   UNL A   1      47.386  30.417  27.513  1.00  0.00     0.091 A 
ATOM     65  F   UNL A   1      48.101  28.873  29.185  1.00  0.00    -0.205 F 
ATOM     66  C   UNL A   1      46.339  31.008  26.790  1.00  0.00     0.022 A 
BRANCH  64  67
ATOM     67  S   UNL A   1      49.049  31.027  27.236  1.00  0.00     0.127 S 
ATOM     68  O   UNL A   1      49.655  29.928  26.487  1.00  0.00    -0.237 OA
ATOM     69  O   UNL A   1      48.805  32.240  26.455  1.00  0.00    -0.237 OA
ATOM     70  O   UNL A   1      49.617  31.272  28.556  1.00  0.00    -0.744 OA
ENDBRANCH  64  67
ENDBRANCH  37  60
ENDBRANCH  11  12
ENDBRANCH   4   6
ENDBRANCH   1   2
BRANCH   1  71
ATOM     71  C   UNL A   1      33.803  30.960  27.367  1.00  0.00     0.042 C 
BRANCH  71  72
ATOM     72  C   UNL A   1      34.213  29.504  27.099  1.00  0.00     0.117 C 
BRANCH  72  73
ATOM     73  N   UNL A   1      33.217  28.579  27.623  1.00  0.00    -0.355 N 
ATOM     74  C   UNL A   1      31.946  28.273  27.247  1.00  0.00     0.238 C 
ATOM     75  H   UNL A   1      33.527  28.072  28.408  1.00  0.00     0.163 HD
ATOM     76  O   UNL A   1      31.196  27.940  28.174  1.00  0.00    -0.273 OA
BRANCH  74  77
ATOM     77  C   UNL A   1      31.419  28.235  25.814  1.00  0.00     0.168 C 
ATOM     78  C   UNL A   1      31.297  29.647  25.197  1.00  0.00     0.086 C 
ATOM     79  N   UNL A   1      32.122  27.275  24.838  1.00  0.00    -0.178 NA
ATOM     80  C   UNL A   1      30.648  29.542  23.883  1.00  0.00     0.041 A 
ATOM     81  C   UNL A   1      31.322  27.130  23.519  1.00  0.00     0.161 C 
ATOM     82  N   UNL A   1      30.031  30.509  23.153  1.00  0.00    -0.348 N 
ATOM     83  C   UNL A   1      30.694  28.421  23.100  1.00  0.00     0.077 A 
ATOM     84  C   UNL A   1      29.715  29.931  21.950  1.00  0.00     0.197 A 
ATOM     85  H   UNL A   1      29.849  31.435  23.431  1.00  0.00     0.167 HD
ATOM     86  N   UNL A   1      30.084  28.666  21.897  1.00  0.00    -0.240 NA
BRANCH  79  87
ATOM     87  S   UNL A   1      32.423  25.672  25.405  1.00  0.00     0.253 S 
ATOM     88  O   UNL A   1      33.647  25.703  26.169  1.00  0.00    -0.206 OA
ATOM     89  O   UNL A   1      31.194  25.223  26.044  1.00  0.00    -0.206 OA
BRANCH  87  90
ATOM     90  C   UNL A   1      32.718  24.489  24.097  1.00  0.00     0.135 A 
ATOM     91  C   UNL A   1      33.737  24.370  23.166  1.00  0.00     0.033 A 
ATOM     92  S   UNL A   1      31.661  23.139  24.002  1.00  0.00    -0.131 S 
ATOM     93  C   UNL A   1      33.626  23.206  22.354  1.00  0.00     0.013 A 
ATOM     94  C   UNL A   1      32.573  22.414  22.748  1.00  0.00     0.066 A 
ENDBRANCH  87  90
ENDBRANCH  79  87
ENDBRANCH  74  77
ENDBRANCH  72  73
ENDBRANCH  71  72
ENDBRANCH   1  71
TORSDOF 15
ENDMDL
