MODEL 1
REMARK VINA RESULT:     -11.8      0.000      0.000
REMARK SMILES Cc1[nH]c(=O)n(C)c(=O)c1CC(=O)NCCCNC(=O)c1ccc(-c2c3nc(c(-c4cccc(S(=O)(=O)[O-])c4F)c4ccc([nH]4)c(-c4cccc(S(=O)(=O)[O-])c4F)c4nc(c(-c5cccc(S(=O)(=O)[O-])c5F)c5ccc2[nH]5)C=C4)C=C3)cc1
REMARK SMILES IDX 17 1 16 2 15 3 14 4 12 5 13 6 11 8 10 9 1 10 2 11 3 12 4 13
REMARK SMILES IDX 8 15 5 16 6 17 9 18 7 19 18 20 19 21 20 23 21 24 22 25 83 26
REMARK SMILES IDX 23 27 82 28 24 29 25 30 26 31 76 32 27 33 81 34 75 35 77 36
REMARK SMILES IDX 28 37 80 38 74 39 73 40 29 42 61 43 41 44 60 45 42 46 45 47
REMARK SMILES IDX 59 48 78 49 43 50 44 51 58 53 79 54 46 55 30 56 31 57 39 58
REMARK SMILES IDX 32 59 34 60 40 61 33 62 35 63 36 64 37 65 38 66 62 67 63 68
REMARK SMILES IDX 71 69 64 70 66 71 72 72 65 73 67 74 68 75 69 76 70 77 47 78
REMARK SMILES IDX 48 79 56 80 49 81 51 82 57 83 50 84 52 85 53 86 54 87 55 88
REMARK H PARENT 14 7 3 14 18 22 77 41 45 52
REMARK Flexibility Score: inf
ROOT
ATOM      1  C   UNL A   1      32.936  29.144  25.334  1.00  0.00     0.118 C 
ENDROOT
BRANCH   1   2
ATOM      2  C   UNL A   1      33.895  29.316  24.160  1.00  0.00     0.042 C 
BRANCH   2   3
ATOM      3  C   UNL A   1      33.400  28.671  22.870  1.00  0.00     0.117 C 
BRANCH   3   4
ATOM      4  N   UNL A   1      32.057  29.085  22.522  1.00  0.00    -0.356 N 
ATOM      5  C   UNL A   1      30.956  28.330  22.241  1.00  0.00     0.224 C 
ATOM      6  O   UNL A   1      29.877  28.915  22.124  1.00  0.00    -0.275 OA
ATOM      7  H   UNL A   1      31.917  30.059  22.483  1.00  0.00     0.163 HD
BRANCH   5   8
ATOM      8  C   UNL A   1      31.043  26.805  22.202  1.00  0.00     0.143 C 
BRANCH   8   9
ATOM      9  C   UNL A   1      30.903  26.129  23.542  1.00  0.00     0.046 A 
ATOM     10  C   UNL A   1      28.423  26.571  23.893  1.00  0.00     0.065 C 
ATOM     11  C   UNL A   1      29.776  26.032  24.273  1.00  0.00     0.026 A 
ATOM     12  N   UNL A   1      29.810  25.401  25.486  1.00  0.00    -0.311 N 
ATOM     13  C   UNL A   1      30.910  24.830  26.055  1.00  0.00     0.328 A 
ATOM     14  H   UNL A   1      28.966  25.356  25.994  1.00  0.00     0.171 HD
ATOM     15  C   UNL A   1      32.142  25.463  24.061  1.00  0.00     0.259 A 
ATOM     16  O   UNL A   1      30.806  24.280  27.147  1.00  0.00    -0.248 OA
ATOM     17  N   UNL A   1      32.073  24.900  25.320  1.00  0.00    -0.263 N 
ATOM     18  O   UNL A   1      33.146  25.424  23.354  1.00  0.00    -0.269 OA
ATOM     19  C   UNL A   1      33.251  24.283  25.898  1.00  0.00     0.158 C 
ENDBRANCH   8   9
ENDBRANCH   5   8
ENDBRANCH   3   4
ENDBRANCH   2   3
ENDBRANCH   1   2
BRANCH   1  20
ATOM     20  N   UNL A   1      32.420  30.419  25.821  1.00  0.00    -0.352 N 
ATOM     21  C   UNL A   1      32.850  31.208  26.856  1.00  0.00     0.251 C 
ATOM     22  H   UNL A   1      31.641  30.767  25.329  1.00  0.00     0.163 HD
ATOM     23  O   UNL A   1      32.140  32.143  27.234  1.00  0.00    -0.269 OA
BRANCH  21  24
ATOM     24  C   UNL A   1      34.144  30.946  27.517  1.00  0.00     0.039 A 
ATOM     25  C   UNL A   1      35.055  31.997  27.665  1.00  0.00     0.014 A 
ATOM     26  C   UNL A   1      34.477  29.663  27.955  1.00  0.00     0.014 A 
ATOM     27  C   UNL A   1      36.274  31.772  28.308  1.00  0.00     0.010 A 
ATOM     28  C   UNL A   1      35.659  29.456  28.658  1.00  0.00     0.010 A 
ATOM     29  C   UNL A   1      36.573  30.506  28.835  1.00  0.00    -0.014 A 
BRANCH  29  30
ATOM     30  C   UNL A   1      37.833  30.245  29.573  1.00  0.00     0.031 A 
ATOM     31  C   UNL A   1      38.871  29.330  28.986  1.00  0.00     0.074 A 
ATOM     32  C   UNL A   1      37.995  30.756  30.810  1.00  0.00     0.049 A 
ATOM     33  N   UNL A   1      39.978  28.887  29.523  1.00  0.00    -0.248 NA
ATOM     34  C   UNL A   1      38.623  28.828  27.624  1.00  0.00     0.031 C 
ATOM     35  C   UNL A   1      37.035  31.619  31.500  1.00  0.00     0.029 A 
ATOM     36  N   UNL A   1      39.013  30.600  31.716  1.00  0.00    -0.354 N 
ATOM     37  C   UNL A   1      40.542  28.035  28.581  1.00  0.00     0.074 A 
ATOM     38  C   UNL A   1      39.638  27.996  27.452  1.00  0.00     0.031 C 
ATOM     39  C   UNL A   1      37.512  31.920  32.718  1.00  0.00     0.029 A 
ATOM     40  C   UNL A   1      38.789  31.240  32.912  1.00  0.00     0.049 A 
ATOM     41  H   UNL A   1      39.828  30.079  31.528  1.00  0.00     0.167 HD
ATOM     42  C   UNL A   1      41.721  27.371  28.639  1.00  0.00     0.034 A 
ATOM     43  C   UNL A   1      39.523  31.268  34.042  1.00  0.00     0.034 A 
ATOM     44  C   UNL A   1      42.627  27.441  29.753  1.00  0.00     0.049 A 
ATOM     45  C   UNL A   1      40.830  30.523  34.078  1.00  0.00     0.074 A 
ATOM     46  C   UNL A   1      43.867  26.841  29.891  1.00  0.00     0.029 A 
ATOM     47  N   UNL A   1      42.395  28.152  30.921  1.00  0.00    -0.354 N 
ATOM     48  N   UNL A   1      41.399  29.809  33.138  1.00  0.00    -0.248 NA
ATOM     49  C   UNL A   1      41.614  30.617  35.318  1.00  0.00     0.031 C 
ATOM     50  C   UNL A   1      44.373  27.172  31.152  1.00  0.00     0.029 A 
ATOM     51  C   UNL A   1      43.468  28.008  31.785  1.00  0.00     0.049 A 
ATOM     52  H   UNL A   1      41.586  28.682  31.109  1.00  0.00     0.167 HD
ATOM     53  C   UNL A   1      42.623  29.401  33.655  1.00  0.00     0.074 A 
ATOM     54  C   UNL A   1      42.721  29.967  34.985  1.00  0.00     0.031 C 
ATOM     55  C   UNL A   1      43.575  28.619  33.085  1.00  0.00     0.034 A 
BRANCH  42  56
ATOM     56  C   UNL A   1      42.131  26.555  27.438  1.00  0.00     0.023 A 
ATOM     57  C   UNL A   1      42.865  27.170  26.402  1.00  0.00     0.012 A 
ATOM     58  C   UNL A   1      41.871  25.173  27.372  1.00  0.00     0.148 A 
ATOM     59  C   UNL A   1      43.310  26.430  25.308  1.00  0.00     0.002 A 
ATOM     60  C   UNL A   1      42.362  24.431  26.303  1.00  0.00     0.091 A 
ATOM     61  F   UNL A   1      41.155  24.610  28.356  1.00  0.00    -0.205 F 
ATOM     62  C   UNL A   1      43.070  25.059  25.266  1.00  0.00     0.022 A 
BRANCH  60  63
ATOM     63  S   UNL A   1      42.188  22.646  26.197  1.00  0.00     0.127 S 
ATOM     64  O   UNL A   1      42.828  22.364  24.911  1.00  0.00    -0.237 OA
ATOM     65  O   UNL A   1      42.943  22.194  27.365  1.00  0.00    -0.237 OA
ATOM     66  O   UNL A   1      40.759  22.375  26.251  1.00  0.00    -0.744 OA
ENDBRANCH  60  63
ENDBRANCH  42  56
BRANCH  43  67
ATOM     67  C   UNL A   1      39.073  32.096  35.197  1.00  0.00     0.023 A 
ATOM     68  C   UNL A   1      39.178  33.499  35.117  1.00  0.00     0.012 A 
ATOM     69  C   UNL A   1      38.495  31.516  36.343  1.00  0.00     0.148 A 
ATOM     70  C   UNL A   1      38.739  34.307  36.165  1.00  0.00     0.002 A 
ATOM     71  C   UNL A   1      38.005  32.330  37.358  1.00  0.00     0.091 A 
ATOM     72  F   UNL A   1      38.412  30.180  36.403  1.00  0.00    -0.205 F 
ATOM     73  C   UNL A   1      38.142  33.725  37.280  1.00  0.00     0.022 A 
BRANCH  71  74
ATOM     74  S   UNL A   1      37.094  31.684  38.764  1.00  0.00     0.127 S 
ATOM     75  O   UNL A   1      38.050  31.870  39.852  1.00  0.00    -0.237 OA
ATOM     76  O   UNL A   1      35.934  32.577  38.803  1.00  0.00    -0.237 OA
ATOM     77  O   UNL A   1      36.781  30.302  38.430  1.00  0.00    -0.744 OA
ENDBRANCH  71  74
ENDBRANCH  43  67
BRANCH  55  78
ATOM     78  C   UNL A   1      44.831  28.352  33.877  1.00  0.00     0.023 A 
ATOM     79  C   UNL A   1      45.918  29.244  33.792  1.00  0.00     0.012 A 
ATOM     80  C   UNL A   1      44.898  27.263  34.769  1.00  0.00     0.148 A 
ATOM     81  C   UNL A   1      47.066  29.036  34.557  1.00  0.00     0.002 A 
ATOM     82  C   UNL A   1      46.022  27.095  35.569  1.00  0.00     0.091 A 
ATOM     83  F   UNL A   1      43.861  26.414  34.823  1.00  0.00    -0.205 F 
ATOM     84  C   UNL A   1      47.113  27.971  35.453  1.00  0.00     0.022 A 
BRANCH  82  85
ATOM     85  S   UNL A   1      46.124  25.819  36.829  1.00  0.00     0.127 S 
ATOM     86  O   UNL A   1      47.447  26.067  37.399  1.00  0.00    -0.237 OA
ATOM     87  O   UNL A   1      45.007  26.163  37.710  1.00  0.00    -0.237 OA
ATOM     88  O   UNL A   1      45.971  24.550  36.129  1.00  0.00    -0.744 OA
ENDBRANCH  82  85
ENDBRANCH  55  78
ENDBRANCH  29  30
ENDBRANCH  21  24
ENDBRANCH   1  20
TORSDOF 14
ENDMDL
MODEL 2
REMARK VINA RESULT:     -11.6      5.869      8.348
REMARK SMILES Cc1[nH]c(=O)n(C)c(=O)c1CC(=O)NCCCNC(=O)c1ccc(-c2c3nc(c(-c4cccc(S(=O)(=O)[O-])c4F)c4ccc([nH]4)c(-c4cccc(S(=O)(=O)[O-])c4F)c4nc(c(-c5cccc(S(=O)(=O)[O-])c5F)c5ccc2[nH]5)C=C4)C=C3)cc1
REMARK SMILES IDX 17 1 16 2 15 3 14 4 12 5 13 6 11 8 10 9 1 10 2 11 3 12 4 13
REMARK SMILES IDX 8 15 5 16 6 17 9 18 7 19 18 20 19 21 20 23 21 24 22 25 83 26
REMARK SMILES IDX 23 27 82 28 24 29 25 30 26 31 76 32 27 33 81 34 75 35 77 36
REMARK SMILES IDX 28 37 80 38 74 39 73 40 29 42 61 43 41 44 60 45 42 46 45 47
REMARK SMILES IDX 59 48 78 49 43 50 44 51 58 53 79 54 46 55 30 56 31 57 39 58
REMARK SMILES IDX 32 59 34 60 40 61 33 62 35 63 36 64 37 65 38 66 62 67 63 68
REMARK SMILES IDX 71 69 64 70 66 71 72 72 65 73 67 74 68 75 69 76 70 77 47 78
REMARK SMILES IDX 48 79 56 80 49 81 51 82 57 83 50 84 52 85 53 86 54 87 55 88
REMARK H PARENT 14 7 3 14 18 22 77 41 45 52
REMARK Flexibility Score: inf
ROOT
ATOM      1  C   UNL A   1      36.896  23.318  25.799  1.00  0.00     0.118 C 
ENDROOT
BRANCH   1   2
ATOM      2  C   UNL A   1      36.417  23.183  24.357  1.00  0.00     0.042 C 
BRANCH   2   3
ATOM      3  C   UNL A   1      34.916  22.945  24.233  1.00  0.00     0.117 C 
BRANCH   3   4
ATOM      4  N   UNL A   1      34.337  22.409  25.447  1.00  0.00    -0.356 N 
ATOM      5  C   UNL A   1      33.719  21.213  25.665  1.00  0.00     0.224 C 
ATOM      6  O   UNL A   1      33.445  20.915  26.830  1.00  0.00    -0.275 OA
ATOM      7  H   UNL A   1      34.400  22.997  26.235  1.00  0.00     0.163 HD
BRANCH   5   8
ATOM      8  C   UNL A   1      33.494  20.229  24.518  1.00  0.00     0.143 C 
BRANCH   8   9
ATOM      9  C   UNL A   1      34.063  18.852  24.745  1.00  0.00     0.046 A 
ATOM     10  C   UNL A   1      36.527  19.483  24.687  1.00  0.00     0.065 C 
ATOM     11  C   UNL A   1      35.369  18.530  24.813  1.00  0.00     0.026 A 
ATOM     12  N   UNL A   1      35.734  17.225  25.005  1.00  0.00    -0.311 N 
ATOM     13  C   UNL A   1      34.877  16.174  25.148  1.00  0.00     0.328 A 
ATOM     14  H   UNL A   1      36.698  17.029  25.043  1.00  0.00     0.171 HD
ATOM     15  C   UNL A   1      33.054  17.765  24.965  1.00  0.00     0.259 A 
ATOM     16  O   UNL A   1      35.332  15.048  25.330  1.00  0.00    -0.248 OA
ATOM     17  N   UNL A   1      33.535  16.478  25.099  1.00  0.00    -0.263 N 
ATOM     18  O   UNL A   1      31.862  18.056  25.039  1.00  0.00    -0.269 OA
ATOM     19  C   UNL A   1      32.606  15.377  25.268  1.00  0.00     0.158 C 
ENDBRANCH   8   9
ENDBRANCH   5   8
ENDBRANCH   3   4
ENDBRANCH   2   3
ENDBRANCH   1   2
BRANCH   1  20
ATOM     20  N   UNL A   1      38.035  22.453  26.088  1.00  0.00    -0.352 N 
ATOM     21  C   UNL A   1      39.307  22.771  26.485  1.00  0.00     0.251 C 
ATOM     22  H   UNL A   1      37.862  21.489  25.980  1.00  0.00     0.163 HD
ATOM     23  O   UNL A   1      40.179  21.899  26.468  1.00  0.00    -0.269 OA
BRANCH  21  24
ATOM     24  C   UNL A   1      39.639  24.140  26.927  1.00  0.00     0.039 A 
ATOM     25  C   UNL A   1      39.408  24.497  28.260  1.00  0.00     0.014 A 
ATOM     26  C   UNL A   1      40.139  25.082  26.026  1.00  0.00     0.014 A 
ATOM     27  C   UNL A   1      39.736  25.781  28.700  1.00  0.00     0.010 A 
ATOM     28  C   UNL A   1      40.533  26.336  26.482  1.00  0.00     0.010 A 
ATOM     29  C   UNL A   1      40.328  26.701  27.821  1.00  0.00    -0.014 A 
BRANCH  29  30
ATOM     30  C   UNL A   1      40.743  28.053  28.268  1.00  0.00     0.031 A 
ATOM     31  C   UNL A   1      42.201  28.415  28.312  1.00  0.00     0.074 A 
ATOM     32  C   UNL A   1      39.813  28.917  28.721  1.00  0.00     0.049 A 
ATOM     33  N   UNL A   1      42.769  29.496  28.778  1.00  0.00    -0.248 NA
ATOM     34  C   UNL A   1      43.150  27.420  27.782  1.00  0.00     0.031 C 
ATOM     35  C   UNL A   1      38.373  28.659  28.769  1.00  0.00     0.029 A 
ATOM     36  N   UNL A   1      39.943  30.174  29.255  1.00  0.00    -0.354 N 
ATOM     37  C   UNL A   1      44.137  29.302  28.626  1.00  0.00     0.074 A 
ATOM     38  C   UNL A   1      44.316  27.984  28.056  1.00  0.00     0.031 C 
ATOM     39  C   UNL A   1      37.753  29.726  29.297  1.00  0.00     0.029 A 
ATOM     40  C   UNL A   1      38.751  30.725  29.663  1.00  0.00     0.049 A 
ATOM     41  H   UNL A   1      40.808  30.639  29.336  1.00  0.00     0.167 HD
ATOM     42  C   UNL A   1      45.149  30.157  28.907  1.00  0.00     0.034 A 
ATOM     43  C   UNL A   1      38.493  31.898  30.275  1.00  0.00     0.034 A 
ATOM     44  C   UNL A   1      44.959  31.477  29.445  1.00  0.00     0.049 A 
ATOM     45  C   UNL A   1      39.636  32.829  30.573  1.00  0.00     0.074 A 
ATOM     46  C   UNL A   1      45.915  32.437  29.724  1.00  0.00     0.029 A 
ATOM     47  N   UNL A   1      43.731  32.025  29.786  1.00  0.00    -0.354 N 
ATOM     48  N   UNL A   1      40.914  32.674  30.325  1.00  0.00    -0.248 NA
ATOM     49  C   UNL A   1      39.299  34.114  31.203  1.00  0.00     0.031 C 
ATOM     50  C   UNL A   1      45.268  33.556  30.255  1.00  0.00     0.029 A 
ATOM     51  C   UNL A   1      43.905  33.310  30.272  1.00  0.00     0.049 A 
ATOM     52  H   UNL A   1      42.864  31.567  29.697  1.00  0.00     0.167 HD
ATOM     53  C   UNL A   1      41.529  33.854  30.730  1.00  0.00     0.074 A 
ATOM     54  C   UNL A   1      40.478  34.721  31.221  1.00  0.00     0.031 C 
ATOM     55  C   UNL A   1      42.845  34.183  30.709  1.00  0.00     0.034 A 
BRANCH  42  56
ATOM     56  C   UNL A   1      46.555  29.717  28.583  1.00  0.00     0.023 A 
ATOM     57  C   UNL A   1      47.114  30.053  27.332  1.00  0.00     0.012 A 
ATOM     58  C   UNL A   1      47.350  29.052  29.536  1.00  0.00     0.148 A 
ATOM     59  C   UNL A   1      48.431  29.712  27.025  1.00  0.00     0.002 A 
ATOM     60  C   UNL A   1      48.677  28.761  29.243  1.00  0.00     0.091 A 
ATOM     61  F   UNL A   1      46.795  28.722  30.712  1.00  0.00    -0.205 F 
ATOM     62  C   UNL A   1      49.215  29.079  27.985  1.00  0.00     0.022 A 
BRANCH  60  63
ATOM     63  S   UNL A   1      49.800  28.029  30.439  1.00  0.00     0.127 S 
ATOM     64  O   UNL A   1      51.039  27.943  29.666  1.00  0.00    -0.237 OA
ATOM     65  O   UNL A   1      49.815  29.035  31.501  1.00  0.00    -0.237 OA
ATOM     66  O   UNL A   1      49.214  26.752  30.816  1.00  0.00    -0.744 OA
ENDBRANCH  60  63
ENDBRANCH  42  56
BRANCH  43  67
ATOM     67  C   UNL A   1      37.083  32.286  30.567  1.00  0.00     0.023 A 
ATOM     68  C   UNL A   1      36.583  32.120  31.873  1.00  0.00     0.012 A 
ATOM     69  C   UNL A   1      36.256  32.863  29.584  1.00  0.00     0.148 A 
ATOM     70  C   UNL A   1      35.279  32.500  32.191  1.00  0.00     0.002 A 
ATOM     71  C   UNL A   1      34.978  33.295  29.921  1.00  0.00     0.091 A 
ATOM     72  F   UNL A   1      36.748  33.004  28.345  1.00  0.00    -0.205 F 
ATOM     73  C   UNL A   1      34.481  33.098  31.220  1.00  0.00     0.022 A 
BRANCH  71  74
ATOM     74  S   UNL A   1      33.929  34.204  28.782  1.00  0.00     0.127 S 
ATOM     75  O   UNL A   1      32.848  34.647  29.658  1.00  0.00    -0.237 OA
ATOM     76  O   UNL A   1      34.830  35.264  28.329  1.00  0.00    -0.237 OA
ATOM     77  O   UNL A   1      33.551  33.250  27.749  1.00  0.00    -0.744 OA
ENDBRANCH  71  74
ENDBRANCH  43  67
BRANCH  55  78
ATOM     78  C   UNL A   1      43.233  35.556  31.196  1.00  0.00     0.023 A 
ATOM     79  C   UNL A   1      43.439  35.783  32.572  1.00  0.00     0.012 A 
ATOM     80  C   UNL A   1      43.479  36.599  30.280  1.00  0.00     0.148 A 
ATOM     81  C   UNL A   1      43.847  37.036  33.030  1.00  0.00     0.002 A 
ATOM     82  C   UNL A   1      43.939  37.827  30.739  1.00  0.00     0.091 A 
ATOM     83  F   UNL A   1      43.261  36.371  28.976  1.00  0.00    -0.205 F 
ATOM     84  C   UNL A   1      44.109  38.052  32.114  1.00  0.00     0.022 A 
BRANCH  82  85
ATOM     85  S   UNL A   1      44.409  39.156  29.625  1.00  0.00     0.127 S 
ATOM     86  O   UNL A   1      43.128  39.492  29.005  1.00  0.00    -0.237 OA
ATOM     87  O   UNL A   1      44.923  40.169  30.549  1.00  0.00    -0.237 OA
ATOM     88  O   UNL A   1      45.410  38.593  28.729  1.00  0.00    -0.744 OA
ENDBRANCH  82  85
ENDBRANCH  55  78
ENDBRANCH  29  30
ENDBRANCH  21  24
ENDBRANCH   1  20
TORSDOF 14
ENDMDL
MODEL 3
REMARK VINA RESULT:     -11.6      1.873      2.751
REMARK SMILES Cc1[nH]c(=O)n(C)c(=O)c1CC(=O)NCCCNC(=O)c1ccc(-c2c3nc(c(-c4cccc(S(=O)(=O)[O-])c4F)c4ccc([nH]4)c(-c4cccc(S(=O)(=O)[O-])c4F)c4nc(c(-c5cccc(S(=O)(=O)[O-])c5F)c5ccc2[nH]5)C=C4)C=C3)cc1
REMARK SMILES IDX 17 1 16 2 15 3 14 4 12 5 13 6 11 8 10 9 1 10 2 11 3 12 4 13
REMARK SMILES IDX 8 15 5 16 6 17 9 18 7 19 18 20 19 21 20 23 21 24 22 25 83 26
REMARK SMILES IDX 23 27 82 28 24 29 25 30 26 31 76 32 27 33 81 34 75 35 77 36
REMARK SMILES IDX 28 37 80 38 74 39 73 40 29 42 61 43 41 44 60 45 42 46 45 47
REMARK SMILES IDX 59 48 78 49 43 50 44 51 58 53 79 54 46 55 30 56 31 57 39 58
REMARK SMILES IDX 32 59 34 60 40 61 33 62 35 63 36 64 37 65 38 66 62 67 63 68
REMARK SMILES IDX 71 69 64 70 66 71 72 72 65 73 67 74 68 75 69 76 70 77 47 78
REMARK SMILES IDX 48 79 56 80 49 81 51 82 57 83 50 84 52 85 53 86 54 87 55 88
REMARK H PARENT 14 7 3 14 18 22 77 41 45 52
REMARK Flexibility Score: inf
ROOT
ATOM      1  C   UNL A   1      32.719  28.978  25.751  1.00  0.00     0.118 C 
ENDROOT
BRANCH   1   2
ATOM      2  C   UNL A   1      31.902  28.008  26.600  1.00  0.00     0.042 C 
BRANCH   2   3
ATOM      3  C   UNL A   1      31.211  26.920  25.786  1.00  0.00     0.117 C 
BRANCH   3   4
ATOM      4  N   UNL A   1      30.825  25.782  26.593  1.00  0.00    -0.356 N 
ATOM      5  C   UNL A   1      30.943  24.448  26.335  1.00  0.00     0.224 C 
ATOM      6  O   UNL A   1      30.683  23.664  27.251  1.00  0.00    -0.275 OA
ATOM      7  H   UNL A   1      30.415  26.006  27.461  1.00  0.00     0.163 HD
BRANCH   5   8
ATOM      8  C   UNL A   1      31.501  23.957  25.001  1.00  0.00     0.143 C 
BRANCH   8   9
ATOM      9  C   UNL A   1      32.767  23.145  25.104  1.00  0.00     0.046 A 
ATOM     10  C   UNL A   1      34.394  25.079  25.388  1.00  0.00     0.065 C 
ATOM     11  C   UNL A   1      34.013  23.628  25.267  1.00  0.00     0.026 A 
ATOM     12  N   UNL A   1      35.071  22.762  25.324  1.00  0.00    -0.311 N 
ATOM     13  C   UNL A   1      34.991  21.403  25.238  1.00  0.00     0.328 A 
ATOM     14  H   UNL A   1      35.968  23.154  25.437  1.00  0.00     0.171 HD
ATOM     15  C   UNL A   1      32.583  21.657  25.074  1.00  0.00     0.259 A 
ATOM     16  O   UNL A   1      36.017  20.734  25.318  1.00  0.00    -0.248 OA
ATOM     17  N   UNL A   1      33.725  20.882  25.089  1.00  0.00    -0.263 N 
ATOM     18  O   UNL A   1      31.446  21.191  25.060  1.00  0.00    -0.269 OA
ATOM     19  C   UNL A   1      33.615  19.438  25.014  1.00  0.00     0.158 C 
ENDBRANCH   8   9
ENDBRANCH   5   8
ENDBRANCH   3   4
ENDBRANCH   2   3
ENDBRANCH   1   2
BRANCH   1  20
ATOM     20  N   UNL A   1      32.370  30.370  26.008  1.00  0.00    -0.352 N 
ATOM     21  C   UNL A   1      32.926  31.275  26.875  1.00  0.00     0.251 C 
ATOM     22  H   UNL A   1      31.615  30.715  25.477  1.00  0.00     0.163 HD
ATOM     23  O   UNL A   1      32.341  32.338  27.092  1.00  0.00    -0.269 OA
BRANCH  21  24
ATOM     24  C   UNL A   1      34.208  30.984  27.548  1.00  0.00     0.039 A 
ATOM     25  C   UNL A   1      35.146  32.011  27.694  1.00  0.00     0.014 A 
ATOM     26  C   UNL A   1      34.504  29.696  27.999  1.00  0.00     0.014 A 
ATOM     27  C   UNL A   1      36.354  31.759  28.346  1.00  0.00     0.010 A 
ATOM     28  C   UNL A   1      35.675  29.463  28.713  1.00  0.00     0.010 A 
ATOM     29  C   UNL A   1      36.615  30.490  28.886  1.00  0.00    -0.014 A 
BRANCH  29  30
ATOM     30  C   UNL A   1      37.862  30.202  29.636  1.00  0.00     0.031 A 
ATOM     31  C   UNL A   1      38.885  29.263  29.059  1.00  0.00     0.074 A 
ATOM     32  C   UNL A   1      38.026  30.711  30.873  1.00  0.00     0.049 A 
ATOM     33  N   UNL A   1      39.977  28.796  29.606  1.00  0.00    -0.248 NA
ATOM     34  C   UNL A   1      38.637  28.765  27.695  1.00  0.00     0.031 C 
ATOM     35  C   UNL A   1      37.080  31.596  31.554  1.00  0.00     0.029 A 
ATOM     36  N   UNL A   1      39.032  30.533  31.788  1.00  0.00    -0.354 N 
ATOM     37  C   UNL A   1      40.530  27.930  28.670  1.00  0.00     0.074 A 
ATOM     38  C   UNL A   1      39.635  27.909  27.533  1.00  0.00     0.031 C 
ATOM     39  C   UNL A   1      37.553  31.889  32.775  1.00  0.00     0.029 A 
ATOM     40  C   UNL A   1      38.812  31.181  32.981  1.00  0.00     0.049 A 
ATOM     41  H   UNL A   1      39.837  29.995  31.608  1.00  0.00     0.167 HD
ATOM     42  C   UNL A   1      41.693  27.240  28.738  1.00  0.00     0.034 A 
ATOM     43  C   UNL A   1      39.537  31.193  34.117  1.00  0.00     0.034 A 
ATOM     44  C   UNL A   1      42.591  27.291  29.860  1.00  0.00     0.049 A 
ATOM     45  C   UNL A   1      40.827  30.419  34.165  1.00  0.00     0.074 A 
ATOM     46  C   UNL A   1      43.815  26.664  30.010  1.00  0.00     0.029 A 
ATOM     47  N   UNL A   1      42.365  28.009  31.026  1.00  0.00    -0.354 N 
ATOM     48  N   UNL A   1      41.388  29.691  33.231  1.00  0.00    -0.248 NA
ATOM     49  C   UNL A   1      41.602  30.498  35.412  1.00  0.00     0.031 C 
ATOM     50  C   UNL A   1      44.318  26.985  31.274  1.00  0.00     0.029 A 
ATOM     51  C   UNL A   1      43.427  27.842  31.899  1.00  0.00     0.049 A 
ATOM     52  H   UNL A   1      41.567  28.557  31.206  1.00  0.00     0.167 HD
ATOM     53  C   UNL A   1      42.598  29.257  33.760  1.00  0.00     0.074 A 
ATOM     54  C   UNL A   1      42.697  29.822  35.090  1.00  0.00     0.031 C 
ATOM     55  C   UNL A   1      43.536  28.453  33.199  1.00  0.00     0.034 A 
BRANCH  42  56
ATOM     56  C   UNL A   1      42.095  26.413  27.542  1.00  0.00     0.023 A 
ATOM     57  C   UNL A   1      42.894  26.996  26.536  1.00  0.00     0.012 A 
ATOM     58  C   UNL A   1      41.761  25.048  27.454  1.00  0.00     0.148 A 
ATOM     59  C   UNL A   1      43.331  26.242  25.448  1.00  0.00     0.002 A 
ATOM     60  C   UNL A   1      42.243  24.290  26.393  1.00  0.00     0.091 A 
ATOM     61  F   UNL A   1      40.985  24.517  28.409  1.00  0.00    -0.205 F 
ATOM     62  C   UNL A   1      43.017  24.887  25.384  1.00  0.00     0.022 A 
BRANCH  60  63
ATOM     63  S   UNL A   1      41.975  22.518  26.262  1.00  0.00     0.127 S 
ATOM     64  O   UNL A   1      42.654  22.210  25.003  1.00  0.00    -0.237 OA
ATOM     65  O   UNL A   1      42.652  22.017  27.457  1.00  0.00    -0.237 OA
ATOM     66  O   UNL A   1      40.532  22.328  26.252  1.00  0.00    -0.744 OA
ENDBRANCH  60  63
ENDBRANCH  42  56
BRANCH  43  67
ATOM     67  C   UNL A   1      39.096  32.033  35.268  1.00  0.00     0.023 A 
ATOM     68  C   UNL A   1      38.195  31.493  36.205  1.00  0.00     0.012 A 
ATOM     69  C   UNL A   1      39.599  33.333  35.470  1.00  0.00     0.148 A 
ATOM     70  C   UNL A   1      37.783  32.238  37.310  1.00  0.00     0.002 A 
ATOM     71  C   UNL A   1      39.232  34.048  36.605  1.00  0.00     0.091 A 
ATOM     72  F   UNL A   1      40.450  33.832  34.562  1.00  0.00    -0.205 F 
ATOM     73  C   UNL A   1      38.311  33.510  37.518  1.00  0.00     0.022 A 
BRANCH  71  74
ATOM     74  S   UNL A   1      39.965  35.631  37.033  1.00  0.00     0.127 S 
ATOM     75  O   UNL A   1      41.374  35.279  37.181  1.00  0.00    -0.237 OA
ATOM     76  O   UNL A   1      39.651  36.434  35.850  1.00  0.00    -0.237 OA
ATOM     77  O   UNL A   1      39.292  36.060  38.250  1.00  0.00    -0.744 OA
ENDBRANCH  71  74
ENDBRANCH  43  67
BRANCH  55  78
ATOM     78  C   UNL A   1      44.780  28.159  34.001  1.00  0.00     0.023 A 
ATOM     79  C   UNL A   1      45.882  29.034  33.937  1.00  0.00     0.012 A 
ATOM     80  C   UNL A   1      44.820  27.061  34.885  1.00  0.00     0.148 A 
ATOM     81  C   UNL A   1      47.018  28.801  34.712  1.00  0.00     0.002 A 
ATOM     82  C   UNL A   1      45.932  26.868  35.695  1.00  0.00     0.091 A 
ATOM     83  F   UNL A   1      43.769  26.229  34.920  1.00  0.00    -0.205 F 
ATOM     84  C   UNL A   1      47.038  27.728  35.599  1.00  0.00     0.022 A 
BRANCH  82  85
ATOM     85  S   UNL A   1      46.000  25.579  36.945  1.00  0.00     0.127 S 
ATOM     86  O   UNL A   1      44.757  25.812  37.680  1.00  0.00    -0.237 OA
ATOM     87  O   UNL A   1      46.008  24.360  36.134  1.00  0.00    -0.237 OA
ATOM     88  O   UNL A   1      47.226  25.812  37.696  1.00  0.00    -0.744 OA
ENDBRANCH  82  85
ENDBRANCH  55  78
ENDBRANCH  29  30
ENDBRANCH  21  24
ENDBRANCH   1  20
TORSDOF 14
ENDMDL
