MODEL 1
REMARK VINA RESULT:     -11.2      0.000      0.000
REMARK SMILES O=C(NCCCNC(=O)[C@@H](CCc1ccccc1)[C@@H]1CCS(=O)(=O)C1)c1ccc(-c2c3nc(c(-c4cccc(S(=O)(=O)[O-])c4F)c4ccc([nH]4)c(-c4cccc(S(=O)(=O)[O-])c4F)c4nc(c(-c5cccc(S(=O)(=O)[O-])c5F)c5ccc2[nH]5)C=C4)C=C3)cc1
REMARK SMILES IDX 5 1 4 2 3 3 1 4 2 5 26 7 27 8 88 9 28 10 87 11 29 12 30 13
REMARK SMILES IDX 31 14 81 15 32 16 86 17 80 18 82 19 33 20 85 21 79 22 78 23
REMARK SMILES IDX 34 25 66 26 46 27 65 28 47 29 50 30 64 31 83 32 48 33 49 34
REMARK SMILES IDX 63 36 84 37 51 38 35 39 36 40 44 41 37 42 39 43 45 44 38 45
REMARK SMILES IDX 40 46 41 47 42 48 43 49 67 50 68 51 76 52 69 53 71 54 77 55
REMARK SMILES IDX 70 56 72 57 73 58 74 59 75 60 52 61 53 62 61 63 54 64 56 65
REMARK SMILES IDX 62 66 55 67 57 68 58 69 59 70 60 71 6 72 7 73 8 74 9 76
REMARK SMILES IDX 10 77 11 78 12 79 13 80 14 81 18 82 15 83 17 84 16 85 19 86
REMARK SMILES IDX 20 87 25 88 21 89 22 90 23 91 24 92
REMARK H PARENT 3 6 82 24 50 35 7 75
REMARK Flexibility Score: inf
ROOT
ATOM      1  C   UNL A   1      32.521  28.062  27.012  1.00  0.00     0.042 C 
ENDROOT
BRANCH   1   2
ATOM      2  C   UNL A   1      33.766  28.804  26.561  1.00  0.00     0.118 C 
BRANCH   2   3
ATOM      3  N   UNL A   1      33.751  30.188  27.017  1.00  0.00    -0.352 N 
ATOM      4  O   UNL A   1      34.179  31.929  28.358  1.00  0.00    -0.269 OA
ATOM      5  C   UNL A   1      34.568  30.857  27.899  1.00  0.00     0.251 C 
ATOM      6  H   UNL A   1      33.033  30.737  26.628  1.00  0.00     0.163 HD
BRANCH   5   7
ATOM      7  C   UNL A   1      35.883  30.307  28.314  1.00  0.00     0.039 A 
ATOM      8  C   UNL A   1      37.052  30.632  27.629  1.00  0.00     0.014 A 
ATOM      9  C   UNL A   1      35.968  29.509  29.462  1.00  0.00     0.014 A 
ATOM     10  C   UNL A   1      38.258  30.031  27.969  1.00  0.00     0.010 A 
ATOM     11  C   UNL A   1      37.208  29.016  29.889  1.00  0.00     0.010 A 
ATOM     12  C   UNL A   1      38.364  29.254  29.130  1.00  0.00    -0.014 A 
BRANCH  12  13
ATOM     13  C   UNL A   1      39.714  28.819  29.579  1.00  0.00     0.031 A 
ATOM     14  C   UNL A   1      40.438  29.518  30.696  1.00  0.00     0.074 A 
ATOM     15  C   UNL A   1      40.283  27.761  28.962  1.00  0.00     0.049 A 
ATOM     16  N   UNL A   1      41.609  29.241  31.212  1.00  0.00    -0.248 NA
ATOM     17  C   UNL A   1      39.776  30.680  31.310  1.00  0.00     0.031 C 
ATOM     18  C   UNL A   1      39.696  27.031  27.833  1.00  0.00     0.029 A 
ATOM     19  N   UNL A   1      41.468  27.109  29.191  1.00  0.00    -0.354 N 
ATOM     20  C   UNL A   1      41.845  30.214  32.176  1.00  0.00     0.074 A 
ATOM     21  C   UNL A   1      40.696  31.092  32.174  1.00  0.00     0.031 C 
ATOM     22  C   UNL A   1      40.499  26.014  27.495  1.00  0.00     0.029 A 
ATOM     23  C   UNL A   1      41.693  26.062  28.327  1.00  0.00     0.049 A 
ATOM     24  H   UNL A   1      42.096  27.367  29.903  1.00  0.00     0.167 HD
ATOM     25  C   UNL A   1      42.917  30.352  32.993  1.00  0.00     0.034 A 
ATOM     26  C   UNL A   1      42.754  25.244  28.194  1.00  0.00     0.034 A 
ATOM     27  C   UNL A   1      44.042  29.454  33.008  1.00  0.00     0.049 A 
ATOM     28  C   UNL A   1      43.917  25.417  29.125  1.00  0.00     0.074 A 
ATOM     29  C   UNL A   1      45.147  29.476  33.842  1.00  0.00     0.029 A 
ATOM     30  N   UNL A   1      44.217  28.382  32.146  1.00  0.00    -0.354 N 
ATOM     31  N   UNL A   1      44.063  26.268  30.111  1.00  0.00    -0.248 NA
ATOM     32  C   UNL A   1      45.053  24.503  28.943  1.00  0.00     0.031 C 
ATOM     33  C   UNL A   1      46.003  28.437  33.463  1.00  0.00     0.029 A 
ATOM     34  C   UNL A   1      45.415  27.745  32.417  1.00  0.00     0.049 A 
ATOM     35  H   UNL A   1      43.581  28.115  31.442  1.00  0.00     0.167 HD
ATOM     36  C   UNL A   1      45.292  25.976  30.685  1.00  0.00     0.074 A 
ATOM     37  C   UNL A   1      45.838  24.849  29.954  1.00  0.00     0.031 C 
ATOM     38  C   UNL A   1      45.921  26.595  31.713  1.00  0.00     0.034 A 
BRANCH  25  39
ATOM     39  C   UNL A   1      42.926  31.506  33.964  1.00  0.00     0.023 A 
ATOM     40  C   UNL A   1      43.451  32.752  33.566  1.00  0.00     0.012 A 
ATOM     41  C   UNL A   1      42.332  31.382  35.236  1.00  0.00     0.148 A 
ATOM     42  C   UNL A   1      43.408  33.849  34.427  1.00  0.00     0.002 A 
ATOM     43  C   UNL A   1      42.253  32.491  36.072  1.00  0.00     0.091 A 
ATOM     44  F   UNL A   1      41.851  30.186  35.603  1.00  0.00    -0.205 F 
ATOM     45  C   UNL A   1      42.799  33.721  35.672  1.00  0.00     0.022 A 
BRANCH  43  46
ATOM     46  S   UNL A   1      41.419  32.453  37.662  1.00  0.00     0.127 S 
ATOM     47  O   UNL A   1      41.431  33.868  38.034  1.00  0.00    -0.237 OA
ATOM     48  O   UNL A   1      40.101  31.927  37.305  1.00  0.00    -0.237 OA
ATOM     49  O   UNL A   1      42.214  31.579  38.513  1.00  0.00    -0.744 OA
ENDBRANCH  43  46
ENDBRANCH  25  39
BRANCH  26  50
ATOM     50  C   UNL A   1      42.751  24.183  27.148  1.00  0.00     0.023 A 
ATOM     51  C   UNL A   1      43.402  24.410  25.920  1.00  0.00     0.012 A 
ATOM     52  C   UNL A   1      42.134  22.937  27.378  1.00  0.00     0.148 A 
ATOM     53  C   UNL A   1      43.408  23.428  24.928  1.00  0.00     0.002 A 
ATOM     54  C   UNL A   1      42.199  21.943  26.411  1.00  0.00     0.091 A 
ATOM     55  F   UNL A   1      41.507  22.745  28.548  1.00  0.00    -0.205 F 
ATOM     56  C   UNL A   1      42.818  22.192  25.177  1.00  0.00     0.022 A 
BRANCH  54  57
ATOM     57  S   UNL A   1      41.594  20.278  26.710  1.00  0.00     0.127 S 
ATOM     58  O   UNL A   1      41.893  19.619  25.442  1.00  0.00    -0.237 OA
ATOM     59  O   UNL A   1      42.423  19.851  27.838  1.00  0.00    -0.237 OA
ATOM     60  O   UNL A   1      40.181  20.428  27.032  1.00  0.00    -0.744 OA
ENDBRANCH  54  57
ENDBRANCH  26  50
BRANCH  38  61
ATOM     61  C   UNL A   1      47.254  26.040  32.142  1.00  0.00     0.023 A 
ATOM     62  C   UNL A   1      48.435  26.485  31.516  1.00  0.00     0.012 A 
ATOM     63  C   UNL A   1      47.336  25.121  33.205  1.00  0.00     0.148 A 
ATOM     64  C   UNL A   1      49.677  25.995  31.919  1.00  0.00     0.002 A 
ATOM     65  C   UNL A   1      48.580  24.677  33.636  1.00  0.00     0.091 A 
ATOM     66  F   UNL A   1      46.198  24.696  33.773  1.00  0.00    -0.205 F 
ATOM     67  C   UNL A   1      49.750  25.101  32.986  1.00  0.00     0.022 A 
BRANCH  65  68
ATOM     68  S   UNL A   1      48.776  23.604  35.062  1.00  0.00     0.127 S 
ATOM     69  O   UNL A   1      47.966  22.449  34.680  1.00  0.00    -0.237 OA
ATOM     70  O   UNL A   1      50.219  23.362  35.072  1.00  0.00    -0.237 OA
ATOM     71  O   UNL A   1      48.283  24.361  36.206  1.00  0.00    -0.744 OA
ENDBRANCH  65  68
ENDBRANCH  38  61
ENDBRANCH  12  13
ENDBRANCH   5   7
ENDBRANCH   2   3
ENDBRANCH   1   2
BRANCH   1  72
ATOM     72  C   UNL A   1      31.929  27.172  25.926  1.00  0.00     0.117 C 
BRANCH  72  73
ATOM     73  N   UNL A   1      31.026  26.210  26.517  1.00  0.00    -0.356 N 
ATOM     74  C   UNL A   1      30.882  24.882  26.307  1.00  0.00     0.223 C 
ATOM     75  H   UNL A   1      30.412  26.587  27.189  1.00  0.00     0.163 HD
ATOM     76  O   UNL A   1      29.860  24.362  26.767  1.00  0.00    -0.275 OA
BRANCH  74  77
ATOM     77  C   UNL A   1      31.941  23.999  25.631  1.00  0.00     0.083 C 
BRANCH  77  78
ATOM     78  C   UNL A   1      32.599  22.918  26.542  1.00  0.00     0.018 C 
BRANCH  78  79
ATOM     79  C   UNL A   1      34.045  22.954  27.097  1.00  0.00     0.036 C 
BRANCH  79  80
ATOM     80  C   UNL A   1      35.224  22.570  26.237  1.00  0.00    -0.048 A 
ATOM     81  C   UNL A   1      35.406  21.286  25.727  1.00  0.00     0.004 A 
ATOM     82  C   UNL A   1      36.187  23.535  25.908  1.00  0.00     0.004 A 
ATOM     83  C   UNL A   1      36.624  20.912  25.151  1.00  0.00     0.000 A 
ATOM     84  C   UNL A   1      37.402  23.176  25.323  1.00  0.00     0.000 A 
ATOM     85  C   UNL A   1      37.639  21.849  24.988  1.00  0.00     0.000 A 
ENDBRANCH  79  80
ENDBRANCH  78  79
ENDBRANCH  77  78
BRANCH  77  86
ATOM     86  C   UNL A   1      31.628  23.621  24.159  1.00  0.00     0.017 C 
ATOM     87  C   UNL A   1      32.719  22.726  23.524  1.00  0.00     0.021 C 
ATOM     88  C   UNL A   1      31.497  24.812  23.181  1.00  0.00     0.141 C 
ATOM     89  C   UNL A   1      33.865  23.604  23.046  1.00  0.00     0.137 C 
ATOM     90  S   UNL A   1      33.100  25.083  22.438  1.00  0.00     0.150 S 
ATOM     91  O   UNL A   1      33.739  26.218  23.058  1.00  0.00    -0.229 OA
ATOM     92  O   UNL A   1      32.968  24.963  20.997  1.00  0.00    -0.229 OA
ENDBRANCH  77  86
ENDBRANCH  74  77
ENDBRANCH  72  73
ENDBRANCH   1  72
TORSDOF 17
ENDMDL
MODEL 2
REMARK VINA RESULT:     -11.2      1.794      2.357
REMARK SMILES O=C(NCCCNC(=O)[C@@H](CCc1ccccc1)[C@@H]1CCS(=O)(=O)C1)c1ccc(-c2c3nc(c(-c4cccc(S(=O)(=O)[O-])c4F)c4ccc([nH]4)c(-c4cccc(S(=O)(=O)[O-])c4F)c4nc(c(-c5cccc(S(=O)(=O)[O-])c5F)c5ccc2[nH]5)C=C4)C=C3)cc1
REMARK SMILES IDX 5 1 4 2 3 3 1 4 2 5 26 7 27 8 88 9 28 10 87 11 29 12 30 13
REMARK SMILES IDX 31 14 81 15 32 16 86 17 80 18 82 19 33 20 85 21 79 22 78 23
REMARK SMILES IDX 34 25 66 26 46 27 65 28 47 29 50 30 64 31 83 32 48 33 49 34
REMARK SMILES IDX 63 36 84 37 51 38 35 39 36 40 44 41 37 42 39 43 45 44 38 45
REMARK SMILES IDX 40 46 41 47 42 48 43 49 67 50 68 51 76 52 69 53 71 54 77 55
REMARK SMILES IDX 70 56 72 57 73 58 74 59 75 60 52 61 53 62 61 63 54 64 56 65
REMARK SMILES IDX 62 66 55 67 57 68 58 69 59 70 60 71 6 72 7 73 8 74 9 76
REMARK SMILES IDX 10 77 11 78 12 79 13 80 14 81 18 82 15 83 17 84 16 85 19 86
REMARK SMILES IDX 20 87 25 88 21 89 22 90 23 91 24 92
REMARK H PARENT 3 6 82 24 50 35 7 75
REMARK Flexibility Score: inf
ROOT
ATOM      1  C   UNL A   1      32.196  28.194  26.148  1.00  0.00     0.042 C 
ENDROOT
BRANCH   1   2
ATOM      2  C   UNL A   1      33.365  29.090  25.781  1.00  0.00     0.118 C 
BRANCH   2   3
ATOM      3  N   UNL A   1      33.077  30.486  26.081  1.00  0.00    -0.352 N 
ATOM      4  O   UNL A   1      32.957  32.358  27.304  1.00  0.00    -0.269 OA
ATOM      5  C   UNL A   1      33.570  31.321  27.057  1.00  0.00     0.251 C 
ATOM      6  H   UNL A   1      32.415  30.903  25.483  1.00  0.00     0.163 HD
BRANCH   5   7
ATOM      7  C   UNL A   1      34.800  30.989  27.818  1.00  0.00     0.039 A 
ATOM      8  C   UNL A   1      34.987  29.725  28.376  1.00  0.00     0.014 A 
ATOM      9  C   UNL A   1      35.830  31.933  27.916  1.00  0.00     0.014 A 
ATOM     10  C   UNL A   1      36.097  29.462  29.169  1.00  0.00     0.010 A 
ATOM     11  C   UNL A   1      37.013  31.619  28.597  1.00  0.00     0.010 A 
ATOM     12  C   UNL A   1      37.148  30.386  29.252  1.00  0.00    -0.014 A 
BRANCH  12  13
ATOM     13  C   UNL A   1      38.410  29.974  29.922  1.00  0.00     0.031 A 
ATOM     14  C   UNL A   1      38.780  30.479  31.289  1.00  0.00     0.074 A 
ATOM     15  C   UNL A   1      39.228  29.116  29.274  1.00  0.00     0.049 A 
ATOM     16  N   UNL A   1      39.835  30.193  32.010  1.00  0.00    -0.248 NA
ATOM     17  C   UNL A   1      37.861  31.431  31.931  1.00  0.00     0.031 C 
ATOM     18  C   UNL A   1      38.997  28.595  27.921  1.00  0.00     0.029 A 
ATOM     19  N   UNL A   1      40.406  28.526  29.654  1.00  0.00    -0.354 N 
ATOM     20  C   UNL A   1      39.732  30.958  33.165  1.00  0.00     0.074 A 
ATOM     21  C   UNL A   1      38.510  31.724  33.051  1.00  0.00     0.031 C 
ATOM     22  C   UNL A   1      39.975  27.737  27.604  1.00  0.00     0.029 A 
ATOM     23  C   UNL A   1      40.943  27.703  28.691  1.00  0.00     0.049 A 
ATOM     24  H   UNL A   1      40.827  28.678  30.531  1.00  0.00     0.167 HD
ATOM     25  C   UNL A   1      40.574  31.006  34.225  1.00  0.00     0.034 A 
ATOM     26  C   UNL A   1      42.100  27.017  28.666  1.00  0.00     0.034 A 
ATOM     27  C   UNL A   1      41.771  30.215  34.343  1.00  0.00     0.049 A 
ATOM     28  C   UNL A   1      43.002  27.082  29.863  1.00  0.00     0.074 A 
ATOM     29  C   UNL A   1      42.656  30.148  35.405  1.00  0.00     0.029 A 
ATOM     30  N   UNL A   1      42.262  29.364  33.363  1.00  0.00    -0.354 N 
ATOM     31  N   UNL A   1      42.822  27.717  30.995  1.00  0.00    -0.248 NA
ATOM     32  C   UNL A   1      44.254  26.318  29.792  1.00  0.00     0.031 C 
ATOM     33  C   UNL A   1      43.697  29.282  35.056  1.00  0.00     0.029 A 
ATOM     34  C   UNL A   1      43.442  28.780  33.790  1.00  0.00     0.049 A 
ATOM     35  H   UNL A   1      41.835  29.201  32.491  1.00  0.00     0.167 HD
ATOM     36  C   UNL A   1      43.922  27.408  31.782  1.00  0.00     0.074 A 
ATOM     37  C   UNL A   1      44.750  26.506  31.007  1.00  0.00     0.031 C 
ATOM     38  C   UNL A   1      44.230  27.846  33.027  1.00  0.00     0.034 A 
BRANCH  25  39
ATOM     39  C   UNL A   1      40.227  31.928  35.367  1.00  0.00     0.023 A 
ATOM     40  C   UNL A   1      40.876  33.173  35.483  1.00  0.00     0.012 A 
ATOM     41  C   UNL A   1      39.195  31.601  36.269  1.00  0.00     0.148 A 
ATOM     42  C   UNL A   1      40.521  34.068  36.492  1.00  0.00     0.002 A 
ATOM     43  C   UNL A   1      38.817  32.516  37.246  1.00  0.00     0.091 A 
ATOM     44  F   UNL A   1      38.599  30.406  36.153  1.00  0.00    -0.205 F 
ATOM     45  C   UNL A   1      39.486  33.745  37.365  1.00  0.00     0.022 A 
BRANCH  43  46
ATOM     46  S   UNL A   1      37.443  32.230  38.368  1.00  0.00     0.127 S 
ATOM     47  O   UNL A   1      37.958  32.798  39.613  1.00  0.00    -0.237 OA
ATOM     48  O   UNL A   1      36.370  33.002  37.742  1.00  0.00    -0.237 OA
ATOM     49  O   UNL A   1      37.229  30.789  38.383  1.00  0.00    -0.744 OA
ENDBRANCH  43  46
ENDBRANCH  25  39
BRANCH  26  50
ATOM     50  C   UNL A   1      42.459  26.201  27.472  1.00  0.00     0.023 A 
ATOM     51  C   UNL A   1      43.188  26.786  26.418  1.00  0.00     0.012 A 
ATOM     52  C   UNL A   1      42.108  24.839  27.390  1.00  0.00     0.148 A 
ATOM     53  C   UNL A   1      43.531  26.038  25.291  1.00  0.00     0.002 A 
ATOM     54  C   UNL A   1      42.507  24.085  26.295  1.00  0.00     0.091 A 
ATOM     55  F   UNL A   1      41.402  24.304  28.396  1.00  0.00    -0.205 F 
ATOM     56  C   UNL A   1      43.201  24.686  25.234  1.00  0.00     0.022 A 
BRANCH  54  57
ATOM     57  S   UNL A   1      42.252  22.309  26.213  1.00  0.00     0.127 S 
ATOM     58  O   UNL A   1      42.814  21.867  27.485  1.00  0.00    -0.237 OA
ATOM     59  O   UNL A   1      40.795  22.215  26.115  1.00  0.00    -0.237 OA
ATOM     60  O   UNL A   1      42.959  21.868  25.017  1.00  0.00    -0.744 OA
ENDBRANCH  54  57
ENDBRANCH  26  50
BRANCH  38  61
ATOM     61  C   UNL A   1      45.495  27.320  33.651  1.00  0.00     0.023 A 
ATOM     62  C   UNL A   1      46.693  28.052  33.537  1.00  0.00     0.012 A 
ATOM     63  C   UNL A   1      45.480  26.128  34.400  1.00  0.00     0.148 A 
ATOM     64  C   UNL A   1      47.866  27.586  34.128  1.00  0.00     0.002 A 
ATOM     65  C   UNL A   1      46.640  25.697  35.031  1.00  0.00     0.091 A 
ATOM     66  F   UNL A   1      44.333  25.437  34.479  1.00  0.00    -0.205 F 
ATOM     67  C   UNL A   1      47.837  26.416  34.885  1.00  0.00     0.022 A 
BRANCH  65  68
ATOM     68  S   UNL A   1      46.672  24.258  36.104  1.00  0.00     0.127 S 
ATOM     69  O   UNL A   1      45.723  24.643  37.148  1.00  0.00    -0.237 OA
ATOM     70  O   UNL A   1      46.202  23.196  35.213  1.00  0.00    -0.237 OA
ATOM     71  O   UNL A   1      48.054  24.113  36.541  1.00  0.00    -0.744 OA
ENDBRANCH  65  68
ENDBRANCH  38  61
ENDBRANCH  12  13
ENDBRANCH   5   7
ENDBRANCH   2   3
ENDBRANCH   1   2
BRANCH   1  72
ATOM     72  C   UNL A   1      32.585  26.727  26.277  1.00  0.00     0.117 C 
BRANCH  72  73
ATOM     73  N   UNL A   1      31.440  25.950  26.695  1.00  0.00    -0.356 N 
ATOM     74  C   UNL A   1      31.008  24.727  26.311  1.00  0.00     0.223 C 
ATOM     75  H   UNL A   1      30.879  26.386  27.377  1.00  0.00     0.163 HD
ATOM     76  O   UNL A   1      29.860  24.421  26.650  1.00  0.00    -0.275 OA
BRANCH  74  77
ATOM     77  C   UNL A   1      31.883  23.696  25.583  1.00  0.00     0.083 C 
BRANCH  77  78
ATOM     78  C   UNL A   1      32.288  22.445  26.421  1.00  0.00     0.018 C 
BRANCH  78  79
ATOM     79  C   UNL A   1      33.682  22.179  27.043  1.00  0.00     0.036 C 
BRANCH  79  80
ATOM     80  C   UNL A   1      34.937  22.243  26.208  1.00  0.00    -0.048 A 
ATOM     81  C   UNL A   1      35.388  21.177  25.432  1.00  0.00     0.004 A 
ATOM     82  C   UNL A   1      35.695  23.423  26.182  1.00  0.00     0.004 A 
ATOM     83  C   UNL A   1      36.672  21.189  24.878  1.00  0.00     0.000 A 
ATOM     84  C   UNL A   1      36.973  23.451  25.623  1.00  0.00     0.000 A 
ATOM     85  C   UNL A   1      37.482  22.313  25.011  1.00  0.00     0.000 A 
ENDBRANCH  79  80
ENDBRANCH  78  79
ENDBRANCH  77  78
BRANCH  77  86
ATOM     86  C   UNL A   1      31.534  23.491  24.085  1.00  0.00     0.017 C 
ATOM     87  C   UNL A   1      32.533  22.559  23.360  1.00  0.00     0.021 C 
ATOM     88  C   UNL A   1      31.520  24.776  23.225  1.00  0.00     0.141 C 
ATOM     89  C   UNL A   1      33.759  23.363  22.956  1.00  0.00     0.137 C 
ATOM     90  S   UNL A   1      33.142  24.959  22.496  1.00  0.00     0.150 S 
ATOM     91  O   UNL A   1      33.888  25.964  23.214  1.00  0.00    -0.229 OA
ATOM     92  O   UNL A   1      32.999  24.990  21.051  1.00  0.00    -0.229 OA
ENDBRANCH  77  86
ENDBRANCH  74  77
ENDBRANCH  72  73
ENDBRANCH   1  72
TORSDOF 17
ENDMDL
MODEL 3
REMARK VINA RESULT:     -11.1      2.761      4.515
REMARK SMILES O=C(NCCCNC(=O)[C@@H](CCc1ccccc1)[C@@H]1CCS(=O)(=O)C1)c1ccc(-c2c3nc(c(-c4cccc(S(=O)(=O)[O-])c4F)c4ccc([nH]4)c(-c4cccc(S(=O)(=O)[O-])c4F)c4nc(c(-c5cccc(S(=O)(=O)[O-])c5F)c5ccc2[nH]5)C=C4)C=C3)cc1
REMARK SMILES IDX 5 1 4 2 3 3 1 4 2 5 26 7 27 8 88 9 28 10 87 11 29 12 30 13
REMARK SMILES IDX 31 14 81 15 32 16 86 17 80 18 82 19 33 20 85 21 79 22 78 23
REMARK SMILES IDX 34 25 66 26 46 27 65 28 47 29 50 30 64 31 83 32 48 33 49 34
REMARK SMILES IDX 63 36 84 37 51 38 35 39 36 40 44 41 37 42 39 43 45 44 38 45
REMARK SMILES IDX 40 46 41 47 42 48 43 49 67 50 68 51 76 52 69 53 71 54 77 55
REMARK SMILES IDX 70 56 72 57 73 58 74 59 75 60 52 61 53 62 61 63 54 64 56 65
REMARK SMILES IDX 62 66 55 67 57 68 58 69 59 70 60 71 6 72 7 73 8 74 9 76
REMARK SMILES IDX 10 77 11 78 12 79 13 80 14 81 18 82 15 83 17 84 16 85 19 86
REMARK SMILES IDX 20 87 25 88 21 89 22 90 23 91 24 92
REMARK H PARENT 3 6 82 24 50 35 7 75
REMARK Flexibility Score: inf
ROOT
ATOM      1  C   UNL A   1      32.702  29.444  24.522  1.00  0.00     0.042 C 
ENDROOT
BRANCH   1   2
ATOM      2  C   UNL A   1      32.271  29.732  25.949  1.00  0.00     0.118 C 
BRANCH   2   3
ATOM      3  N   UNL A   1      32.196  31.165  26.200  1.00  0.00    -0.352 N 
ATOM      4  O   UNL A   1      32.451  33.085  27.323  1.00  0.00    -0.269 OA
ATOM      5  C   UNL A   1      32.897  31.968  27.070  1.00  0.00     0.251 C 
ATOM      6  H   UNL A   1      31.530  31.640  25.653  1.00  0.00     0.163 HD
BRANCH   5   7
ATOM      7  C   UNL A   1      34.153  31.508  27.715  1.00  0.00     0.039 A 
ATOM      8  C   UNL A   1      35.108  32.416  28.168  1.00  0.00     0.014 A 
ATOM      9  C   UNL A   1      34.351  30.141  27.947  1.00  0.00     0.014 A 
ATOM     10  C   UNL A   1      36.320  31.967  28.678  1.00  0.00     0.010 A 
ATOM     11  C   UNL A   1      35.513  29.695  28.590  1.00  0.00     0.010 A 
ATOM     12  C   UNL A   1      36.522  30.605  28.941  1.00  0.00    -0.014 A 
BRANCH  12  13
ATOM     13  C   UNL A   1      37.737  30.194  29.694  1.00  0.00     0.031 A 
ATOM     14  C   UNL A   1      37.986  30.654  31.104  1.00  0.00     0.074 A 
ATOM     15  C   UNL A   1      38.623  29.379  29.082  1.00  0.00     0.049 A 
ATOM     16  N   UNL A   1      38.988  30.362  31.895  1.00  0.00    -0.248 NA
ATOM     17  C   UNL A   1      36.997  31.562  31.705  1.00  0.00     0.031 C 
ATOM     18  C   UNL A   1      38.512  28.905  27.698  1.00  0.00     0.029 A 
ATOM     19  N   UNL A   1      39.781  28.799  29.533  1.00  0.00    -0.354 N 
ATOM     20  C   UNL A   1      38.776  31.081  33.066  1.00  0.00     0.074 A 
ATOM     21  C   UNL A   1      37.550  31.826  32.883  1.00  0.00     0.031 C 
ATOM     22  C   UNL A   1      39.531  28.080  27.427  1.00  0.00     0.029 A 
ATOM     23  C   UNL A   1      40.412  28.025  28.586  1.00  0.00     0.049 A 
ATOM     24  H   UNL A   1      40.128  28.926  30.445  1.00  0.00     0.167 HD
ATOM     25  C   UNL A   1      39.531  31.106  34.190  1.00  0.00     0.034 A 
ATOM     26  C   UNL A   1      41.583  27.365  28.628  1.00  0.00     0.034 A 
ATOM     27  C   UNL A   1      40.734  30.336  34.373  1.00  0.00     0.049 A 
ATOM     28  C   UNL A   1      42.386  27.403  29.895  1.00  0.00     0.074 A 
ATOM     29  C   UNL A   1      41.533  30.247  35.500  1.00  0.00     0.029 A 
ATOM     30  N   UNL A   1      41.320  29.534  33.406  1.00  0.00    -0.354 N 
ATOM     31  N   UNL A   1      42.103  27.990  31.032  1.00  0.00    -0.248 NA
ATOM     32  C   UNL A   1      43.658  26.668  29.895  1.00  0.00     0.031 C 
ATOM     33  C   UNL A   1      42.619  29.417  35.203  1.00  0.00     0.029 A 
ATOM     34  C   UNL A   1      42.476  28.958  33.903  1.00  0.00     0.049 A 
ATOM     35  H   UNL A   1      40.966  29.395  32.498  1.00  0.00     0.167 HD
ATOM     36  C   UNL A   1      43.145  27.674  31.892  1.00  0.00     0.074 A 
ATOM     37  C   UNL A   1      44.052  26.819  31.153  1.00  0.00     0.031 C 
ATOM     38  C   UNL A   1      43.343  28.070  33.172  1.00  0.00     0.034 A 
BRANCH  25  39
ATOM     39  C   UNL A   1      39.073  31.977  35.333  1.00  0.00     0.023 A 
ATOM     40  C   UNL A   1      39.220  33.376  35.249  1.00  0.00     0.012 A 
ATOM     41  C   UNL A   1      38.416  31.417  36.447  1.00  0.00     0.148 A 
ATOM     42  C   UNL A   1      38.742  34.202  36.267  1.00  0.00     0.002 A 
ATOM     43  C   UNL A   1      37.904  32.250  37.437  1.00  0.00     0.091 A 
ATOM     44  F   UNL A   1      38.300  30.084  36.517  1.00  0.00    -0.205 F 
ATOM     45  C   UNL A   1      38.075  33.641  37.352  1.00  0.00     0.022 A 
BRANCH  43  46
ATOM     46  S   UNL A   1      36.960  31.633  38.835  1.00  0.00     0.127 S 
ATOM     47  O   UNL A   1      36.751  30.237  38.455  1.00  0.00    -0.237 OA
ATOM     48  O   UNL A   1      37.892  31.831  39.945  1.00  0.00    -0.237 OA
ATOM     49  O   UNL A   1      35.755  32.448  38.898  1.00  0.00    -0.744 OA
ENDBRANCH  43  46
ENDBRANCH  25  39
BRANCH  26  50
ATOM     50  C   UNL A   1      42.054  26.602  27.438  1.00  0.00     0.023 A 
ATOM     51  C   UNL A   1      42.754  27.268  26.413  1.00  0.00     0.012 A 
ATOM     52  C   UNL A   1      41.838  25.214  27.332  1.00  0.00     0.148 A 
ATOM     53  C   UNL A   1      43.201  26.570  25.289  1.00  0.00     0.002 A 
ATOM     54  C   UNL A   1      42.340  24.515  26.241  1.00  0.00     0.091 A 
ATOM     55  F   UNL A   1      41.157  24.600  28.310  1.00  0.00    -0.205 F 
ATOM     56  C   UNL A   1      43.004  25.194  25.208  1.00  0.00     0.022 A 
BRANCH  54  57
ATOM     57  S   UNL A   1      42.259  22.724  26.134  1.00  0.00     0.127 S 
ATOM     58  O   UNL A   1      42.988  22.320  27.332  1.00  0.00    -0.237 OA
ATOM     59  O   UNL A   1      40.817  22.482  26.176  1.00  0.00    -0.237 OA
ATOM     60  O   UNL A   1      42.884  22.381  24.863  1.00  0.00    -0.744 OA
ENDBRANCH  54  57
ENDBRANCH  26  50
BRANCH  38  61
ATOM     61  C   UNL A   1      44.568  27.548  33.875  1.00  0.00     0.023 A 
ATOM     62  C   UNL A   1      45.775  28.271  33.818  1.00  0.00     0.012 A 
ATOM     63  C   UNL A   1      44.502  26.367  34.640  1.00  0.00     0.148 A 
ATOM     64  C   UNL A   1      46.910  27.808  34.483  1.00  0.00     0.002 A 
ATOM     65  C   UNL A   1      45.621  25.940  35.343  1.00  0.00     0.091 A 
ATOM     66  F   UNL A   1      43.348  25.683  34.664  1.00  0.00    -0.205 F 
ATOM     67  C   UNL A   1      46.829  26.650  35.254  1.00  0.00     0.022 A 
BRANCH  65  68
ATOM     68  S   UNL A   1      45.584  24.518  36.438  1.00  0.00     0.127 S 
ATOM     69  O   UNL A   1      45.202  23.446  35.521  1.00  0.00    -0.237 OA
ATOM     70  O   UNL A   1      46.967  24.454  36.911  1.00  0.00    -0.237 OA
ATOM     71  O   UNL A   1      44.606  24.832  37.472  1.00  0.00    -0.744 OA
ENDBRANCH  65  68
ENDBRANCH  38  61
ENDBRANCH  12  13
ENDBRANCH   5   7
ENDBRANCH   2   3
ENDBRANCH   1   2
BRANCH   1  72
ATOM     72  C   UNL A   1      33.874  28.475  24.435  1.00  0.00     0.117 C 
BRANCH  72  73
ATOM     73  N   UNL A   1      33.860  27.800  23.157  1.00  0.00    -0.356 N 
ATOM     74  C   UNL A   1      33.392  26.582  22.800  1.00  0.00     0.223 C 
ATOM     75  H   UNL A   1      34.259  28.316  22.419  1.00  0.00     0.163 HD
ATOM     76  O   UNL A   1      33.742  26.163  21.692  1.00  0.00    -0.275 OA
BRANCH  74  77
ATOM     77  C   UNL A   1      32.399  25.765  23.639  1.00  0.00     0.083 C 
BRANCH  77  78
ATOM     78  C   UNL A   1      30.901  25.894  23.225  1.00  0.00     0.018 C 
BRANCH  78  79
ATOM     79  C   UNL A   1      29.841  26.790  23.912  1.00  0.00     0.036 C 
BRANCH  79  80
ATOM     80  C   UNL A   1      29.233  27.972  23.198  1.00  0.00    -0.048 A 
ATOM     81  C   UNL A   1      29.974  28.841  22.401  1.00  0.00     0.004 A 
ATOM     82  C   UNL A   1      27.857  28.220  23.313  1.00  0.00     0.004 A 
ATOM     83  C   UNL A   1      29.428  30.053  21.966  1.00  0.00     0.000 A 
ATOM     84  C   UNL A   1      27.298  29.420  22.874  1.00  0.00     0.000 A 
ATOM     85  C   UNL A   1      28.099  30.361  22.241  1.00  0.00     0.000 A 
ENDBRANCH  79  80
ENDBRANCH  78  79
ENDBRANCH  77  78
BRANCH  77  86
ATOM     86  C   UNL A   1      32.917  24.371  24.083  1.00  0.00     0.017 C 
ATOM     87  C   UNL A   1      31.848  23.261  23.939  1.00  0.00     0.021 C 
ATOM     88  C   UNL A   1      33.374  24.270  25.556  1.00  0.00     0.141 C 
ATOM     89  C   UNL A   1      30.930  23.296  25.151  1.00  0.00     0.137 C 
ATOM     90  S   UNL A   1      31.978  23.708  26.520  1.00  0.00     0.150 S 
ATOM     91  O   UNL A   1      31.393  24.821  27.227  1.00  0.00    -0.229 OA
ATOM     92  O   UNL A   1      32.348  22.475  27.193  1.00  0.00    -0.229 OA
ENDBRANCH  77  86
ENDBRANCH  74  77
ENDBRANCH  72  73
ENDBRANCH   1  72
TORSDOF 17
ENDMDL
