MODEL 1
REMARK VINA RESULT:     -10.7      0.000      0.000
REMARK SMILES CC[N@H+](CC(=O)NCCCNC(=O)c1ccc(-c2c3nc(c(-c4cccc(S(=O)(=O)[O-])c4F)c4ccc([nH]4)c(-c4cccc(S(=O)(=O)[O-])c4F)c4nc(c(-c5cccc(S(=O)(=O)[O-])c5F)c5ccc2[nH]5)C=C4)C=C3)cc1)[C@H]1CC[N@@H+](C)C1
REMARK SMILES IDX 9 1 8 2 7 3 5 4 6 5 4 7 3 8 2 10 1 11 77 12 78 13 82 14
REMARK SMILES IDX 79 15 80 16 81 17 10 19 11 20 12 21 13 23 14 24 15 25 76 26
REMARK SMILES IDX 16 27 75 28 17 29 18 30 19 31 69 32 20 33 74 34 68 35 70 36
REMARK SMILES IDX 21 37 73 38 67 39 66 40 22 42 54 43 34 44 53 45 35 46 38 47
REMARK SMILES IDX 52 48 71 49 36 50 37 51 51 53 72 54 39 55 23 56 24 57 32 58
REMARK SMILES IDX 25 59 27 60 33 61 26 62 28 63 29 64 30 65 31 66 55 67 56 68
REMARK SMILES IDX 64 69 57 70 59 71 65 72 58 73 60 74 61 75 62 76 63 77 40 78
REMARK SMILES IDX 41 79 49 80 42 81 44 82 50 83 43 84 45 85 46 86 47 87 48 88
REMARK H PARENT 7 6 3 9 80 18 11 22 70 41 38 52
REMARK Flexibility Score: inf
ROOT
ATOM      1  C   UNL A   1      37.538  19.359  24.919  1.00  0.00     0.042 C 
ENDROOT
BRANCH   1   2
ATOM      2  C   UNL A   1      36.226  20.143  25.006  1.00  0.00     0.118 C 
BRANCH   2   3
ATOM      3  N   UNL A   1      35.045  19.291  25.002  1.00  0.00    -0.351 N 
ATOM      4  C   UNL A   1      33.712  19.595  24.957  1.00  0.00     0.275 C 
ATOM      5  O   UNL A   1      32.918  18.648  24.937  1.00  0.00    -0.269 OA
ATOM      6  H   UNL A   1      35.241  18.327  25.036  1.00  0.00     0.163 HD
BRANCH   4   7
ATOM      7  C   UNL A   1      33.221  21.054  24.905  1.00  0.00     0.363 C 
BRANCH   7   8
ATOM      8  N   UNL A   1      32.406  21.437  26.107  1.00  0.00    -0.320 N 
ATOM      9  H   UNL A   1      32.033  20.618  26.587  1.00  0.00     0.348 HD
BRANCH   8  10
ATOM     10  C   UNL A   1      33.300  22.131  27.052  1.00  0.00     0.259 C 
ATOM     11  C   UNL A   1      34.406  23.082  26.619  1.00  0.00     0.071 C 
ENDBRANCH   8  10
BRANCH   8  12
ATOM     12  C   UNL A   1      31.194  22.193  25.709  1.00  0.00     0.245 C 
ATOM     13  C   UNL A   1      30.756  23.260  26.745  1.00  0.00     0.132 C 
ATOM     14  C   UNL A   1      31.328  23.041  24.423  1.00  0.00     0.328 C 
ATOM     15  C   UNL A   1      30.802  24.600  26.026  1.00  0.00     0.268 C 
ATOM     16  N   UNL A   1      30.511  24.241  24.643  1.00  0.00    -0.332 N 
ATOM     17  C   UNL A   1      30.894  25.295  23.707  1.00  0.00     0.332 C 
ATOM     18  H   UNL A   1      29.514  24.093  24.489  1.00  0.00     0.348 HD
ENDBRANCH   8  12
ENDBRANCH   7   8
ENDBRANCH   4   7
ENDBRANCH   2   3
ENDBRANCH   1   2
BRANCH   1  19
ATOM     19  C   UNL A   1      38.766  20.139  25.370  1.00  0.00     0.118 C 
BRANCH  19  20
ATOM     20  N   UNL A   1      39.831  19.247  25.797  1.00  0.00    -0.352 N 
ATOM     21  C   UNL A   1      41.128  19.539  26.146  1.00  0.00     0.251 C 
ATOM     22  H   UNL A   1      39.588  18.294  25.842  1.00  0.00     0.163 HD
ATOM     23  O   UNL A   1      41.949  18.625  26.193  1.00  0.00    -0.269 OA
BRANCH  21  24
ATOM     24  C   UNL A   1      41.549  20.928  26.459  1.00  0.00     0.039 A 
ATOM     25  C   UNL A   1      41.705  21.839  25.407  1.00  0.00     0.014 A 
ATOM     26  C   UNL A   1      41.861  21.324  27.762  1.00  0.00     0.014 A 
ATOM     27  C   UNL A   1      42.139  23.143  25.668  1.00  0.00     0.010 A 
ATOM     28  C   UNL A   1      42.210  22.648  28.029  1.00  0.00     0.010 A 
ATOM     29  C   UNL A   1      42.381  23.566  26.984  1.00  0.00    -0.014 A 
BRANCH  29  30
ATOM     30  C   UNL A   1      42.836  24.951  27.282  1.00  0.00     0.031 A 
ATOM     31  C   UNL A   1      41.904  25.937  27.941  1.00  0.00     0.074 A 
ATOM     32  C   UNL A   1      44.060  25.355  26.888  1.00  0.00     0.049 A 
ATOM     33  N   UNL A   1      42.107  27.194  28.239  1.00  0.00    -0.248 NA
ATOM     34  C   UNL A   1      40.556  25.453  28.283  1.00  0.00     0.031 C 
ATOM     35  C   UNL A   1      45.027  24.532  26.161  1.00  0.00     0.029 A 
ATOM     36  N   UNL A   1      44.689  26.570  27.016  1.00  0.00    -0.354 N 
ATOM     37  C   UNL A   1      40.905  27.663  28.757  1.00  0.00     0.074 A 
ATOM     38  C   UNL A   1      39.968  26.564  28.702  1.00  0.00     0.031 C 
ATOM     39  C   UNL A   1      46.124  25.261  25.909  1.00  0.00     0.029 A 
ATOM     40  C   UNL A   1      45.933  26.611  26.432  1.00  0.00     0.049 A 
ATOM     41  H   UNL A   1      44.286  27.337  27.484  1.00  0.00     0.167 HD
ATOM     42  C   UNL A   1      40.613  28.886  29.263  1.00  0.00     0.034 A 
ATOM     43  C   UNL A   1      46.819  27.621  26.324  1.00  0.00     0.034 A 
ATOM     44  C   UNL A   1      41.563  29.960  29.372  1.00  0.00     0.049 A 
ATOM     45  C   UNL A   1      46.502  28.950  26.954  1.00  0.00     0.074 A 
ATOM     46  C   UNL A   1      41.400  31.195  29.973  1.00  0.00     0.029 A 
ATOM     47  N   UNL A   1      42.852  29.932  28.860  1.00  0.00    -0.354 N 
ATOM     48  N   UNL A   1      45.422  29.317  27.602  1.00  0.00    -0.248 NA
ATOM     49  C   UNL A   1      47.538  29.989  26.876  1.00  0.00     0.031 C 
ATOM     50  C   UNL A   1      42.585  31.922  29.806  1.00  0.00     0.029 A 
ATOM     51  C   UNL A   1      43.492  31.131  29.120  1.00  0.00     0.049 A 
ATOM     52  H   UNL A   1      43.252  29.171  28.382  1.00  0.00     0.167 HD
ATOM     53  C   UNL A   1      45.659  30.618  28.032  1.00  0.00     0.074 A 
ATOM     54  C   UNL A   1      46.995  30.965  27.590  1.00  0.00     0.031 C 
ATOM     55  C   UNL A   1      44.839  31.452  28.718  1.00  0.00     0.034 A 
BRANCH  42  56
ATOM     56  C   UNL A   1      39.219  29.107  29.792  1.00  0.00     0.023 A 
ATOM     57  C   UNL A   1      38.898  28.696  31.102  1.00  0.00     0.012 A 
ATOM     58  C   UNL A   1      38.238  29.750  29.013  1.00  0.00     0.148 A 
ATOM     59  C   UNL A   1      37.613  28.880  31.613  1.00  0.00     0.002 A 
ATOM     60  C   UNL A   1      36.972  29.972  29.545  1.00  0.00     0.091 A 
ATOM     61  F   UNL A   1      38.549  30.115  27.761  1.00  0.00    -0.205 F 
ATOM     62  C   UNL A   1      36.654  29.525  30.837  1.00  0.00     0.022 A 
BRANCH  60  63
ATOM     63  S   UNL A   1      35.696  30.867  28.652  1.00  0.00     0.127 S 
ATOM     64  O   UNL A   1      34.859  29.774  28.157  1.00  0.00    -0.237 OA
ATOM     65  O   UNL A   1      35.082  31.672  29.709  1.00  0.00    -0.237 OA
ATOM     66  O   UNL A   1      36.392  31.639  27.633  1.00  0.00    -0.744 OA
ENDBRANCH  60  63
ENDBRANCH  42  56
BRANCH  43  67
ATOM     67  C   UNL A   1      48.127  27.377  25.652  1.00  0.00     0.023 A 
ATOM     68  C   UNL A   1      49.220  26.919  26.413  1.00  0.00     0.012 A 
ATOM     69  C   UNL A   1      48.272  27.530  24.260  1.00  0.00     0.148 A 
ATOM     70  C   UNL A   1      50.441  26.635  25.801  1.00  0.00     0.002 A 
ATOM     71  C   UNL A   1      49.475  27.192  23.650  1.00  0.00     0.091 A 
ATOM     72  F   UNL A   1      47.221  27.976  23.557  1.00  0.00    -0.205 F 
ATOM     73  C   UNL A   1      50.566  26.760  24.420  1.00  0.00     0.022 A 
BRANCH  71  74
ATOM     74  S   UNL A   1      49.685  27.186  21.865  1.00  0.00     0.127 S 
ATOM     75  O   UNL A   1      48.638  26.262  21.442  1.00  0.00    -0.237 OA
ATOM     76  O   UNL A   1      49.443  28.590  21.530  1.00  0.00    -0.237 OA
ATOM     77  O   UNL A   1      51.053  26.742  21.631  1.00  0.00    -0.744 OA
ENDBRANCH  71  74
ENDBRANCH  43  67
BRANCH  55  78
ATOM     78  C   UNL A   1      45.360  32.824  29.059  1.00  0.00     0.023 A 
ATOM     79  C   UNL A   1      46.122  33.010  30.230  1.00  0.00     0.012 A 
ATOM     80  C   UNL A   1      45.164  33.908  28.181  1.00  0.00     0.148 A 
ATOM     81  C   UNL A   1      46.657  34.260  30.535  1.00  0.00     0.002 A 
ATOM     82  C   UNL A   1      45.741  35.140  28.469  1.00  0.00     0.091 A 
ATOM     83  F   UNL A   1      44.420  33.717  27.083  1.00  0.00    -0.205 F 
ATOM     84  C   UNL A   1      46.478  35.321  29.651  1.00  0.00     0.022 A 
BRANCH  82  85
ATOM     85  S   UNL A   1      45.640  36.535  27.341  1.00  0.00     0.127 S 
ATOM     86  O   UNL A   1      44.199  36.770  27.285  1.00  0.00    -0.237 OA
ATOM     87  O   UNL A   1      46.400  37.565  28.051  1.00  0.00    -0.237 OA
ATOM     88  O   UNL A   1      46.252  36.087  26.096  1.00  0.00    -0.744 OA
ENDBRANCH  82  85
ENDBRANCH  55  78
ENDBRANCH  29  30
ENDBRANCH  21  24
ENDBRANCH  19  20
ENDBRANCH   1  19
TORSDOF 16
ENDMDL
MODEL 2
REMARK VINA RESULT:     -10.6      6.592     11.868
REMARK SMILES CC[N@H+](CC(=O)NCCCNC(=O)c1ccc(-c2c3nc(c(-c4cccc(S(=O)(=O)[O-])c4F)c4ccc([nH]4)c(-c4cccc(S(=O)(=O)[O-])c4F)c4nc(c(-c5cccc(S(=O)(=O)[O-])c5F)c5ccc2[nH]5)C=C4)C=C3)cc1)[C@H]1CC[N@@H+](C)C1
REMARK SMILES IDX 9 1 8 2 7 3 5 4 6 5 4 7 3 8 2 10 1 11 77 12 78 13 82 14
REMARK SMILES IDX 79 15 80 16 81 17 10 19 11 20 12 21 13 23 14 24 15 25 76 26
REMARK SMILES IDX 16 27 75 28 17 29 18 30 19 31 69 32 20 33 74 34 68 35 70 36
REMARK SMILES IDX 21 37 73 38 67 39 66 40 22 42 54 43 34 44 53 45 35 46 38 47
REMARK SMILES IDX 52 48 71 49 36 50 37 51 51 53 72 54 39 55 23 56 24 57 32 58
REMARK SMILES IDX 25 59 27 60 33 61 26 62 28 63 29 64 30 65 31 66 55 67 56 68
REMARK SMILES IDX 64 69 57 70 59 71 65 72 58 73 60 74 61 75 62 76 63 77 40 78
REMARK SMILES IDX 41 79 49 80 42 81 44 82 50 83 43 84 45 85 46 86 47 87 48 88
REMARK H PARENT 7 6 3 9 80 18 11 22 70 41 38 52
REMARK Flexibility Score: inf
ROOT
ATOM      1  C   UNL A   1      31.393  32.060  26.390  1.00  0.00     0.042 C 
ENDROOT
BRANCH   1   2
ATOM      2  C   UNL A   1      31.393  30.606  25.911  1.00  0.00     0.118 C 
BRANCH   2   3
ATOM      3  N   UNL A   1      30.774  30.432  24.604  1.00  0.00    -0.351 N 
ATOM      4  C   UNL A   1      30.615  29.320  23.821  1.00  0.00     0.275 C 
ATOM      5  O   UNL A   1      30.014  29.466  22.752  1.00  0.00    -0.269 OA
ATOM      6  H   UNL A   1      30.405  31.258  24.217  1.00  0.00     0.163 HD
BRANCH   4   7
ATOM      7  C   UNL A   1      31.137  27.941  24.268  1.00  0.00     0.363 C 
BRANCH   7   8
ATOM      8  N   UNL A   1      30.974  26.888  23.210  1.00  0.00    -0.320 N 
ATOM      9  H   UNL A   1      30.414  27.222  22.426  1.00  0.00     0.348 HD
BRANCH   8  10
ATOM     10  C   UNL A   1      32.314  26.568  22.686  1.00  0.00     0.259 C 
ATOM     11  C   UNL A   1      33.416  27.602  22.509  1.00  0.00     0.071 C 
ENDBRANCH   8  10
BRANCH   8  12
ATOM     12  C   UNL A   1      30.202  25.731  23.725  1.00  0.00     0.245 C 
ATOM     13  C   UNL A   1      30.675  24.366  23.164  1.00  0.00     0.132 C 
ATOM     14  C   UNL A   1      30.294  25.493  25.250  1.00  0.00     0.328 C 
ATOM     15  C   UNL A   1      31.107  23.536  24.364  1.00  0.00     0.268 C 
ATOM     16  N   UNL A   1      30.254  24.037  25.435  1.00  0.00    -0.332 N 
ATOM     17  C   UNL A   1      30.760  23.679  26.758  1.00  0.00     0.332 C 
ATOM     18  H   UNL A   1      29.315  23.643  25.390  1.00  0.00     0.348 HD
ENDBRANCH   8  12
ENDBRANCH   7   8
ENDBRANCH   4   7
ENDBRANCH   2   3
ENDBRANCH   1   2
BRANCH   1  19
ATOM     19  C   UNL A   1      32.586  32.435  27.259  1.00  0.00     0.118 C 
BRANCH  19  20
ATOM     20  N   UNL A   1      32.551  33.839  27.628  1.00  0.00    -0.352 N 
ATOM     21  C   UNL A   1      33.228  34.498  28.627  1.00  0.00     0.251 C 
ATOM     22  H   UNL A   1      31.954  34.402  27.084  1.00  0.00     0.163 HD
ATOM     23  O   UNL A   1      32.845  35.617  28.965  1.00  0.00    -0.269 OA
BRANCH  21  24
ATOM     24  C   UNL A   1      34.401  33.883  29.300  1.00  0.00     0.039 A 
ATOM     25  C   UNL A   1      34.182  32.898  30.270  1.00  0.00     0.014 A 
ATOM     26  C   UNL A   1      35.704  34.314  29.041  1.00  0.00     0.014 A 
ATOM     27  C   UNL A   1      35.265  32.329  30.948  1.00  0.00     0.010 A 
ATOM     28  C   UNL A   1      36.787  33.686  29.655  1.00  0.00     0.010 A 
ATOM     29  C   UNL A   1      36.581  32.706  30.637  1.00  0.00    -0.014 A 
BRANCH  29  30
ATOM     30  C   UNL A   1      37.747  32.107  31.342  1.00  0.00     0.031 A 
ATOM     31  C   UNL A   1      38.535  30.991  30.705  1.00  0.00     0.074 A 
ATOM     32  C   UNL A   1      38.052  32.507  32.593  1.00  0.00     0.049 A 
ATOM     33  N   UNL A   1      39.550  30.319  31.182  1.00  0.00    -0.248 NA
ATOM     34  C   UNL A   1      38.106  30.552  29.366  1.00  0.00     0.031 C 
ATOM     35  C   UNL A   1      37.317  33.512  33.360  1.00  0.00     0.029 A 
ATOM     36  N   UNL A   1      39.043  32.094  33.450  1.00  0.00    -0.354 N 
ATOM     37  C   UNL A   1      39.851  29.352  30.229  1.00  0.00     0.074 A 
ATOM     38  C   UNL A   1      38.890  29.503  29.161  1.00  0.00     0.031 C 
ATOM     39  C   UNL A   1      37.880  33.639  34.572  1.00  0.00     0.029 A 
ATOM     40  C   UNL A   1      39.001  32.709  34.678  1.00  0.00     0.049 A 
ATOM     41  H   UNL A   1      39.720  31.422  33.205  1.00  0.00     0.167 HD
ATOM     42  C   UNL A   1      40.855  28.441  30.225  1.00  0.00     0.034 A 
ATOM     43  C   UNL A   1      39.772  32.541  35.771  1.00  0.00     0.034 A 
ATOM     44  C   UNL A   1      41.846  28.330  31.261  1.00  0.00     0.049 A 
ATOM     45  C   UNL A   1      40.922  31.574  35.720  1.00  0.00     0.074 A 
ATOM     46  C   UNL A   1      42.967  27.521  31.295  1.00  0.00     0.029 A 
ATOM     47  N   UNL A   1      41.831  29.044  32.450  1.00  0.00    -0.354 N 
ATOM     48  N   UNL A   1      41.299  30.795  34.734  1.00  0.00    -0.248 NA
ATOM     49  C   UNL A   1      41.778  31.491  36.911  1.00  0.00     0.031 C 
ATOM     50  C   UNL A   1      43.620  27.730  32.516  1.00  0.00     0.029 A 
ATOM     51  C   UNL A   1      42.917  28.686  33.231  1.00  0.00     0.049 A 
ATOM     52  H   UNL A   1      41.150  29.707  32.701  1.00  0.00     0.167 HD
ATOM     53  C   UNL A   1      42.450  30.151  35.176  1.00  0.00     0.074 A 
ATOM     54  C   UNL A   1      42.721  30.649  36.509  1.00  0.00     0.031 C 
ATOM     55  C   UNL A   1      43.205  29.221  34.538  1.00  0.00     0.034 A 
BRANCH  42  56
ATOM     56  C   UNL A   1      40.961  27.527  29.031  1.00  0.00     0.023 A 
ATOM     57  C   UNL A   1      40.158  26.369  28.966  1.00  0.00     0.012 A 
ATOM     58  C   UNL A   1      41.822  27.827  27.958  1.00  0.00     0.148 A 
ATOM     59  C   UNL A   1      40.243  25.502  27.877  1.00  0.00     0.002 A 
ATOM     60  C   UNL A   1      41.869  26.982  26.854  1.00  0.00     0.091 A 
ATOM     61  F   UNL A   1      42.597  28.918  28.042  1.00  0.00    -0.205 F 
ATOM     62  C   UNL A   1      41.091  25.813  26.819  1.00  0.00     0.022 A 
BRANCH  60  63
ATOM     63  S   UNL A   1      42.871  27.342  25.408  1.00  0.00     0.127 S 
ATOM     64  O   UNL A   1      42.797  26.079  24.675  1.00  0.00    -0.237 OA
ATOM     65  O   UNL A   1      42.138  28.448  24.789  1.00  0.00    -0.237 OA
ATOM     66  O   UNL A   1      44.186  27.701  25.916  1.00  0.00    -0.744 OA
ENDBRANCH  60  63
ENDBRANCH  42  56
BRANCH  43  67
ATOM     67  C   UNL A   1      39.517  33.374  36.981  1.00  0.00     0.023 A 
ATOM     68  C   UNL A   1      39.979  34.704  37.014  1.00  0.00     0.012 A 
ATOM     69  C   UNL A   1      38.763  32.880  38.063  1.00  0.00     0.148 A 
ATOM     70  C   UNL A   1      39.711  35.522  38.111  1.00  0.00     0.002 A 
ATOM     71  C   UNL A   1      38.453  33.717  39.128  1.00  0.00     0.091 A 
ATOM     72  F   UNL A   1      38.341  31.608  38.014  1.00  0.00    -0.205 F 
ATOM     73  C   UNL A   1      38.939  35.034  39.163  1.00  0.00     0.022 A 
BRANCH  71  74
ATOM     74  S   UNL A   1      37.350  33.222  40.457  1.00  0.00     0.127 S 
ATOM     75  O   UNL A   1      36.138  32.866  39.725  1.00  0.00    -0.237 OA
ATOM     76  O   UNL A   1      38.073  32.093  41.042  1.00  0.00    -0.237 OA
ATOM     77  O   UNL A   1      37.241  34.382  41.333  1.00  0.00    -0.744 OA
ENDBRANCH  71  74
ENDBRANCH  43  67
BRANCH  55  78
ATOM     78  C   UNL A   1      44.415  28.687  35.259  1.00  0.00     0.023 A 
ATOM     79  C   UNL A   1      45.680  29.260  35.018  1.00  0.00     0.012 A 
ATOM     80  C   UNL A   1      44.287  27.676  36.231  1.00  0.00     0.148 A 
ATOM     81  C   UNL A   1      46.803  28.815  35.714  1.00  0.00     0.002 A 
ATOM     82  C   UNL A   1      45.403  27.271  36.954  1.00  0.00     0.091 A 
ATOM     83  F   UNL A   1      43.080  27.129  36.431  1.00  0.00    -0.205 F 
ATOM     84  C   UNL A   1      46.664  27.831  36.689  1.00  0.00     0.022 A 
BRANCH  82  85
ATOM     85  S   UNL A   1      45.299  26.076  38.293  1.00  0.00     0.127 S 
ATOM     86  O   UNL A   1      44.360  26.729  39.203  1.00  0.00    -0.237 OA
ATOM     87  O   UNL A   1      44.769  24.892  37.615  1.00  0.00    -0.237 OA
ATOM     88  O   UNL A   1      46.657  25.923  38.798  1.00  0.00    -0.744 OA
ENDBRANCH  82  85
ENDBRANCH  55  78
ENDBRANCH  29  30
ENDBRANCH  21  24
ENDBRANCH  19  20
ENDBRANCH   1  19
TORSDOF 16
ENDMDL
MODEL 3
REMARK VINA RESULT:     -10.6      5.468      8.676
REMARK SMILES CC[N@H+](CC(=O)NCCCNC(=O)c1ccc(-c2c3nc(c(-c4cccc(S(=O)(=O)[O-])c4F)c4ccc([nH]4)c(-c4cccc(S(=O)(=O)[O-])c4F)c4nc(c(-c5cccc(S(=O)(=O)[O-])c5F)c5ccc2[nH]5)C=C4)C=C3)cc1)[C@H]1CC[N@@H+](C)C1
REMARK SMILES IDX 9 1 8 2 7 3 5 4 6 5 4 7 3 8 2 10 1 11 77 12 78 13 82 14
REMARK SMILES IDX 79 15 80 16 81 17 10 19 11 20 12 21 13 23 14 24 15 25 76 26
REMARK SMILES IDX 16 27 75 28 17 29 18 30 19 31 69 32 20 33 74 34 68 35 70 36
REMARK SMILES IDX 21 37 73 38 67 39 66 40 22 42 54 43 34 44 53 45 35 46 38 47
REMARK SMILES IDX 52 48 71 49 36 50 37 51 51 53 72 54 39 55 23 56 24 57 32 58
REMARK SMILES IDX 25 59 27 60 33 61 26 62 28 63 29 64 30 65 31 66 55 67 56 68
REMARK SMILES IDX 64 69 57 70 59 71 65 72 58 73 60 74 61 75 62 76 63 77 40 78
REMARK SMILES IDX 41 79 49 80 42 81 44 82 50 83 43 84 45 85 46 86 47 87 48 88
REMARK H PARENT 7 6 3 9 80 18 11 22 70 41 38 52
REMARK Flexibility Score: inf
ROOT
ATOM      1  C   UNL A   1      33.154  28.052  27.024  1.00  0.00     0.042 C 
ENDROOT
BRANCH   1   2
ATOM      2  C   UNL A   1      32.950  26.687  26.363  1.00  0.00     0.118 C 
BRANCH   2   3
ATOM      3  N   UNL A   1      33.114  26.719  24.916  1.00  0.00    -0.351 N 
ATOM      4  C   UNL A   1      33.791  25.888  24.065  1.00  0.00     0.275 C 
ATOM      5  O   UNL A   1      33.733  26.148  22.858  1.00  0.00    -0.269 OA
ATOM      6  H   UNL A   1      32.656  27.469  24.472  1.00  0.00     0.163 HD
BRANCH   4   7
ATOM      7  C   UNL A   1      34.569  24.664  24.586  1.00  0.00     0.363 C 
BRANCH   7   8
ATOM      8  N   UNL A   1      34.144  23.383  23.928  1.00  0.00    -0.320 N 
ATOM      9  H   UNL A   1      33.417  23.538  23.230  1.00  0.00     0.348 HD
BRANCH   8  10
ATOM     10  C   UNL A   1      35.317  22.831  23.225  1.00  0.00     0.259 C 
ATOM     11  C   UNL A   1      36.742  22.949  23.745  1.00  0.00     0.071 C 
ENDBRANCH   8  10
BRANCH   8  12
ATOM     12  C   UNL A   1      33.504  22.469  24.905  1.00  0.00     0.245 C 
ATOM     13  C   UNL A   1      33.908  22.746  26.376  1.00  0.00     0.132 C 
ATOM     14  C   UNL A   1      31.961  22.550  24.982  1.00  0.00     0.328 C 
ATOM     15  C   UNL A   1      32.621  23.080  27.118  1.00  0.00     0.268 C 
ATOM     16  N   UNL A   1      31.615  22.317  26.390  1.00  0.00    -0.332 N 
ATOM     17  C   UNL A   1      30.260  22.788  26.664  1.00  0.00     0.332 C 
ATOM     18  H   UNL A   1      31.616  21.333  26.656  1.00  0.00     0.348 HD
ENDBRANCH   8  12
ENDBRANCH   7   8
ENDBRANCH   4   7
ENDBRANCH   2   3
ENDBRANCH   1   2
BRANCH   1  19
ATOM     19  C   UNL A   1      33.910  29.058  26.166  1.00  0.00     0.118 C 
BRANCH  19  20
ATOM     20  N   UNL A   1      33.801  30.402  26.708  1.00  0.00    -0.352 N 
ATOM     21  C   UNL A   1      34.533  31.005  27.702  1.00  0.00     0.251 C 
ATOM     22  H   UNL A   1      33.100  30.962  26.303  1.00  0.00     0.163 HD
ATOM     23  O   UNL A   1      34.100  32.037  28.214  1.00  0.00    -0.269 OA
BRANCH  21  24
ATOM     24  C   UNL A   1      35.823  30.435  28.166  1.00  0.00     0.039 A 
ATOM     25  C   UNL A   1      35.847  29.705  29.361  1.00  0.00     0.014 A 
ATOM     26  C   UNL A   1      37.018  30.669  27.481  1.00  0.00     0.014 A 
ATOM     27  C   UNL A   1      37.054  29.189  29.843  1.00  0.00     0.010 A 
ATOM     28  C   UNL A   1      38.205  30.082  27.918  1.00  0.00     0.010 A 
ATOM     29  C   UNL A   1      38.245  29.358  29.118  1.00  0.00    -0.014 A 
BRANCH  29  30
ATOM     30  C   UNL A   1      39.537  28.811  29.612  1.00  0.00     0.031 A 
ATOM     31  C   UNL A   1      40.275  29.492  30.738  1.00  0.00     0.074 A 
ATOM     32  C   UNL A   1      40.095  27.749  28.997  1.00  0.00     0.049 A 
ATOM     33  N   UNL A   1      41.430  29.188  31.272  1.00  0.00    -0.248 NA
ATOM     34  C   UNL A   1      39.645  30.688  31.319  1.00  0.00     0.031 C 
ATOM     35  C   UNL A   1      39.533  27.053  27.840  1.00  0.00     0.029 A 
ATOM     36  N   UNL A   1      41.275  27.090  29.241  1.00  0.00    -0.354 N 
ATOM     37  C   UNL A   1      41.687  30.177  32.215  1.00  0.00     0.074 A 
ATOM     38  C   UNL A   1      40.583  31.108  32.157  1.00  0.00     0.031 C 
ATOM     39  C   UNL A   1      40.365  26.065  27.474  1.00  0.00     0.029 A 
ATOM     40  C   UNL A   1      41.531  26.071  28.354  1.00  0.00     0.049 A 
ATOM     41  H   UNL A   1      41.879  27.324  29.982  1.00  0.00     0.167 HD
ATOM     42  C   UNL A   1      42.728  30.286  33.075  1.00  0.00     0.034 A 
ATOM     43  C   UNL A   1      42.586  25.238  28.254  1.00  0.00     0.034 A 
ATOM     44  C   UNL A   1      43.796  29.327  33.172  1.00  0.00     0.049 A 
ATOM     45  C   UNL A   1      43.698  25.333  29.262  1.00  0.00     0.074 A 
ATOM     46  C   UNL A   1      44.833  29.285  34.086  1.00  0.00     0.029 A 
ATOM     47  N   UNL A   1      43.968  28.246  32.321  1.00  0.00    -0.354 N 
ATOM     48  N   UNL A   1      43.831  26.168  30.264  1.00  0.00    -0.248 NA
ATOM     49  C   UNL A   1      44.782  24.347  29.153  1.00  0.00     0.031 C 
ATOM     50  C   UNL A   1      45.646  28.188  33.774  1.00  0.00     0.029 A 
ATOM     51  C   UNL A   1      45.102  27.536  32.680  1.00  0.00     0.049 A 
ATOM     52  H   UNL A   1      43.373  28.017  31.573  1.00  0.00     0.167 HD
ATOM     53  C   UNL A   1      44.998  25.793  30.921  1.00  0.00     0.074 A 
ATOM     54  C   UNL A   1      45.520  24.640  30.216  1.00  0.00     0.031 C 
ATOM     55  C   UNL A   1      45.589  26.361  32.001  1.00  0.00     0.034 A 
BRANCH  42  56
ATOM     56  C   UNL A   1      42.732  31.460  34.020  1.00  0.00     0.023 A 
ATOM     57  C   UNL A   1      43.331  32.673  33.621  1.00  0.00     0.012 A 
ATOM     58  C   UNL A   1      42.114  31.381  35.283  1.00  0.00     0.148 A 
ATOM     59  C   UNL A   1      43.355  33.772  34.479  1.00  0.00     0.002 A 
ATOM     60  C   UNL A   1      42.103  32.495  36.116  1.00  0.00     0.091 A 
ATOM     61  F   UNL A   1      41.569  30.215  35.659  1.00  0.00    -0.205 F 
ATOM     62  C   UNL A   1      42.735  33.685  35.722  1.00  0.00     0.022 A 
BRANCH  60  63
ATOM     63  S   UNL A   1      41.257  32.503  37.700  1.00  0.00     0.127 S 
ATOM     64  O   UNL A   1      39.935  31.997  37.333  1.00  0.00    -0.237 OA
ATOM     65  O   UNL A   1      42.066  31.573  38.490  1.00  0.00    -0.237 OA
ATOM     66  O   UNL A   1      41.298  33.882  38.165  1.00  0.00    -0.744 OA
ENDBRANCH  60  63
ENDBRANCH  42  56
BRANCH  43  67
ATOM     67  C   UNL A   1      42.591  24.189  27.194  1.00  0.00     0.023 A 
ATOM     68  C   UNL A   1      43.291  24.422  25.995  1.00  0.00     0.012 A 
ATOM     69  C   UNL A   1      41.966  22.943  27.397  1.00  0.00     0.148 A 
ATOM     70  C   UNL A   1      43.354  23.438  25.008  1.00  0.00     0.002 A 
ATOM     71  C   UNL A   1      42.080  21.949  26.432  1.00  0.00     0.091 A 
ATOM     72  F   UNL A   1      41.297  22.747  28.542  1.00  0.00    -0.205 F 
ATOM     73  C   UNL A   1      42.760  22.199  25.229  1.00  0.00     0.022 A 
BRANCH  71  74
ATOM     74  S   UNL A   1      41.469  20.279  26.690  1.00  0.00     0.127 S 
ATOM     75  O   UNL A   1      40.031  20.498  26.803  1.00  0.00    -0.237 OA
ATOM     76  O   UNL A   1      41.898  19.610  25.461  1.00  0.00    -0.237 OA
ATOM     77  O   UNL A   1      42.132  19.798  27.895  1.00  0.00    -0.744 OA
ENDBRANCH  71  74
ENDBRANCH  43  67
BRANCH  55  78
ATOM     78  C   UNL A   1      46.862  25.739  32.512  1.00  0.00     0.023 A 
ATOM     79  C   UNL A   1      48.104  26.185  32.019  1.00  0.00     0.012 A 
ATOM     80  C   UNL A   1      46.831  24.773  33.537  1.00  0.00     0.148 A 
ATOM     81  C   UNL A   1      49.295  25.659  32.518  1.00  0.00     0.002 A 
ATOM     82  C   UNL A   1      48.023  24.287  34.062  1.00  0.00     0.091 A 
ATOM     83  F   UNL A   1      45.640  24.346  33.979  1.00  0.00    -0.205 F 
ATOM     84  C   UNL A   1      49.256  24.720  33.546  1.00  0.00     0.022 A 
BRANCH  82  85
ATOM     85  S   UNL A   1      48.068  23.147  35.451  1.00  0.00     0.127 S 
ATOM     86  O   UNL A   1      47.436  21.959  34.882  1.00  0.00    -0.237 OA
ATOM     87  O   UNL A   1      49.505  23.016  35.700  1.00  0.00    -0.237 OA
ATOM     88  O   UNL A   1      47.329  23.798  36.525  1.00  0.00    -0.744 OA
ENDBRANCH  82  85
ENDBRANCH  55  78
ENDBRANCH  29  30
ENDBRANCH  21  24
ENDBRANCH  19  20
ENDBRANCH   1  19
TORSDOF 16
ENDMDL
