MODEL 1
REMARK VINA RESULT:     -11.9      0.000      0.000
REMARK SMILES C[C@@H]1CN(C(=O)NC(=O)CCCCC(=O)NCCCNC(=O)c2ccc(-c3c4nc(c(-c5cccc(S(=O)(=O)[O-])c5F)c5ccc([nH]5)c(-c5cccc(S(=O)(=O)[O-])c5F)c5nc(c(-c6cccc(S(=O)(=O)[O-])c6F)c6ccc3[nH]6)C=C5)C=C4)cc2)CCO1
REMARK SMILES IDX 17 1 16 2 14 3 15 4 13 6 12 7 11 8 10 9 8 10 5 11 6 12 7 13
REMARK SMILES IDX 9 15 4 16 1 17 2 18 3 19 88 20 87 21 86 22 18 23 19 24 20 25
REMARK SMILES IDX 21 26 22 28 23 29 24 30 85 31 25 32 84 33 26 34 27 35 28 36
REMARK SMILES IDX 78 37 29 38 83 39 77 40 79 41 30 42 82 43 76 44 75 45 31 47
REMARK SMILES IDX 63 48 43 49 62 50 44 51 47 52 61 53 80 54 45 55 46 56 60 58
REMARK SMILES IDX 81 59 48 60 32 61 33 62 41 63 34 64 36 65 42 66 35 67 37 68
REMARK SMILES IDX 38 69 39 70 40 71 64 72 65 73 73 74 66 75 68 76 74 77 67 78
REMARK SMILES IDX 69 79 70 80 71 81 72 82 49 83 50 84 58 85 51 86 53 87 59 88
REMARK SMILES IDX 52 89 54 90 55 91 56 92 57 93
REMARK H PARENT 16 5 7 14 20 27 79 46 47 57
REMARK Flexibility Score: inf
ROOT
ATOM      1  C   UNL A   1      33.562  28.910  24.961  1.00  0.00     0.117 C 
ENDROOT
BRANCH   1   2
ATOM      2  N   UNL A   1      33.876  28.961  23.551  1.00  0.00    -0.356 N 
ATOM      3  C   UNL A   1      33.953  27.948  22.645  1.00  0.00     0.219 C 
ATOM      4  O   UNL A   1      34.351  28.215  21.510  1.00  0.00    -0.275 OA
ATOM      5  H   UNL A   1      34.060  29.859  23.194  1.00  0.00     0.163 HD
BRANCH   3   6
ATOM      6  C   UNL A   1      33.437  26.566  22.994  1.00  0.00     0.100 C 
BRANCH   6   7
ATOM      7  C   UNL A   1      32.049  26.151  22.530  1.00  0.00     0.010 C 
BRANCH   7   8
ATOM      8  C   UNL A   1      31.111  25.477  23.545  1.00  0.00     0.010 C 
BRANCH   8   9
ATOM      9  C   UNL A   1      31.441  25.558  25.038  1.00  0.00     0.100 C 
BRANCH   9  10
ATOM     10  C   UNL A   1      30.630  24.710  25.989  1.00  0.00     0.227 C 
ATOM     11  C   UNL A   1      32.127  22.945  26.712  1.00  0.00     0.324 C 
ATOM     12  O   UNL A   1      32.209  22.917  27.939  1.00  0.00    -0.248 OA
ATOM     13  N   UNL A   1      30.968  23.378  26.126  1.00  0.00    -0.278 N 
ATOM     14  H   UNL A   1      30.341  22.702  25.783  1.00  0.00     0.174 HD
ATOM     15  O   UNL A   1      29.615  25.133  26.539  1.00  0.00    -0.275 OA
BRANCH  11  16
ATOM     16  N   UNL A   1      33.095  22.377  25.896  1.00  0.00    -0.320 N 
ATOM     17  C   UNL A   1      36.128  23.084  23.660  1.00  0.00     0.040 C 
ATOM     18  C   UNL A   1      34.862  22.344  24.081  1.00  0.00     0.134 C 
ATOM     19  C   UNL A   1      34.118  23.133  25.167  1.00  0.00     0.153 C 
ATOM     20  O   UNL A   1      35.278  21.063  24.578  1.00  0.00    -0.375 OA
ATOM     21  C   UNL A   1      34.140  20.284  24.955  1.00  0.00     0.182 C 
ATOM     22  C   UNL A   1      33.351  20.942  26.084  1.00  0.00     0.150 C 
ENDBRANCH  11  16
ENDBRANCH   9  10
ENDBRANCH   8   9
ENDBRANCH   7   8
ENDBRANCH   6   7
ENDBRANCH   3   6
ENDBRANCH   1   2
BRANCH   1  23
ATOM     23  C   UNL A   1      32.239  29.582  25.263  1.00  0.00     0.042 C 
BRANCH  23  24
ATOM     24  C   UNL A   1      32.170  29.996  26.723  1.00  0.00     0.118 C 
BRANCH  24  25
ATOM     25  N   UNL A   1      32.175  31.449  26.887  1.00  0.00    -0.352 N 
ATOM     26  C   UNL A   1      33.141  32.264  27.447  1.00  0.00     0.251 C 
ATOM     27  H   UNL A   1      31.375  31.913  26.551  1.00  0.00     0.163 HD
ATOM     28  O   UNL A   1      32.907  33.438  27.676  1.00  0.00    -0.269 OA
BRANCH  26  29
ATOM     29  C   UNL A   1      34.449  31.668  27.798  1.00  0.00     0.039 A 
ATOM     30  C   UNL A   1      35.553  32.495  28.013  1.00  0.00     0.014 A 
ATOM     31  C   UNL A   1      34.539  30.296  28.024  1.00  0.00     0.014 A 
ATOM     32  C   UNL A   1      36.711  31.954  28.579  1.00  0.00     0.010 A 
ATOM     33  C   UNL A   1      35.631  29.796  28.715  1.00  0.00     0.010 A 
ATOM     34  C   UNL A   1      36.733  30.614  29.003  1.00  0.00    -0.014 A 
BRANCH  34  35
ATOM     35  C   UNL A   1      37.870  30.033  29.768  1.00  0.00     0.031 A 
ATOM     36  C   UNL A   1      38.100  30.459  31.197  1.00  0.00     0.074 A 
ATOM     37  C   UNL A   1      38.783  29.261  29.141  1.00  0.00     0.049 A 
ATOM     38  N   UNL A   1      39.127  30.228  31.972  1.00  0.00    -0.248 NA
ATOM     39  C   UNL A   1      37.068  31.311  31.815  1.00  0.00     0.031 C 
ATOM     40  C   UNL A   1      38.747  28.872  27.728  1.00  0.00     0.029 A 
ATOM     41  N   UNL A   1      39.947  28.696  29.604  1.00  0.00    -0.354 N 
ATOM     42  C   UNL A   1      38.904  30.969  33.126  1.00  0.00     0.074 A 
ATOM     43  C   UNL A   1      37.660  31.683  32.941  1.00  0.00     0.031 C 
ATOM     44  C   UNL A   1      39.830  28.132  27.443  1.00  0.00     0.029 A 
ATOM     45  C   UNL A   1      40.659  28.021  28.639  1.00  0.00     0.049 A 
ATOM     46  H   UNL A   1      40.244  28.767  30.540  1.00  0.00     0.167 HD
ATOM     47  C   UNL A   1      39.645  31.024  34.257  1.00  0.00     0.034 A 
ATOM     48  C   UNL A   1      41.850  27.393  28.704  1.00  0.00     0.034 A 
ATOM     49  C   UNL A   1      40.811  30.218  34.486  1.00  0.00     0.049 A 
ATOM     50  C   UNL A   1      42.583  27.357  30.018  1.00  0.00     0.074 A 
ATOM     51  C   UNL A   1      41.535  30.068  35.654  1.00  0.00     0.029 A 
ATOM     52  N   UNL A   1      41.414  29.416  33.531  1.00  0.00    -0.354 N 
ATOM     53  N   UNL A   1      42.251  27.907  31.161  1.00  0.00    -0.248 NA
ATOM     54  C   UNL A   1      43.836  26.588  30.064  1.00  0.00     0.031 C 
ATOM     55  C   UNL A   1      42.582  29.177  35.404  1.00  0.00     0.029 A 
ATOM     56  C   UNL A   1      42.505  28.769  34.081  1.00  0.00     0.049 A 
ATOM     57  H   UNL A   1      41.111  29.320  32.599  1.00  0.00     0.167 HD
ATOM     58  C   UNL A   1      43.236  27.529  32.066  1.00  0.00     0.074 A 
ATOM     59  C   UNL A   1      44.162  26.679  31.346  1.00  0.00     0.031 C 
ATOM     60  C   UNL A   1      43.377  27.874  33.368  1.00  0.00     0.034 A 
BRANCH  47  61
ATOM     61  C   UNL A   1      39.174  31.923  35.369  1.00  0.00     0.023 A 
ATOM     62  C   UNL A   1      39.382  33.314  35.275  1.00  0.00     0.012 A 
ATOM     63  C   UNL A   1      38.469  31.401  36.471  1.00  0.00     0.148 A 
ATOM     64  C   UNL A   1      38.925  34.169  36.275  1.00  0.00     0.002 A 
ATOM     65  C   UNL A   1      37.978  32.265  37.443  1.00  0.00     0.091 A 
ATOM     66  F   UNL A   1      38.301  30.074  36.553  1.00  0.00    -0.205 F 
ATOM     67  C   UNL A   1      38.214  33.647  37.352  1.00  0.00     0.022 A 
BRANCH  65  68
ATOM     68  S   UNL A   1      36.982  31.704  38.829  1.00  0.00     0.127 S 
ATOM     69  O   UNL A   1      37.916  31.859  39.944  1.00  0.00    -0.237 OA
ATOM     70  O   UNL A   1      35.878  32.663  38.821  1.00  0.00    -0.237 OA
ATOM     71  O   UNL A   1      36.601  30.332  38.522  1.00  0.00    -0.744 OA
ENDBRANCH  65  68
ENDBRANCH  47  61
BRANCH  48  72
ATOM     72  C   UNL A   1      42.393  26.686  27.508  1.00  0.00     0.023 A 
ATOM     73  C   UNL A   1      43.184  27.400  26.586  1.00  0.00     0.012 A 
ATOM     74  C   UNL A   1      42.152  25.317  27.288  1.00  0.00     0.148 A 
ATOM     75  C   UNL A   1      43.694  26.772  25.448  1.00  0.00     0.002 A 
ATOM     76  C   UNL A   1      42.709  24.684  26.180  1.00  0.00     0.091 A 
ATOM     77  F   UNL A   1      41.384  24.654  28.163  1.00  0.00    -0.205 F 
ATOM     78  C   UNL A   1      43.465  25.414  25.250  1.00  0.00     0.022 A 
BRANCH  76  79
ATOM     79  S   UNL A   1      42.576  22.910  25.936  1.00  0.00     0.127 S 
ATOM     80  O   UNL A   1      43.173  22.743  24.614  1.00  0.00    -0.237 OA
ATOM     81  O   UNL A   1      43.376  22.385  27.044  1.00  0.00    -0.237 OA
ATOM     82  O   UNL A   1      41.153  22.619  26.041  1.00  0.00    -0.744 OA
ENDBRANCH  76  79
ENDBRANCH  48  72
BRANCH  60  83
ATOM     83  C   UNL A   1      44.557  27.318  34.117  1.00  0.00     0.023 A 
ATOM     84  C   UNL A   1      45.718  28.102  34.264  1.00  0.00     0.012 A 
ATOM     85  C   UNL A   1      44.481  26.064  34.754  1.00  0.00     0.148 A 
ATOM     86  C   UNL A   1      46.794  27.637  35.016  1.00  0.00     0.002 A 
ATOM     87  C   UNL A   1      45.540  25.627  35.539  1.00  0.00     0.091 A 
ATOM     88  F   UNL A   1      43.374  25.326  34.584  1.00  0.00    -0.205 F 
ATOM     89  C   UNL A   1      46.701  26.407  35.663  1.00  0.00     0.022 A 
BRANCH  87  90
ATOM     90  S   UNL A   1      45.464  24.101  36.485  1.00  0.00     0.127 S 
ATOM     91  O   UNL A   1      46.843  23.972  36.954  1.00  0.00    -0.237 OA
ATOM     92  O   UNL A   1      44.493  24.429  37.530  1.00  0.00    -0.237 OA
ATOM     93  O   UNL A   1      45.019  23.075  35.551  1.00  0.00    -0.744 OA
ENDBRANCH  87  90
ENDBRANCH  60  83
ENDBRANCH  34  35
ENDBRANCH  26  29
ENDBRANCH  24  25
ENDBRANCH  23  24
ENDBRANCH   1  23
TORSDOF 18
ENDMDL
MODEL 2
REMARK VINA RESULT:     -11.8      1.777      2.527
REMARK SMILES C[C@@H]1CN(C(=O)NC(=O)CCCCC(=O)NCCCNC(=O)c2ccc(-c3c4nc(c(-c5cccc(S(=O)(=O)[O-])c5F)c5ccc([nH]5)c(-c5cccc(S(=O)(=O)[O-])c5F)c5nc(c(-c6cccc(S(=O)(=O)[O-])c6F)c6ccc3[nH]6)C=C5)C=C4)cc2)CCO1
REMARK SMILES IDX 17 1 16 2 14 3 15 4 13 6 12 7 11 8 10 9 8 10 5 11 6 12 7 13
REMARK SMILES IDX 9 15 4 16 1 17 2 18 3 19 88 20 87 21 86 22 18 23 19 24 20 25
REMARK SMILES IDX 21 26 22 28 23 29 24 30 85 31 25 32 84 33 26 34 27 35 28 36
REMARK SMILES IDX 78 37 29 38 83 39 77 40 79 41 30 42 82 43 76 44 75 45 31 47
REMARK SMILES IDX 63 48 43 49 62 50 44 51 47 52 61 53 80 54 45 55 46 56 60 58
REMARK SMILES IDX 81 59 48 60 32 61 33 62 41 63 34 64 36 65 42 66 35 67 37 68
REMARK SMILES IDX 38 69 39 70 40 71 64 72 65 73 73 74 66 75 68 76 74 77 67 78
REMARK SMILES IDX 69 79 70 80 71 81 72 82 49 83 50 84 58 85 51 86 53 87 59 88
REMARK SMILES IDX 52 89 54 90 55 91 56 92 57 93
REMARK H PARENT 16 5 7 14 20 27 79 46 47 57
REMARK Flexibility Score: inf
ROOT
ATOM      1  C   UNL A   1      32.588  28.369  24.863  1.00  0.00     0.117 C 
ENDROOT
BRANCH   1   2
ATOM      2  N   UNL A   1      31.730  27.286  24.443  1.00  0.00    -0.356 N 
ATOM      3  C   UNL A   1      32.010  26.219  23.645  1.00  0.00     0.219 C 
ATOM      4  O   UNL A   1      31.082  25.473  23.328  1.00  0.00    -0.275 OA
ATOM      5  H   UNL A   1      30.808  27.324  24.785  1.00  0.00     0.163 HD
BRANCH   3   6
ATOM      6  C   UNL A   1      33.444  25.895  23.274  1.00  0.00     0.100 C 
BRANCH   6   7
ATOM      7  C   UNL A   1      33.859  24.441  23.107  1.00  0.00     0.010 C 
BRANCH   7   8
ATOM      8  C   UNL A   1      35.153  23.970  23.791  1.00  0.00     0.010 C 
BRANCH   8   9
ATOM      9  C   UNL A   1      35.283  24.085  25.312  1.00  0.00     0.100 C 
BRANCH   9  10
ATOM     10  C   UNL A   1      36.379  23.298  25.991  1.00  0.00     0.227 C 
ATOM     11  C   UNL A   1      36.032  20.997  25.313  1.00  0.00     0.324 C 
ATOM     12  O   UNL A   1      37.047  20.535  24.795  1.00  0.00    -0.248 OA
ATOM     13  N   UNL A   1      36.148  21.967  26.272  1.00  0.00    -0.278 N 
ATOM     14  H   UNL A   1      36.061  21.699  27.215  1.00  0.00     0.174 HD
ATOM     15  O   UNL A   1      37.404  23.833  26.407  1.00  0.00    -0.275 OA
BRANCH  11  16
ATOM     16  N   UNL A   1      34.778  20.439  25.101  1.00  0.00    -0.320 N 
ATOM     17  C   UNL A   1      32.884  17.278  24.045  1.00  0.00     0.040 C 
ATOM     18  C   UNL A   1      33.113  18.783  24.152  1.00  0.00     0.134 C 
ATOM     19  C   UNL A   1      34.545  19.073  24.626  1.00  0.00     0.153 C 
ATOM     20  O   UNL A   1      32.154  19.281  25.096  1.00  0.00    -0.375 OA
ATOM     21  C   UNL A   1      32.273  20.700  25.222  1.00  0.00     0.182 C 
ATOM     22  C   UNL A   1      33.645  21.109  25.754  1.00  0.00     0.150 C 
ENDBRANCH  11  16
ENDBRANCH   9  10
ENDBRANCH   8   9
ENDBRANCH   7   8
ENDBRANCH   6   7
ENDBRANCH   3   6
ENDBRANCH   1   2
BRANCH   1  23
ATOM     23  C   UNL A   1      31.789  29.585  25.282  1.00  0.00     0.042 C 
BRANCH  23  24
ATOM     24  C   UNL A   1      32.156  30.006  26.694  1.00  0.00     0.118 C 
BRANCH  24  25
ATOM     25  N   UNL A   1      32.167  31.460  26.854  1.00  0.00    -0.352 N 
ATOM     26  C   UNL A   1      33.131  32.273  27.419  1.00  0.00     0.251 C 
ATOM     27  H   UNL A   1      31.372  31.927  26.508  1.00  0.00     0.163 HD
ATOM     28  O   UNL A   1      32.902  33.448  27.641  1.00  0.00    -0.269 OA
BRANCH  26  29
ATOM     29  C   UNL A   1      34.432  31.671  27.785  1.00  0.00     0.039 A 
ATOM     30  C   UNL A   1      35.540  32.493  28.001  1.00  0.00     0.014 A 
ATOM     31  C   UNL A   1      34.513  30.301  28.022  1.00  0.00     0.014 A 
ATOM     32  C   UNL A   1      36.691  31.950  28.580  1.00  0.00     0.010 A 
ATOM     33  C   UNL A   1      35.596  29.799  28.726  1.00  0.00     0.010 A 
ATOM     34  C   UNL A   1      36.702  30.613  29.015  1.00  0.00    -0.014 A 
BRANCH  34  35
ATOM     35  C   UNL A   1      37.830  30.031  29.792  1.00  0.00     0.031 A 
ATOM     36  C   UNL A   1      38.063  30.481  31.213  1.00  0.00     0.074 A 
ATOM     37  C   UNL A   1      38.732  29.234  29.183  1.00  0.00     0.049 A 
ATOM     38  N   UNL A   1      39.085  30.251  31.995  1.00  0.00    -0.248 NA
ATOM     39  C   UNL A   1      37.042  31.358  31.814  1.00  0.00     0.031 C 
ATOM     40  C   UNL A   1      38.694  28.820  27.777  1.00  0.00     0.029 A 
ATOM     41  N   UNL A   1      39.888  28.663  29.659  1.00  0.00    -0.354 N 
ATOM     42  C   UNL A   1      38.871  31.017  33.135  1.00  0.00     0.074 A 
ATOM     43  C   UNL A   1      37.637  31.743  32.933  1.00  0.00     0.031 C 
ATOM     44  C   UNL A   1      39.767  28.060  27.508  1.00  0.00     0.029 A 
ATOM     45  C   UNL A   1      40.592  27.960  28.707  1.00  0.00     0.049 A 
ATOM     46  H   UNL A   1      40.185  28.748  30.593  1.00  0.00     0.167 HD
ATOM     47  C   UNL A   1      39.611  31.084  34.265  1.00  0.00     0.034 A 
ATOM     48  C   UNL A   1      41.775  27.317  28.786  1.00  0.00     0.034 A 
ATOM     49  C   UNL A   1      40.765  30.266  34.511  1.00  0.00     0.049 A 
ATOM     50  C   UNL A   1      42.505  27.296  30.102  1.00  0.00     0.074 A 
ATOM     51  C   UNL A   1      41.485  30.128  35.684  1.00  0.00     0.029 A 
ATOM     52  N   UNL A   1      41.359  29.437  33.574  1.00  0.00    -0.354 N 
ATOM     53  N   UNL A   1      42.179  27.872  31.234  1.00  0.00    -0.248 NA
ATOM     54  C   UNL A   1      43.747  26.511  30.165  1.00  0.00     0.031 C 
ATOM     55  C   UNL A   1      42.521  29.219  35.453  1.00  0.00     0.029 A 
ATOM     56  C   UNL A   1      42.440  28.787  34.138  1.00  0.00     0.049 A 
ATOM     57  H   UNL A   1      41.056  29.328  32.643  1.00  0.00     0.167 HD
ATOM     58  C   UNL A   1      43.157  27.498  32.148  1.00  0.00     0.074 A 
ATOM     59  C   UNL A   1      44.072  26.622  31.446  1.00  0.00     0.031 C 
ATOM     60  C   UNL A   1      43.301  27.866  33.444  1.00  0.00     0.034 A 
BRANCH  47  61
ATOM     61  C   UNL A   1      39.150  32.009  35.359  1.00  0.00     0.023 A 
ATOM     62  C   UNL A   1      38.215  31.552  36.309  1.00  0.00     0.012 A 
ATOM     63  C   UNL A   1      39.690  33.304  35.487  1.00  0.00     0.148 A 
ATOM     64  C   UNL A   1      37.799  32.378  37.351  1.00  0.00     0.002 A 
ATOM     65  C   UNL A   1      39.304  34.106  36.553  1.00  0.00     0.091 A 
ATOM     66  F   UNL A   1      40.562  33.728  34.561  1.00  0.00    -0.205 F 
ATOM     67  C   UNL A   1      38.351  33.649  37.480  1.00  0.00     0.022 A 
BRANCH  65  68
ATOM     68  S   UNL A   1      40.012  35.729  36.856  1.00  0.00     0.127 S 
ATOM     69  O   UNL A   1      41.434  35.411  36.978  1.00  0.00    -0.237 OA
ATOM     70  O   UNL A   1      39.653  36.453  35.636  1.00  0.00    -0.237 OA
ATOM     71  O   UNL A   1      39.378  36.227  38.068  1.00  0.00    -0.744 OA
ENDBRANCH  65  68
ENDBRANCH  47  61
BRANCH  48  72
ATOM     72  C   UNL A   1      42.310  26.580  27.605  1.00  0.00     0.023 A 
ATOM     73  C   UNL A   1      43.137  27.257  26.687  1.00  0.00     0.012 A 
ATOM     74  C   UNL A   1      42.025  25.218  27.395  1.00  0.00     0.148 A 
ATOM     75  C   UNL A   1      43.641  26.602  25.563  1.00  0.00     0.002 A 
ATOM     76  C   UNL A   1      42.577  24.556  26.301  1.00  0.00     0.091 A 
ATOM     77  F   UNL A   1      41.225  24.590  28.266  1.00  0.00    -0.205 F 
ATOM     78  C   UNL A   1      43.369  25.250  25.375  1.00  0.00     0.022 A 
BRANCH  76  79
ATOM     79  S   UNL A   1      42.388  22.784  26.073  1.00  0.00     0.127 S 
ATOM     80  O   UNL A   1      43.028  22.578  24.777  1.00  0.00    -0.237 OA
ATOM     81  O   UNL A   1      43.124  22.245  27.218  1.00  0.00    -0.237 OA
ATOM     82  O   UNL A   1      40.951  22.547  26.126  1.00  0.00    -0.744 OA
ENDBRANCH  76  79
ENDBRANCH  48  72
BRANCH  60  83
ATOM     83  C   UNL A   1      44.472  27.309  34.205  1.00  0.00     0.023 A 
ATOM     84  C   UNL A   1      45.693  28.010  34.212  1.00  0.00     0.012 A 
ATOM     85  C   UNL A   1      44.335  26.146  34.988  1.00  0.00     0.148 A 
ATOM     86  C   UNL A   1      46.768  27.551  34.969  1.00  0.00     0.002 A 
ATOM     87  C   UNL A   1      45.396  25.719  35.777  1.00  0.00     0.091 A 
ATOM     88  F   UNL A   1      43.169  25.483  34.952  1.00  0.00    -0.205 F 
ATOM     89  C   UNL A   1      46.616  26.414  35.760  1.00  0.00     0.022 A 
BRANCH  87  90
ATOM     90  S   UNL A   1      45.255  24.324  36.899  1.00  0.00     0.127 S 
ATOM     91  O   UNL A   1      46.590  24.280  37.491  1.00  0.00    -0.237 OA
ATOM     92  O   UNL A   1      44.197  24.762  37.811  1.00  0.00    -0.237 OA
ATOM     93  O   UNL A   1      44.897  23.180  36.069  1.00  0.00    -0.744 OA
ENDBRANCH  87  90
ENDBRANCH  60  83
ENDBRANCH  34  35
ENDBRANCH  26  29
ENDBRANCH  24  25
ENDBRANCH  23  24
ENDBRANCH   1  23
TORSDOF 18
ENDMDL
MODEL 3
REMARK VINA RESULT:     -11.7      1.734      7.783
REMARK SMILES C[C@@H]1CN(C(=O)NC(=O)CCCCC(=O)NCCCNC(=O)c2ccc(-c3c4nc(c(-c5cccc(S(=O)(=O)[O-])c5F)c5ccc([nH]5)c(-c5cccc(S(=O)(=O)[O-])c5F)c5nc(c(-c6cccc(S(=O)(=O)[O-])c6F)c6ccc3[nH]6)C=C5)C=C4)cc2)CCO1
REMARK SMILES IDX 17 1 16 2 14 3 15 4 13 6 12 7 11 8 10 9 8 10 5 11 6 12 7 13
REMARK SMILES IDX 9 15 4 16 1 17 2 18 3 19 88 20 87 21 86 22 18 23 19 24 20 25
REMARK SMILES IDX 21 26 22 28 23 29 24 30 85 31 25 32 84 33 26 34 27 35 28 36
REMARK SMILES IDX 78 37 29 38 83 39 77 40 79 41 30 42 82 43 76 44 75 45 31 47
REMARK SMILES IDX 63 48 43 49 62 50 44 51 47 52 61 53 80 54 45 55 46 56 60 58
REMARK SMILES IDX 81 59 48 60 32 61 33 62 41 63 34 64 36 65 42 66 35 67 37 68
REMARK SMILES IDX 38 69 39 70 40 71 64 72 65 73 73 74 66 75 68 76 74 77 67 78
REMARK SMILES IDX 69 79 70 80 71 81 72 82 49 83 50 84 58 85 51 86 53 87 59 88
REMARK SMILES IDX 52 89 54 90 55 91 56 92 57 93
REMARK H PARENT 16 5 7 14 20 27 79 46 47 57
REMARK Flexibility Score: inf
ROOT
ATOM      1  C   UNL A   1      32.410  29.219  24.596  1.00  0.00     0.117 C 
ENDROOT
BRANCH   1   2
ATOM      2  N   UNL A   1      31.511  29.672  23.561  1.00  0.00    -0.356 N 
ATOM      3  C   UNL A   1      30.750  28.947  22.696  1.00  0.00     0.219 C 
ATOM      4  O   UNL A   1      30.138  29.552  21.814  1.00  0.00    -0.275 OA
ATOM      5  H   UNL A   1      31.436  30.649  23.467  1.00  0.00     0.163 HD
BRANCH   3   6
ATOM      6  C   UNL A   1      30.564  27.457  22.904  1.00  0.00     0.100 C 
BRANCH   6   7
ATOM      7  C   UNL A   1      29.502  26.968  23.878  1.00  0.00     0.010 C 
BRANCH   7   8
ATOM      8  C   UNL A   1      29.649  25.557  24.470  1.00  0.00     0.010 C 
BRANCH   8   9
ATOM      9  C   UNL A   1      30.423  25.370  25.778  1.00  0.00     0.100 C 
BRANCH   9  10
ATOM     10  C   UNL A   1      30.365  24.018  26.447  1.00  0.00     0.227 C 
ATOM     11  C   UNL A   1      32.538  23.016  26.061  1.00  0.00     0.324 C 
ATOM     12  O   UNL A   1      33.064  22.688  27.124  1.00  0.00    -0.248 OA
ATOM     13  N   UNL A   1      31.174  23.012  25.957  1.00  0.00    -0.278 N 
ATOM     14  H   UNL A   1      30.745  22.249  25.507  1.00  0.00     0.174 HD
ATOM     15  O   UNL A   1      29.540  23.756  27.320  1.00  0.00    -0.275 OA
BRANCH  11  16
ATOM     16  N   UNL A   1      33.278  23.208  24.902  1.00  0.00    -0.320 N 
ATOM     17  C   UNL A   1      36.729  22.826  23.278  1.00  0.00     0.040 C 
ATOM     18  C   UNL A   1      35.381  23.499  23.521  1.00  0.00     0.134 C 
ATOM     19  C   UNL A   1      34.705  22.905  24.765  1.00  0.00     0.153 C 
ATOM     20  O   UNL A   1      34.585  23.266  22.350  1.00  0.00    -0.375 OA
ATOM     21  C   UNL A   1      33.314  23.906  22.479  1.00  0.00     0.182 C 
ATOM     22  C   UNL A   1      32.514  23.347  23.654  1.00  0.00     0.150 C 
ENDBRANCH  11  16
ENDBRANCH   9  10
ENDBRANCH   8   9
ENDBRANCH   7   8
ENDBRANCH   6   7
ENDBRANCH   3   6
ENDBRANCH   1   2
BRANCH   1  23
ATOM     23  C   UNL A   1      31.685  28.988  25.905  1.00  0.00     0.042 C 
BRANCH  23  24
ATOM     24  C   UNL A   1      32.397  29.695  27.044  1.00  0.00     0.118 C 
BRANCH  24  25
ATOM     25  N   UNL A   1      32.201  31.144  27.005  1.00  0.00    -0.352 N 
ATOM     26  C   UNL A   1      33.067  32.156  27.375  1.00  0.00     0.251 C 
ATOM     27  H   UNL A   1      31.326  31.442  26.667  1.00  0.00     0.163 HD
ATOM     28  O   UNL A   1      32.679  33.308  27.455  1.00  0.00    -0.269 OA
BRANCH  26  29
ATOM     29  C   UNL A   1      34.463  31.800  27.710  1.00  0.00     0.039 A 
ATOM     30  C   UNL A   1      35.412  32.809  27.891  1.00  0.00     0.014 A 
ATOM     31  C   UNL A   1      34.793  30.469  27.956  1.00  0.00     0.014 A 
ATOM     32  C   UNL A   1      36.655  32.486  28.443  1.00  0.00     0.010 A 
ATOM     33  C   UNL A   1      35.965  30.177  28.634  1.00  0.00     0.010 A 
ATOM     34  C   UNL A   1      36.914  31.178  28.887  1.00  0.00    -0.014 A 
BRANCH  34  35
ATOM     35  C   UNL A   1      38.147  30.816  29.639  1.00  0.00     0.031 A 
ATOM     36  C   UNL A   1      39.120  29.830  29.041  1.00  0.00     0.074 A 
ATOM     37  C   UNL A   1      38.313  31.237  30.910  1.00  0.00     0.049 A 
ATOM     38  N   UNL A   1      40.142  29.237  29.599  1.00  0.00    -0.248 NA
ATOM     39  C   UNL A   1      38.873  29.405  27.651  1.00  0.00     0.031 C 
ATOM     40  C   UNL A   1      37.385  32.095  31.653  1.00  0.00     0.029 A 
ATOM     41  N   UNL A   1      39.304  30.963  31.822  1.00  0.00    -0.354 N 
ATOM     42  C   UNL A   1      40.603  28.316  28.665  1.00  0.00     0.074 A 
ATOM     43  C   UNL A   1      39.731  28.405  27.515  1.00  0.00     0.031 C 
ATOM     44  C   UNL A   1      37.853  32.281  32.898  1.00  0.00     0.029 A 
ATOM     45  C   UNL A   1      39.092  31.528  33.059  1.00  0.00     0.049 A 
ATOM     46  H   UNL A   1      40.092  30.413  31.611  1.00  0.00     0.167 HD
ATOM     47  C   UNL A   1      41.677  27.497  28.738  1.00  0.00     0.034 A 
ATOM     48  C   UNL A   1      39.806  31.442  34.199  1.00  0.00     0.034 A 
ATOM     49  C   UNL A   1      42.611  27.503  29.827  1.00  0.00     0.049 A 
ATOM     50  C   UNL A   1      41.073  30.629  34.204  1.00  0.00     0.074 A 
ATOM     51  C   UNL A   1      43.821  26.840  29.924  1.00  0.00     0.029 A 
ATOM     52  N   UNL A   1      42.447  28.217  31.003  1.00  0.00    -0.354 N 
ATOM     53  N   UNL A   1      41.598  29.917  33.236  1.00  0.00    -0.248 NA
ATOM     54  C   UNL A   1      41.866  30.633  35.443  1.00  0.00     0.031 C 
ATOM     55  C   UNL A   1      44.387  27.150  31.164  1.00  0.00     0.029 A 
ATOM     56  C   UNL A   1      43.531  28.010  31.835  1.00  0.00     0.049 A 
ATOM     57  H   UNL A   1      41.673  28.787  31.215  1.00  0.00     0.167 HD
ATOM     58  C   UNL A   1      42.792  29.412  33.738  1.00  0.00     0.074 A 
ATOM     59  C   UNL A   1      42.929  29.924  35.086  1.00  0.00     0.031 C 
ATOM     60  C   UNL A   1      43.683  28.580  33.147  1.00  0.00     0.034 A 
BRANCH  47  61
ATOM     61  C   UNL A   1      41.951  26.584  27.572  1.00  0.00     0.023 A 
ATOM     62  C   UNL A   1      42.667  27.072  26.461  1.00  0.00     0.012 A 
ATOM     63  C   UNL A   1      41.561  25.231  27.606  1.00  0.00     0.148 A 
ATOM     64  C   UNL A   1      42.963  26.238  25.385  1.00  0.00     0.002 A 
ATOM     65  C   UNL A   1      41.899  24.394  26.549  1.00  0.00     0.091 A 
ATOM     66  F   UNL A   1      40.863  24.792  28.662  1.00  0.00    -0.205 F 
ATOM     67  C   UNL A   1      42.589  24.898  25.434  1.00  0.00     0.022 A 
BRANCH  65  68
ATOM     68  S   UNL A   1      41.534  22.635  26.548  1.00  0.00     0.127 S 
ATOM     69  O   UNL A   1      40.073  22.637  26.484  1.00  0.00    -0.237 OA
ATOM     70  O   UNL A   1      42.197  22.185  25.323  1.00  0.00    -0.237 OA
ATOM     71  O   UNL A   1      42.105  22.104  27.778  1.00  0.00    -0.744 OA
ENDBRANCH  65  68
ENDBRANCH  47  61
BRANCH  48  72
ATOM     72  C   UNL A   1      39.382  32.200  35.412  1.00  0.00     0.023 A 
ATOM     73  C   UNL A   1      38.552  31.571  36.361  1.00  0.00     0.012 A 
ATOM     74  C   UNL A   1      39.807  33.521  35.642  1.00  0.00     0.148 A 
ATOM     75  C   UNL A   1      38.123  32.257  37.498  1.00  0.00     0.002 A 
ATOM     76  C   UNL A   1      39.421  34.181  36.806  1.00  0.00     0.091 A 
ATOM     77  F   UNL A   1      40.583  34.113  34.724  1.00  0.00    -0.205 F 
ATOM     78  C   UNL A   1      38.565  33.556  37.726  1.00  0.00     0.022 A 
BRANCH  76  79
ATOM     79  S   UNL A   1      40.065  35.802  37.235  1.00  0.00     0.127 S 
ATOM     80  O   UNL A   1      39.664  36.599  36.079  1.00  0.00    -0.237 OA
ATOM     81  O   UNL A   1      39.343  36.103  38.472  1.00  0.00    -0.237 OA
ATOM     82  O   UNL A   1      41.497  35.604  37.416  1.00  0.00    -0.744 OA
ENDBRANCH  76  79
ENDBRANCH  48  72
BRANCH  60  83
ATOM     83  C   UNL A   1      44.901  28.184  33.935  1.00  0.00     0.023 A 
ATOM     84  C   UNL A   1      46.049  28.999  33.895  1.00  0.00     0.012 A 
ATOM     85  C   UNL A   1      44.876  27.062  34.786  1.00  0.00     0.148 A 
ATOM     86  C   UNL A   1      47.162  28.690  34.673  1.00  0.00     0.002 A 
ATOM     87  C   UNL A   1      45.972  26.787  35.594  1.00  0.00     0.091 A 
ATOM     88  F   UNL A   1      43.779  26.289  34.795  1.00  0.00    -0.205 F 
ATOM     89  C   UNL A   1      47.120  27.594  35.531  1.00  0.00     0.022 A 
BRANCH  87  90
ATOM     90  S   UNL A   1      45.964  25.453  36.798  1.00  0.00     0.127 S 
ATOM     91  O   UNL A   1      45.898  24.274  35.936  1.00  0.00    -0.237 OA
ATOM     92  O   UNL A   1      47.245  25.639  37.480  1.00  0.00    -0.237 OA
ATOM     93  O   UNL A   1      44.797  25.684  37.639  1.00  0.00    -0.744 OA
ENDBRANCH  87  90
ENDBRANCH  60  83
ENDBRANCH  34  35
ENDBRANCH  26  29
ENDBRANCH  24  25
ENDBRANCH  23  24
ENDBRANCH   1  23
TORSDOF 18
ENDMDL
