MODEL 1
REMARK VINA RESULT:     -13.0      0.000      0.000
REMARK SMILES O=C(CCN1C(=O)/C(=C2/C(=O)N(Cc3ccccc3)c3ccccc32)SC1=S)NCCCNC(=O)c1ccc(-c2c3nc(c(-c4cccc(S(=O)(=O)[O-])c4F)c4ccc([nH]4)c(-c4cccc(S(=O)(=O)[O-])c4F)c4nc(c(-c5cccc(S(=O)(=O)[O-])c5F)c5ccc2[nH]5)C=C4)C=C3)cc1
REMARK SMILES IDX 30 1 29 2 1 3 2 4 3 6 4 7 5 8 6 9 27 10 7 11 8 12 26 13
REMARK SMILES IDX 28 14 9 15 10 16 25 17 11 18 12 19 20 20 24 21 21 22 23 23
REMARK SMILES IDX 22 24 13 25 14 26 15 27 19 28 16 29 18 30 17 31 31 32 32 33
REMARK SMILES IDX 33 34 34 35 35 37 36 38 37 39 98 40 38 41 97 42 39 43 40 44
REMARK SMILES IDX 41 45 91 46 42 47 96 48 90 49 92 50 43 51 95 52 89 53 88 54
REMARK SMILES IDX 44 56 76 57 56 58 75 59 57 60 60 61 74 62 93 63 58 64 59 65
REMARK SMILES IDX 73 67 94 68 61 69 45 70 46 71 54 72 47 73 49 74 55 75 48 76
REMARK SMILES IDX 50 77 51 78 52 79 53 80 77 81 78 82 86 83 79 84 81 85 87 86
REMARK SMILES IDX 80 87 82 88 83 89 84 90 85 91 62 92 63 93 71 94 64 95 66 96
REMARK SMILES IDX 72 97 65 98 67 99 68 100 69 101 70 102
REMARK H PARENT 29 5 33 36 92 55 60 66
REMARK Flexibility Score: inf
ROOT
ATOM      1  C   UNL A   1      30.701  30.948  24.959  1.00  0.00     0.117 C 
ENDROOT
BRANCH   1   2
ATOM      2  N   UNL A   1      31.606  29.900  24.492  1.00  0.00    -0.356 N 
ATOM      3  O   UNL A   1      30.539  29.558  22.480  1.00  0.00    -0.275 OA
ATOM      4  C   UNL A   1      31.472  29.323  23.242  1.00  0.00     0.221 C 
ATOM      5  H   UNL A   1      32.333  29.596  25.084  1.00  0.00     0.163 HD
BRANCH   4   6
ATOM      6  C   UNL A   1      32.606  28.402  22.830  1.00  0.00     0.122 C 
BRANCH   6   7
ATOM      7  C   UNL A   1      32.102  26.963  22.632  1.00  0.00     0.137 C 
BRANCH   7   8
ATOM      8  N   UNL A   1      31.828  26.340  23.930  1.00  0.00    -0.292 N 
ATOM      9  C   UNL A   1      32.904  25.922  24.685  1.00  0.00     0.267 C 
ATOM     10  C   UNL A   1      30.596  26.077  24.478  1.00  0.00     0.148 C 
ATOM     11  O   UNL A   1      33.994  26.467  24.711  1.00  0.00    -0.268 OA
ATOM     12  C   UNL A   1      32.496  24.730  25.465  1.00  0.00     0.093 C 
ATOM     13  S   UNL A   1      30.822  24.986  25.849  1.00  0.00    -0.053 SA
ATOM     14  S   UNL A   1      29.105  26.616  23.972  1.00  0.00    -0.052 S 
ATOM     15  C   UNL A   1      33.219  23.596  25.538  1.00  0.00     0.069 C 
ATOM     16  C   UNL A   1      32.661  22.286  26.061  1.00  0.00     0.260 C 
ATOM     17  C   UNL A   1      34.578  23.278  25.044  1.00  0.00     0.012 A 
ATOM     18  O   UNL A   1      31.593  22.136  26.625  1.00  0.00    -0.269 OA
ATOM     19  N   UNL A   1      33.601  21.311  25.735  1.00  0.00    -0.303 N 
ATOM     20  C   UNL A   1      34.766  21.904  25.241  1.00  0.00     0.052 A 
ATOM     21  C   UNL A   1      35.616  24.016  24.501  1.00  0.00     0.011 A 
ATOM     22  C   UNL A   1      35.979  21.281  25.006  1.00  0.00     0.027 A 
ATOM     23  C   UNL A   1      36.832  23.388  24.208  1.00  0.00     0.001 A 
ATOM     24  C   UNL A   1      37.020  22.032  24.479  1.00  0.00     0.002 A 
BRANCH  19  25
ATOM     25  C   UNL A   1      33.450  19.882  25.976  1.00  0.00     0.161 C 
BRANCH  25  26
ATOM     26  C   UNL A   1      33.334  18.985  24.748  1.00  0.00    -0.028 A 
ATOM     27  C   UNL A   1      32.444  19.294  23.711  1.00  0.00     0.005 A 
ATOM     28  C   UNL A   1      34.154  17.867  24.549  1.00  0.00     0.005 A 
ATOM     29  C   UNL A   1      32.330  18.480  22.575  1.00  0.00     0.000 A 
ATOM     30  C   UNL A   1      34.041  17.042  23.427  1.00  0.00     0.000 A 
ATOM     31  C   UNL A   1      33.121  17.347  22.437  1.00  0.00     0.000 A 
ENDBRANCH  25  26
ENDBRANCH  19  25
ENDBRANCH   7   8
ENDBRANCH   6   7
ENDBRANCH   4   6
ENDBRANCH   1   2
BRANCH   1  32
ATOM     32  C   UNL A   1      30.888  31.327  26.438  1.00  0.00     0.042 C 
BRANCH  32  33
ATOM     33  C   UNL A   1      32.343  31.612  26.845  1.00  0.00     0.118 C 
BRANCH  33  34
ATOM     34  N   UNL A   1      32.583  32.910  27.456  1.00  0.00    -0.352 N 
ATOM     35  C   UNL A   1      33.722  33.512  27.966  1.00  0.00     0.251 C 
ATOM     36  H   UNL A   1      31.777  33.471  27.521  1.00  0.00     0.163 HD
ATOM     37  O   UNL A   1      33.632  34.666  28.382  1.00  0.00    -0.269 OA
BRANCH  35  38
ATOM     38  C   UNL A   1      35.032  32.815  28.099  1.00  0.00     0.039 A 
ATOM     39  C   UNL A   1      35.228  31.503  27.706  1.00  0.00     0.014 A 
ATOM     40  C   UNL A   1      36.159  33.520  28.523  1.00  0.00     0.014 A 
ATOM     41  C   UNL A   1      36.435  30.838  28.028  1.00  0.00     0.010 A 
ATOM     42  C   UNL A   1      37.387  32.856  28.766  1.00  0.00     0.010 A 
ATOM     43  C   UNL A   1      37.496  31.457  28.703  1.00  0.00    -0.014 A 
BRANCH  43  44
ATOM     44  C   UNL A   1      38.570  30.679  29.485  1.00  0.00     0.031 A 
ATOM     45  C   UNL A   1      38.709  30.880  31.008  1.00  0.00     0.074 A 
ATOM     46  C   UNL A   1      39.349  29.685  28.978  1.00  0.00     0.049 A 
ATOM     47  N   UNL A   1      39.635  30.439  31.834  1.00  0.00    -0.248 NA
ATOM     48  C   UNL A   1      37.670  31.667  31.694  1.00  0.00     0.031 C 
ATOM     49  C   UNL A   1      39.362  29.195  27.602  1.00  0.00     0.029 A 
ATOM     50  N   UNL A   1      40.296  28.877  29.599  1.00  0.00    -0.354 N 
ATOM     51  C   UNL A   1      39.320  30.952  33.092  1.00  0.00     0.074 A 
ATOM     52  C   UNL A   1      38.122  31.738  32.935  1.00  0.00     0.031 C 
ATOM     53  C   UNL A   1      40.183  28.137  27.501  1.00  0.00     0.029 A 
ATOM     54  C   UNL A   1      40.895  27.955  28.763  1.00  0.00     0.049 A 
ATOM     55  H   UNL A   1      40.520  28.955  30.555  1.00  0.00     0.167 HD
ATOM     56  C   UNL A   1      39.927  30.787  34.292  1.00  0.00     0.034 A 
ATOM     57  C   UNL A   1      41.940  27.109  28.924  1.00  0.00     0.034 A 
ATOM     58  C   UNL A   1      41.073  29.967  34.551  1.00  0.00     0.049 A 
ATOM     59  C   UNL A   1      42.720  27.068  30.211  1.00  0.00     0.074 A 
ATOM     60  C   UNL A   1      41.759  29.808  35.745  1.00  0.00     0.029 A 
ATOM     61  N   UNL A   1      41.697  29.160  33.622  1.00  0.00    -0.354 N 
ATOM     62  N   UNL A   1      42.443  27.626  31.360  1.00  0.00    -0.248 NA
ATOM     63  C   UNL A   1      43.977  26.294  30.212  1.00  0.00     0.031 C 
ATOM     64  C   UNL A   1      42.818  28.924  35.530  1.00  0.00     0.029 A 
ATOM     65  C   UNL A   1      42.773  28.518  34.209  1.00  0.00     0.049 A 
ATOM     66  H   UNL A   1      41.417  29.057  32.683  1.00  0.00     0.167 HD
ATOM     67  C   UNL A   1      43.480  27.268  32.217  1.00  0.00     0.074 A 
ATOM     68  C   UNL A   1      44.384  26.427  31.470  1.00  0.00     0.031 C 
ATOM     69  C   UNL A   1      43.662  27.634  33.508  1.00  0.00     0.034 A 
BRANCH  56  70
ATOM     70  C   UNL A   1      39.364  31.536  35.470  1.00  0.00     0.023 A 
ATOM     71  C   UNL A   1      38.350  30.954  36.254  1.00  0.00     0.012 A 
ATOM     72  C   UNL A   1      39.918  32.774  35.848  1.00  0.00     0.148 A 
ATOM     73  C   UNL A   1      37.890  31.600  37.400  1.00  0.00     0.002 A 
ATOM     74  C   UNL A   1      39.474  33.399  37.003  1.00  0.00     0.091 A 
ATOM     75  F   UNL A   1      40.878  33.304  35.074  1.00  0.00    -0.205 F 
ATOM     76  C   UNL A   1      38.457  32.816  37.780  1.00  0.00     0.022 A 
BRANCH  74  77
ATOM     77  S   UNL A   1      40.168  34.943  37.599  1.00  0.00     0.127 S 
ATOM     78  O   UNL A   1      41.598  34.637  37.609  1.00  0.00    -0.237 OA
ATOM     79  O   UNL A   1      39.752  35.887  36.563  1.00  0.00    -0.237 OA
ATOM     80  O   UNL A   1      39.579  35.172  38.912  1.00  0.00    -0.744 OA
ENDBRANCH  74  77
ENDBRANCH  56  70
BRANCH  57  81
ATOM     81  C   UNL A   1      42.386  26.256  27.780  1.00  0.00     0.023 A 
ATOM     82  C   UNL A   1      43.304  26.760  26.837  1.00  0.00     0.012 A 
ATOM     83  C   UNL A   1      41.905  24.939  27.632  1.00  0.00     0.148 A 
ATOM     84  C   UNL A   1      43.740  25.963  25.775  1.00  0.00     0.002 A 
ATOM     85  C   UNL A   1      42.391  24.132  26.612  1.00  0.00     0.091 A 
ATOM     86  F   UNL A   1      40.999  24.496  28.515  1.00  0.00    -0.205 F 
ATOM     87  C   UNL A   1      43.298  24.646  25.674  1.00  0.00     0.022 A 
BRANCH  85  88
ATOM     88  S   UNL A   1      41.975  22.391  26.483  1.00  0.00     0.127 S 
ATOM     89  O   UNL A   1      40.530  22.442  26.276  1.00  0.00    -0.237 OA
ATOM     90  O   UNL A   1      42.755  21.989  25.312  1.00  0.00    -0.237 OA
ATOM     91  O   UNL A   1      42.410  21.786  27.735  1.00  0.00    -0.744 OA
ENDBRANCH  85  88
ENDBRANCH  57  81
BRANCH  69  92
ATOM     92  C   UNL A   1      44.866  27.127  34.253  1.00  0.00     0.023 A 
ATOM     93  C   UNL A   1      46.053  27.885  34.253  1.00  0.00     0.012 A 
ATOM     94  C   UNL A   1      44.775  25.981  35.069  1.00  0.00     0.148 A 
ATOM     95  C   UNL A   1      47.134  27.508  35.050  1.00  0.00     0.002 A 
ATOM     96  C   UNL A   1      45.844  25.630  35.886  1.00  0.00     0.091 A 
ATOM     97  F   UNL A   1      43.638  25.272  35.046  1.00  0.00    -0.205 F 
ATOM     98  C   UNL A   1      47.025  26.390  35.876  1.00  0.00     0.022 A 
BRANCH  96  99
ATOM     99  S   UNL A   1      45.769  24.254  37.041  1.00  0.00     0.127 S 
ATOM    100  O   UNL A   1      47.132  24.236  37.570  1.00  0.00    -0.237 OA
ATOM    101  O   UNL A   1      44.751  24.701  37.991  1.00  0.00    -0.237 OA
ATOM    102  O   UNL A   1      45.396  23.086  36.253  1.00  0.00    -0.744 OA
ENDBRANCH  96  99
ENDBRANCH  69  92
ENDBRANCH  43  44
ENDBRANCH  35  38
ENDBRANCH  33  34
ENDBRANCH  32  33
ENDBRANCH   1  32
TORSDOF 17
ENDMDL
MODEL 2
REMARK VINA RESULT:     -12.5      2.724      3.309
REMARK SMILES O=C(CCN1C(=O)/C(=C2/C(=O)N(Cc3ccccc3)c3ccccc32)SC1=S)NCCCNC(=O)c1ccc(-c2c3nc(c(-c4cccc(S(=O)(=O)[O-])c4F)c4ccc([nH]4)c(-c4cccc(S(=O)(=O)[O-])c4F)c4nc(c(-c5cccc(S(=O)(=O)[O-])c5F)c5ccc2[nH]5)C=C4)C=C3)cc1
REMARK SMILES IDX 30 1 29 2 1 3 2 4 3 6 4 7 5 8 6 9 27 10 7 11 8 12 26 13
REMARK SMILES IDX 28 14 9 15 10 16 25 17 11 18 12 19 20 20 24 21 21 22 23 23
REMARK SMILES IDX 22 24 13 25 14 26 15 27 19 28 16 29 18 30 17 31 31 32 32 33
REMARK SMILES IDX 33 34 34 35 35 37 36 38 37 39 98 40 38 41 97 42 39 43 40 44
REMARK SMILES IDX 41 45 91 46 42 47 96 48 90 49 92 50 43 51 95 52 89 53 88 54
REMARK SMILES IDX 44 56 76 57 56 58 75 59 57 60 60 61 74 62 93 63 58 64 59 65
REMARK SMILES IDX 73 67 94 68 61 69 45 70 46 71 54 72 47 73 49 74 55 75 48 76
REMARK SMILES IDX 50 77 51 78 52 79 53 80 77 81 78 82 86 83 79 84 81 85 87 86
REMARK SMILES IDX 80 87 82 88 83 89 84 90 85 91 62 92 63 93 71 94 64 95 66 96
REMARK SMILES IDX 72 97 65 98 67 99 68 100 69 101 70 102
REMARK H PARENT 29 5 33 36 92 55 60 66
REMARK Flexibility Score: inf
ROOT
ATOM      1  C   UNL A   1      31.480  30.440  25.641  1.00  0.00     0.117 C 
ENDROOT
BRANCH   1   2
ATOM      2  N   UNL A   1      32.082  29.475  24.724  1.00  0.00    -0.356 N 
ATOM      3  O   UNL A   1      30.419  29.601  23.136  1.00  0.00    -0.275 OA
ATOM      4  C   UNL A   1      31.511  29.175  23.501  1.00  0.00     0.221 C 
ATOM      5  H   UNL A   1      32.919  29.024  24.985  1.00  0.00     0.163 HD
BRANCH   4   6
ATOM      6  C   UNL A   1      32.360  28.313  22.584  1.00  0.00     0.122 C 
BRANCH   6   7
ATOM      7  C   UNL A   1      31.778  26.894  22.468  1.00  0.00     0.137 C 
BRANCH   7   8
ATOM      8  N   UNL A   1      31.586  26.315  23.799  1.00  0.00    -0.292 N 
ATOM      9  C   UNL A   1      32.710  25.941  24.508  1.00  0.00     0.267 C 
ATOM     10  C   UNL A   1      30.392  26.053  24.424  1.00  0.00     0.148 C 
ATOM     11  O   UNL A   1      33.790  26.503  24.453  1.00  0.00    -0.268 OA
ATOM     12  C   UNL A   1      32.366  24.772  25.351  1.00  0.00     0.093 C 
ATOM     13  S   UNL A   1      30.712  25.016  25.819  1.00  0.00    -0.053 SA
ATOM     14  S   UNL A   1      28.866  26.550  23.984  1.00  0.00    -0.052 S 
ATOM     15  C   UNL A   1      33.112  23.653  25.423  1.00  0.00     0.069 C 
ATOM     16  C   UNL A   1      32.606  22.354  26.023  1.00  0.00     0.260 C 
ATOM     17  C   UNL A   1      34.447  23.338  24.867  1.00  0.00     0.012 A 
ATOM     18  O   UNL A   1      31.574  22.208  26.650  1.00  0.00    -0.269 OA
ATOM     19  N   UNL A   1      33.544  21.382  25.679  1.00  0.00    -0.303 N 
ATOM     20  C   UNL A   1      34.669  21.975  25.101  1.00  0.00     0.052 A 
ATOM     21  C   UNL A   1      35.441  24.072  24.241  1.00  0.00     0.011 A 
ATOM     22  C   UNL A   1      35.878  21.363  24.820  1.00  0.00     0.027 A 
ATOM     23  C   UNL A   1      36.650  23.453  23.902  1.00  0.00     0.001 A 
ATOM     24  C   UNL A   1      36.876  22.111  24.210  1.00  0.00     0.002 A 
BRANCH  19  25
ATOM     25  C   UNL A   1      33.432  19.961  25.979  1.00  0.00     0.161 C 
BRANCH  25  26
ATOM     26  C   UNL A   1      33.328  19.013  24.789  1.00  0.00    -0.028 A 
ATOM     27  C   UNL A   1      32.442  19.272  23.735  1.00  0.00     0.005 A 
ATOM     28  C   UNL A   1      34.157  17.893  24.641  1.00  0.00     0.005 A 
ATOM     29  C   UNL A   1      32.340  18.411  22.634  1.00  0.00     0.000 A 
ATOM     30  C   UNL A   1      34.056  17.021  23.554  1.00  0.00     0.000 A 
ATOM     31  C   UNL A   1      33.140  17.278  22.548  1.00  0.00     0.000 A 
ENDBRANCH  25  26
ENDBRANCH  19  25
ENDBRANCH   7   8
ENDBRANCH   6   7
ENDBRANCH   4   6
ENDBRANCH   1   2
BRANCH   1  32
ATOM     32  C   UNL A   1      32.100  30.442  27.048  1.00  0.00     0.042 C 
BRANCH  32  33
ATOM     33  C   UNL A   1      33.415  31.230  27.165  1.00  0.00     0.118 C 
BRANCH  33  34
ATOM     34  N   UNL A   1      33.664  31.850  28.458  1.00  0.00    -0.352 N 
ATOM     35  C   UNL A   1      34.754  31.833  29.313  1.00  0.00     0.251 C 
ATOM     36  H   UNL A   1      32.909  32.387  28.790  1.00  0.00     0.163 HD
ATOM     37  O   UNL A   1      34.697  32.510  30.339  1.00  0.00    -0.269 OA
BRANCH  35  38
ATOM     38  C   UNL A   1      35.961  30.988  29.092  1.00  0.00     0.039 A 
ATOM     39  C   UNL A   1      35.956  29.614  29.253  1.00  0.00     0.014 A 
ATOM     40  C   UNL A   1      37.130  31.559  28.587  1.00  0.00     0.014 A 
ATOM     41  C   UNL A   1      37.170  28.890  29.212  1.00  0.00     0.010 A 
ATOM     42  C   UNL A   1      38.322  30.802  28.476  1.00  0.00     0.010 A 
ATOM     43  C   UNL A   1      38.414  29.489  28.969  1.00  0.00    -0.014 A 
BRANCH  43  44
ATOM     44  C   UNL A   1      39.753  28.862  29.394  1.00  0.00     0.031 A 
ATOM     45  C   UNL A   1      40.437  29.318  30.700  1.00  0.00     0.074 A 
ATOM     46  C   UNL A   1      40.354  27.801  28.790  1.00  0.00     0.049 A 
ATOM     47  N   UNL A   1      41.632  29.029  31.170  1.00  0.00    -0.248 NA
ATOM     48  C   UNL A   1      39.676  30.203  31.599  1.00  0.00     0.031 C 
ATOM     49  C   UNL A   1      39.887  27.085  27.604  1.00  0.00     0.029 A 
ATOM     50  N   UNL A   1      41.518  27.115  29.121  1.00  0.00    -0.354 N 
ATOM     51  C   UNL A   1      41.774  29.745  32.358  1.00  0.00     0.074 A 
ATOM     52  C   UNL A   1      40.552  30.486  32.548  1.00  0.00     0.031 C 
ATOM     53  C   UNL A   1      40.683  26.031  27.364  1.00  0.00     0.029 A 
ATOM     54  C   UNL A   1      41.825  26.069  28.273  1.00  0.00     0.049 A 
ATOM     55  H   UNL A   1      42.077  27.355  29.896  1.00  0.00     0.167 HD
ATOM     56  C   UNL A   1      42.795  29.789  33.248  1.00  0.00     0.034 A 
ATOM     57  C   UNL A   1      42.911  25.269  28.153  1.00  0.00     0.034 A 
ATOM     58  C   UNL A   1      44.009  29.032  33.175  1.00  0.00     0.049 A 
ATOM     59  C   UNL A   1      44.115  25.450  29.038  1.00  0.00     0.074 A 
ATOM     60  C   UNL A   1      45.100  29.081  34.028  1.00  0.00     0.029 A 
ATOM     61  N   UNL A   1      44.296  28.083  32.215  1.00  0.00    -0.354 N 
ATOM     62  N   UNL A   1      44.249  26.193  30.105  1.00  0.00    -0.248 NA
ATOM     63  C   UNL A   1      45.333  24.696  28.681  1.00  0.00     0.031 C 
ATOM     64  C   UNL A   1      46.062  28.180  33.567  1.00  0.00     0.029 A 
ATOM     65  C   UNL A   1      45.555  27.556  32.441  1.00  0.00     0.049 A 
ATOM     66  H   UNL A   1      43.694  27.821  31.481  1.00  0.00     0.167 HD
ATOM     67  C   UNL A   1      45.554  25.992  30.549  1.00  0.00     0.074 A 
ATOM     68  C   UNL A   1      46.170  25.042  29.653  1.00  0.00     0.031 C 
ATOM     69  C   UNL A   1      46.178  26.572  31.601  1.00  0.00     0.034 A 
BRANCH  56  70
ATOM     70  C   UNL A   1      42.662  30.723  34.420  1.00  0.00     0.023 A 
ATOM     71  C   UNL A   1      42.223  30.231  35.665  1.00  0.00     0.012 A 
ATOM     72  C   UNL A   1      43.069  32.065  34.302  1.00  0.00     0.148 A 
ATOM     73  C   UNL A   1      42.187  31.069  36.778  1.00  0.00     0.002 A 
ATOM     74  C   UNL A   1      43.054  32.887  35.419  1.00  0.00     0.091 A 
ATOM     75  F   UNL A   1      43.474  32.503  33.100  1.00  0.00    -0.205 F 
ATOM     76  C   UNL A   1      42.610  32.392  36.658  1.00  0.00     0.022 A 
BRANCH  74  77
ATOM     77  S   UNL A   1      43.618  34.590  35.379  1.00  0.00     0.127 S 
ATOM     78  O   UNL A   1      43.382  35.010  36.760  1.00  0.00    -0.237 OA
ATOM     79  O   UNL A   1      45.028  34.437  35.019  1.00  0.00    -0.237 OA
ATOM     80  O   UNL A   1      42.798  35.265  34.382  1.00  0.00    -0.744 OA
ENDBRANCH  74  77
ENDBRANCH  56  70
BRANCH  57  81
ATOM     81  C   UNL A   1      42.956  24.237  27.072  1.00  0.00     0.023 A 
ATOM     82  C   UNL A   1      43.677  24.485  25.888  1.00  0.00     0.012 A 
ATOM     83  C   UNL A   1      42.289  23.005  27.223  1.00  0.00     0.148 A 
ATOM     84  C   UNL A   1      43.740  23.519  24.880  1.00  0.00     0.002 A 
ATOM     85  C   UNL A   1      42.408  22.026  26.246  1.00  0.00     0.091 A 
ATOM     86  F   UNL A   1      41.572  22.809  28.338  1.00  0.00    -0.205 F 
ATOM     87  C   UNL A   1      43.122  22.286  25.067  1.00  0.00     0.022 A 
BRANCH  85  88
ATOM     88  S   UNL A   1      41.755  20.368  26.461  1.00  0.00     0.127 S 
ATOM     89  O   UNL A   1      42.310  19.993  27.760  1.00  0.00    -0.237 OA
ATOM     90  O   UNL A   1      40.313  20.618  26.453  1.00  0.00    -0.237 OA
ATOM     91  O   UNL A   1      42.242  19.600  25.324  1.00  0.00    -0.744 OA
ENDBRANCH  85  88
ENDBRANCH  57  81
BRANCH  69  92
ATOM     92  C   UNL A   1      47.605  26.205  31.902  1.00  0.00     0.023 A 
ATOM     93  C   UNL A   1      47.883  25.271  32.918  1.00  0.00     0.012 A 
ATOM     94  C   UNL A   1      48.653  26.672  31.083  1.00  0.00     0.148 A 
ATOM     95  C   UNL A   1      49.184  24.810  33.119  1.00  0.00     0.002 A 
ATOM     96  C   UNL A   1      49.942  26.183  31.267  1.00  0.00     0.091 A 
ATOM     97  F   UNL A   1      48.366  27.566  30.128  1.00  0.00    -0.205 F 
ATOM     98  C   UNL A   1      50.210  25.255  32.287  1.00  0.00     0.022 A 
BRANCH  96  99
ATOM     99  S   UNL A   1      51.313  26.636  30.197  1.00  0.00     0.127 S 
ATOM    100  O   UNL A   1      52.451  26.060  30.911  1.00  0.00    -0.237 OA
ATOM    101  O   UNL A   1      50.969  25.958  28.947  1.00  0.00    -0.237 OA
ATOM    102  O   UNL A   1      51.302  28.092  30.121  1.00  0.00    -0.744 OA
ENDBRANCH  96  99
ENDBRANCH  69  92
ENDBRANCH  43  44
ENDBRANCH  35  38
ENDBRANCH  33  34
ENDBRANCH  32  33
ENDBRANCH   1  32
TORSDOF 17
ENDMDL
MODEL 3
REMARK VINA RESULT:     -11.9      3.608      5.246
REMARK SMILES O=C(CCN1C(=O)/C(=C2/C(=O)N(Cc3ccccc3)c3ccccc32)SC1=S)NCCCNC(=O)c1ccc(-c2c3nc(c(-c4cccc(S(=O)(=O)[O-])c4F)c4ccc([nH]4)c(-c4cccc(S(=O)(=O)[O-])c4F)c4nc(c(-c5cccc(S(=O)(=O)[O-])c5F)c5ccc2[nH]5)C=C4)C=C3)cc1
REMARK SMILES IDX 30 1 29 2 1 3 2 4 3 6 4 7 5 8 6 9 27 10 7 11 8 12 26 13
REMARK SMILES IDX 28 14 9 15 10 16 25 17 11 18 12 19 20 20 24 21 21 22 23 23
REMARK SMILES IDX 22 24 13 25 14 26 15 27 19 28 16 29 18 30 17 31 31 32 32 33
REMARK SMILES IDX 33 34 34 35 35 37 36 38 37 39 98 40 38 41 97 42 39 43 40 44
REMARK SMILES IDX 41 45 91 46 42 47 96 48 90 49 92 50 43 51 95 52 89 53 88 54
REMARK SMILES IDX 44 56 76 57 56 58 75 59 57 60 60 61 74 62 93 63 58 64 59 65
REMARK SMILES IDX 73 67 94 68 61 69 45 70 46 71 54 72 47 73 49 74 55 75 48 76
REMARK SMILES IDX 50 77 51 78 52 79 53 80 77 81 78 82 86 83 79 84 81 85 87 86
REMARK SMILES IDX 80 87 82 88 83 89 84 90 85 91 62 92 63 93 71 94 64 95 66 96
REMARK SMILES IDX 72 97 65 98 67 99 68 100 69 101 70 102
REMARK H PARENT 29 5 33 36 92 55 60 66
REMARK Flexibility Score: inf
ROOT
ATOM      1  C   UNL A   1      33.895  31.619  28.049  1.00  0.00     0.117 C 
ENDROOT
BRANCH   1   2
ATOM      2  N   UNL A   1      33.925  30.281  27.461  1.00  0.00    -0.356 N 
ATOM      3  O   UNL A   1      31.644  30.098  27.197  1.00  0.00    -0.275 OA
ATOM      4  C   UNL A   1      32.773  29.648  27.029  1.00  0.00     0.221 C 
ATOM      5  H   UNL A   1      34.789  29.816  27.371  1.00  0.00     0.163 HD
BRANCH   4   6
ATOM      6  C   UNL A   1      32.995  28.358  26.260  1.00  0.00     0.122 C 
BRANCH   6   7
ATOM      7  C   UNL A   1      31.806  28.060  25.330  1.00  0.00     0.137 C 
BRANCH   7   8
ATOM      8  N   UNL A   1      32.212  27.133  24.271  1.00  0.00    -0.292 N 
ATOM      9  C   UNL A   1      31.970  25.788  24.464  1.00  0.00     0.267 C 
ATOM     10  C   UNL A   1      32.858  27.445  23.100  1.00  0.00     0.148 C 
ATOM     11  O   UNL A   1      31.020  25.329  25.074  1.00  0.00    -0.268 OA
ATOM     12  C   UNL A   1      33.038  25.017  23.786  1.00  0.00     0.093 C 
ATOM     13  S   UNL A   1      33.449  25.944  22.377  1.00  0.00    -0.053 SA
ATOM     14  S   UNL A   1      33.120  28.947  22.435  1.00  0.00    -0.052 S 
ATOM     15  C   UNL A   1      33.716  24.005  24.363  1.00  0.00     0.069 C 
ATOM     16  C   UNL A   1      35.004  23.438  23.796  1.00  0.00     0.260 C 
ATOM     17  C   UNL A   1      33.516  23.318  25.658  1.00  0.00     0.012 A 
ATOM     18  O   UNL A   1      35.478  23.688  22.704  1.00  0.00    -0.269 OA
ATOM     19  N   UNL A   1      35.530  22.614  24.790  1.00  0.00    -0.303 N 
ATOM     20  C   UNL A   1      34.609  22.458  25.829  1.00  0.00     0.052 A 
ATOM     21  C   UNL A   1      32.532  23.338  26.633  1.00  0.00     0.011 A 
ATOM     22  C   UNL A   1      34.689  21.562  26.881  1.00  0.00     0.027 A 
ATOM     23  C   UNL A   1      32.627  22.474  27.730  1.00  0.00     0.001 A 
ATOM     24  C   UNL A   1      33.688  21.576  27.843  1.00  0.00     0.002 A 
BRANCH  19  25
ATOM     25  C   UNL A   1      36.805  21.915  24.716  1.00  0.00     0.161 C 
BRANCH  25  26
ATOM     26  C   UNL A   1      37.940  22.460  25.576  1.00  0.00    -0.028 A 
ATOM     27  C   UNL A   1      37.899  23.766  26.082  1.00  0.00     0.005 A 
ATOM     28  C   UNL A   1      39.031  21.676  25.975  1.00  0.00     0.005 A 
ATOM     29  C   UNL A   1      38.933  24.278  26.877  1.00  0.00     0.000 A 
ATOM     30  C   UNL A   1      40.073  22.179  26.758  1.00  0.00     0.000 A 
ATOM     31  C   UNL A   1      40.027  23.488  27.207  1.00  0.00     0.000 A 
ENDBRANCH  25  26
ENDBRANCH  19  25
ENDBRANCH   7   8
ENDBRANCH   6   7
ENDBRANCH   4   6
ENDBRANCH   1   2
BRANCH   1  32
ATOM     32  C   UNL A   1      35.244  32.356  28.001  1.00  0.00     0.042 C 
BRANCH  32  33
ATOM     33  C   UNL A   1      35.139  33.886  28.098  1.00  0.00     0.118 C 
BRANCH  33  34
ATOM     34  N   UNL A   1      33.931  34.395  28.730  1.00  0.00    -0.352 N 
ATOM     35  C   UNL A   1      33.595  34.640  30.052  1.00  0.00     0.251 C 
ATOM     36  H   UNL A   1      33.211  34.607  28.093  1.00  0.00     0.163 HD
ATOM     37  O   UNL A   1      32.492  35.132  30.288  1.00  0.00    -0.269 OA
BRANCH  35  38
ATOM     38  C   UNL A   1      34.467  34.278  31.204  1.00  0.00     0.039 A 
ATOM     39  C   UNL A   1      35.089  35.222  32.002  1.00  0.00     0.014 A 
ATOM     40  C   UNL A   1      34.590  32.944  31.596  1.00  0.00     0.014 A 
ATOM     41  C   UNL A   1      36.050  34.821  32.959  1.00  0.00     0.010 A 
ATOM     42  C   UNL A   1      35.500  32.563  32.613  1.00  0.00     0.010 A 
ATOM     43  C   UNL A   1      36.393  33.482  33.189  1.00  0.00    -0.014 A 
BRANCH  43  44
ATOM     44  C   UNL A   1      37.725  33.046  33.825  1.00  0.00     0.031 A 
ATOM     45  C   UNL A   1      37.908  33.123  35.355  1.00  0.00     0.074 A 
ATOM     46  C   UNL A   1      38.752  32.440  33.169  1.00  0.00     0.049 A 
ATOM     47  N   UNL A   1      38.990  32.945  36.084  1.00  0.00    -0.248 NA
ATOM     48  C   UNL A   1      36.721  33.427  36.173  1.00  0.00     0.031 C 
ATOM     49  C   UNL A   1      38.821  32.131  31.743  1.00  0.00     0.029 A 
ATOM     50  N   UNL A   1      39.962  31.949  33.647  1.00  0.00    -0.354 N 
ATOM     51  C   UNL A   1      38.620  33.183  37.407  1.00  0.00     0.074 A 
ATOM     52  C   UNL A   1      37.218  33.520  37.395  1.00  0.00     0.031 C 
ATOM     53  C   UNL A   1      39.941  31.438  31.480  1.00  0.00     0.029 A 
ATOM     54  C   UNL A   1      40.770  31.383  32.681  1.00  0.00     0.049 A 
ATOM     55  H   UNL A   1      40.221  32.000  34.596  1.00  0.00     0.167 HD
ATOM     56  C   UNL A   1      39.340  33.115  38.553  1.00  0.00     0.034 A 
ATOM     57  C   UNL A   1      42.049  30.938  32.694  1.00  0.00     0.034 A 
ATOM     58  C   UNL A   1      40.713  32.719  38.663  1.00  0.00     0.049 A 
ATOM     59  C   UNL A   1      42.895  31.035  33.935  1.00  0.00     0.074 A 
ATOM     60  C   UNL A   1      41.503  32.683  39.801  1.00  0.00     0.029 A 
ATOM     61  N   UNL A   1      41.497  32.278  37.617  1.00  0.00    -0.354 N 
ATOM     62  N   UNL A   1      42.537  31.340  35.155  1.00  0.00    -0.248 NA
ATOM     63  C   UNL A   1      44.336  30.747  33.792  1.00  0.00     0.031 C 
ATOM     64  C   UNL A   1      42.779  32.247  39.437  1.00  0.00     0.029 A 
ATOM     65  C   UNL A   1      42.769  31.989  38.078  1.00  0.00     0.049 A 
ATOM     66  H   UNL A   1      41.196  32.183  36.684  1.00  0.00     0.167 HD
ATOM     67  C   UNL A   1      43.699  31.275  35.920  1.00  0.00     0.074 A 
ATOM     68  C   UNL A   1      44.772  30.881  35.040  1.00  0.00     0.031 C 
ATOM     69  C   UNL A   1      43.847  31.545  37.239  1.00  0.00     0.034 A 
BRANCH  56  70
ATOM     70  C   UNL A   1      38.652  33.496  39.836  1.00  0.00     0.023 A 
ATOM     71  C   UNL A   1      38.758  34.812  40.326  1.00  0.00     0.012 A 
ATOM     72  C   UNL A   1      37.822  32.569  40.493  1.00  0.00     0.148 A 
ATOM     73  C   UNL A   1      38.047  35.198  41.461  1.00  0.00     0.002 A 
ATOM     74  C   UNL A   1      37.099  32.966  41.608  1.00  0.00     0.091 A 
ATOM     75  F   UNL A   1      37.750  31.322  40.004  1.00  0.00    -0.205 F 
ATOM     76  C   UNL A   1      37.212  34.280  42.096  1.00  0.00     0.022 A 
BRANCH  74  77
ATOM     77  S   UNL A   1      35.965  31.873  42.469  1.00  0.00     0.127 S 
ATOM     78  O   UNL A   1      35.325  32.795  43.408  1.00  0.00    -0.237 OA
ATOM     79  O   UNL A   1      35.102  31.410  41.383  1.00  0.00    -0.237 OA
ATOM     80  O   UNL A   1      36.787  30.841  43.086  1.00  0.00    -0.744 OA
ENDBRANCH  74  77
ENDBRANCH  56  70
BRANCH  57  81
ATOM     81  C   UNL A   1      42.665  30.415  31.436  1.00  0.00     0.023 A 
ATOM     82  C   UNL A   1      43.361  31.286  30.575  1.00  0.00     0.012 A 
ATOM     83  C   UNL A   1      42.568  29.050  31.099  1.00  0.00     0.148 A 
ATOM     84  C   UNL A   1      43.956  30.802  29.407  1.00  0.00     0.002 A 
ATOM     85  C   UNL A   1      43.215  28.565  29.971  1.00  0.00     0.091 A 
ATOM     86  F   UNL A   1      41.863  28.249  31.910  1.00  0.00    -0.205 F 
ATOM     87  C   UNL A   1      43.899  29.442  29.115  1.00  0.00     0.022 A 
BRANCH  85  88
ATOM     88  S   UNL A   1      43.301  26.813  29.589  1.00  0.00     0.127 S 
ATOM     89  O   UNL A   1      41.906  26.505  29.282  1.00  0.00    -0.237 OA
ATOM     90  O   UNL A   1      44.204  26.807  28.439  1.00  0.00    -0.237 OA
ATOM     91  O   UNL A   1      43.837  26.174  30.783  1.00  0.00    -0.744 OA
ENDBRANCH  85  88
ENDBRANCH  57  81
BRANCH  69  92
ATOM     92  C   UNL A   1      45.207  31.410  37.868  1.00  0.00     0.023 A 
ATOM     93  C   UNL A   1      46.032  32.545  37.986  1.00  0.00     0.012 A 
ATOM     94  C   UNL A   1      45.601  30.199  38.470  1.00  0.00     0.148 A 
ATOM     95  C   UNL A   1      47.234  32.475  38.691  1.00  0.00     0.002 A 
ATOM     96  C   UNL A   1      46.784  30.145  39.200  1.00  0.00     0.091 A 
ATOM     97  F   UNL A   1      44.802  29.131  38.338  1.00  0.00    -0.205 F 
ATOM     98  C   UNL A   1      47.603  31.281  39.309  1.00  0.00     0.022 A 
BRANCH  96  99
ATOM     99  S   UNL A   1      47.304  28.676  40.095  1.00  0.00     0.127 S 
ATOM    100  O   UNL A   1      48.217  28.052  39.139  1.00  0.00    -0.237 OA
ATOM    101  O   UNL A   1      47.953  29.245  41.277  1.00  0.00    -0.237 OA
ATOM    102  O   UNL A   1      46.088  27.921  40.373  1.00  0.00    -0.744 OA
ENDBRANCH  96  99
ENDBRANCH  69  92
ENDBRANCH  43  44
ENDBRANCH  35  38
ENDBRANCH  33  34
ENDBRANCH  32  33
ENDBRANCH   1  32
TORSDOF 17
ENDMDL
