MODEL 1
REMARK VINA RESULT:     -13.2      0.000      0.000
REMARK SMILES [NH3+][C@H]1CN(C(=O)OCC2c3ccccc3-c3ccccc32)C[C@@H]1C(=O)NCCCNC(=O)c1ccc(-c2c3nc(c(-c4cccc(S(=O)(=O)[O-])c4F)c4ccc([nH]4)c(-c4cccc(S(=O)(=O)[O-])c4F)c4nc(c(-c5cccc(S(=O)(=O)[O-])c5F)c5ccc2[nH]5)C=C4)C=C3)cc1
REMARK SMILES IDX 27 1 26 2 24 3 25 4 23 6 2 7 3 8 4 9 22 10 1 11 5 15 6 16
REMARK SMILES IDX 7 17 8 18 9 19 10 20 21 21 11 22 15 23 16 24 20 25 12 26
REMARK SMILES IDX 14 27 17 28 19 29 13 30 18 31 28 32 29 33 30 34 31 35 32 37
REMARK SMILES IDX 33 38 34 39 95 40 35 41 94 42 36 43 37 44 38 45 88 46 39 47
REMARK SMILES IDX 93 48 87 49 89 50 40 51 92 52 86 53 85 54 41 56 73 57 53 58
REMARK SMILES IDX 72 59 54 60 57 61 71 62 90 63 55 64 56 65 70 67 91 68 58 69
REMARK SMILES IDX 42 70 43 71 51 72 44 73 46 74 52 75 45 76 47 77 48 78 49 79
REMARK SMILES IDX 50 80 74 81 75 82 83 83 76 84 78 85 84 86 77 87 79 88 80 89
REMARK SMILES IDX 81 90 82 91 59 92 60 93 68 94 61 95 63 96 69 97 62 98 64 99
REMARK SMILES IDX 65 100 66 101 67 102
REMARK H PARENT 26 5 1 12 1 13 1 14 30 36 89 55 57 66
REMARK Flexibility Score: inf
ROOT
ATOM      1  C   UNL A   1      31.998  30.463  26.030  1.00  0.00     0.117 C 
ENDROOT
BRANCH   1   2
ATOM      2  N   UNL A   1      31.775  29.416  27.008  1.00  0.00    -0.356 N 
ATOM      3  C   UNL A   1      31.631  28.076  26.825  1.00  0.00     0.231 C 
ATOM      4  O   UNL A   1      31.356  27.393  27.810  1.00  0.00    -0.274 OA
ATOM      5  H   UNL A   1      31.720  29.719  27.943  1.00  0.00     0.163 HD
BRANCH   3   6
ATOM      6  C   UNL A   1      31.819  27.499  25.436  1.00  0.00     0.158 C 
ATOM      7  C   UNL A   1      30.479  27.345  24.697  1.00  0.00     0.215 C 
ATOM      8  C   UNL A   1      29.990  25.932  25.105  1.00  0.00     0.188 C 
ATOM      9  N   UNL A   1      31.173  25.245  25.591  1.00  0.00    -0.301 N 
ATOM     10  C   UNL A   1      32.348  26.082  25.539  1.00  0.00     0.143 C 
BRANCH   7  11
ATOM     11  N   UNL A   1      30.686  27.464  23.241  1.00  0.00    -0.353 N 
ATOM     12  H   UNL A   1      31.622  27.135  23.003  1.00  0.00     0.344 HD
ATOM     13  H   UNL A   1      30.587  28.439  22.962  1.00  0.00     0.344 HD
ATOM     14  H   UNL A   1      29.992  26.898  22.751  1.00  0.00     0.344 HD
ENDBRANCH   7  11
BRANCH   9  15
ATOM     15  C   UNL A   1      31.181  24.062  26.282  1.00  0.00     0.410 C 
ATOM     16  O   UNL A   1      30.489  23.850  27.265  1.00  0.00    -0.224 OA
BRANCH  15  17
ATOM     17  O   UNL A   1      32.159  23.224  25.835  1.00  0.00    -0.448 OA
BRANCH  17  18
ATOM     18  C   UNL A   1      31.810  22.505  24.636  1.00  0.00     0.248 C 
BRANCH  18  19
ATOM     19  C   UNL A   1      33.050  22.022  23.846  1.00  0.00     0.088 C 
ATOM     20  C   UNL A   1      34.403  22.436  24.428  1.00  0.00    -0.029 A 
ATOM     21  C   UNL A   1      33.159  20.497  23.913  1.00  0.00    -0.029 A 
ATOM     22  C   UNL A   1      34.969  23.700  24.504  1.00  0.00     0.005 A 
ATOM     23  C   UNL A   1      35.098  21.310  24.913  1.00  0.00    -0.014 A 
ATOM     24  C   UNL A   1      34.358  20.120  24.559  1.00  0.00    -0.014 A 
ATOM     25  C   UNL A   1      32.275  19.543  23.432  1.00  0.00     0.005 A 
ATOM     26  C   UNL A   1      36.173  23.853  25.195  1.00  0.00     0.000 A 
ATOM     27  C   UNL A   1      36.303  21.456  25.584  1.00  0.00     0.009 A 
ATOM     28  C   UNL A   1      34.688  18.784  24.715  1.00  0.00     0.009 A 
ATOM     29  C   UNL A   1      32.608  18.196  23.594  1.00  0.00     0.000 A 
ATOM     30  C   UNL A   1      36.827  22.742  25.746  1.00  0.00     0.001 A 
ATOM     31  C   UNL A   1      33.805  17.819  24.225  1.00  0.00     0.001 A 
ENDBRANCH  18  19
ENDBRANCH  17  18
ENDBRANCH  15  17
ENDBRANCH   9  15
ENDBRANCH   3   6
ENDBRANCH   1   2
BRANCH   1  32
ATOM     32  C   UNL A   1      31.657  31.832  26.597  1.00  0.00     0.042 C 
BRANCH  32  33
ATOM     33  C   UNL A   1      32.835  32.543  27.251  1.00  0.00     0.118 C 
BRANCH  33  34
ATOM     34  N   UNL A   1      32.541  33.927  27.602  1.00  0.00    -0.352 N 
ATOM     35  C   UNL A   1      33.090  34.712  28.588  1.00  0.00     0.251 C 
ATOM     36  H   UNL A   1      31.849  34.362  27.054  1.00  0.00     0.163 HD
ATOM     37  O   UNL A   1      32.598  35.808  28.840  1.00  0.00    -0.269 OA
BRANCH  35  38
ATOM     38  C   UNL A   1      34.255  34.223  29.355  1.00  0.00     0.039 A 
ATOM     39  C   UNL A   1      34.039  33.455  30.502  1.00  0.00     0.014 A 
ATOM     40  C   UNL A   1      35.556  34.512  28.938  1.00  0.00     0.014 A 
ATOM     41  C   UNL A   1      35.131  32.922  31.193  1.00  0.00     0.010 A 
ATOM     42  C   UNL A   1      36.634  33.903  29.570  1.00  0.00     0.010 A 
ATOM     43  C   UNL A   1      36.436  33.112  30.711  1.00  0.00    -0.014 A 
BRANCH  43  44
ATOM     44  C   UNL A   1      37.613  32.505  31.382  1.00  0.00     0.031 A 
ATOM     45  C   UNL A   1      38.339  31.358  30.733  1.00  0.00     0.074 A 
ATOM     46  C   UNL A   1      37.966  32.913  32.617  1.00  0.00     0.049 A 
ATOM     47  N   UNL A   1      39.326  30.636  31.196  1.00  0.00    -0.248 NA
ATOM     48  C   UNL A   1      37.872  30.947  29.398  1.00  0.00     0.031 C 
ATOM     49  C   UNL A   1      37.306  33.973  33.381  1.00  0.00     0.029 A 
ATOM     50  N   UNL A   1      38.952  32.463  33.459  1.00  0.00    -0.354 N 
ATOM     51  C   UNL A   1      39.563  29.659  30.237  1.00  0.00     0.074 A 
ATOM     52  C   UNL A   1      38.594  29.859  29.183  1.00  0.00     0.031 C 
ATOM     53  C   UNL A   1      37.911  34.100  34.572  1.00  0.00     0.029 A 
ATOM     54  C   UNL A   1      38.974  33.104  34.675  1.00  0.00     0.049 A 
ATOM     55  H   UNL A   1      39.585  31.748  33.216  1.00  0.00     0.167 HD
ATOM     56  C   UNL A   1      40.515  28.695  30.222  1.00  0.00     0.034 A 
ATOM     57  C   UNL A   1      39.753  32.906  35.757  1.00  0.00     0.034 A 
ATOM     58  C   UNL A   1      41.498  28.522  31.258  1.00  0.00     0.049 A 
ATOM     59  C   UNL A   1      40.815  31.841  35.712  1.00  0.00     0.074 A 
ATOM     60  C   UNL A   1      42.561  27.638  31.294  1.00  0.00     0.029 A 
ATOM     61  N   UNL A   1      41.527  29.234  32.447  1.00  0.00    -0.354 N 
ATOM     62  N   UNL A   1      41.119  31.020  34.737  1.00  0.00    -0.248 NA
ATOM     63  C   UNL A   1      41.660  31.695  36.906  1.00  0.00     0.031 C 
ATOM     64  C   UNL A   1      43.207  27.785  32.526  1.00  0.00     0.029 A 
ATOM     65  C   UNL A   1      42.577  28.796  33.236  1.00  0.00     0.049 A 
ATOM     66  H   UNL A   1      40.893  29.946  32.695  1.00  0.00     0.167 HD
ATOM     67  C   UNL A   1      42.220  30.294  35.177  1.00  0.00     0.074 A 
ATOM     68  C   UNL A   1      42.531  30.777  36.507  1.00  0.00     0.031 C 
ATOM     69  C   UNL A   1      42.909  29.316  34.538  1.00  0.00     0.034 A 
BRANCH  56  70
ATOM     70  C   UNL A   1      40.547  27.766  29.034  1.00  0.00     0.023 A 
ATOM     71  C   UNL A   1      39.616  26.710  28.939  1.00  0.00     0.012 A 
ATOM     72  C   UNL A   1      41.486  27.951  28.002  1.00  0.00     0.148 A 
ATOM     73  C   UNL A   1      39.656  25.821  27.865  1.00  0.00     0.002 A 
ATOM     74  C   UNL A   1      41.485  27.094  26.907  1.00  0.00     0.091 A 
ATOM     75  F   UNL A   1      42.378  28.947  28.116  1.00  0.00    -0.205 F 
ATOM     76  C   UNL A   1      40.584  26.018  26.846  1.00  0.00     0.022 A 
BRANCH  74  77
ATOM     77  S   UNL A   1      42.582  27.319  25.504  1.00  0.00     0.127 S 
ATOM     78  O   UNL A   1      43.884  27.428  26.161  1.00  0.00    -0.237 OA
ATOM     79  O   UNL A   1      42.379  26.079  24.753  1.00  0.00    -0.237 OA
ATOM     80  O   UNL A   1      42.119  28.521  24.824  1.00  0.00    -0.744 OA
ENDBRANCH  74  77
ENDBRANCH  56  70
BRANCH  57  81
ATOM     81  C   UNL A   1      39.606  33.791  36.948  1.00  0.00     0.023 A 
ATOM     82  C   UNL A   1      40.064  35.120  36.876  1.00  0.00     0.012 A 
ATOM     83  C   UNL A   1      38.980  33.342  38.127  1.00  0.00     0.148 A 
ATOM     84  C   UNL A   1      39.928  35.979  37.966  1.00  0.00     0.002 A 
ATOM     85  C   UNL A   1      38.800  34.217  39.190  1.00  0.00     0.091 A 
ATOM     86  F   UNL A   1      38.553  32.072  38.174  1.00  0.00    -0.205 F 
ATOM     87  C   UNL A   1      39.287  35.532  39.119  1.00  0.00     0.022 A 
BRANCH  85  88
ATOM     88  S   UNL A   1      37.879  33.773  40.668  1.00  0.00     0.127 S 
ATOM     89  O   UNL A   1      38.791  32.836  41.319  1.00  0.00    -0.237 OA
ATOM     90  O   UNL A   1      37.745  35.068  41.336  1.00  0.00    -0.237 OA
ATOM     91  O   UNL A   1      36.625  33.202  40.198  1.00  0.00    -0.744 OA
ENDBRANCH  85  88
ENDBRANCH  57  81
BRANCH  69  92
ATOM     92  C   UNL A   1      44.111  28.731  35.233  1.00  0.00     0.023 A 
ATOM     93  C   UNL A   1      45.388  29.293  35.041  1.00  0.00     0.012 A 
ATOM     94  C   UNL A   1      43.952  27.671  36.149  1.00  0.00     0.148 A 
ATOM     95  C   UNL A   1      46.493  28.792  35.729  1.00  0.00     0.002 A 
ATOM     96  C   UNL A   1      45.046  27.213  36.871  1.00  0.00     0.091 A 
ATOM     97  F   UNL A   1      42.732  27.137  36.302  1.00  0.00    -0.205 F 
ATOM     98  C   UNL A   1      46.320  27.763  36.653  1.00  0.00     0.022 A 
BRANCH  96  99
ATOM     99  S   UNL A   1      44.901  25.965  38.154  1.00  0.00     0.127 S 
ATOM    100  O   UNL A   1      46.303  25.708  38.481  1.00  0.00    -0.237 OA
ATOM    101  O   UNL A   1      44.153  26.675  39.192  1.00  0.00    -0.237 OA
ATOM    102  O   UNL A   1      44.188  24.847  37.552  1.00  0.00    -0.744 OA
ENDBRANCH  96  99
ENDBRANCH  69  92
ENDBRANCH  43  44
ENDBRANCH  35  38
ENDBRANCH  33  34
ENDBRANCH  32  33
ENDBRANCH   1  32
TORSDOF 18
ENDMDL
MODEL 2
REMARK VINA RESULT:     -13.1      1.158      2.259
REMARK SMILES [NH3+][C@H]1CN(C(=O)OCC2c3ccccc3-c3ccccc32)C[C@@H]1C(=O)NCCCNC(=O)c1ccc(-c2c3nc(c(-c4cccc(S(=O)(=O)[O-])c4F)c4ccc([nH]4)c(-c4cccc(S(=O)(=O)[O-])c4F)c4nc(c(-c5cccc(S(=O)(=O)[O-])c5F)c5ccc2[nH]5)C=C4)C=C3)cc1
REMARK SMILES IDX 27 1 26 2 24 3 25 4 23 6 2 7 3 8 4 9 22 10 1 11 5 15 6 16
REMARK SMILES IDX 7 17 8 18 9 19 10 20 21 21 11 22 15 23 16 24 20 25 12 26
REMARK SMILES IDX 14 27 17 28 19 29 13 30 18 31 28 32 29 33 30 34 31 35 32 37
REMARK SMILES IDX 33 38 34 39 95 40 35 41 94 42 36 43 37 44 38 45 88 46 39 47
REMARK SMILES IDX 93 48 87 49 89 50 40 51 92 52 86 53 85 54 41 56 73 57 53 58
REMARK SMILES IDX 72 59 54 60 57 61 71 62 90 63 55 64 56 65 70 67 91 68 58 69
REMARK SMILES IDX 42 70 43 71 51 72 44 73 46 74 52 75 45 76 47 77 48 78 49 79
REMARK SMILES IDX 50 80 74 81 75 82 83 83 76 84 78 85 84 86 77 87 79 88 80 89
REMARK SMILES IDX 81 90 82 91 59 92 60 93 68 94 61 95 63 96 69 97 62 98 64 99
REMARK SMILES IDX 65 100 66 101 67 102
REMARK H PARENT 26 5 1 12 1 13 1 14 30 36 89 55 57 66
REMARK Flexibility Score: inf
ROOT
ATOM      1  C   UNL A   1      31.868  30.312  26.326  1.00  0.00     0.117 C 
ENDROOT
BRANCH   1   2
ATOM      2  N   UNL A   1      32.622  30.115  25.103  1.00  0.00    -0.356 N 
ATOM      3  C   UNL A   1      32.656  29.041  24.269  1.00  0.00     0.231 C 
ATOM      4  O   UNL A   1      33.452  29.072  23.332  1.00  0.00    -0.274 OA
ATOM      5  H   UNL A   1      33.195  30.869  24.837  1.00  0.00     0.163 HD
BRANCH   3   6
ATOM      6  C   UNL A   1      31.718  27.879  24.529  1.00  0.00     0.158 C 
ATOM      7  C   UNL A   1      32.225  26.985  25.673  1.00  0.00     0.215 C 
ATOM      8  C   UNL A   1      33.138  25.953  24.961  1.00  0.00     0.188 C 
ATOM      9  N   UNL A   1      32.751  26.001  23.564  1.00  0.00    -0.301 N 
ATOM     10  C   UNL A   1      31.698  26.960  23.324  1.00  0.00     0.143 C 
BRANCH   7  11
ATOM     11  N   UNL A   1      31.086  26.341  26.356  1.00  0.00    -0.353 N 
ATOM     12  H   UNL A   1      30.596  25.732  25.699  1.00  0.00     0.344 HD
ATOM     13  H   UNL A   1      30.446  27.057  26.699  1.00  0.00     0.344 HD
ATOM     14  H   UNL A   1      31.430  25.787  27.141  1.00  0.00     0.344 HD
ENDBRANCH   7  11
BRANCH   9  15
ATOM     15  C   UNL A   1      33.446  25.445  22.524  1.00  0.00     0.410 C 
ATOM     16  O   UNL A   1      33.163  25.624  21.349  1.00  0.00    -0.224 OA
BRANCH  15  17
ATOM     17  O   UNL A   1      34.382  24.555  22.961  1.00  0.00    -0.448 OA
BRANCH  17  18
ATOM     18  C   UNL A   1      33.921  23.190  22.992  1.00  0.00     0.248 C 
BRANCH  18  19
ATOM     19  C   UNL A   1      34.066  22.542  24.390  1.00  0.00     0.088 C 
ATOM     20  C   UNL A   1      33.825  21.032  24.443  1.00  0.00    -0.029 A 
ATOM     21  C   UNL A   1      35.519  22.622  24.863  1.00  0.00    -0.029 A 
ATOM     22  C   UNL A   1      32.642  20.331  24.264  1.00  0.00     0.005 A 
ATOM     23  C   UNL A   1      35.024  20.351  24.735  1.00  0.00    -0.014 A 
ATOM     24  C   UNL A   1      36.050  21.323  25.034  1.00  0.00    -0.014 A 
ATOM     25  C   UNL A   1      36.286  23.748  25.122  1.00  0.00     0.005 A 
ATOM     26  C   UNL A   1      32.688  18.936  24.237  1.00  0.00     0.000 A 
ATOM     27  C   UNL A   1      35.070  18.965  24.726  1.00  0.00     0.009 A 
ATOM     28  C   UNL A   1      37.348  21.142  25.482  1.00  0.00     0.009 A 
ATOM     29  C   UNL A   1      37.597  23.563  25.570  1.00  0.00     0.000 A 
ATOM     30  C   UNL A   1      33.897  18.258  24.449  1.00  0.00     0.001 A 
ATOM     31  C   UNL A   1      38.122  22.273  25.753  1.00  0.00     0.001 A 
ENDBRANCH  18  19
ENDBRANCH  17  18
ENDBRANCH  15  17
ENDBRANCH   9  15
ENDBRANCH   3   6
ENDBRANCH   1   2
BRANCH   1  32
ATOM     32  C   UNL A   1      31.636  31.789  26.602  1.00  0.00     0.042 C 
BRANCH  32  33
ATOM     33  C   UNL A   1      32.767  32.460  27.372  1.00  0.00     0.118 C 
BRANCH  33  34
ATOM     34  N   UNL A   1      32.505  33.865  27.659  1.00  0.00    -0.352 N 
ATOM     35  C   UNL A   1      33.084  34.686  28.597  1.00  0.00     0.251 C 
ATOM     36  H   UNL A   1      31.814  34.287  27.100  1.00  0.00     0.163 HD
ATOM     37  O   UNL A   1      32.617  35.803  28.802  1.00  0.00    -0.269 OA
BRANCH  35  38
ATOM     38  C   UNL A   1      34.251  34.212  29.371  1.00  0.00     0.039 A 
ATOM     39  C   UNL A   1      34.038  33.512  30.561  1.00  0.00     0.014 A 
ATOM     40  C   UNL A   1      35.551  34.447  28.918  1.00  0.00     0.014 A 
ATOM     41  C   UNL A   1      35.128  32.991  31.262  1.00  0.00     0.010 A 
ATOM     42  C   UNL A   1      36.625  33.849  29.564  1.00  0.00     0.010 A 
ATOM     43  C   UNL A   1      36.429  33.125  30.750  1.00  0.00    -0.014 A 
BRANCH  43  44
ATOM     44  C   UNL A   1      37.604  32.528  31.434  1.00  0.00     0.031 A 
ATOM     45  C   UNL A   1      38.344  31.384  30.795  1.00  0.00     0.074 A 
ATOM     46  C   UNL A   1      37.942  32.940  32.672  1.00  0.00     0.049 A 
ATOM     47  N   UNL A   1      39.332  30.670  31.269  1.00  0.00    -0.248 NA
ATOM     48  C   UNL A   1      37.894  30.967  29.456  1.00  0.00     0.031 C 
ATOM     49  C   UNL A   1      37.266  33.997  33.427  1.00  0.00     0.029 A 
ATOM     50  N   UNL A   1      38.922  32.498  33.525  1.00  0.00    -0.354 N 
ATOM     51  C   UNL A   1      39.585  29.693  30.314  1.00  0.00     0.074 A 
ATOM     52  C   UNL A   1      38.626  29.884  29.250  1.00  0.00     0.031 C 
ATOM     53  C   UNL A   1      37.858  34.130  34.624  1.00  0.00     0.029 A 
ATOM     54  C   UNL A   1      38.927  33.142  34.740  1.00  0.00     0.049 A 
ATOM     55  H   UNL A   1      39.562  31.788  33.289  1.00  0.00     0.167 HD
ATOM     56  C   UNL A   1      40.544  28.736  30.311  1.00  0.00     0.034 A 
ATOM     57  C   UNL A   1      39.696  32.952  35.830  1.00  0.00     0.034 A 
ATOM     58  C   UNL A   1      41.517  28.572  31.357  1.00  0.00     0.049 A 
ATOM     59  C   UNL A   1      40.766  31.894  35.798  1.00  0.00     0.074 A 
ATOM     60  C   UNL A   1      42.587  27.696  31.405  1.00  0.00     0.029 A 
ATOM     61  N   UNL A   1      41.530  29.286  32.545  1.00  0.00    -0.354 N 
ATOM     62  N   UNL A   1      41.086  31.074  34.827  1.00  0.00    -0.248 NA
ATOM     63  C   UNL A   1      41.601  31.756  37.000  1.00  0.00     0.031 C 
ATOM     64  C   UNL A   1      43.219  27.850  32.643  1.00  0.00     0.029 A 
ATOM     65  C   UNL A   1      42.575  28.857  33.345  1.00  0.00     0.049 A 
ATOM     66  H   UNL A   1      40.888  29.994  32.785  1.00  0.00     0.167 HD
ATOM     67  C   UNL A   1      42.188  30.356  35.280  1.00  0.00     0.074 A 
ATOM     68  C   UNL A   1      42.481  30.844  36.612  1.00  0.00     0.031 C 
ATOM     69  C   UNL A   1      42.890  29.382  34.649  1.00  0.00     0.034 A 
BRANCH  56  70
ATOM     70  C   UNL A   1      40.595  27.806  29.125  1.00  0.00     0.023 A 
ATOM     71  C   UNL A   1      39.721  26.699  29.058  1.00  0.00     0.012 A 
ATOM     72  C   UNL A   1      41.493  28.037  28.066  1.00  0.00     0.148 A 
ATOM     73  C   UNL A   1      39.782  25.809  27.986  1.00  0.00     0.002 A 
ATOM     74  C   UNL A   1      41.509  27.177  26.975  1.00  0.00     0.091 A 
ATOM     75  F   UNL A   1      42.332  29.081  28.153  1.00  0.00    -0.205 F 
ATOM     76  C   UNL A   1      40.669  26.053  26.942  1.00  0.00     0.022 A 
BRANCH  74  77
ATOM     77  S   UNL A   1      42.553  27.457  25.541  1.00  0.00     0.127 S 
ATOM     78  O   UNL A   1      42.248  26.285  24.720  1.00  0.00    -0.237 OA
ATOM     79  O   UNL A   1      42.027  28.719  25.019  1.00  0.00    -0.237 OA
ATOM     80  O   UNL A   1      43.917  27.531  26.047  1.00  0.00    -0.744 OA
ENDBRANCH  74  77
ENDBRANCH  56  70
BRANCH  57  81
ATOM     81  C   UNL A   1      39.530  33.837  37.017  1.00  0.00     0.023 A 
ATOM     82  C   UNL A   1      39.952  35.178  36.937  1.00  0.00     0.012 A 
ATOM     83  C   UNL A   1      38.923  33.377  38.202  1.00  0.00     0.148 A 
ATOM     84  C   UNL A   1      39.797  36.038  38.024  1.00  0.00     0.002 A 
ATOM     85  C   UNL A   1      38.724  34.252  39.262  1.00  0.00     0.091 A 
ATOM     86  F   UNL A   1      38.532  32.096  38.256  1.00  0.00    -0.205 F 
ATOM     87  C   UNL A   1      39.175  35.579  39.182  1.00  0.00     0.022 A 
BRANCH  85  88
ATOM     88  S   UNL A   1      37.824  33.789  40.746  1.00  0.00     0.127 S 
ATOM     89  O   UNL A   1      37.662  35.079  41.413  1.00  0.00    -0.237 OA
ATOM     90  O   UNL A   1      36.595  33.226  40.185  1.00  0.00    -0.237 OA
ATOM     91  O   UNL A   1      38.668  32.827  41.440  1.00  0.00    -0.744 OA
ENDBRANCH  85  88
ENDBRANCH  57  81
BRANCH  69  92
ATOM     92  C   UNL A   1      44.089  28.807  35.357  1.00  0.00     0.023 A 
ATOM     93  C   UNL A   1      45.368  29.364  35.160  1.00  0.00     0.012 A 
ATOM     94  C   UNL A   1      43.926  27.762  36.291  1.00  0.00     0.148 A 
ATOM     95  C   UNL A   1      46.470  28.872  35.859  1.00  0.00     0.002 A 
ATOM     96  C   UNL A   1      45.017  27.315  37.023  1.00  0.00     0.091 A 
ATOM     97  F   UNL A   1      42.704  27.233  36.449  1.00  0.00    -0.205 F 
ATOM     98  C   UNL A   1      46.293  27.859  36.800  1.00  0.00     0.022 A 
BRANCH  96  99
ATOM     99  S   UNL A   1      44.866  26.088  38.327  1.00  0.00     0.127 S 
ATOM    100  O   UNL A   1      44.432  24.909  37.578  1.00  0.00    -0.237 OA
ATOM    101  O   UNL A   1      46.234  26.015  38.842  1.00  0.00    -0.237 OA
ATOM    102  O   UNL A   1      43.892  26.619  39.270  1.00  0.00    -0.744 OA
ENDBRANCH  96  99
ENDBRANCH  69  92
ENDBRANCH  43  44
ENDBRANCH  35  38
ENDBRANCH  33  34
ENDBRANCH  32  33
ENDBRANCH   1  32
TORSDOF 18
ENDMDL
MODEL 3
REMARK VINA RESULT:     -13.0      1.535      2.126
REMARK SMILES [NH3+][C@H]1CN(C(=O)OCC2c3ccccc3-c3ccccc32)C[C@@H]1C(=O)NCCCNC(=O)c1ccc(-c2c3nc(c(-c4cccc(S(=O)(=O)[O-])c4F)c4ccc([nH]4)c(-c4cccc(S(=O)(=O)[O-])c4F)c4nc(c(-c5cccc(S(=O)(=O)[O-])c5F)c5ccc2[nH]5)C=C4)C=C3)cc1
REMARK SMILES IDX 27 1 26 2 24 3 25 4 23 6 2 7 3 8 4 9 22 10 1 11 5 15 6 16
REMARK SMILES IDX 7 17 8 18 9 19 10 20 21 21 11 22 15 23 16 24 20 25 12 26
REMARK SMILES IDX 14 27 17 28 19 29 13 30 18 31 28 32 29 33 30 34 31 35 32 37
REMARK SMILES IDX 33 38 34 39 95 40 35 41 94 42 36 43 37 44 38 45 88 46 39 47
REMARK SMILES IDX 93 48 87 49 89 50 40 51 92 52 86 53 85 54 41 56 73 57 53 58
REMARK SMILES IDX 72 59 54 60 57 61 71 62 90 63 55 64 56 65 70 67 91 68 58 69
REMARK SMILES IDX 42 70 43 71 51 72 44 73 46 74 52 75 45 76 47 77 48 78 49 79
REMARK SMILES IDX 50 80 74 81 75 82 83 83 76 84 78 85 84 86 77 87 79 88 80 89
REMARK SMILES IDX 81 90 82 91 59 92 60 93 68 94 61 95 63 96 69 97 62 98 64 99
REMARK SMILES IDX 65 100 66 101 67 102
REMARK H PARENT 26 5 1 12 1 13 1 14 30 36 89 55 57 66
REMARK Flexibility Score: inf
ROOT
ATOM      1  C   UNL A   1      31.168  30.909  26.237  1.00  0.00     0.117 C 
ENDROOT
BRANCH   1   2
ATOM      2  N   UNL A   1      31.007  30.488  24.858  1.00  0.00    -0.356 N 
ATOM      3  C   UNL A   1      31.320  29.302  24.272  1.00  0.00     0.231 C 
ATOM      4  O   UNL A   1      31.174  29.212  23.054  1.00  0.00    -0.274 OA
ATOM      5  H   UNL A   1      30.611  31.160  24.258  1.00  0.00     0.163 HD
BRANCH   3   6
ATOM      6  C   UNL A   1      31.823  28.163  25.138  1.00  0.00     0.158 C 
ATOM      7  C   UNL A   1      33.311  28.330  25.489  1.00  0.00     0.215 C 
ATOM      8  C   UNL A   1      34.049  27.628  24.321  1.00  0.00     0.188 C 
ATOM      9  N   UNL A   1      33.055  26.769  23.704  1.00  0.00    -0.301 N 
ATOM     10  C   UNL A   1      31.771  26.866  24.357  1.00  0.00     0.143 C 
BRANCH   7  11
ATOM     11  N   UNL A   1      33.599  27.696  26.790  1.00  0.00    -0.353 N 
ATOM     12  H   UNL A   1      33.811  28.418  27.480  1.00  0.00     0.344 HD
ATOM     13  H   UNL A   1      34.399  27.072  26.694  1.00  0.00     0.344 HD
ATOM     14  H   UNL A   1      32.785  27.162  27.097  1.00  0.00     0.344 HD
ENDBRANCH   7  11
BRANCH   9  15
ATOM     15  C   UNL A   1      33.182  26.145  22.491  1.00  0.00     0.410 C 
ATOM     16  O   UNL A   1      33.838  26.596  21.565  1.00  0.00    -0.224 OA
BRANCH  15  17
ATOM     17  O   UNL A   1      32.370  25.054  22.398  1.00  0.00    -0.448 OA
BRANCH  17  18
ATOM     18  C   UNL A   1      33.047  23.857  21.967  1.00  0.00     0.248 C 
BRANCH  18  19
ATOM     19  C   UNL A   1      33.386  22.906  23.140  1.00  0.00     0.088 C 
ATOM     20  C   UNL A   1      34.778  23.085  23.749  1.00  0.00    -0.029 A 
ATOM     21  C   UNL A   1      32.498  23.217  24.347  1.00  0.00    -0.029 A 
ATOM     22  C   UNL A   1      36.016  22.804  23.192  1.00  0.00     0.005 A 
ATOM     23  C   UNL A   1      34.682  23.592  25.060  1.00  0.00    -0.014 A 
ATOM     24  C   UNL A   1      33.289  23.633  25.443  1.00  0.00    -0.014 A 
ATOM     25  C   UNL A   1      31.119  23.127  24.455  1.00  0.00     0.005 A 
ATOM     26  C   UNL A   1      37.165  23.166  23.897  1.00  0.00     0.000 A 
ATOM     27  C   UNL A   1      35.822  23.937  25.772  1.00  0.00     0.009 A 
ATOM     28  C   UNL A   1      32.705  23.946  26.659  1.00  0.00     0.009 A 
ATOM     29  C   UNL A   1      30.531  23.446  25.682  1.00  0.00     0.000 A 
ATOM     30  C   UNL A   1      37.069  23.744  25.170  1.00  0.00     0.001 A 
ATOM     31  C   UNL A   1      31.316  23.848  26.775  1.00  0.00     0.001 A 
ENDBRANCH  18  19
ENDBRANCH  17  18
ENDBRANCH  15  17
ENDBRANCH   9  15
ENDBRANCH   3   6
ENDBRANCH   1   2
BRANCH   1  32
ATOM     32  C   UNL A   1      31.362  32.414  26.338  1.00  0.00     0.042 C 
BRANCH  32  33
ATOM     33  C   UNL A   1      32.552  32.828  27.194  1.00  0.00     0.118 C 
BRANCH  33  34
ATOM     34  N   UNL A   1      32.415  34.169  27.749  1.00  0.00    -0.352 N 
ATOM     35  C   UNL A   1      33.116  34.767  28.768  1.00  0.00     0.251 C 
ATOM     36  H   UNL A   1      31.718  34.727  27.334  1.00  0.00     0.163 HD
ATOM     37  O   UNL A   1      32.748  35.853  29.208  1.00  0.00    -0.269 OA
BRANCH  35  38
ATOM     38  C   UNL A   1      34.298  34.091  29.345  1.00  0.00     0.039 A 
ATOM     39  C   UNL A   1      35.572  34.467  28.914  1.00  0.00     0.014 A 
ATOM     40  C   UNL A   1      34.149  33.098  30.315  1.00  0.00     0.014 A 
ATOM     41  C   UNL A   1      36.700  33.892  29.506  1.00  0.00     0.010 A 
ATOM     42  C   UNL A   1      35.269  32.597  30.966  1.00  0.00     0.010 A 
ATOM     43  C   UNL A   1      36.557  32.978  30.563  1.00  0.00    -0.014 A 
BRANCH  43  44
ATOM     44  C   UNL A   1      37.734  32.396  31.258  1.00  0.00     0.031 A 
ATOM     45  C   UNL A   1      38.483  31.250  30.634  1.00  0.00     0.074 A 
ATOM     46  C   UNL A   1      38.065  32.825  32.491  1.00  0.00     0.049 A 
ATOM     47  N   UNL A   1      39.474  30.548  31.119  1.00  0.00    -0.248 NA
ATOM     48  C   UNL A   1      38.039  30.815  29.298  1.00  0.00     0.031 C 
ATOM     49  C   UNL A   1      37.381  33.886  33.232  1.00  0.00     0.029 A 
ATOM     50  N   UNL A   1      39.046  32.400  33.352  1.00  0.00    -0.354 N 
ATOM     51  C   UNL A   1      39.736  29.562  30.176  1.00  0.00     0.074 A 
ATOM     52  C   UNL A   1      38.778  29.734  29.107  1.00  0.00     0.031 C 
ATOM     53  C   UNL A   1      37.969  34.038  34.429  1.00  0.00     0.029 A 
ATOM     54  C   UNL A   1      39.044  33.058  34.559  1.00  0.00     0.049 A 
ATOM     55  H   UNL A   1      39.691  31.690  33.126  1.00  0.00     0.167 HD
ATOM     56  C   UNL A   1      40.701  28.611  30.186  1.00  0.00     0.034 A 
ATOM     57  C   UNL A   1      39.811  32.885  35.654  1.00  0.00     0.034 A 
ATOM     58  C   UNL A   1      41.672  28.465  31.236  1.00  0.00     0.049 A 
ATOM     59  C   UNL A   1      40.888  31.833  35.636  1.00  0.00     0.074 A 
ATOM     60  C   UNL A   1      42.747  27.596  31.298  1.00  0.00     0.029 A 
ATOM     61  N   UNL A   1      41.677  29.193  32.416  1.00  0.00    -0.354 N 
ATOM     62  N   UNL A   1      41.215  31.004  34.676  1.00  0.00    -0.248 NA
ATOM     63  C   UNL A   1      41.720  31.715  36.843  1.00  0.00     0.031 C 
ATOM     64  C   UNL A   1      43.375  27.769  32.536  1.00  0.00     0.029 A 
ATOM     65  C   UNL A   1      42.723  28.780  33.224  1.00  0.00     0.049 A 
ATOM     66  H   UNL A   1      41.031  29.900  32.647  1.00  0.00     0.167 HD
ATOM     67  C   UNL A   1      42.321  30.299  35.140  1.00  0.00     0.074 A 
ATOM     68  C   UNL A   1      42.608  30.804  36.468  1.00  0.00     0.031 C 
ATOM     69  C   UNL A   1      43.031  29.322  34.523  1.00  0.00     0.034 A 
BRANCH  56  70
ATOM     70  C   UNL A   1      40.761  27.667  29.011  1.00  0.00     0.023 A 
ATOM     71  C   UNL A   1      39.885  26.562  28.949  1.00  0.00     0.012 A 
ATOM     72  C   UNL A   1      41.670  27.885  27.959  1.00  0.00     0.148 A 
ATOM     73  C   UNL A   1      39.953  25.660  27.888  1.00  0.00     0.002 A 
ATOM     74  C   UNL A   1      41.694  27.012  26.877  1.00  0.00     0.091 A 
ATOM     75  F   UNL A   1      42.510  28.927  28.042  1.00  0.00    -0.205 F 
ATOM     76  C   UNL A   1      40.851  25.890  26.849  1.00  0.00     0.022 A 
BRANCH  74  77
ATOM     77  S   UNL A   1      42.752  27.273  25.450  1.00  0.00     0.127 S 
ATOM     78  O   UNL A   1      42.129  28.442  24.831  1.00  0.00    -0.237 OA
ATOM     79  O   UNL A   1      44.051  27.533  26.073  1.00  0.00    -0.237 OA
ATOM     80  O   UNL A   1      42.689  26.042  24.674  1.00  0.00    -0.744 OA
ENDBRANCH  74  77
ENDBRANCH  56  70
BRANCH  57  81
ATOM     81  C   UNL A   1      39.637  33.783  36.830  1.00  0.00     0.023 A 
ATOM     82  C   UNL A   1      40.045  35.127  36.733  1.00  0.00     0.012 A 
ATOM     83  C   UNL A   1      39.034  33.331  38.020  1.00  0.00     0.148 A 
ATOM     84  C   UNL A   1      39.882  35.999  37.810  1.00  0.00     0.002 A 
ATOM     85  C   UNL A   1      38.827  34.217  39.069  1.00  0.00     0.091 A 
ATOM     86  F   UNL A   1      38.656  32.047  38.090  1.00  0.00    -0.205 F 
ATOM     87  C   UNL A   1      39.264  35.548  38.974  1.00  0.00     0.022 A 
BRANCH  85  88
ATOM     88  S   UNL A   1      37.931  33.763  40.560  1.00  0.00     0.127 S 
ATOM     89  O   UNL A   1      38.846  32.811  41.181  1.00  0.00    -0.237 OA
ATOM     90  O   UNL A   1      37.822  35.052  41.245  1.00  0.00    -0.237 OA
ATOM     91  O   UNL A   1      36.663  33.210  40.107  1.00  0.00    -0.744 OA
ENDBRANCH  85  88
ENDBRANCH  57  81
BRANCH  69  92
ATOM     92  C   UNL A   1      44.231  28.763  35.241  1.00  0.00     0.023 A 
ATOM     93  C   UNL A   1      45.507  29.326  35.041  1.00  0.00     0.012 A 
ATOM     94  C   UNL A   1      44.073  27.728  36.186  1.00  0.00     0.148 A 
ATOM     95  C   UNL A   1      46.610  28.849  35.748  1.00  0.00     0.002 A 
ATOM     96  C   UNL A   1      45.165  27.296  36.927  1.00  0.00     0.091 A 
ATOM     97  F   UNL A   1      42.854  27.193  36.347  1.00  0.00    -0.205 F 
ATOM     98  C   UNL A   1      46.437  27.846  36.700  1.00  0.00     0.022 A 
BRANCH  96  99
ATOM     99  S   UNL A   1      45.018  26.084  38.244  1.00  0.00     0.127 S 
ATOM    100  O   UNL A   1      46.335  26.168  38.874  1.00  0.00    -0.237 OA
ATOM    101  O   UNL A   1      43.922  26.631  39.046  1.00  0.00    -0.237 OA
ATOM    102  O   UNL A   1      44.719  24.816  37.595  1.00  0.00    -0.744 OA
ENDBRANCH  96  99
ENDBRANCH  69  92
ENDBRANCH  43  44
ENDBRANCH  35  38
ENDBRANCH  33  34
ENDBRANCH  32  33
ENDBRANCH   1  32
TORSDOF 18
ENDMDL
