MODEL 1
REMARK VINA RESULT:     -12.0      0.000      0.000
REMARK SMILES Cc1nsc(N(C)S(=O)(=O)c2cn[nH]c2C)c1C(=O)NCCCNC(=O)c1ccc(-c2c3nc(c(-c4cccc(S(=O)(=O)[O-])c4F)c4ccc([nH]4)c(-c4cccc(S(=O)(=O)[O-])c4F)c4nc(c(-c5cccc(S(=O)(=O)[O-])c5F)c5ccc2[nH]5)C=C4)C=C3)cc1
REMARK SMILES IDX 22 1 21 2 20 3 18 4 19 5 17 7 1 8 2 9 3 10 4 11 5 12 6 13
REMARK SMILES IDX 7 14 8 15 9 16 10 17 11 18 12 19 15 20 13 21 14 22 16 23
REMARK SMILES IDX 23 25 24 26 25 27 26 29 27 30 28 31 89 32 29 33 88 34 30 35
REMARK SMILES IDX 31 36 32 37 82 38 33 39 87 40 81 41 83 42 34 43 86 44 80 45
REMARK SMILES IDX 79 46 35 48 67 49 47 50 66 51 48 52 51 53 65 54 84 55 49 56
REMARK SMILES IDX 50 57 64 59 85 60 52 61 36 62 37 63 45 64 38 65 40 66 46 67
REMARK SMILES IDX 39 68 41 69 42 70 43 71 44 72 68 73 69 74 77 75 70 76 72 77
REMARK SMILES IDX 78 78 71 79 73 80 74 81 75 82 76 83 53 84 54 85 62 86 55 87
REMARK SMILES IDX 57 88 63 89 56 90 58 91 59 92 60 93 61 94
REMARK H PARENT 20 6 14 24 24 28 83 47 51 58
REMARK Flexibility Score: inf
ROOT
ATOM      1  C   UNL A   1      32.734  30.801  27.245  1.00  0.00     0.042 C 
ENDROOT
BRANCH   1   2
ATOM      2  C   UNL A   1      32.824  29.416  26.585  1.00  0.00     0.118 C 
BRANCH   2   3
ATOM      3  N   UNL A   1      32.909  29.519  25.149  1.00  0.00    -0.352 N 
ATOM      4  C   UNL A   1      32.391  28.970  24.011  1.00  0.00     0.256 C 
ATOM      5  O   UNL A   1      33.189  29.176  23.100  1.00  0.00    -0.269 OA
ATOM      6  H   UNL A   1      33.559  30.219  24.909  1.00  0.00     0.163 HD
BRANCH   4   7
ATOM      7  C   UNL A   1      31.147  28.201  23.794  1.00  0.00     0.098 A 
ATOM      8  C   UNL A   1      29.454  30.030  22.746  1.00  0.00     0.069 C 
ATOM      9  C   UNL A   1      29.855  28.704  23.275  1.00  0.00     0.066 A 
ATOM     10  N   UNL A   1      28.833  27.857  23.267  1.00  0.00    -0.195 NA
ATOM     11  S   UNL A   1      29.286  26.452  23.910  1.00  0.00    -0.017 S 
ATOM     12  C   UNL A   1      30.981  26.804  24.077  1.00  0.00     0.138 A 
BRANCH  12  13
ATOM     13  N   UNL A   1      31.855  25.648  24.432  1.00  0.00    -0.258 N 
ATOM     14  C   UNL A   1      31.811  24.409  23.637  1.00  0.00     0.165 C 
BRANCH  13  15
ATOM     15  S   UNL A   1      32.554  25.526  25.973  1.00  0.00     0.268 S 
ATOM     16  O   UNL A   1      33.919  26.001  25.826  1.00  0.00    -0.201 OA
ATOM     17  O   UNL A   1      31.577  26.008  26.923  1.00  0.00    -0.201 OA
BRANCH  15  18
ATOM     18  C   UNL A   1      32.828  23.941  26.618  1.00  0.00     0.128 A 
ATOM     19  C   UNL A   1      34.024  23.224  26.781  1.00  0.00     0.157 A 
ATOM     20  C   UNL A   1      31.839  23.004  26.887  1.00  0.00     0.053 A 
ATOM     21  N   UNL A   1      33.832  21.987  27.252  1.00  0.00    -0.183 NA
ATOM     22  N   UNL A   1      32.493  21.850  27.216  1.00  0.00    -0.281 N 
ATOM     23  C   UNL A   1      30.360  23.045  26.768  1.00  0.00     0.067 C 
ATOM     24  H   UNL A   1      32.030  21.002  27.409  1.00  0.00     0.190 HD
ENDBRANCH  15  18
ENDBRANCH  13  15
ENDBRANCH  12  13
ENDBRANCH   4   7
ENDBRANCH   2   3
ENDBRANCH   1   2
BRANCH   1  25
ATOM     25  C   UNL A   1      34.109  31.401  27.530  1.00  0.00     0.118 C 
BRANCH  25  26
ATOM     26  N   UNL A   1      34.158  31.988  28.869  1.00  0.00    -0.352 N 
ATOM     27  C   UNL A   1      35.091  31.829  29.865  1.00  0.00     0.251 C 
ATOM     28  H   UNL A   1      33.408  32.588  29.090  1.00  0.00     0.163 HD
ATOM     29  O   UNL A   1      34.847  32.228  31.000  1.00  0.00    -0.269 OA
BRANCH  27  30
ATOM     30  C   UNL A   1      36.353  31.131  29.575  1.00  0.00     0.039 A 
ATOM     31  C   UNL A   1      37.553  31.841  29.655  1.00  0.00     0.014 A 
ATOM     32  C   UNL A   1      36.349  29.767  29.286  1.00  0.00     0.014 A 
ATOM     33  C   UNL A   1      38.755  31.152  29.553  1.00  0.00     0.010 A 
ATOM     34  C   UNL A   1      37.542  29.069  29.279  1.00  0.00     0.010 A 
ATOM     35  C   UNL A   1      38.750  29.756  29.408  1.00  0.00    -0.014 A 
BRANCH  35  36
ATOM     36  C   UNL A   1      40.009  29.022  29.570  1.00  0.00     0.031 A 
ATOM     37  C   UNL A   1      40.467  28.864  30.980  1.00  0.00     0.074 A 
ATOM     38  C   UNL A   1      40.635  28.339  28.589  1.00  0.00     0.049 A 
ATOM     39  N   UNL A   1      41.525  29.366  31.529  1.00  0.00    -0.248 NA
ATOM     40  C   UNL A   1      39.586  28.156  31.921  1.00  0.00     0.031 C 
ATOM     41  C   UNL A   1      40.145  28.101  27.227  1.00  0.00     0.029 A 
ATOM     42  N   UNL A   1      41.777  27.589  28.643  1.00  0.00    -0.354 N 
ATOM     43  C   UNL A   1      41.564  28.841  32.823  1.00  0.00     0.074 A 
ATOM     44  C   UNL A   1      40.264  28.275  33.064  1.00  0.00     0.031 C 
ATOM     45  C   UNL A   1      40.829  27.074  26.681  1.00  0.00     0.029 A 
ATOM     46  C   UNL A   1      41.916  26.714  27.572  1.00  0.00     0.049 A 
ATOM     47  H   UNL A   1      42.437  27.662  29.370  1.00  0.00     0.167 HD
ATOM     48  C   UNL A   1      42.747  28.684  33.480  1.00  0.00     0.034 A 
ATOM     49  C   UNL A   1      42.847  25.748  27.408  1.00  0.00     0.034 A 
ATOM     50  C   UNL A   1      43.816  29.360  32.790  1.00  0.00     0.049 A 
ATOM     51  C   UNL A   1      44.018  26.094  28.240  1.00  0.00     0.074 A 
ATOM     52  C   UNL A   1      44.274  30.645  32.628  1.00  0.00     0.029 A 
ATOM     53  N   UNL A   1      44.433  28.579  31.850  1.00  0.00    -0.354 N 
ATOM     54  N   UNL A   1      44.781  27.127  28.010  1.00  0.00    -0.248 NA
ATOM     55  C   UNL A   1      44.229  25.436  29.523  1.00  0.00     0.031 C 
ATOM     56  C   UNL A   1      45.063  30.638  31.439  1.00  0.00     0.029 A 
ATOM     57  C   UNL A   1      45.066  29.346  30.913  1.00  0.00     0.049 A 
ATOM     58  H   UNL A   1      44.422  27.594  31.848  1.00  0.00     0.167 HD
ATOM     59  C   UNL A   1      45.217  27.505  29.264  1.00  0.00     0.074 A 
ATOM     60  C   UNL A   1      45.030  26.332  30.105  1.00  0.00     0.031 C 
ATOM     61  C   UNL A   1      45.353  28.821  29.593  1.00  0.00     0.034 A 
BRANCH  48  62
ATOM     62  C   UNL A   1      43.096  27.587  34.476  1.00  0.00     0.023 A 
ATOM     63  C   UNL A   1      43.380  28.002  35.803  1.00  0.00     0.012 A 
ATOM     64  C   UNL A   1      43.455  26.262  34.143  1.00  0.00     0.148 A 
ATOM     65  C   UNL A   1      44.048  27.180  36.716  1.00  0.00     0.002 A 
ATOM     66  C   UNL A   1      44.057  25.421  35.078  1.00  0.00     0.091 A 
ATOM     67  F   UNL A   1      43.343  25.832  32.885  1.00  0.00    -0.205 F 
ATOM     68  C   UNL A   1      44.387  25.885  36.354  1.00  0.00     0.022 A 
BRANCH  66  69
ATOM     69  S   UNL A   1      44.481  23.720  34.678  1.00  0.00     0.127 S 
ATOM     70  O   UNL A   1      43.210  23.214  34.165  1.00  0.00    -0.237 OA
ATOM     71  O   UNL A   1      45.529  23.898  33.672  1.00  0.00    -0.237 OA
ATOM     72  O   UNL A   1      44.950  23.134  35.927  1.00  0.00    -0.744 OA
ENDBRANCH  66  69
ENDBRANCH  48  62
BRANCH  49  73
ATOM     73  C   UNL A   1      42.797  24.514  26.599  1.00  0.00     0.023 A 
ATOM     74  C   UNL A   1      43.863  24.202  25.735  1.00  0.00     0.012 A 
ATOM     75  C   UNL A   1      41.823  23.523  26.852  1.00  0.00     0.148 A 
ATOM     76  C   UNL A   1      43.978  22.930  25.166  1.00  0.00     0.002 A 
ATOM     77  C   UNL A   1      41.937  22.259  26.278  1.00  0.00     0.091 A 
ATOM     78  F   UNL A   1      40.836  23.795  27.716  1.00  0.00    -0.205 F 
ATOM     79  C   UNL A   1      43.023  21.956  25.445  1.00  0.00     0.022 A 
BRANCH  77  80
ATOM     80  S   UNL A   1      40.756  20.943  26.597  1.00  0.00     0.127 S 
ATOM     81  O   UNL A   1      40.778  20.856  28.058  1.00  0.00    -0.237 OA
ATOM     82  O   UNL A   1      39.527  21.498  26.037  1.00  0.00    -0.237 OA
ATOM     83  O   UNL A   1      41.286  19.762  25.927  1.00  0.00    -0.744 OA
ENDBRANCH  77  80
ENDBRANCH  49  73
BRANCH  61  84
ATOM     84  C   UNL A   1      45.559  29.808  28.481  1.00  0.00     0.023 A 
ATOM     85  C   UNL A   1      44.488  30.384  27.771  1.00  0.00     0.012 A 
ATOM     86  C   UNL A   1      46.866  30.249  28.217  1.00  0.00     0.148 A 
ATOM     87  C   UNL A   1      44.719  31.362  26.801  1.00  0.00     0.002 A 
ATOM     88  C   UNL A   1      47.089  31.257  27.288  1.00  0.00     0.091 A 
ATOM     89  F   UNL A   1      47.879  29.682  28.893  1.00  0.00    -0.205 F 
ATOM     90  C   UNL A   1      46.018  31.809  26.569  1.00  0.00     0.022 A 
BRANCH  88  91
ATOM     91  S   UNL A   1      48.724  31.958  27.052  1.00  0.00     0.127 S 
ATOM     92  O   UNL A   1      49.478  30.815  26.543  1.00  0.00    -0.237 OA
ATOM     93  O   UNL A   1      48.478  33.015  26.069  1.00  0.00    -0.237 OA
ATOM     94  O   UNL A   1      49.132  32.453  28.361  1.00  0.00    -0.744 OA
ENDBRANCH  88  91
ENDBRANCH  61  84
ENDBRANCH  35  36
ENDBRANCH  27  30
ENDBRANCH  25  26
ENDBRANCH   1  25
TORSDOF 16
ENDMDL
MODEL 2
REMARK VINA RESULT:     -12.0      3.476      7.605
REMARK SMILES Cc1nsc(N(C)S(=O)(=O)c2cn[nH]c2C)c1C(=O)NCCCNC(=O)c1ccc(-c2c3nc(c(-c4cccc(S(=O)(=O)[O-])c4F)c4ccc([nH]4)c(-c4cccc(S(=O)(=O)[O-])c4F)c4nc(c(-c5cccc(S(=O)(=O)[O-])c5F)c5ccc2[nH]5)C=C4)C=C3)cc1
REMARK SMILES IDX 22 1 21 2 20 3 18 4 19 5 17 7 1 8 2 9 3 10 4 11 5 12 6 13
REMARK SMILES IDX 7 14 8 15 9 16 10 17 11 18 12 19 15 20 13 21 14 22 16 23
REMARK SMILES IDX 23 25 24 26 25 27 26 29 27 30 28 31 89 32 29 33 88 34 30 35
REMARK SMILES IDX 31 36 32 37 82 38 33 39 87 40 81 41 83 42 34 43 86 44 80 45
REMARK SMILES IDX 79 46 35 48 67 49 47 50 66 51 48 52 51 53 65 54 84 55 49 56
REMARK SMILES IDX 50 57 64 59 85 60 52 61 36 62 37 63 45 64 38 65 40 66 46 67
REMARK SMILES IDX 39 68 41 69 42 70 43 71 44 72 68 73 69 74 77 75 70 76 72 77
REMARK SMILES IDX 78 78 71 79 73 80 74 81 75 82 76 83 53 84 54 85 62 86 55 87
REMARK SMILES IDX 57 88 63 89 56 90 58 91 59 92 60 93 61 94
REMARK H PARENT 20 6 14 24 24 28 83 47 51 58
REMARK Flexibility Score: inf
ROOT
ATOM      1  C   UNL A   1      31.503  31.814  26.690  1.00  0.00     0.042 C 
ENDROOT
BRANCH   1   2
ATOM      2  C   UNL A   1      31.842  30.326  26.514  1.00  0.00     0.118 C 
BRANCH   2   3
ATOM      3  N   UNL A   1      32.251  30.034  25.161  1.00  0.00    -0.352 N 
ATOM      4  C   UNL A   1      32.007  29.157  24.143  1.00  0.00     0.256 C 
ATOM      5  O   UNL A   1      32.991  29.158  23.407  1.00  0.00    -0.269 OA
ATOM      6  H   UNL A   1      32.934  30.683  24.878  1.00  0.00     0.163 HD
BRANCH   4   7
ATOM      7  C   UNL A   1      30.850  28.273  23.892  1.00  0.00     0.098 A 
ATOM      8  C   UNL A   1      29.139  29.856  22.521  1.00  0.00     0.069 C 
ATOM      9  C   UNL A   1      29.581  28.620  23.211  1.00  0.00     0.066 A 
ATOM     10  N   UNL A   1      28.628  27.695  23.194  1.00  0.00    -0.195 NA
ATOM     11  S   UNL A   1      29.117  26.396  24.009  1.00  0.00    -0.017 S 
ATOM     12  C   UNL A   1      30.758  26.898  24.294  1.00  0.00     0.138 A 
BRANCH  12  13
ATOM     13  N   UNL A   1      31.675  25.854  24.838  1.00  0.00    -0.258 N 
ATOM     14  C   UNL A   1      31.466  25.311  26.191  1.00  0.00     0.165 C 
BRANCH  13  15
ATOM     15  S   UNL A   1      33.207  25.602  24.156  1.00  0.00     0.268 S 
ATOM     16  O   UNL A   1      33.000  25.572  22.719  1.00  0.00    -0.201 OA
ATOM     17  O   UNL A   1      34.136  26.449  24.870  1.00  0.00    -0.201 OA
BRANCH  15  18
ATOM     18  C   UNL A   1      33.966  24.064  24.408  1.00  0.00     0.128 A 
ATOM     19  C   UNL A   1      35.229  23.753  24.935  1.00  0.00     0.157 A 
ATOM     20  C   UNL A   1      33.510  22.853  23.902  1.00  0.00     0.053 A 
ATOM     21  N   UNL A   1      35.500  22.444  24.907  1.00  0.00    -0.183 NA
ATOM     22  N   UNL A   1      34.480  21.935  24.189  1.00  0.00    -0.281 N 
ATOM     23  C   UNL A   1      32.318  22.490  23.094  1.00  0.00     0.067 C 
ATOM     24  H   UNL A   1      34.438  20.995  23.900  1.00  0.00     0.190 HD
ENDBRANCH  15  18
ENDBRANCH  13  15
ENDBRANCH  12  13
ENDBRANCH   4   7
ENDBRANCH   2   3
ENDBRANCH   1   2
BRANCH   1  25
ATOM     25  C   UNL A   1      32.732  32.658  27.022  1.00  0.00     0.118 C 
BRANCH  25  26
ATOM     26  N   UNL A   1      32.352  33.896  27.700  1.00  0.00    -0.352 N 
ATOM     27  C   UNL A   1      32.981  34.570  28.719  1.00  0.00     0.251 C 
ATOM     28  H   UNL A   1      31.518  34.309  27.379  1.00  0.00     0.163 HD
ATOM     29  O   UNL A   1      32.395  35.472  29.308  1.00  0.00    -0.269 OA
BRANCH  27  30
ATOM     30  C   UNL A   1      34.334  34.164  29.132  1.00  0.00     0.039 A 
ATOM     31  C   UNL A   1      34.474  33.190  30.123  1.00  0.00     0.014 A 
ATOM     32  C   UNL A   1      35.452  34.701  28.496  1.00  0.00     0.014 A 
ATOM     33  C   UNL A   1      35.737  32.677  30.394  1.00  0.00     0.010 A 
ATOM     34  C   UNL A   1      36.693  34.126  28.699  1.00  0.00     0.010 A 
ATOM     35  C   UNL A   1      36.844  33.116  29.649  1.00  0.00    -0.014 A 
BRANCH  35  36
ATOM     36  C   UNL A   1      38.109  32.382  29.761  1.00  0.00     0.031 A 
ATOM     37  C   UNL A   1      38.086  31.003  29.195  1.00  0.00     0.074 A 
ATOM     38  C   UNL A   1      39.285  32.926  30.135  1.00  0.00     0.049 A 
ATOM     39  N   UNL A   1      38.213  29.884  29.833  1.00  0.00    -0.248 NA
ATOM     40  C   UNL A   1      37.773  30.843  27.767  1.00  0.00     0.031 C 
ATOM     41  C   UNL A   1      39.561  34.343  30.393  1.00  0.00     0.029 A 
ATOM     42  N   UNL A   1      40.521  32.348  30.226  1.00  0.00    -0.354 N 
ATOM     43  C   UNL A   1      38.232  28.891  28.851  1.00  0.00     0.074 A 
ATOM     44  C   UNL A   1      37.765  29.514  27.642  1.00  0.00     0.031 C 
ATOM     45  C   UNL A   1      40.893  34.553  30.349  1.00  0.00     0.029 A 
ATOM     46  C   UNL A   1      41.562  33.269  30.252  1.00  0.00     0.049 A 
ATOM     47  H   UNL A   1      40.660  31.375  30.269  1.00  0.00     0.167 HD
ATOM     48  C   UNL A   1      38.883  27.712  29.059  1.00  0.00     0.034 A 
ATOM     49  C   UNL A   1      42.889  33.019  30.192  1.00  0.00     0.034 A 
ATOM     50  C   UNL A   1      39.262  27.568  30.442  1.00  0.00     0.049 A 
ATOM     51  C   UNL A   1      43.115  31.631  30.645  1.00  0.00     0.074 A 
ATOM     52  C   UNL A   1      38.661  27.248  31.636  1.00  0.00     0.029 A 
ATOM     53  N   UNL A   1      40.492  28.098  30.725  1.00  0.00    -0.354 N 
ATOM     54  N   UNL A   1      42.907  31.233  31.869  1.00  0.00    -0.248 NA
ATOM     55  C   UNL A   1      43.340  30.569  29.672  1.00  0.00     0.031 C 
ATOM     56  C   UNL A   1      39.510  27.769  32.658  1.00  0.00     0.029 A 
ATOM     57  C   UNL A   1      40.606  28.386  32.056  1.00  0.00     0.049 A 
ATOM     58  H   UNL A   1      41.200  28.252  30.059  1.00  0.00     0.167 HD
ATOM     59  C   UNL A   1      42.529  29.912  31.730  1.00  0.00     0.074 A 
ATOM     60  C   UNL A   1      43.012  29.510  30.418  1.00  0.00     0.031 C 
ATOM     61  C   UNL A   1      41.559  29.373  32.523  1.00  0.00     0.034 A 
BRANCH  48  62
ATOM     62  C   UNL A   1      39.598  26.870  28.012  1.00  0.00     0.023 A 
ATOM     63  C   UNL A   1      39.308  25.481  28.009  1.00  0.00     0.012 A 
ATOM     64  C   UNL A   1      40.724  27.278  27.262  1.00  0.00     0.148 A 
ATOM     65  C   UNL A   1      40.129  24.548  27.367  1.00  0.00     0.002 A 
ATOM     66  C   UNL A   1      41.500  26.352  26.566  1.00  0.00     0.091 A 
ATOM     67  F   UNL A   1      41.144  28.542  27.314  1.00  0.00    -0.205 F 
ATOM     68  C   UNL A   1      41.227  24.984  26.642  1.00  0.00     0.022 A 
BRANCH  66  69
ATOM     69  S   UNL A   1      42.911  26.863  25.575  1.00  0.00     0.127 S 
ATOM     70  O   UNL A   1      43.311  25.601  24.961  1.00  0.00    -0.237 OA
ATOM     71  O   UNL A   1      42.304  27.833  24.662  1.00  0.00    -0.237 OA
ATOM     72  O   UNL A   1      43.855  27.448  26.520  1.00  0.00    -0.744 OA
ENDBRANCH  66  69
ENDBRANCH  48  62
BRANCH  49  73
ATOM     73  C   UNL A   1      43.995  33.887  29.742  1.00  0.00     0.023 A 
ATOM     74  C   UNL A   1      44.734  34.623  30.687  1.00  0.00     0.012 A 
ATOM     75  C   UNL A   1      44.483  33.811  28.418  1.00  0.00     0.148 A 
ATOM     76  C   UNL A   1      45.942  35.234  30.337  1.00  0.00     0.002 A 
ATOM     77  C   UNL A   1      45.682  34.427  28.072  1.00  0.00     0.091 A 
ATOM     78  F   UNL A   1      43.812  33.068  27.527  1.00  0.00    -0.205 F 
ATOM     79  C   UNL A   1      46.421  35.128  29.034  1.00  0.00     0.022 A 
BRANCH  77  80
ATOM     80  S   UNL A   1      46.377  34.326  26.417  1.00  0.00     0.127 S 
ATOM     81  O   UNL A   1      45.297  34.875  25.596  1.00  0.00    -0.237 OA
ATOM     82  O   UNL A   1      47.554  35.183  26.531  1.00  0.00    -0.237 OA
ATOM     83  O   UNL A   1      46.638  32.912  26.181  1.00  0.00    -0.744 OA
ENDBRANCH  77  80
ENDBRANCH  49  73
BRANCH  61  84
ATOM     84  C   UNL A   1      41.304  30.012  33.856  1.00  0.00     0.023 A 
ATOM     85  C   UNL A   1      42.173  29.850  34.952  1.00  0.00     0.012 A 
ATOM     86  C   UNL A   1      40.213  30.890  33.976  1.00  0.00     0.148 A 
ATOM     87  C   UNL A   1      41.944  30.531  36.151  1.00  0.00     0.002 A 
ATOM     88  C   UNL A   1      40.017  31.604  35.151  1.00  0.00     0.091 A 
ATOM     89  F   UNL A   1      39.387  31.025  32.926  1.00  0.00    -0.205 F 
ATOM     90  C   UNL A   1      40.875  31.418  36.246  1.00  0.00     0.022 A 
BRANCH  88  91
ATOM     91  S   UNL A   1      38.736  32.854  35.275  1.00  0.00     0.127 S 
ATOM     92  O   UNL A   1      37.517  32.049  35.258  1.00  0.00    -0.237 OA
ATOM     93  O   UNL A   1      39.033  33.488  36.561  1.00  0.00    -0.237 OA
ATOM     94  O   UNL A   1      38.932  33.731  34.126  1.00  0.00    -0.744 OA
ENDBRANCH  88  91
ENDBRANCH  61  84
ENDBRANCH  35  36
ENDBRANCH  27  30
ENDBRANCH  25  26
ENDBRANCH   1  25
TORSDOF 16
ENDMDL
MODEL 3
REMARK VINA RESULT:     -11.9      1.518      2.008
REMARK SMILES Cc1nsc(N(C)S(=O)(=O)c2cn[nH]c2C)c1C(=O)NCCCNC(=O)c1ccc(-c2c3nc(c(-c4cccc(S(=O)(=O)[O-])c4F)c4ccc([nH]4)c(-c4cccc(S(=O)(=O)[O-])c4F)c4nc(c(-c5cccc(S(=O)(=O)[O-])c5F)c5ccc2[nH]5)C=C4)C=C3)cc1
REMARK SMILES IDX 22 1 21 2 20 3 18 4 19 5 17 7 1 8 2 9 3 10 4 11 5 12 6 13
REMARK SMILES IDX 7 14 8 15 9 16 10 17 11 18 12 19 15 20 13 21 14 22 16 23
REMARK SMILES IDX 23 25 24 26 25 27 26 29 27 30 28 31 89 32 29 33 88 34 30 35
REMARK SMILES IDX 31 36 32 37 82 38 33 39 87 40 81 41 83 42 34 43 86 44 80 45
REMARK SMILES IDX 79 46 35 48 67 49 47 50 66 51 48 52 51 53 65 54 84 55 49 56
REMARK SMILES IDX 50 57 64 59 85 60 52 61 36 62 37 63 45 64 38 65 40 66 46 67
REMARK SMILES IDX 39 68 41 69 42 70 43 71 44 72 68 73 69 74 77 75 70 76 72 77
REMARK SMILES IDX 78 78 71 79 73 80 74 81 75 82 76 83 53 84 54 85 62 86 55 87
REMARK SMILES IDX 57 88 63 89 56 90 58 91 59 92 60 93 61 94
REMARK H PARENT 20 6 14 24 24 28 83 47 51 58
REMARK Flexibility Score: inf
ROOT
ATOM      1  C   UNL A   1      32.301  30.152  26.749  1.00  0.00     0.042 C 
ENDROOT
BRANCH   1   2
ATOM      2  C   UNL A   1      32.188  29.088  25.647  1.00  0.00     0.118 C 
BRANCH   2   3
ATOM      3  N   UNL A   1      33.091  27.987  25.880  1.00  0.00    -0.352 N 
ATOM      4  C   UNL A   1      33.545  26.842  25.291  1.00  0.00     0.256 C 
ATOM      5  O   UNL A   1      33.968  26.107  26.181  1.00  0.00    -0.269 OA
ATOM      6  H   UNL A   1      33.523  28.098  26.757  1.00  0.00     0.163 HD
BRANCH   4   7
ATOM      7  C   UNL A   1      33.535  26.420  23.875  1.00  0.00     0.098 A 
ATOM      8  C   UNL A   1      34.101  28.701  22.537  1.00  0.00     0.069 C 
ATOM      9  C   UNL A   1      33.741  27.269  22.679  1.00  0.00     0.066 A 
ATOM     10  N   UNL A   1      33.578  26.697  21.492  1.00  0.00    -0.195 NA
ATOM     11  S   UNL A   1      33.124  25.165  21.685  1.00  0.00    -0.017 S 
ATOM     12  C   UNL A   1      33.300  25.081  23.413  1.00  0.00     0.138 A 
BRANCH  12  13
ATOM     13  N   UNL A   1      33.201  23.719  24.014  1.00  0.00    -0.258 N 
ATOM     14  C   UNL A   1      34.382  22.839  24.064  1.00  0.00     0.165 C 
BRANCH  13  15
ATOM     15  S   UNL A   1      31.696  22.966  24.220  1.00  0.00     0.268 S 
ATOM     16  O   UNL A   1      30.854  23.464  23.146  1.00  0.00    -0.201 OA
ATOM     17  O   UNL A   1      31.952  21.578  24.534  1.00  0.00    -0.201 OA
BRANCH  15  18
ATOM     18  C   UNL A   1      30.749  23.405  25.605  1.00  0.00     0.128 A 
ATOM     19  C   UNL A   1      30.241  22.609  26.643  1.00  0.00     0.157 A 
ATOM     20  C   UNL A   1      30.134  24.635  25.797  1.00  0.00     0.053 A 
ATOM     21  N   UNL A   1      29.487  23.296  27.508  1.00  0.00    -0.183 NA
ATOM     22  N   UNL A   1      29.363  24.500  26.917  1.00  0.00    -0.281 N 
ATOM     23  C   UNL A   1      30.111  25.881  24.990  1.00  0.00     0.067 C 
ATOM     24  H   UNL A   1      28.774  25.212  27.258  1.00  0.00     0.190 HD
ENDBRANCH  15  18
ENDBRANCH  13  15
ENDBRANCH  12  13
ENDBRANCH   4   7
ENDBRANCH   2   3
ENDBRANCH   1   2
BRANCH   1  25
ATOM     25  C   UNL A   1      33.750  30.439  27.136  1.00  0.00     0.118 C 
BRANCH  25  26
ATOM     26  N   UNL A   1      33.819  31.385  28.249  1.00  0.00    -0.352 N 
ATOM     27  C   UNL A   1      34.838  31.623  29.140  1.00  0.00     0.251 C 
ATOM     28  H   UNL A   1      33.012  31.934  28.381  1.00  0.00     0.163 HD
ATOM     29  O   UNL A   1      34.628  32.297  30.143  1.00  0.00    -0.269 OA
BRANCH  27  30
ATOM     30  C   UNL A   1      36.159  31.018  28.910  1.00  0.00     0.039 A 
ATOM     31  C   UNL A   1      37.300  31.814  29.041  1.00  0.00     0.014 A 
ATOM     32  C   UNL A   1      36.268  29.657  28.629  1.00  0.00     0.014 A 
ATOM     33  C   UNL A   1      38.552  31.214  28.998  1.00  0.00     0.010 A 
ATOM     34  C   UNL A   1      37.508  29.048  28.680  1.00  0.00     0.010 A 
ATOM     35  C   UNL A   1      38.656  29.820  28.860  1.00  0.00    -0.014 A 
BRANCH  35  36
ATOM     36  C   UNL A   1      39.956  29.181  29.082  1.00  0.00     0.031 A 
ATOM     37  C   UNL A   1      40.340  29.020  30.514  1.00  0.00     0.074 A 
ATOM     38  C   UNL A   1      40.691  28.575  28.126  1.00  0.00     0.049 A 
ATOM     39  N   UNL A   1      41.321  29.586  31.139  1.00  0.00    -0.248 NA
ATOM     40  C   UNL A   1      39.462  28.221  31.382  1.00  0.00     0.031 C 
ATOM     41  C   UNL A   1      40.303  28.337  26.732  1.00  0.00     0.029 A 
ATOM     42  N   UNL A   1      41.883  27.913  28.234  1.00  0.00    -0.354 N 
ATOM     43  C   UNL A   1      41.323  29.030  32.420  1.00  0.00     0.074 A 
ATOM     44  C   UNL A   1      40.059  28.360  32.568  1.00  0.00     0.031 C 
ATOM     45  C   UNL A   1      41.097  27.381  26.206  1.00  0.00     0.029 A 
ATOM     46  C   UNL A   1      42.153  27.081  27.154  1.00  0.00     0.049 A 
ATOM     47  H   UNL A   1      42.491  28.016  29.002  1.00  0.00     0.167 HD
ATOM     48  C   UNL A   1      42.473  28.945  33.146  1.00  0.00     0.034 A 
ATOM     49  C   UNL A   1      43.165  26.194  27.026  1.00  0.00     0.034 A 
ATOM     50  C   UNL A   1      43.526  29.720  32.538  1.00  0.00     0.049 A 
ATOM     51  C   UNL A   1      44.254  26.606  27.937  1.00  0.00     0.074 A 
ATOM     52  C   UNL A   1      43.891  31.040  32.435  1.00  0.00     0.029 A 
ATOM     53  N   UNL A   1      44.257  29.014  31.621  1.00  0.00    -0.354 N 
ATOM     54  N   UNL A   1      44.946  27.699  27.777  1.00  0.00    -0.248 NA
ATOM     55  C   UNL A   1      44.437  25.930  29.215  1.00  0.00     0.031 C 
ATOM     56  C   UNL A   1      44.747  31.126  31.296  1.00  0.00     0.029 A 
ATOM     57  C   UNL A   1      44.883  29.853  30.742  1.00  0.00     0.049 A 
ATOM     58  H   UNL A   1      44.323  28.032  31.596  1.00  0.00     0.167 HD
ATOM     59  C   UNL A   1      45.275  28.075  29.065  1.00  0.00     0.074 A 
ATOM     60  C   UNL A   1      45.130  26.869  29.866  1.00  0.00     0.031 C 
ATOM     61  C   UNL A   1      45.288  29.388  29.431  1.00  0.00     0.034 A 
BRANCH  48  62
ATOM     62  C   UNL A   1      42.846  27.852  34.136  1.00  0.00     0.023 A 
ATOM     63  C   UNL A   1      42.948  28.237  35.498  1.00  0.00     0.012 A 
ATOM     64  C   UNL A   1      43.385  26.591  33.799  1.00  0.00     0.148 A 
ATOM     65  C   UNL A   1      43.614  27.455  36.447  1.00  0.00     0.002 A 
ATOM     66  C   UNL A   1      43.986  25.782  34.763  1.00  0.00     0.091 A 
ATOM     67  F   UNL A   1      43.448  26.206  32.523  1.00  0.00    -0.205 F 
ATOM     68  C   UNL A   1      44.133  26.222  36.080  1.00  0.00     0.022 A 
BRANCH  66  69
ATOM     69  S   UNL A   1      44.639  24.157  34.353  1.00  0.00     0.127 S 
ATOM     70  O   UNL A   1      43.493  23.537  33.695  1.00  0.00    -0.237 OA
ATOM     71  O   UNL A   1      45.755  24.495  33.468  1.00  0.00    -0.237 OA
ATOM     72  O   UNL A   1      45.046  23.572  35.625  1.00  0.00    -0.744 OA
ENDBRANCH  66  69
ENDBRANCH  48  62
BRANCH  49  73
ATOM     73  C   UNL A   1      43.260  24.982  26.188  1.00  0.00     0.023 A 
ATOM     74  C   UNL A   1      44.254  24.895  25.197  1.00  0.00     0.012 A 
ATOM     75  C   UNL A   1      42.535  23.815  26.518  1.00  0.00     0.148 A 
ATOM     76  C   UNL A   1      44.546  23.676  24.576  1.00  0.00     0.002 A 
ATOM     77  C   UNL A   1      42.823  22.605  25.894  1.00  0.00     0.091 A 
ATOM     78  F   UNL A   1      41.624  23.879  27.499  1.00  0.00    -0.205 F 
ATOM     79  C   UNL A   1      43.839  22.531  24.931  1.00  0.00     0.022 A 
BRANCH  77  80
ATOM     80  S   UNL A   1      41.968  21.078  26.303  1.00  0.00     0.127 S 
ATOM     81  O   UNL A   1      40.581  21.403  25.969  1.00  0.00    -0.237 OA
ATOM     82  O   UNL A   1      42.606  20.123  25.402  1.00  0.00    -0.237 OA
ATOM     83  O   UNL A   1      42.197  20.863  27.727  1.00  0.00    -0.744 OA
ENDBRANCH  77  80
ENDBRANCH  49  73
BRANCH  61  84
ATOM     84  C   UNL A   1      45.483  30.418  28.357  1.00  0.00     0.023 A 
ATOM     85  C   UNL A   1      44.405  31.063  27.721  1.00  0.00     0.012 A 
ATOM     86  C   UNL A   1      46.794  30.826  28.056  1.00  0.00     0.148 A 
ATOM     87  C   UNL A   1      44.631  32.076  26.787  1.00  0.00     0.002 A 
ATOM     88  C   UNL A   1      47.013  31.868  27.165  1.00  0.00     0.091 A 
ATOM     89  F   UNL A   1      47.812  30.193  28.661  1.00  0.00    -0.205 F 
ATOM     90  C   UNL A   1      45.933  32.489  26.519  1.00  0.00     0.022 A 
BRANCH  88  91
ATOM     91  S   UNL A   1      48.661  32.522  26.889  1.00  0.00     0.127 S 
ATOM     92  O   UNL A   1      49.004  33.059  28.204  1.00  0.00    -0.237 OA
ATOM     93  O   UNL A   1      49.416  31.329  26.499  1.00  0.00    -0.237 OA
ATOM     94  O   UNL A   1      48.519  33.504  25.821  1.00  0.00    -0.744 OA
ENDBRANCH  88  91
ENDBRANCH  61  84
ENDBRANCH  35  36
ENDBRANCH  27  30
ENDBRANCH  25  26
ENDBRANCH   1  25
TORSDOF 16
ENDMDL
