MODEL 1
REMARK VINA RESULT:     -12.8      0.000      0.000
REMARK SMILES Cc1ccc(C)c(N2C(=O)C[C@@H](SCC(=O)NCCCNC(=O)c3ccc(-c4c5nc(c(-c6cccc(S(=O)(=O)[O-])c6F)c6ccc([nH]6)c(-c6cccc(S(=O)(=O)[O-])c6F)c6nc(c(-c7cccc(S(=O)(=O)[O-])c7F)c7ccc4[nH]7)C=C6)C=C5)cc3)C2=O)c1
REMARK SMILES IDX 19 1 18 2 17 3 15 4 16 5 14 7 13 8 12 9 8 10 9 11 87 12
REMARK SMILES IDX 10 13 11 14 88 15 7 16 1 17 2 18 3 19 89 20 4 21 5 22 6 23
REMARK SMILES IDX 20 24 21 25 22 26 23 28 24 29 25 30 86 31 26 32 85 33 27 34
REMARK SMILES IDX 28 35 29 36 79 37 30 38 84 39 78 40 80 41 31 42 83 43 77 44
REMARK SMILES IDX 76 45 32 47 64 48 44 49 63 50 45 51 48 52 62 53 81 54 46 55
REMARK SMILES IDX 47 56 61 58 82 59 49 60 33 61 34 62 42 63 35 64 37 65 43 66
REMARK SMILES IDX 36 67 38 68 39 69 40 70 41 71 65 72 66 73 74 74 67 75 69 76
REMARK SMILES IDX 75 77 68 78 70 79 71 80 72 81 73 82 50 83 51 84 59 85 52 86
REMARK SMILES IDX 54 87 60 88 53 89 55 90 56 91 57 92 58 93
REMARK H PARENT 17 6 21 27 80 46 48 57
REMARK Flexibility Score: inf
ROOT
ATOM      1  C   UNL A   1      37.065  19.472  24.965  1.00  0.00     0.042 C 
ENDROOT
BRANCH   1   2
ATOM      2  C   UNL A   1      35.803  20.345  24.931  1.00  0.00     0.117 C 
BRANCH   2   3
ATOM      3  N   UNL A   1      34.568  19.616  25.172  1.00  0.00    -0.355 N 
ATOM      4  C   UNL A   1      33.271  20.004  25.008  1.00  0.00     0.230 C 
ATOM      5  O   UNL A   1      32.383  19.180  25.227  1.00  0.00    -0.274 OA
ATOM      6  H   UNL A   1      34.686  18.697  25.507  1.00  0.00     0.163 HD
BRANCH   4   7
ATOM      7  C   UNL A   1      32.926  21.400  24.538  1.00  0.00     0.170 C 
BRANCH   7   8
ATOM      8  S   UNL A   1      32.218  22.448  25.839  1.00  0.00    -0.138 SA
BRANCH   8   9
ATOM      9  C   UNL A   1      30.814  23.247  24.932  1.00  0.00     0.146 C 
ATOM     10  N   UNL A   1      31.275  25.491  24.444  1.00  0.00    -0.249 N 
ATOM     11  C   UNL A   1      31.517  24.810  23.276  1.00  0.00     0.235 C 
ATOM     12  C   UNL A   1      30.751  24.680  25.423  1.00  0.00     0.247 C 
ATOM     13  O   UNL A   1      32.060  25.232  22.263  1.00  0.00    -0.274 OA
ATOM     14  C   UNL A   1      31.052  23.391  23.439  1.00  0.00     0.125 C 
ATOM     15  O   UNL A   1      30.345  25.006  26.533  1.00  0.00    -0.273 OA
BRANCH  10  16
ATOM     16  C   UNL A   1      31.559  26.865  24.614  1.00  0.00     0.055 A 
ATOM     17  C   UNL A   1      29.834  30.173  23.770  1.00  0.00     0.044 C 
ATOM     18  C   UNL A   1      30.841  29.180  24.269  1.00  0.00    -0.049 A 
ATOM     19  C   UNL A   1      31.993  29.625  24.920  1.00  0.00     0.004 A 
ATOM     20  C   UNL A   1      30.644  27.803  24.102  1.00  0.00     0.030 A 
ATOM     21  C   UNL A   1      32.926  28.707  25.404  1.00  0.00     0.006 A 
ATOM     22  C   UNL A   1      32.728  27.322  25.256  1.00  0.00    -0.027 A 
ATOM     23  C   UNL A   1      33.836  26.424  25.735  1.00  0.00     0.046 C 
ENDBRANCH  10  16
ENDBRANCH   8   9
ENDBRANCH   7   8
ENDBRANCH   4   7
ENDBRANCH   2   3
ENDBRANCH   1   2
BRANCH   1  24
ATOM     24  C   UNL A   1      38.357  20.247  25.182  1.00  0.00     0.118 C 
BRANCH  24  25
ATOM     25  N   UNL A   1      39.488  19.406  25.616  1.00  0.00    -0.352 N 
ATOM     26  C   UNL A   1      40.778  19.727  26.008  1.00  0.00     0.251 C 
ATOM     27  H   UNL A   1      39.291  18.441  25.630  1.00  0.00     0.163 HD
ATOM     28  O   UNL A   1      41.642  18.841  26.025  1.00  0.00    -0.269 OA
BRANCH  26  29
ATOM     29  C   UNL A   1      41.131  21.094  26.429  1.00  0.00     0.039 A 
ATOM     30  C   UNL A   1      42.015  21.936  25.752  1.00  0.00     0.014 A 
ATOM     31  C   UNL A   1      40.672  21.504  27.660  1.00  0.00     0.014 A 
ATOM     32  C   UNL A   1      42.467  23.086  26.413  1.00  0.00     0.010 A 
ATOM     33  C   UNL A   1      40.738  22.802  28.025  1.00  0.00     0.010 A 
ATOM     34  C   UNL A   1      41.855  23.464  27.612  1.00  0.00    -0.014 A 
BRANCH  34  35
ATOM     35  C   UNL A   1      42.191  24.629  28.391  1.00  0.00     0.031 A 
ATOM     36  C   UNL A   1      41.206  25.706  28.239  1.00  0.00     0.074 A 
ATOM     37  C   UNL A   1      43.134  24.641  29.358  1.00  0.00     0.049 A 
ATOM     38  N   UNL A   1      41.280  26.691  27.412  1.00  0.00    -0.248 NA
ATOM     39  C   UNL A   1      39.889  25.541  28.872  1.00  0.00     0.031 C 
ATOM     40  C   UNL A   1      43.908  23.526  29.922  1.00  0.00     0.029 A 
ATOM     41  N   UNL A   1      43.519  25.690  30.130  1.00  0.00    -0.354 N 
ATOM     42  C   UNL A   1      40.135  27.432  27.655  1.00  0.00     0.074 A 
ATOM     43  C   UNL A   1      39.212  26.531  28.289  1.00  0.00     0.031 C 
ATOM     44  C   UNL A   1      44.508  23.929  31.068  1.00  0.00     0.029 A 
ATOM     45  C   UNL A   1      44.281  25.353  31.243  1.00  0.00     0.049 A 
ATOM     46  H   UNL A   1      43.276  26.620  29.919  1.00  0.00     0.167 HD
ATOM     47  C   UNL A   1      40.177  28.791  27.633  1.00  0.00     0.034 A 
ATOM     48  C   UNL A   1      44.635  26.194  32.247  1.00  0.00     0.034 A 
ATOM     49  C   UNL A   1      41.428  29.261  27.075  1.00  0.00     0.049 A 
ATOM     50  C   UNL A   1      44.505  27.577  31.720  1.00  0.00     0.074 A 
ATOM     51  C   UNL A   1      42.115  29.037  25.897  1.00  0.00     0.029 A 
ATOM     52  N   UNL A   1      42.357  29.746  27.967  1.00  0.00    -0.354 N 
ATOM     53  N   UNL A   1      45.264  28.062  30.776  1.00  0.00    -0.248 NA
ATOM     54  C   UNL A   1      43.242  28.269  31.922  1.00  0.00     0.031 C 
ATOM     55  C   UNL A   1      43.486  28.944  26.283  1.00  0.00     0.029 A 
ATOM     56  C   UNL A   1      43.572  29.195  27.654  1.00  0.00     0.049 A 
ATOM     57  H   UNL A   1      42.181  30.377  28.701  1.00  0.00     0.167 HD
ATOM     58  C   UNL A   1      44.395  28.790  29.974  1.00  0.00     0.074 A 
ATOM     59  C   UNL A   1      43.196  28.980  30.790  1.00  0.00     0.031 C 
ATOM     60  C   UNL A   1      44.605  28.906  28.628  1.00  0.00     0.034 A 
BRANCH  47  61
ATOM     61  C   UNL A   1      39.297  29.697  28.461  1.00  0.00     0.023 A 
ATOM     62  C   UNL A   1      39.677  29.881  29.809  1.00  0.00     0.012 A 
ATOM     63  C   UNL A   1      38.015  30.169  28.091  1.00  0.00     0.148 A 
ATOM     64  C   UNL A   1      38.806  30.440  30.749  1.00  0.00     0.002 A 
ATOM     65  C   UNL A   1      37.187  30.803  29.009  1.00  0.00     0.091 A 
ATOM     66  F   UNL A   1      37.511  29.894  26.888  1.00  0.00    -0.205 F 
ATOM     67  C   UNL A   1      37.563  30.909  30.348  1.00  0.00     0.022 A 
BRANCH  65  68
ATOM     68  S   UNL A   1      35.591  31.474  28.524  1.00  0.00     0.127 S 
ATOM     69  O   UNL A   1      35.990  32.536  27.606  1.00  0.00    -0.237 OA
ATOM     70  O   UNL A   1      34.959  30.314  27.897  1.00  0.00    -0.237 OA
ATOM     71  O   UNL A   1      34.951  31.902  29.763  1.00  0.00    -0.744 OA
ENDBRANCH  65  68
ENDBRANCH  47  61
BRANCH  48  72
ATOM     72  C   UNL A   1      44.848  25.933  33.690  1.00  0.00     0.023 A 
ATOM     73  C   UNL A   1      46.161  25.899  34.205  1.00  0.00     0.012 A 
ATOM     74  C   UNL A   1      43.776  26.017  34.604  1.00  0.00     0.148 A 
ATOM     75  C   UNL A   1      46.401  25.991  35.582  1.00  0.00     0.002 A 
ATOM     76  C   UNL A   1      44.017  26.106  35.974  1.00  0.00     0.091 A 
ATOM     77  F   UNL A   1      42.528  26.109  34.129  1.00  0.00    -0.205 F 
ATOM     78  C   UNL A   1      45.330  26.106  36.464  1.00  0.00     0.022 A 
BRANCH  76  79
ATOM     79  S   UNL A   1      42.690  26.298  37.172  1.00  0.00     0.127 S 
ATOM     80  O   UNL A   1      42.089  27.565  36.756  1.00  0.00    -0.237 OA
ATOM     81  O   UNL A   1      41.873  25.117  36.909  1.00  0.00    -0.237 OA
ATOM     82  O   UNL A   1      43.331  26.340  38.481  1.00  0.00    -0.744 OA
ENDBRANCH  76  79
ENDBRANCH  48  72
BRANCH  60  83
ATOM     83  C   UNL A   1      45.939  28.459  28.076  1.00  0.00     0.023 A 
ATOM     84  C   UNL A   1      47.095  29.268  28.130  1.00  0.00     0.012 A 
ATOM     85  C   UNL A   1      46.068  27.128  27.646  1.00  0.00     0.148 A 
ATOM     86  C   UNL A   1      48.341  28.768  27.742  1.00  0.00     0.002 A 
ATOM     87  C   UNL A   1      47.316  26.619  27.307  1.00  0.00     0.091 A 
ATOM     88  F   UNL A   1      44.963  26.368  27.598  1.00  0.00    -0.205 F 
ATOM     89  C   UNL A   1      48.454  27.438  27.344  1.00  0.00     0.022 A 
BRANCH  87  90
ATOM     90  S   UNL A   1      47.543  24.883  26.913  1.00  0.00     0.127 S 
ATOM     91  O   UNL A   1      48.982  24.713  27.101  1.00  0.00    -0.237 OA
ATOM     92  O   UNL A   1      46.712  24.219  27.919  1.00  0.00    -0.237 OA
ATOM     93  O   UNL A   1      47.063  24.719  25.547  1.00  0.00    -0.744 OA
ENDBRANCH  87  90
ENDBRANCH  60  83
ENDBRANCH  34  35
ENDBRANCH  26  29
ENDBRANCH  24  25
ENDBRANCH   1  24
TORSDOF 16
ENDMDL
MODEL 2
REMARK VINA RESULT:     -12.5      2.245      2.762
REMARK SMILES Cc1ccc(C)c(N2C(=O)C[C@@H](SCC(=O)NCCCNC(=O)c3ccc(-c4c5nc(c(-c6cccc(S(=O)(=O)[O-])c6F)c6ccc([nH]6)c(-c6cccc(S(=O)(=O)[O-])c6F)c6nc(c(-c7cccc(S(=O)(=O)[O-])c7F)c7ccc4[nH]7)C=C6)C=C5)cc3)C2=O)c1
REMARK SMILES IDX 19 1 18 2 17 3 15 4 16 5 14 7 13 8 12 9 8 10 9 11 87 12
REMARK SMILES IDX 10 13 11 14 88 15 7 16 1 17 2 18 3 19 89 20 4 21 5 22 6 23
REMARK SMILES IDX 20 24 21 25 22 26 23 28 24 29 25 30 86 31 26 32 85 33 27 34
REMARK SMILES IDX 28 35 29 36 79 37 30 38 84 39 78 40 80 41 31 42 83 43 77 44
REMARK SMILES IDX 76 45 32 47 64 48 44 49 63 50 45 51 48 52 62 53 81 54 46 55
REMARK SMILES IDX 47 56 61 58 82 59 49 60 33 61 34 62 42 63 35 64 37 65 43 66
REMARK SMILES IDX 36 67 38 68 39 69 40 70 41 71 65 72 66 73 74 74 67 75 69 76
REMARK SMILES IDX 75 77 68 78 70 79 71 80 72 81 73 82 50 83 51 84 59 85 52 86
REMARK SMILES IDX 54 87 60 88 53 89 55 90 56 91 57 92 58 93
REMARK H PARENT 17 6 21 27 80 46 48 57
REMARK Flexibility Score: inf
ROOT
ATOM      1  C   UNL A   1      38.902  20.012  25.079  1.00  0.00     0.042 C 
ENDROOT
BRANCH   1   2
ATOM      2  C   UNL A   1      38.397  21.338  25.663  1.00  0.00     0.117 C 
BRANCH   2   3
ATOM      3  N   UNL A   1      37.818  22.239  24.680  1.00  0.00    -0.355 N 
ATOM      4  C   UNL A   1      36.537  22.334  24.220  1.00  0.00     0.230 C 
ATOM      5  O   UNL A   1      36.271  23.228  23.416  1.00  0.00    -0.274 OA
ATOM      6  H   UNL A   1      38.449  22.883  24.283  1.00  0.00     0.163 HD
BRANCH   4   7
ATOM      7  C   UNL A   1      35.460  21.391  24.706  1.00  0.00     0.170 C 
BRANCH   7   8
ATOM      8  S   UNL A   1      34.591  21.983  26.185  1.00  0.00    -0.138 SA
BRANCH   8   9
ATOM      9  C   UNL A   1      32.904  22.323  25.500  1.00  0.00     0.146 C 
ATOM     10  N   UNL A   1      32.534  24.620  25.231  1.00  0.00    -0.249 N 
ATOM     11  C   UNL A   1      32.846  24.155  23.977  1.00  0.00     0.235 C 
ATOM     12  C   UNL A   1      32.429  23.605  26.153  1.00  0.00     0.247 C 
ATOM     13  O   UNL A   1      33.093  24.815  22.975  1.00  0.00    -0.274 OA
ATOM     14  C   UNL A   1      32.901  22.654  24.017  1.00  0.00     0.125 C 
ATOM     15  O   UNL A   1      32.075  23.686  27.325  1.00  0.00    -0.273 OA
BRANCH  10  16
ATOM     16  C   UNL A   1      32.365  25.990  25.530  1.00  0.00     0.055 A 
ATOM     17  C   UNL A   1      34.550  28.812  26.906  1.00  0.00     0.044 C 
ATOM     18  C   UNL A   1      33.370  28.060  26.368  1.00  0.00    -0.049 A 
ATOM     19  C   UNL A   1      32.167  28.728  26.135  1.00  0.00     0.004 A 
ATOM     20  C   UNL A   1      33.453  26.690  26.084  1.00  0.00     0.030 A 
ATOM     21  C   UNL A   1      31.070  28.040  25.617  1.00  0.00     0.006 A 
ATOM     22  C   UNL A   1      31.148  26.669  25.313  1.00  0.00    -0.027 A 
ATOM     23  C   UNL A   1      29.883  26.005  24.843  1.00  0.00     0.046 C 
ENDBRANCH  10  16
ENDBRANCH   8   9
ENDBRANCH   7   8
ENDBRANCH   4   7
ENDBRANCH   2   3
ENDBRANCH   1   2
BRANCH   1  24
ATOM     24  C   UNL A   1      39.563  19.092  26.096  1.00  0.00     0.118 C 
BRANCH  24  25
ATOM     25  N   UNL A   1      40.982  18.812  25.810  1.00  0.00    -0.352 N 
ATOM     26  C   UNL A   1      42.078  19.649  25.677  1.00  0.00     0.251 C 
ATOM     27  H   UNL A   1      41.189  17.856  25.692  1.00  0.00     0.163 HD
ATOM     28  O   UNL A   1      43.102  19.222  25.129  1.00  0.00    -0.269 OA
BRANCH  26  29
ATOM     29  C   UNL A   1      42.055  21.027  26.199  1.00  0.00     0.039 A 
ATOM     30  C   UNL A   1      42.382  22.167  25.463  1.00  0.00     0.014 A 
ATOM     31  C   UNL A   1      41.846  21.176  27.552  1.00  0.00     0.014 A 
ATOM     32  C   UNL A   1      42.587  23.365  26.160  1.00  0.00     0.010 A 
ATOM     33  C   UNL A   1      41.571  22.388  28.079  1.00  0.00     0.010 A 
ATOM     34  C   UNL A   1      42.242  23.431  27.513  1.00  0.00    -0.014 A 
BRANCH  34  35
ATOM     35  C   UNL A   1      42.371  24.595  28.354  1.00  0.00     0.031 A 
ATOM     36  C   UNL A   1      41.225  25.504  28.228  1.00  0.00     0.074 A 
ATOM     37  C   UNL A   1      43.284  24.712  29.342  1.00  0.00     0.049 A 
ATOM     38  N   UNL A   1      41.151  26.528  27.449  1.00  0.00    -0.248 NA
ATOM     39  C   UNL A   1      39.944  25.096  28.821  1.00  0.00     0.031 C 
ATOM     40  C   UNL A   1      44.220  23.710  29.872  1.00  0.00     0.029 A 
ATOM     41  N   UNL A   1      43.479  25.769  30.171  1.00  0.00    -0.354 N 
ATOM     42  C   UNL A   1      39.897  27.060  27.699  1.00  0.00     0.074 A 
ATOM     43  C   UNL A   1      39.123  25.991  28.269  1.00  0.00     0.031 C 
ATOM     44  C   UNL A   1      44.728  24.148  31.050  1.00  0.00     0.029 A 
ATOM     45  C   UNL A   1      44.268  25.506  31.285  1.00  0.00     0.049 A 
ATOM     46  H   UNL A   1      43.091  26.657  29.998  1.00  0.00     0.167 HD
ATOM     47  C   UNL A   1      39.716  28.407  27.741  1.00  0.00     0.034 A 
ATOM     48  C   UNL A   1      44.465  26.342  32.335  1.00  0.00     0.034 A 
ATOM     49  C   UNL A   1      40.882  29.101  27.236  1.00  0.00     0.049 A 
ATOM     50  C   UNL A   1      44.119  27.710  31.870  1.00  0.00     0.074 A 
ATOM     51  C   UNL A   1      41.616  29.050  26.066  1.00  0.00     0.029 A 
ATOM     52  N   UNL A   1      41.706  29.685  28.171  1.00  0.00    -0.354 N 
ATOM     53  N   UNL A   1      44.804  28.358  30.968  1.00  0.00    -0.248 NA
ATOM     54  C   UNL A   1      42.757  28.177  32.074  1.00  0.00     0.031 C 
ATOM     55  C   UNL A   1      42.977  29.162  26.479  1.00  0.00     0.029 A 
ATOM     56  C   UNL A   1      43.000  29.355  27.862  1.00  0.00     0.049 A 
ATOM     57  H   UNL A   1      41.418  30.242  28.930  1.00  0.00     0.167 HD
ATOM     58  C   UNL A   1      43.840  28.975  30.180  1.00  0.00     0.074 A 
ATOM     59  C   UNL A   1      42.613  28.926  30.975  1.00  0.00     0.031 C 
ATOM     60  C   UNL A   1      44.050  29.189  28.847  1.00  0.00     0.034 A 
BRANCH  47  61
ATOM     61  C   UNL A   1      38.687  29.116  28.590  1.00  0.00     0.023 A 
ATOM     62  C   UNL A   1      37.905  30.096  27.941  1.00  0.00     0.012 A 
ATOM     63  C   UNL A   1      38.606  29.070  30.002  1.00  0.00     0.148 A 
ATOM     64  C   UNL A   1      37.139  31.020  28.658  1.00  0.00     0.002 A 
ATOM     65  C   UNL A   1      37.777  29.934  30.705  1.00  0.00     0.091 A 
ATOM     66  F   UNL A   1      39.429  28.291  30.705  1.00  0.00    -0.205 F 
ATOM     67  C   UNL A   1      37.069  30.935  30.041  1.00  0.00     0.022 A 
BRANCH  65  68
ATOM     68  S   UNL A   1      37.611  29.826  32.492  1.00  0.00     0.127 S 
ATOM     69  O   UNL A   1      38.893  30.365  32.936  1.00  0.00    -0.237 OA
ATOM     70  O   UNL A   1      36.455  30.688  32.737  1.00  0.00    -0.237 OA
ATOM     71  O   UNL A   1      37.373  28.417  32.781  1.00  0.00    -0.744 OA
ENDBRANCH  65  68
ENDBRANCH  47  61
BRANCH  48  72
ATOM     72  C   UNL A   1      44.694  26.048  33.769  1.00  0.00     0.023 A 
ATOM     73  C   UNL A   1      46.009  26.061  34.281  1.00  0.00     0.012 A 
ATOM     74  C   UNL A   1      43.623  26.052  34.687  1.00  0.00     0.148 A 
ATOM     75  C   UNL A   1      46.248  26.122  35.660  1.00  0.00     0.002 A 
ATOM     76  C   UNL A   1      43.863  26.111  36.059  1.00  0.00     0.091 A 
ATOM     77  F   UNL A   1      42.370  26.099  34.217  1.00  0.00    -0.205 F 
ATOM     78  C   UNL A   1      45.176  26.159  36.547  1.00  0.00     0.022 A 
BRANCH  76  79
ATOM     79  S   UNL A   1      42.532  26.203  37.264  1.00  0.00     0.127 S 
ATOM     80  O   UNL A   1      43.271  26.263  38.526  1.00  0.00    -0.237 OA
ATOM     81  O   UNL A   1      41.867  27.446  36.885  1.00  0.00    -0.237 OA
ATOM     82  O   UNL A   1      41.744  24.989  37.089  1.00  0.00    -0.744 OA
ENDBRANCH  76  79
ENDBRANCH  48  72
BRANCH  60  83
ATOM     83  C   UNL A   1      45.448  28.994  28.306  1.00  0.00     0.023 A 
ATOM     84  C   UNL A   1      45.904  27.756  27.804  1.00  0.00     0.012 A 
ATOM     85  C   UNL A   1      46.262  30.128  28.145  1.00  0.00     0.148 A 
ATOM     86  C   UNL A   1      47.151  27.648  27.181  1.00  0.00     0.002 A 
ATOM     87  C   UNL A   1      47.479  30.027  27.482  1.00  0.00     0.091 A 
ATOM     88  F   UNL A   1      45.819  31.299  28.625  1.00  0.00    -0.205 F 
ATOM     89  C   UNL A   1      47.933  28.787  27.007  1.00  0.00     0.022 A 
BRANCH  87  90
ATOM     90  S   UNL A   1      48.466  31.479  27.113  1.00  0.00     0.127 S 
ATOM     91  O   UNL A   1      48.764  31.993  28.448  1.00  0.00    -0.237 OA
ATOM     92  O   UNL A   1      49.615  30.910  26.406  1.00  0.00    -0.237 OA
ATOM     93  O   UNL A   1      47.625  32.333  26.284  1.00  0.00    -0.744 OA
ENDBRANCH  87  90
ENDBRANCH  60  83
ENDBRANCH  34  35
ENDBRANCH  26  29
ENDBRANCH  24  25
ENDBRANCH   1  24
TORSDOF 16
ENDMDL
MODEL 3
REMARK VINA RESULT:     -12.4      3.117      7.071
REMARK SMILES Cc1ccc(C)c(N2C(=O)C[C@@H](SCC(=O)NCCCNC(=O)c3ccc(-c4c5nc(c(-c6cccc(S(=O)(=O)[O-])c6F)c6ccc([nH]6)c(-c6cccc(S(=O)(=O)[O-])c6F)c6nc(c(-c7cccc(S(=O)(=O)[O-])c7F)c7ccc4[nH]7)C=C6)C=C5)cc3)C2=O)c1
REMARK SMILES IDX 19 1 18 2 17 3 15 4 16 5 14 7 13 8 12 9 8 10 9 11 87 12
REMARK SMILES IDX 10 13 11 14 88 15 7 16 1 17 2 18 3 19 89 20 4 21 5 22 6 23
REMARK SMILES IDX 20 24 21 25 22 26 23 28 24 29 25 30 86 31 26 32 85 33 27 34
REMARK SMILES IDX 28 35 29 36 79 37 30 38 84 39 78 40 80 41 31 42 83 43 77 44
REMARK SMILES IDX 76 45 32 47 64 48 44 49 63 50 45 51 48 52 62 53 81 54 46 55
REMARK SMILES IDX 47 56 61 58 82 59 49 60 33 61 34 62 42 63 35 64 37 65 43 66
REMARK SMILES IDX 36 67 38 68 39 69 40 70 41 71 65 72 66 73 74 74 67 75 69 76
REMARK SMILES IDX 75 77 68 78 70 79 71 80 72 81 73 82 50 83 51 84 59 85 52 86
REMARK SMILES IDX 54 87 60 88 53 89 55 90 56 91 57 92 58 93
REMARK H PARENT 17 6 21 27 80 46 48 57
REMARK Flexibility Score: inf
ROOT
ATOM      1  C   UNL A   1      39.286  21.148  26.003  1.00  0.00     0.042 C 
ENDROOT
BRANCH   1   2
ATOM      2  C   UNL A   1      38.230  22.261  26.032  1.00  0.00     0.117 C 
BRANCH   2   3
ATOM      3  N   UNL A   1      37.773  22.684  24.718  1.00  0.00    -0.355 N 
ATOM      4  C   UNL A   1      36.659  22.327  24.017  1.00  0.00     0.230 C 
ATOM      5  O   UNL A   1      36.454  22.870  22.932  1.00  0.00    -0.274 OA
ATOM      6  H   UNL A   1      38.361  23.329  24.261  1.00  0.00     0.163 HD
BRANCH   4   7
ATOM      7  C   UNL A   1      35.678  21.317  24.569  1.00  0.00     0.170 C 
BRANCH   7   8
ATOM      8  S   UNL A   1      33.980  21.946  24.689  1.00  0.00    -0.138 SA
BRANCH   8   9
ATOM      9  C   UNL A   1      34.090  22.988  26.216  1.00  0.00     0.146 C 
ATOM     10  N   UNL A   1      32.668  24.845  26.092  1.00  0.00    -0.249 N 
ATOM     11  C   UNL A   1      32.004  23.933  26.877  1.00  0.00     0.235 C 
ATOM     12  C   UNL A   1      33.935  24.426  25.763  1.00  0.00     0.247 C 
ATOM     13  O   UNL A   1      30.840  23.978  27.253  1.00  0.00    -0.274 OA
ATOM     14  C   UNL A   1      32.931  22.790  27.178  1.00  0.00     0.125 C 
ATOM     15  O   UNL A   1      34.801  25.050  25.159  1.00  0.00    -0.273 OA
BRANCH  10  16
ATOM     16  C   UNL A   1      32.092  26.061  25.661  1.00  0.00     0.055 A 
ATOM     17  C   UNL A   1      32.063  29.691  26.866  1.00  0.00     0.044 C 
ATOM     18  C   UNL A   1      31.792  28.459  26.056  1.00  0.00    -0.049 A 
ATOM     19  C   UNL A   1      31.031  28.547  24.890  1.00  0.00     0.004 A 
ATOM     20  C   UNL A   1      32.299  27.212  26.444  1.00  0.00     0.030 A 
ATOM     21  C   UNL A   1      30.789  27.409  24.120  1.00  0.00     0.006 A 
ATOM     22  C   UNL A   1      31.308  26.155  24.493  1.00  0.00    -0.027 A 
ATOM     23  C   UNL A   1      30.915  24.979  23.641  1.00  0.00     0.046 C 
ENDBRANCH  10  16
ENDBRANCH   8   9
ENDBRANCH   7   8
ENDBRANCH   4   7
ENDBRANCH   2   3
ENDBRANCH   1   2
BRANCH   1  24
ATOM     24  C   UNL A   1      40.491  21.404  26.895  1.00  0.00     0.118 C 
BRANCH  24  25
ATOM     25  N   UNL A   1      41.692  21.844  26.160  1.00  0.00    -0.352 N 
ATOM     26  C   UNL A   1      42.184  23.108  25.871  1.00  0.00     0.251 C 
ATOM     27  H   UNL A   1      42.244  21.108  25.811  1.00  0.00     0.163 HD
ATOM     28  O   UNL A   1      43.031  23.236  24.978  1.00  0.00    -0.269 OA
BRANCH  26  29
ATOM     29  C   UNL A   1      41.737  24.293  26.625  1.00  0.00     0.039 A 
ATOM     30  C   UNL A   1      40.669  25.114  26.263  1.00  0.00     0.014 A 
ATOM     31  C   UNL A   1      42.532  24.699  27.672  1.00  0.00     0.014 A 
ATOM     32  C   UNL A   1      40.539  26.350  26.910  1.00  0.00     0.010 A 
ATOM     33  C   UNL A   1      42.090  25.615  28.561  1.00  0.00     0.010 A 
ATOM     34  C   UNL A   1      41.332  26.616  28.031  1.00  0.00    -0.014 A 
BRANCH  34  35
ATOM     35  C   UNL A   1      41.296  27.826  28.813  1.00  0.00     0.031 A 
ATOM     36  C   UNL A   1      42.281  28.815  28.359  1.00  0.00     0.074 A 
ATOM     37  C   UNL A   1      40.302  28.136  29.674  1.00  0.00     0.049 A 
ATOM     38  N   UNL A   1      43.467  28.978  28.836  1.00  0.00    -0.248 NA
ATOM     39  C   UNL A   1      42.034  29.513  27.089  1.00  0.00     0.031 C 
ATOM     40  C   UNL A   1      39.028  27.444  29.917  1.00  0.00     0.029 A 
ATOM     41  N   UNL A   1      40.193  29.243  30.453  1.00  0.00    -0.354 N 
ATOM     42  C   UNL A   1      43.993  30.024  28.097  1.00  0.00     0.074 A 
ATOM     43  C   UNL A   1      43.227  30.072  26.882  1.00  0.00     0.031 C 
ATOM     44  C   UNL A   1      38.205  28.255  30.626  1.00  0.00     0.029 A 
ATOM     45  C   UNL A   1      38.934  29.452  31.004  1.00  0.00     0.049 A 
ATOM     46  H   UNL A   1      40.948  29.853  30.616  1.00  0.00     0.167 HD
ATOM     47  C   UNL A   1      44.771  30.967  28.694  1.00  0.00     0.034 A 
ATOM     48  C   UNL A   1      38.534  30.565  31.670  1.00  0.00     0.034 A 
ATOM     49  C   UNL A   1      45.148  30.555  30.030  1.00  0.00     0.049 A 
ATOM     50  C   UNL A   1      39.764  31.265  32.122  1.00  0.00     0.074 A 
ATOM     51  C   UNL A   1      45.764  29.441  30.568  1.00  0.00     0.029 A 
ATOM     52  N   UNL A   1      44.485  31.159  31.073  1.00  0.00    -0.354 N 
ATOM     53  N   UNL A   1      40.579  30.780  33.018  1.00  0.00    -0.248 NA
ATOM     54  C   UNL A   1      40.325  32.289  31.256  1.00  0.00     0.031 C 
ATOM     55  C   UNL A   1      45.054  29.176  31.778  1.00  0.00     0.029 A 
ATOM     56  C   UNL A   1      44.102  30.183  31.954  1.00  0.00     0.049 A 
ATOM     57  H   UNL A   1      44.314  32.124  31.169  1.00  0.00     0.167 HD
ATOM     58  C   UNL A   1      41.845  31.078  32.528  1.00  0.00     0.074 A 
ATOM     59  C   UNL A   1      41.625  32.105  31.510  1.00  0.00     0.031 C 
ATOM     60  C   UNL A   1      42.908  30.254  32.772  1.00  0.00     0.034 A 
BRANCH  47  61
ATOM     61  C   UNL A   1      44.865  32.412  28.262  1.00  0.00     0.023 A 
ATOM     62  C   UNL A   1      46.159  32.900  27.982  1.00  0.00     0.012 A 
ATOM     63  C   UNL A   1      43.828  33.370  28.352  1.00  0.00     0.148 A 
ATOM     64  C   UNL A   1      46.420  34.269  27.865  1.00  0.00     0.002 A 
ATOM     65  C   UNL A   1      44.076  34.722  28.149  1.00  0.00     0.091 A 
ATOM     66  F   UNL A   1      42.612  33.019  28.771  1.00  0.00    -0.205 F 
ATOM     67  C   UNL A   1      45.376  35.181  27.941  1.00  0.00     0.022 A 
BRANCH  65  68
ATOM     68  S   UNL A   1      42.748  35.934  28.184  1.00  0.00     0.127 S 
ATOM     69  O   UNL A   1      43.494  37.185  28.090  1.00  0.00    -0.237 OA
ATOM     70  O   UNL A   1      41.984  35.573  26.989  1.00  0.00    -0.237 OA
ATOM     71  O   UNL A   1      42.037  35.702  29.436  1.00  0.00    -0.744 OA
ENDBRANCH  65  68
ENDBRANCH  47  61
BRANCH  48  72
ATOM     72  C   UNL A   1      37.202  31.211  31.751  1.00  0.00     0.023 A 
ATOM     73  C   UNL A   1      36.696  31.607  33.006  1.00  0.00     0.012 A 
ATOM     74  C   UNL A   1      36.568  31.705  30.591  1.00  0.00     0.148 A 
ATOM     75  C   UNL A   1      35.623  32.502  33.103  1.00  0.00     0.002 A 
ATOM     76  C   UNL A   1      35.500  32.594  30.690  1.00  0.00     0.091 A 
ATOM     77  F   UNL A   1      37.073  31.385  29.393  1.00  0.00    -0.205 F 
ATOM     78  C   UNL A   1      35.033  33.004  31.947  1.00  0.00     0.022 A 
BRANCH  76  79
ATOM     79  S   UNL A   1      34.714  33.317  29.244  1.00  0.00     0.127 S 
ATOM     80  O   UNL A   1      34.262  32.128  28.519  1.00  0.00    -0.237 OA
ATOM     81  O   UNL A   1      33.645  34.109  29.846  1.00  0.00    -0.237 OA
ATOM     82  O   UNL A   1      35.751  34.078  28.558  1.00  0.00    -0.744 OA
ENDBRANCH  76  79
ENDBRANCH  48  72
BRANCH  60  83
ATOM     83  C   UNL A   1      42.741  29.165  33.807  1.00  0.00     0.023 A 
ATOM     84  C   UNL A   1      42.030  27.973  33.550  1.00  0.00     0.012 A 
ATOM     85  C   UNL A   1      43.462  29.274  35.008  1.00  0.00     0.148 A 
ATOM     86  C   UNL A   1      42.019  26.928  34.478  1.00  0.00     0.002 A 
ATOM     87  C   UNL A   1      43.488  28.214  35.907  1.00  0.00     0.091 A 
ATOM     88  F   UNL A   1      44.134  30.411  35.243  1.00  0.00    -0.205 F 
ATOM     89  C   UNL A   1      42.760  27.043  35.652  1.00  0.00     0.022 A 
BRANCH  87  90
ATOM     90  S   UNL A   1      44.527  28.255  37.370  1.00  0.00     0.127 S 
ATOM     91  O   UNL A   1      45.869  28.238  36.791  1.00  0.00    -0.237 OA
ATOM     92  O   UNL A   1      44.146  29.523  37.995  1.00  0.00    -0.237 OA
ATOM     93  O   UNL A   1      44.164  27.077  38.150  1.00  0.00    -0.744 OA
ENDBRANCH  87  90
ENDBRANCH  60  83
ENDBRANCH  34  35
ENDBRANCH  26  29
ENDBRANCH  24  25
ENDBRANCH   1  24
TORSDOF 16
ENDMDL
