MODEL 1
REMARK VINA RESULT:     -13.2      0.000      0.000
REMARK SMILES O=C(NCCCNC(=O)c1cccc(S(=O)(=O)NNC(=O)c2ccc3c(c2)OCO3)c1)c1ccc(-c2c3nc(c(-c4cccc(S(=O)(=O)[O-])c4F)c4ccc([nH]4)c(-c4cccc(S(=O)(=O)[O-])c4F)c4nc(c(-c5cccc(S(=O)(=O)[O-])c5F)c5ccc2[nH]5)C=C4)C=C3)cc1
REMARK SMILES IDX 5 1 4 2 3 3 1 4 2 5 32 7 33 8 94 9 34 10 93 11 35 12 36 13
REMARK SMILES IDX 37 14 87 15 38 16 92 17 86 18 88 19 39 20 91 21 85 22 84 23
REMARK SMILES IDX 40 25 72 26 52 27 71 28 53 29 56 30 70 31 89 32 54 33 55 34
REMARK SMILES IDX 69 36 90 37 57 38 41 39 42 40 50 41 43 42 45 43 51 44 44 45
REMARK SMILES IDX 46 46 47 47 48 48 49 49 73 50 74 51 82 52 75 53 77 54 83 55
REMARK SMILES IDX 76 56 78 57 79 58 80 59 81 60 58 61 59 62 67 63 60 64 62 65
REMARK SMILES IDX 68 66 61 67 63 68 64 69 65 70 66 71 6 72 7 73 8 74 9 76
REMARK SMILES IDX 10 77 11 78 31 79 12 80 14 81 13 82 15 83 16 84 17 85 18 86
REMARK SMILES IDX 19 88 20 89 21 91 22 92 23 93 27 94 24 95 26 96 25 97 28 98
REMARK SMILES IDX 30 99 29 100
REMARK H PARENT 3 6 88 24 56 35 7 75 18 87 19 90
REMARK Flexibility Score: inf
ROOT
ATOM      1  C   UNL A   1      35.165  21.881  25.681  1.00  0.00     0.042 C 
ENDROOT
BRANCH   1   2
ATOM      2  C   UNL A   1      36.518  22.414  26.127  1.00  0.00     0.118 C 
BRANCH   2   3
ATOM      3  N   UNL A   1      37.583  21.426  25.994  1.00  0.00    -0.352 N 
ATOM      4  O   UNL A   1      39.673  20.639  25.752  1.00  0.00    -0.269 OA
ATOM      5  C   UNL A   1      38.947  21.562  26.110  1.00  0.00     0.251 C 
ATOM      6  H   UNL A   1      37.275  20.514  25.786  1.00  0.00     0.163 HD
BRANCH   5   7
ATOM      7  C   UNL A   1      39.533  22.816  26.636  1.00  0.00     0.039 A 
ATOM      8  C   UNL A   1      39.132  24.053  26.132  1.00  0.00     0.014 A 
ATOM      9  C   UNL A   1      40.484  22.760  27.660  1.00  0.00     0.014 A 
ATOM     10  C   UNL A   1      39.815  25.204  26.501  1.00  0.00     0.010 A 
ATOM     11  C   UNL A   1      41.084  23.939  28.121  1.00  0.00     0.010 A 
ATOM     12  C   UNL A   1      40.784  25.168  27.516  1.00  0.00    -0.014 A 
BRANCH  12  13
ATOM     13  C   UNL A   1      41.395  26.449  27.957  1.00  0.00     0.031 A 
ATOM     14  C   UNL A   1      42.815  26.812  27.614  1.00  0.00     0.074 A 
ATOM     15  C   UNL A   1      40.622  27.320  28.640  1.00  0.00     0.049 A 
ATOM     16  N   UNL A   1      43.453  27.929  27.852  1.00  0.00    -0.248 NA
ATOM     17  C   UNL A   1      43.627  25.795  26.928  1.00  0.00     0.031 C 
ATOM     18  C   UNL A   1      39.250  27.054  29.082  1.00  0.00     0.029 A 
ATOM     19  N   UNL A   1      40.862  28.601  29.063  1.00  0.00    -0.354 N 
ATOM     20  C   UNL A   1      44.745  27.743  27.377  1.00  0.00     0.074 A 
ATOM     21  C   UNL A   1      44.807  26.398  26.848  1.00  0.00     0.031 C 
ATOM     22  C   UNL A   1      38.753  28.153  29.667  1.00  0.00     0.029 A 
ATOM     23  C   UNL A   1      39.786  29.181  29.693  1.00  0.00     0.049 A 
ATOM     24  H   UNL A   1      41.722  29.062  28.928  1.00  0.00     0.167 HD
ATOM     25  C   UNL A   1      45.778  28.622  27.361  1.00  0.00     0.034 A 
ATOM     26  C   UNL A   1      39.642  30.403  30.240  1.00  0.00     0.034 A 
ATOM     27  C   UNL A   1      45.701  29.971  27.857  1.00  0.00     0.049 A 
ATOM     28  C   UNL A   1      40.785  31.370  30.157  1.00  0.00     0.074 A 
ATOM     29  C   UNL A   1      46.683  30.947  27.856  1.00  0.00     0.029 A 
ATOM     30  N   UNL A   1      44.577  30.540  28.437  1.00  0.00    -0.354 N 
ATOM     31  N   UNL A   1      41.960  31.209  29.599  1.00  0.00    -0.248 NA
ATOM     32  C   UNL A   1      40.575  32.696  30.752  1.00  0.00     0.031 C 
ATOM     33  C   UNL A   1      46.154  32.103  28.441  1.00  0.00     0.029 A 
ATOM     34  C   UNL A   1      44.838  31.852  28.794  1.00  0.00     0.049 A 
ATOM     35  H   UNL A   1      43.718  30.078  28.575  1.00  0.00     0.167 HD
ATOM     36  C   UNL A   1      42.627  32.415  29.765  1.00  0.00     0.074 A 
ATOM     37  C   UNL A   1      41.707  33.312  30.437  1.00  0.00     0.031 C 
ATOM     38  C   UNL A   1      43.896  32.742  29.421  1.00  0.00     0.034 A 
BRANCH  25  39
ATOM     39  C   UNL A   1      47.073  28.173  26.732  1.00  0.00     0.023 A 
ATOM     40  C   UNL A   1      48.131  27.750  27.563  1.00  0.00     0.012 A 
ATOM     41  C   UNL A   1      47.219  28.092  25.333  1.00  0.00     0.148 A 
ATOM     42  C   UNL A   1      49.321  27.274  27.013  1.00  0.00     0.002 A 
ATOM     43  C   UNL A   1      48.395  27.583  24.792  1.00  0.00     0.091 A 
ATOM     44  F   UNL A   1      46.210  28.517  24.559  1.00  0.00    -0.205 F 
ATOM     45  C   UNL A   1      49.449  27.181  25.630  1.00  0.00     0.022 A 
BRANCH  43  46
ATOM     46  S   UNL A   1      48.633  27.356  23.025  1.00  0.00     0.127 S 
ATOM     47  O   UNL A   1      50.058  27.649  22.880  1.00  0.00    -0.237 OA
ATOM     48  O   UNL A   1      48.281  25.946  22.844  1.00  0.00    -0.237 OA
ATOM     49  O   UNL A   1      47.730  28.295  22.375  1.00  0.00    -0.744 OA
ENDBRANCH  43  46
ENDBRANCH  25  39
BRANCH  26  50
ATOM     50  C   UNL A   1      38.345  30.779  30.869  1.00  0.00     0.023 A 
ATOM     51  C   UNL A   1      38.133  30.532  32.239  1.00  0.00     0.012 A 
ATOM     52  C   UNL A   1      37.342  31.433  30.127  1.00  0.00     0.148 A 
ATOM     53  C   UNL A   1      36.938  30.909  32.852  1.00  0.00     0.002 A 
ATOM     54  C   UNL A   1      36.182  31.864  30.758  1.00  0.00     0.091 A 
ATOM     55  F   UNL A   1      37.548  31.642  28.819  1.00  0.00    -0.205 F 
ATOM     56  C   UNL A   1      35.969  31.588  32.117  1.00  0.00     0.022 A 
BRANCH  54  57
ATOM     57  S   UNL A   1      34.975  32.887  29.906  1.00  0.00     0.127 S 
ATOM     58  O   UNL A   1      34.449  31.962  28.908  1.00  0.00    -0.237 OA
ATOM     59  O   UNL A   1      34.044  33.232  30.981  1.00  0.00    -0.237 OA
ATOM     60  O   UNL A   1      35.736  34.022  29.396  1.00  0.00    -0.744 OA
ENDBRANCH  54  57
ENDBRANCH  26  50
BRANCH  38  61
ATOM     61  C   UNL A   1      44.360  34.133  29.764  1.00  0.00     0.023 A 
ATOM     62  C   UNL A   1      45.007  34.362  30.995  1.00  0.00     0.012 A 
ATOM     63  C   UNL A   1      44.196  35.196  28.858  1.00  0.00     0.148 A 
ATOM     64  C   UNL A   1      45.450  35.640  31.335  1.00  0.00     0.002 A 
ATOM     65  C   UNL A   1      44.680  36.459  29.186  1.00  0.00     0.091 A 
ATOM     66  F   UNL A   1      43.558  34.963  27.703  1.00  0.00    -0.205 F 
ATOM     67  C   UNL A   1      45.296  36.684  30.427  1.00  0.00     0.022 A 
BRANCH  65  68
ATOM     68  S   UNL A   1      44.596  37.838  28.039  1.00  0.00     0.127 S 
ATOM     69  O   UNL A   1      45.302  37.303  26.876  1.00  0.00    -0.237 OA
ATOM     70  O   UNL A   1      43.153  38.005  27.851  1.00  0.00    -0.237 OA
ATOM     71  O   UNL A   1      45.245  38.953  28.713  1.00  0.00    -0.744 OA
ENDBRANCH  65  68
ENDBRANCH  38  61
ENDBRANCH  12  13
ENDBRANCH   5   7
ENDBRANCH   2   3
ENDBRANCH   1   2
BRANCH   1  72
ATOM     72  C   UNL A   1      35.266  20.705  24.723  1.00  0.00     0.118 C 
BRANCH  72  73
ATOM     73  N   UNL A   1      34.215  19.722  24.953  1.00  0.00    -0.352 N 
ATOM     74  C   UNL A   1      32.856  19.886  25.037  1.00  0.00     0.251 C 
ATOM     75  H   UNL A   1      34.529  18.796  25.065  1.00  0.00     0.163 HD
ATOM     76  O   UNL A   1      32.153  18.984  25.484  1.00  0.00    -0.269 OA
BRANCH  74  77
ATOM     77  C   UNL A   1      32.222  21.134  24.568  1.00  0.00     0.041 A 
ATOM     78  C   UNL A   1      32.267  21.452  23.207  1.00  0.00     0.014 A 
ATOM     79  C   UNL A   1      31.665  22.029  25.484  1.00  0.00     0.035 A 
ATOM     80  C   UNL A   1      31.699  22.643  22.750  1.00  0.00     0.002 A 
ATOM     81  C   UNL A   1      31.087  23.208  25.020  1.00  0.00     0.084 A 
ATOM     82  C   UNL A   1      31.099  23.518  23.655  1.00  0.00     0.022 A 
BRANCH  81  83
ATOM     83  S   UNL A   1      30.370  24.385  26.127  1.00  0.00     0.257 S 
ATOM     84  O   UNL A   1      29.507  25.241  25.346  1.00  0.00    -0.205 OA
ATOM     85  O   UNL A   1      29.898  23.653  27.281  1.00  0.00    -0.205 OA
BRANCH  83  86
ATOM     86  N   UNL A   1      31.656  25.334  26.677  1.00  0.00    -0.123 NA
ATOM     87  H   UNL A   1      32.394  25.253  25.977  1.00  0.00     0.167 HD
BRANCH  86  88
ATOM     88  N   UNL A   1      31.487  26.749  26.936  1.00  0.00    -0.273 N 
ATOM     89  C   UNL A   1      31.623  27.729  25.973  1.00  0.00     0.266 C 
ATOM     90  H   UNL A   1      31.262  27.028  27.852  1.00  0.00     0.186 HD
ATOM     91  O   UNL A   1      31.403  28.913  26.198  1.00  0.00    -0.268 OA
BRANCH  89  92
ATOM     92  C   UNL A   1      32.218  27.316  24.690  1.00  0.00     0.045 A 
ATOM     93  C   UNL A   1      33.531  26.803  24.734  1.00  0.00     0.018 A 
ATOM     94  C   UNL A   1      31.455  27.287  23.519  1.00  0.00     0.064 A 
ATOM     95  C   UNL A   1      34.083  26.201  23.603  1.00  0.00     0.051 A 
ATOM     96  C   UNL A   1      32.023  26.658  22.434  1.00  0.00     0.166 A 
ATOM     97  C   UNL A   1      33.293  26.123  22.476  1.00  0.00     0.165 A 
ATOM     98  O   UNL A   1      31.410  26.432  21.241  1.00  0.00    -0.454 OA
ATOM     99  O   UNL A   1      33.631  25.500  21.317  1.00  0.00    -0.454 OA
ATOM    100  C   UNL A   1      32.391  25.599  20.586  1.00  0.00     0.468 C 
ENDBRANCH  89  92
ENDBRANCH  86  88
ENDBRANCH  83  86
ENDBRANCH  81  83
ENDBRANCH  74  77
ENDBRANCH  72  73
ENDBRANCH   1  72
TORSDOF 17
ENDMDL
MODEL 2
REMARK VINA RESULT:     -13.1      1.746      7.658
REMARK SMILES O=C(NCCCNC(=O)c1cccc(S(=O)(=O)NNC(=O)c2ccc3c(c2)OCO3)c1)c1ccc(-c2c3nc(c(-c4cccc(S(=O)(=O)[O-])c4F)c4ccc([nH]4)c(-c4cccc(S(=O)(=O)[O-])c4F)c4nc(c(-c5cccc(S(=O)(=O)[O-])c5F)c5ccc2[nH]5)C=C4)C=C3)cc1
REMARK SMILES IDX 5 1 4 2 3 3 1 4 2 5 32 7 33 8 94 9 34 10 93 11 35 12 36 13
REMARK SMILES IDX 37 14 87 15 38 16 92 17 86 18 88 19 39 20 91 21 85 22 84 23
REMARK SMILES IDX 40 25 72 26 52 27 71 28 53 29 56 30 70 31 89 32 54 33 55 34
REMARK SMILES IDX 69 36 90 37 57 38 41 39 42 40 50 41 43 42 45 43 51 44 44 45
REMARK SMILES IDX 46 46 47 47 48 48 49 49 73 50 74 51 82 52 75 53 77 54 83 55
REMARK SMILES IDX 76 56 78 57 79 58 80 59 81 60 58 61 59 62 67 63 60 64 62 65
REMARK SMILES IDX 68 66 61 67 63 68 64 69 65 70 66 71 6 72 7 73 8 74 9 76
REMARK SMILES IDX 10 77 11 78 31 79 12 80 14 81 13 82 15 83 16 84 17 85 18 86
REMARK SMILES IDX 19 88 20 89 21 91 22 92 23 93 27 94 24 95 26 96 25 97 28 98
REMARK SMILES IDX 30 99 29 100
REMARK H PARENT 3 6 88 24 56 35 7 75 18 87 19 90
REMARK Flexibility Score: inf
ROOT
ATOM      1  C   UNL A   1      37.913  19.535  24.983  1.00  0.00     0.042 C 
ENDROOT
BRANCH   1   2
ATOM      2  C   UNL A   1      38.980  20.100  25.907  1.00  0.00     0.118 C 
BRANCH   2   3
ATOM      3  N   UNL A   1      40.132  19.215  26.043  1.00  0.00    -0.352 N 
ATOM      4  O   UNL A   1      42.292  18.596  26.043  1.00  0.00    -0.269 OA
ATOM      5  C   UNL A   1      41.473  19.504  26.147  1.00  0.00     0.251 C 
ATOM      6  H   UNL A   1      39.915  18.255  26.060  1.00  0.00     0.163 HD
BRANCH   5   7
ATOM      7  C   UNL A   1      41.924  20.899  26.359  1.00  0.00     0.039 A 
ATOM      8  C   UNL A   1      42.023  21.425  27.647  1.00  0.00     0.014 A 
ATOM      9  C   UNL A   1      42.272  21.689  25.259  1.00  0.00     0.014 A 
ATOM     10  C   UNL A   1      42.269  22.779  27.823  1.00  0.00     0.010 A 
ATOM     11  C   UNL A   1      42.645  23.026  25.450  1.00  0.00     0.010 A 
ATOM     12  C   UNL A   1      42.605  23.595  26.730  1.00  0.00    -0.014 A 
BRANCH  12  13
ATOM     13  C   UNL A   1      42.981  25.009  26.992  1.00  0.00     0.031 A 
ATOM     14  C   UNL A   1      42.063  25.953  27.719  1.00  0.00     0.074 A 
ATOM     15  C   UNL A   1      44.205  25.424  26.602  1.00  0.00     0.049 A 
ATOM     16  N   UNL A   1      42.290  27.185  28.097  1.00  0.00    -0.248 NA
ATOM     17  C   UNL A   1      40.717  25.464  28.057  1.00  0.00     0.031 C 
ATOM     18  C   UNL A   1      45.159  24.616  25.836  1.00  0.00     0.029 A 
ATOM     19  N   UNL A   1      44.866  26.607  26.809  1.00  0.00    -0.354 N 
ATOM     20  C   UNL A   1      41.114  27.630  28.688  1.00  0.00     0.074 A 
ATOM     21  C   UNL A   1      40.166  26.540  28.606  1.00  0.00     0.031 C 
ATOM     22  C   UNL A   1      46.299  25.305  25.683  1.00  0.00     0.029 A 
ATOM     23  C   UNL A   1      46.139  26.622  26.287  1.00  0.00     0.049 A 
ATOM     24  H   UNL A   1      44.469  27.370  27.286  1.00  0.00     0.167 HD
ATOM     25  C   UNL A   1      40.856  28.828  29.267  1.00  0.00     0.034 A 
ATOM     26  C   UNL A   1      47.076  27.588  26.286  1.00  0.00     0.034 A 
ATOM     27  C   UNL A   1      41.814  29.898  29.378  1.00  0.00     0.049 A 
ATOM     28  C   UNL A   1      46.779  28.883  26.983  1.00  0.00     0.074 A 
ATOM     29  C   UNL A   1      41.657  31.137  29.974  1.00  0.00     0.029 A 
ATOM     30  N   UNL A   1      43.110  29.854  28.886  1.00  0.00    -0.354 N 
ATOM     31  N   UNL A   1      45.699  29.237  27.636  1.00  0.00    -0.248 NA
ATOM     32  C   UNL A   1      47.837  29.900  26.970  1.00  0.00     0.031 C 
ATOM     33  C   UNL A   1      42.856  31.845  29.838  1.00  0.00     0.029 A 
ATOM     34  C   UNL A   1      43.765  31.041  29.168  1.00  0.00     0.049 A 
ATOM     35  H   UNL A   1      43.506  29.092  28.406  1.00  0.00     0.167 HD
ATOM     36  C   UNL A   1      45.949  30.513  28.120  1.00  0.00     0.074 A 
ATOM     37  C   UNL A   1      47.302  30.852  27.723  1.00  0.00     0.031 C 
ATOM     38  C   UNL A   1      45.125  31.343  28.805  1.00  0.00     0.034 A 
BRANCH  25  39
ATOM     39  C   UNL A   1      39.495  29.033  29.885  1.00  0.00     0.023 A 
ATOM     40  C   UNL A   1      39.249  28.543  31.184  1.00  0.00     0.012 A 
ATOM     41  C   UNL A   1      38.495  29.772  29.224  1.00  0.00     0.148 A 
ATOM     42  C   UNL A   1      38.021  28.766  31.807  1.00  0.00     0.002 A 
ATOM     43  C   UNL A   1      37.285  30.021  29.865  1.00  0.00     0.091 A 
ATOM     44  F   UNL A   1      38.739  30.213  27.981  1.00  0.00    -0.205 F 
ATOM     45  C   UNL A   1      37.044  29.512  31.153  1.00  0.00     0.022 A 
BRANCH  43  46
ATOM     46  S   UNL A   1      35.989  31.031  29.138  1.00  0.00     0.127 S 
ATOM     47  O   UNL A   1      35.197  31.384  30.314  1.00  0.00    -0.237 OA
ATOM     48  O   UNL A   1      36.749  32.141  28.560  1.00  0.00    -0.237 OA
ATOM     49  O   UNL A   1      35.320  30.182  28.163  1.00  0.00    -0.744 OA
ENDBRANCH  43  46
ENDBRANCH  25  39
BRANCH  26  50
ATOM     50  C   UNL A   1      48.393  27.335  25.638  1.00  0.00     0.023 A 
ATOM     51  C   UNL A   1      49.457  26.812  26.398  1.00  0.00     0.012 A 
ATOM     52  C   UNL A   1      48.578  27.557  24.260  1.00  0.00     0.148 A 
ATOM     53  C   UNL A   1      50.687  26.535  25.799  1.00  0.00     0.002 A 
ATOM     54  C   UNL A   1      49.784  27.219  23.659  1.00  0.00     0.091 A 
ATOM     55  F   UNL A   1      47.564  28.076  23.554  1.00  0.00    -0.205 F 
ATOM     56  C   UNL A   1      50.847  26.724  24.429  1.00  0.00     0.022 A 
BRANCH  54  57
ATOM     57  S   UNL A   1      49.993  27.282  21.875  1.00  0.00     0.127 S 
ATOM     58  O   UNL A   1      51.358  26.792  21.715  1.00  0.00    -0.237 OA
ATOM     59  O   UNL A   1      48.950  26.368  21.407  1.00  0.00    -0.237 OA
ATOM     60  O   UNL A   1      49.762  28.676  21.517  1.00  0.00    -0.744 OA
ENDBRANCH  54  57
ENDBRANCH  26  50
BRANCH  38  61
ATOM     61  C   UNL A   1      45.670  32.697  29.171  1.00  0.00     0.023 A 
ATOM     62  C   UNL A   1      46.362  32.859  30.388  1.00  0.00     0.012 A 
ATOM     63  C   UNL A   1      45.536  33.794  28.299  1.00  0.00     0.148 A 
ATOM     64  C   UNL A   1      46.880  34.102  30.749  1.00  0.00     0.002 A 
ATOM     65  C   UNL A   1      46.094  35.020  28.646  1.00  0.00     0.091 A 
ATOM     66  F   UNL A   1      44.855  33.626  27.157  1.00  0.00    -0.205 F 
ATOM     67  C   UNL A   1      46.755  35.178  29.874  1.00  0.00     0.022 A 
BRANCH  65  68
ATOM     68  S   UNL A   1      46.049  36.433  27.539  1.00  0.00     0.127 S 
ATOM     69  O   UNL A   1      46.982  37.351  28.190  1.00  0.00    -0.237 OA
ATOM     70  O   UNL A   1      46.534  35.863  26.280  1.00  0.00    -0.237 OA
ATOM     71  O   UNL A   1      44.659  36.865  27.505  1.00  0.00    -0.744 OA
ENDBRANCH  65  68
ENDBRANCH  38  61
ENDBRANCH  12  13
ENDBRANCH   5   7
ENDBRANCH   2   3
ENDBRANCH   1   2
BRANCH   1  72
ATOM     72  C   UNL A   1      36.658  20.391  24.914  1.00  0.00     0.118 C 
BRANCH  72  73
ATOM     73  N   UNL A   1      36.926  21.781  25.259  1.00  0.00    -0.352 N 
ATOM     74  C   UNL A   1      36.187  22.910  25.012  1.00  0.00     0.251 C 
ATOM     75  H   UNL A   1      37.769  21.934  25.744  1.00  0.00     0.163 HD
ATOM     76  O   UNL A   1      36.691  24.020  25.156  1.00  0.00    -0.269 OA
BRANCH  74  77
ATOM     77  C   UNL A   1      34.774  22.803  24.599  1.00  0.00     0.041 A 
ATOM     78  C   UNL A   1      34.467  22.691  23.240  1.00  0.00     0.014 A 
ATOM     79  C   UNL A   1      33.753  22.906  25.547  1.00  0.00     0.035 A 
ATOM     80  C   UNL A   1      33.134  22.619  22.830  1.00  0.00     0.002 A 
ATOM     81  C   UNL A   1      32.426  22.818  25.133  1.00  0.00     0.084 A 
ATOM     82  C   UNL A   1      32.112  22.673  23.776  1.00  0.00     0.022 A 
BRANCH  81  83
ATOM     83  S   UNL A   1      31.089  22.945  26.282  1.00  0.00     0.257 S 
ATOM     84  O   UNL A   1      30.171  21.865  25.995  1.00  0.00    -0.205 OA
ATOM     85  O   UNL A   1      31.668  23.143  27.592  1.00  0.00    -0.205 OA
BRANCH  83  86
ATOM     86  N   UNL A   1      30.300  24.390  25.902  1.00  0.00    -0.123 NA
ATOM     87  H   UNL A   1      29.305  24.171  25.851  1.00  0.00     0.167 HD
BRANCH  86  88
ATOM     88  N   UNL A   1      30.421  25.557  26.752  1.00  0.00    -0.273 N 
ATOM     89  C   UNL A   1      31.011  26.741  26.356  1.00  0.00     0.266 C 
ATOM     90  H   UNL A   1      30.060  25.503  27.666  1.00  0.00     0.186 HD
ATOM     91  O   UNL A   1      31.036  27.738  27.065  1.00  0.00    -0.268 OA
BRANCH  89  92
ATOM     92  C   UNL A   1      31.773  26.708  25.095  1.00  0.00     0.045 A 
ATOM     93  C   UNL A   1      33.171  26.556  25.202  1.00  0.00     0.018 A 
ATOM     94  C   UNL A   1      31.120  26.667  23.860  1.00  0.00     0.064 A 
ATOM     95  C   UNL A   1      33.935  26.308  24.061  1.00  0.00     0.051 A 
ATOM     96  C   UNL A   1      31.904  26.390  22.762  1.00  0.00     0.166 A 
ATOM     97  C   UNL A   1      33.267  26.207  22.860  1.00  0.00     0.165 A 
ATOM     98  O   UNL A   1      31.450  26.205  21.493  1.00  0.00    -0.454 OA
ATOM     99  O   UNL A   1      33.833  25.887  21.666  1.00  0.00    -0.454 OA
ATOM    100  C   UNL A   1      32.660  25.773  20.833  1.00  0.00     0.468 C 
ENDBRANCH  89  92
ENDBRANCH  86  88
ENDBRANCH  83  86
ENDBRANCH  81  83
ENDBRANCH  74  77
ENDBRANCH  72  73
ENDBRANCH   1  72
TORSDOF 17
ENDMDL
MODEL 3
REMARK VINA RESULT:     -13.0      4.943      9.789
REMARK SMILES O=C(NCCCNC(=O)c1cccc(S(=O)(=O)NNC(=O)c2ccc3c(c2)OCO3)c1)c1ccc(-c2c3nc(c(-c4cccc(S(=O)(=O)[O-])c4F)c4ccc([nH]4)c(-c4cccc(S(=O)(=O)[O-])c4F)c4nc(c(-c5cccc(S(=O)(=O)[O-])c5F)c5ccc2[nH]5)C=C4)C=C3)cc1
REMARK SMILES IDX 5 1 4 2 3 3 1 4 2 5 32 7 33 8 94 9 34 10 93 11 35 12 36 13
REMARK SMILES IDX 37 14 87 15 38 16 92 17 86 18 88 19 39 20 91 21 85 22 84 23
REMARK SMILES IDX 40 25 72 26 52 27 71 28 53 29 56 30 70 31 89 32 54 33 55 34
REMARK SMILES IDX 69 36 90 37 57 38 41 39 42 40 50 41 43 42 45 43 51 44 44 45
REMARK SMILES IDX 46 46 47 47 48 48 49 49 73 50 74 51 82 52 75 53 77 54 83 55
REMARK SMILES IDX 76 56 78 57 79 58 80 59 81 60 58 61 59 62 67 63 60 64 62 65
REMARK SMILES IDX 68 66 61 67 63 68 64 69 65 70 66 71 6 72 7 73 8 74 9 76
REMARK SMILES IDX 10 77 11 78 31 79 12 80 14 81 13 82 15 83 16 84 17 85 18 86
REMARK SMILES IDX 19 88 20 89 21 91 22 92 23 93 27 94 24 95 26 96 25 97 28 98
REMARK SMILES IDX 30 99 29 100
REMARK H PARENT 3 6 88 24 56 35 7 75 18 87 19 90
REMARK Flexibility Score: inf
ROOT
ATOM      1  C   UNL A   1      33.986  28.806  24.436  1.00  0.00     0.042 C 
ENDROOT
BRANCH   1   2
ATOM      2  C   UNL A   1      33.017  28.830  25.608  1.00  0.00     0.118 C 
BRANCH   2   3
ATOM      3  N   UNL A   1      32.590  30.180  25.956  1.00  0.00    -0.352 N 
ATOM      4  O   UNL A   1      32.456  32.077  27.153  1.00  0.00    -0.269 OA
ATOM      5  C   UNL A   1      33.100  31.070  26.873  1.00  0.00     0.251 C 
ATOM      6  H   UNL A   1      31.808  30.507  25.455  1.00  0.00     0.163 HD
BRANCH   5   7
ATOM      7  C   UNL A   1      34.398  30.804  27.533  1.00  0.00     0.039 A 
ATOM      8  C   UNL A   1      34.710  29.526  27.997  1.00  0.00     0.014 A 
ATOM      9  C   UNL A   1      35.327  31.839  27.677  1.00  0.00     0.014 A 
ATOM     10  C   UNL A   1      35.844  29.329  28.772  1.00  0.00     0.010 A 
ATOM     11  C   UNL A   1      36.533  31.606  28.352  1.00  0.00     0.010 A 
ATOM     12  C   UNL A   1      36.783  30.359  28.943  1.00  0.00    -0.014 A 
BRANCH  12  13
ATOM     13  C   UNL A   1      38.040  30.058  29.677  1.00  0.00     0.031 A 
ATOM     14  C   UNL A   1      38.281  30.559  31.075  1.00  0.00     0.074 A 
ATOM     15  C   UNL A   1      38.954  29.269  29.075  1.00  0.00     0.049 A 
ATOM     16  N   UNL A   1      39.287  30.302  31.872  1.00  0.00    -0.248 NA
ATOM     17  C   UNL A   1      37.280  31.469  31.653  1.00  0.00     0.031 C 
ATOM     18  C   UNL A   1      38.857  28.773  27.699  1.00  0.00     0.029 A 
ATOM     19  N   UNL A   1      40.126  28.730  29.538  1.00  0.00    -0.354 N 
ATOM     20  C   UNL A   1      39.059  31.038  33.029  1.00  0.00     0.074 A 
ATOM     21  C   UNL A   1      37.825  31.766  32.826  1.00  0.00     0.031 C 
ATOM     22  C   UNL A   1      39.894  27.963  27.447  1.00  0.00     0.029 A 
ATOM     23  C   UNL A   1      40.760  27.925  28.619  1.00  0.00     0.049 A 
ATOM     24  H   UNL A   1      40.479  28.900  30.441  1.00  0.00     0.167 HD
ATOM     25  C   UNL A   1      39.798  31.084  34.165  1.00  0.00     0.034 A 
ATOM     26  C   UNL A   1      41.914  27.237  28.702  1.00  0.00     0.034 A 
ATOM     27  C   UNL A   1      41.007  30.331  34.375  1.00  0.00     0.049 A 
ATOM     28  C   UNL A   1      42.680  27.265  29.992  1.00  0.00     0.074 A 
ATOM     29  C   UNL A   1      41.809  30.287  35.502  1.00  0.00     0.029 A 
ATOM     30  N   UNL A   1      41.587  29.485  33.442  1.00  0.00    -0.354 N 
ATOM     31  N   UNL A   1      42.383  27.878  31.111  1.00  0.00    -0.248 NA
ATOM     32  C   UNL A   1      43.923  26.486  30.041  1.00  0.00     0.031 C 
ATOM     33  C   UNL A   1      42.877  29.419  35.248  1.00  0.00     0.029 A 
ATOM     34  C   UNL A   1      42.733  28.912  33.967  1.00  0.00     0.049 A 
ATOM     35  H   UNL A   1      41.236  29.317  32.537  1.00  0.00     0.167 HD
ATOM     36  C   UNL A   1      43.395  27.551  32.002  1.00  0.00     0.074 A 
ATOM     37  C   UNL A   1      44.291  26.649  31.305  1.00  0.00     0.031 C 
ATOM     38  C   UNL A   1      43.586  27.982  33.273  1.00  0.00     0.034 A 
BRANCH  25  39
ATOM     39  C   UNL A   1      39.290  31.937  35.300  1.00  0.00     0.023 A 
ATOM     40  C   UNL A   1      38.353  31.393  36.202  1.00  0.00     0.012 A 
ATOM     41  C   UNL A   1      39.793  33.233  35.525  1.00  0.00     0.148 A 
ATOM     42  C   UNL A   1      37.907  32.133  37.297  1.00  0.00     0.002 A 
ATOM     43  C   UNL A   1      39.371  33.953  36.638  1.00  0.00     0.091 A 
ATOM     44  F   UNL A   1      40.669  33.742  34.645  1.00  0.00    -0.205 F 
ATOM     45  C   UNL A   1      38.422  33.408  37.520  1.00  0.00     0.022 A 
BRANCH  43  46
ATOM     46  S   UNL A   1      40.027  35.573  37.055  1.00  0.00     0.127 S 
ATOM     47  O   UNL A   1      39.653  36.353  35.876  1.00  0.00    -0.237 OA
ATOM     48  O   UNL A   1      39.279  35.907  38.268  1.00  0.00    -0.237 OA
ATOM     49  O   UNL A   1      41.457  35.387  37.256  1.00  0.00    -0.744 OA
ENDBRANCH  43  46
ENDBRANCH  25  39
BRANCH  26  50
ATOM     50  C   UNL A   1      42.376  26.432  27.537  1.00  0.00     0.023 A 
ATOM     51  C   UNL A   1      43.216  27.018  26.571  1.00  0.00     0.012 A 
ATOM     52  C   UNL A   1      42.033  25.072  27.414  1.00  0.00     0.148 A 
ATOM     53  C   UNL A   1      43.687  26.269  25.491  1.00  0.00     0.002 A 
ATOM     54  C   UNL A   1      42.557  24.316  26.372  1.00  0.00     0.091 A 
ATOM     55  F   UNL A   1      41.214  24.534  28.329  1.00  0.00    -0.205 F 
ATOM     56  C   UNL A   1      43.371  24.916  25.400  1.00  0.00     0.022 A 
BRANCH  54  57
ATOM     57  S   UNL A   1      42.323  22.536  26.296  1.00  0.00     0.127 S 
ATOM     58  O   UNL A   1      43.017  22.090  27.499  1.00  0.00    -0.237 OA
ATOM     59  O   UNL A   1      40.865  22.412  26.341  1.00  0.00    -0.237 OA
ATOM     60  O   UNL A   1      42.911  22.133  25.024  1.00  0.00    -0.744 OA
ENDBRANCH  54  57
ENDBRANCH  26  50
BRANCH  38  61
ATOM     61  C   UNL A   1      44.809  27.476  33.990  1.00  0.00     0.023 A 
ATOM     62  C   UNL A   1      46.001  28.225  33.937  1.00  0.00     0.012 A 
ATOM     63  C   UNL A   1      44.768  26.291  34.747  1.00  0.00     0.148 A 
ATOM     64  C   UNL A   1      47.147  27.781  34.595  1.00  0.00     0.002 A 
ATOM     65  C   UNL A   1      45.902  25.876  35.437  1.00  0.00     0.091 A 
ATOM     66  F   UNL A   1      43.632  25.580  34.766  1.00  0.00    -0.205 F 
ATOM     67  C   UNL A   1      47.094  26.614  35.353  1.00  0.00     0.022 A 
BRANCH  65  68
ATOM     68  S   UNL A   1      45.894  24.430  36.502  1.00  0.00     0.127 S 
ATOM     69  O   UNL A   1      44.772  24.721  37.392  1.00  0.00    -0.237 OA
ATOM     70  O   UNL A   1      45.653  23.341  35.553  1.00  0.00    -0.237 OA
ATOM     71  O   UNL A   1      47.207  24.396  37.132  1.00  0.00    -0.744 OA
ENDBRANCH  65  68
ENDBRANCH  38  61
ENDBRANCH  12  13
ENDBRANCH   5   7
ENDBRANCH   2   3
ENDBRANCH   1   2
BRANCH   1  72
ATOM     72  C   UNL A   1      33.305  28.966  23.086  1.00  0.00     0.118 C 
BRANCH  72  73
ATOM     73  N   UNL A   1      33.564  27.835  22.205  1.00  0.00    -0.352 N 
ATOM     74  C   UNL A   1      33.129  26.536  22.284  1.00  0.00     0.251 C 
ATOM     75  H   UNL A   1      34.143  28.033  21.434  1.00  0.00     0.163 HD
ATOM     76  O   UNL A   1      33.653  25.668  21.593  1.00  0.00    -0.269 OA
BRANCH  74  77
ATOM     77  C   UNL A   1      32.011  26.176  23.178  1.00  0.00     0.041 A 
ATOM     78  C   UNL A   1      30.774  26.805  23.010  1.00  0.00     0.014 A 
ATOM     79  C   UNL A   1      32.212  25.285  24.234  1.00  0.00     0.035 A 
ATOM     80  C   UNL A   1      29.714  26.498  23.866  1.00  0.00     0.002 A 
ATOM     81  C   UNL A   1      31.147  24.971  25.075  1.00  0.00     0.084 A 
ATOM     82  C   UNL A   1      29.896  25.572  24.893  1.00  0.00     0.022 A 
BRANCH  81  83
ATOM     83  S   UNL A   1      31.338  23.855  26.432  1.00  0.00     0.257 S 
ATOM     84  O   UNL A   1      32.669  24.047  26.963  1.00  0.00    -0.205 OA
ATOM     85  O   UNL A   1      30.152  23.973  27.251  1.00  0.00    -0.205 OA
BRANCH  83  86
ATOM     86  N   UNL A   1      31.283  22.306  25.760  1.00  0.00    -0.123 NA
ATOM     87  H   UNL A   1      30.477  21.839  26.175  1.00  0.00     0.167 HD
BRANCH  86  88
ATOM     88  N   UNL A   1      31.177  22.113  24.328  1.00  0.00    -0.273 N 
ATOM     89  C   UNL A   1      32.153  21.512  23.558  1.00  0.00     0.266 C 
ATOM     90  H   UNL A   1      30.361  22.428  23.877  1.00  0.00     0.186 HD
ATOM     91  O   UNL A   1      32.011  21.293  22.361  1.00  0.00    -0.268 OA
BRANCH  89  92
ATOM     92  C   UNL A   1      33.461  21.297  24.201  1.00  0.00     0.045 A 
ATOM     93  C   UNL A   1      33.772  19.976  24.584  1.00  0.00     0.018 A 
ATOM     94  C   UNL A   1      34.404  22.326  24.276  1.00  0.00     0.064 A 
ATOM     95  C   UNL A   1      35.063  19.656  25.003  1.00  0.00     0.051 A 
ATOM     96  C   UNL A   1      35.675  21.965  24.666  1.00  0.00     0.166 A 
ATOM     97  C   UNL A   1      35.997  20.670  25.010  1.00  0.00     0.165 A 
ATOM     98  O   UNL A   1      36.754  22.791  24.703  1.00  0.00    -0.454 OA
ATOM     99  O   UNL A   1      37.316  20.526  25.306  1.00  0.00    -0.454 OA
ATOM    100  C   UNL A   1      37.808  21.847  24.995  1.00  0.00     0.468 C 
ENDBRANCH  89  92
ENDBRANCH  86  88
ENDBRANCH  83  86
ENDBRANCH  81  83
ENDBRANCH  74  77
ENDBRANCH  72  73
ENDBRANCH   1  72
TORSDOF 17
ENDMDL
