MODEL 1
REMARK VINA RESULT:     -10.6      0.000      0.000
REMARK SMILES O=C(CS(=O)(=O)Nc1ccc2ccccc2c1)NCCCNC(=O)c1ccc(-c2c3nc(c(-c4cccc(S(=O)(=O)[O-])c4F)c4ccc([nH]4)c(-c4cccc(S(=O)(=O)[O-])c4F)c4nc(c(-c5cccc(S(=O)(=O)[O-])c5F)c5ccc2[nH]5)C=C4)C=C3)cc1
REMARK SMILES IDX 20 1 19 2 18 3 1 4 2 5 3 7 4 8 5 9 6 10 7 11 8 13 9 14 17 15
REMARK SMILES IDX 10 16 16 17 11 18 15 19 12 20 14 21 13 22 21 23 22 24 23 25
REMARK SMILES IDX 24 27 25 28 26 29 87 30 27 31 86 32 28 33 29 34 30 35 80 36
REMARK SMILES IDX 31 37 85 38 79 39 81 40 32 41 84 42 78 43 77 44 33 46 65 47
REMARK SMILES IDX 45 48 64 49 46 50 49 51 63 52 82 53 47 54 48 55 62 57 83 58
REMARK SMILES IDX 50 59 34 60 35 61 43 62 36 63 38 64 44 65 37 66 39 67 40 68
REMARK SMILES IDX 41 69 42 70 66 71 67 72 75 73 68 74 70 75 76 76 69 77 71 78
REMARK SMILES IDX 72 79 73 80 74 81 51 82 52 83 60 84 53 85 55 86 61 87 54 88
REMARK SMILES IDX 56 89 57 90 58 91 59 92
REMARK H PARENT 18 6 7 12 22 26 81 45 49 56
REMARK Flexibility Score: inf
ROOT
ATOM      1  C   UNL A   1      41.872  18.808  27.290  1.00  0.00     0.042 C 
ENDROOT
BRANCH   1   2
ATOM      2  C   UNL A   1      42.753  18.428  26.119  1.00  0.00     0.117 C 
BRANCH   2   3
ATOM      3  N   UNL A   1      43.446  19.552  25.514  1.00  0.00    -0.355 N 
ATOM      4  O   UNL A   1      45.177  18.342  24.658  1.00  0.00    -0.274 OA
ATOM      5  C   UNL A   1      44.531  19.391  24.684  1.00  0.00     0.237 C 
ATOM      6  H   UNL A   1      43.128  20.463  25.706  1.00  0.00     0.163 HD
BRANCH   5   7
ATOM      7  C   UNL A   1      44.944  20.550  23.821  1.00  0.00     0.259 C 
BRANCH   7   8
ATOM      8  S   UNL A   1      44.952  22.134  24.646  1.00  0.00     0.241 S 
ATOM      9  O   UNL A   1      45.757  23.066  23.884  1.00  0.00    -0.206 OA
ATOM     10  O   UNL A   1      43.563  22.467  24.918  1.00  0.00    -0.206 OA
BRANCH   8  11
ATOM     11  N   UNL A   1      45.612  22.008  26.175  1.00  0.00    -0.283 N 
ATOM     12  H   UNL A   1      45.875  21.112  26.487  1.00  0.00     0.180 HD
BRANCH  11  13
ATOM     13  C   UNL A   1      45.823  23.102  27.062  1.00  0.00     0.049 A 
ATOM     14  C   UNL A   1      46.866  24.001  26.913  1.00  0.00     0.027 A 
ATOM     15  C   UNL A   1      44.871  23.336  28.055  1.00  0.00     0.035 A 
ATOM     16  C   UNL A   1      47.100  24.986  27.875  1.00  0.00     0.011 A 
ATOM     17  C   UNL A   1      45.029  24.387  28.976  1.00  0.00    -0.016 A 
ATOM     18  C   UNL A   1      46.193  25.183  28.922  1.00  0.00    -0.018 A 
ATOM     19  C   UNL A   1      44.057  24.665  29.949  1.00  0.00     0.009 A 
ATOM     20  C   UNL A   1      46.399  26.177  29.890  1.00  0.00     0.009 A 
ATOM     21  C   UNL A   1      44.252  25.689  30.879  1.00  0.00     0.001 A 
ATOM     22  C   UNL A   1      45.431  26.427  30.864  1.00  0.00     0.001 A 
ENDBRANCH  11  13
ENDBRANCH   8  11
ENDBRANCH   7   8
ENDBRANCH   5   7
ENDBRANCH   2   3
ENDBRANCH   1   2
BRANCH   1  23
ATOM     23  C   UNL A   1      41.308  20.220  27.217  1.00  0.00     0.118 C 
BRANCH  23  24
ATOM     24  N   UNL A   1      40.050  20.314  26.484  1.00  0.00    -0.352 N 
ATOM     25  C   UNL A   1      39.247  21.406  26.249  1.00  0.00     0.251 C 
ATOM     26  H   UNL A   1      39.727  19.467  26.100  1.00  0.00     0.163 HD
ATOM     27  O   UNL A   1      38.158  21.250  25.703  1.00  0.00    -0.269 OA
BRANCH  25  28
ATOM     28  C   UNL A   1      39.673  22.758  26.676  1.00  0.00     0.039 A 
ATOM     29  C   UNL A   1      40.646  22.874  27.674  1.00  0.00     0.014 A 
ATOM     30  C   UNL A   1      39.127  23.907  26.101  1.00  0.00     0.014 A 
ATOM     31  C   UNL A   1      41.122  24.137  28.035  1.00  0.00     0.010 A 
ATOM     32  C   UNL A   1      39.671  25.155  26.392  1.00  0.00     0.010 A 
ATOM     33  C   UNL A   1      40.669  25.288  27.368  1.00  0.00    -0.014 A 
BRANCH  33  34
ATOM     34  C   UNL A   1      41.237  26.628  27.665  1.00  0.00     0.031 A 
ATOM     35  C   UNL A   1      42.607  27.005  27.166  1.00  0.00     0.074 A 
ATOM     36  C   UNL A   1      40.554  27.480  28.457  1.00  0.00     0.049 A 
ATOM     37  N   UNL A   1      43.281  28.110  27.362  1.00  0.00    -0.248 NA
ATOM     38  C   UNL A   1      43.327  26.002  26.364  1.00  0.00     0.031 C 
ATOM     39  C   UNL A   1      39.255  27.205  29.075  1.00  0.00     0.029 A 
ATOM     40  N   UNL A   1      40.868  28.742  28.899  1.00  0.00    -0.354 N 
ATOM     41  C   UNL A   1      44.511  27.921  26.742  1.00  0.00     0.074 A 
ATOM     42  C   UNL A   1      44.506  26.582  26.196  1.00  0.00     0.031 C 
ATOM     43  C   UNL A   1      38.879  28.267  29.805  1.00  0.00     0.029 A 
ATOM     44  C   UNL A   1      39.922  29.285  29.738  1.00  0.00     0.049 A 
ATOM     45  H   UNL A   1      41.692  29.214  28.639  1.00  0.00     0.167 HD
ATOM     46  C   UNL A   1      45.540  28.791  26.613  1.00  0.00     0.034 A 
ATOM     47  C   UNL A   1      39.899  30.466  30.387  1.00  0.00     0.034 A 
ATOM     48  C   UNL A   1      45.528  30.136  27.124  1.00  0.00     0.049 A 
ATOM     49  C   UNL A   1      41.041  31.428  30.199  1.00  0.00     0.074 A 
ATOM     50  C   UNL A   1      46.484  31.123  26.967  1.00  0.00     0.029 A 
ATOM     51  N   UNL A   1      44.517  30.679  27.902  1.00  0.00    -0.354 N 
ATOM     52  N   UNL A   1      42.124  31.291  29.473  1.00  0.00    -0.248 NA
ATOM     53  C   UNL A   1      40.939  32.722  30.887  1.00  0.00     0.031 C 
ATOM     54  C   UNL A   1      46.066  32.253  27.678  1.00  0.00     0.029 A 
ATOM     55  C   UNL A   1      44.832  31.983  28.244  1.00  0.00     0.049 A 
ATOM     56  H   UNL A   1      43.696  30.206  28.171  1.00  0.00     0.167 HD
ATOM     57  C   UNL A   1      42.813  32.493  29.585  1.00  0.00     0.074 A 
ATOM     58  C   UNL A   1      42.014  33.354  30.433  1.00  0.00     0.031 C 
ATOM     59  C   UNL A   1      44.006  32.848  29.047  1.00  0.00     0.034 A 
BRANCH  46  60
ATOM     60  C   UNL A   1      46.754  28.333  25.844  1.00  0.00     0.023 A 
ATOM     61  C   UNL A   1      46.678  28.184  24.444  1.00  0.00     0.012 A 
ATOM     62  C   UNL A   1      47.982  28.109  26.496  1.00  0.00     0.148 A 
ATOM     63  C   UNL A   1      47.793  27.784  23.710  1.00  0.00     0.002 A 
ATOM     64  C   UNL A   1      49.102  27.758  25.752  1.00  0.00     0.091 A 
ATOM     65  F   UNL A   1      48.032  28.237  27.830  1.00  0.00    -0.205 F 
ATOM     66  C   UNL A   1      49.006  27.581  24.361  1.00  0.00     0.022 A 
BRANCH  64  67
ATOM     67  S   UNL A   1      50.730  27.556  26.483  1.00  0.00     0.127 S 
ATOM     68  O   UNL A   1      51.536  27.203  25.315  1.00  0.00    -0.237 OA
ATOM     69  O   UNL A   1      50.991  28.889  27.024  1.00  0.00    -0.237 OA
ATOM     70  O   UNL A   1      50.594  26.508  27.486  1.00  0.00    -0.744 OA
ENDBRANCH  64  67
ENDBRANCH  46  60
BRANCH  47  71
ATOM     71  C   UNL A   1      38.726  30.829  31.233  1.00  0.00     0.023 A 
ATOM     72  C   UNL A   1      38.764  30.571  32.617  1.00  0.00     0.012 A 
ATOM     73  C   UNL A   1      37.586  31.443  30.681  1.00  0.00     0.148 A 
ATOM     74  C   UNL A   1      37.673  30.883  33.430  1.00  0.00     0.002 A 
ATOM     75  C   UNL A   1      36.526  31.804  31.504  1.00  0.00     0.091 A 
ATOM     76  F   UNL A   1      37.566  31.672  29.359  1.00  0.00    -0.205 F 
ATOM     77  C   UNL A   1      36.559  31.508  32.876  1.00  0.00     0.022 A 
BRANCH  75  78
ATOM     78  S   UNL A   1      35.109  32.728  30.902  1.00  0.00     0.127 S 
ATOM     79  O   UNL A   1      34.743  31.970  29.709  1.00  0.00    -0.237 OA
ATOM     80  O   UNL A   1      34.174  32.607  32.022  1.00  0.00    -0.237 OA
ATOM     81  O   UNL A   1      35.592  34.082  30.667  1.00  0.00    -0.744 OA
ENDBRANCH  75  78
ENDBRANCH  47  71
BRANCH  59  82
ATOM     82  C   UNL A   1      44.508  34.244  29.316  1.00  0.00     0.023 A 
ATOM     83  C   UNL A   1      45.201  34.527  30.509  1.00  0.00     0.012 A 
ATOM     84  C   UNL A   1      44.351  35.257  28.349  1.00  0.00     0.148 A 
ATOM     85  C   UNL A   1      45.696  35.807  30.754  1.00  0.00     0.002 A 
ATOM     86  C   UNL A   1      44.895  36.516  28.576  1.00  0.00     0.091 A 
ATOM     87  F   UNL A   1      43.675  34.974  27.227  1.00  0.00    -0.205 F 
ATOM     88  C   UNL A   1      45.554  36.797  29.783  1.00  0.00     0.022 A 
BRANCH  86  89
ATOM     89  S   UNL A   1      44.849  37.823  27.345  1.00  0.00     0.127 S 
ATOM     90  O   UNL A   1      43.444  37.800  26.939  1.00  0.00    -0.237 OA
ATOM     91  O   UNL A   1      45.240  38.997  28.124  1.00  0.00    -0.237 OA
ATOM     92  O   UNL A   1      45.803  37.437  26.313  1.00  0.00    -0.744 OA
ENDBRANCH  86  89
ENDBRANCH  59  82
ENDBRANCH  33  34
ENDBRANCH  25  28
ENDBRANCH  23  24
ENDBRANCH   1  23
TORSDOF 16
ENDMDL
MODEL 2
REMARK VINA RESULT:     -10.5      2.129      3.034
REMARK SMILES O=C(CS(=O)(=O)Nc1ccc2ccccc2c1)NCCCNC(=O)c1ccc(-c2c3nc(c(-c4cccc(S(=O)(=O)[O-])c4F)c4ccc([nH]4)c(-c4cccc(S(=O)(=O)[O-])c4F)c4nc(c(-c5cccc(S(=O)(=O)[O-])c5F)c5ccc2[nH]5)C=C4)C=C3)cc1
REMARK SMILES IDX 20 1 19 2 18 3 1 4 2 5 3 7 4 8 5 9 6 10 7 11 8 13 9 14 17 15
REMARK SMILES IDX 10 16 16 17 11 18 15 19 12 20 14 21 13 22 21 23 22 24 23 25
REMARK SMILES IDX 24 27 25 28 26 29 87 30 27 31 86 32 28 33 29 34 30 35 80 36
REMARK SMILES IDX 31 37 85 38 79 39 81 40 32 41 84 42 78 43 77 44 33 46 65 47
REMARK SMILES IDX 45 48 64 49 46 50 49 51 63 52 82 53 47 54 48 55 62 57 83 58
REMARK SMILES IDX 50 59 34 60 35 61 43 62 36 63 38 64 44 65 37 66 39 67 40 68
REMARK SMILES IDX 41 69 42 70 66 71 67 72 75 73 68 74 70 75 76 76 69 77 71 78
REMARK SMILES IDX 72 79 73 80 74 81 51 82 52 83 60 84 53 85 55 86 61 87 54 88
REMARK SMILES IDX 56 89 57 90 58 91 59 92
REMARK H PARENT 18 6 7 12 22 26 81 45 49 56
REMARK Flexibility Score: inf
ROOT
ATOM      1  C   UNL A   1      41.520  20.305  27.835  1.00  0.00     0.042 C 
ENDROOT
BRANCH   1   2
ATOM      2  C   UNL A   1      41.729  19.507  26.564  1.00  0.00     0.117 C 
BRANCH   2   3
ATOM      3  N   UNL A   1      43.092  19.540  26.066  1.00  0.00    -0.355 N 
ATOM      4  O   UNL A   1      43.701  17.500  26.875  1.00  0.00    -0.274 OA
ATOM      5  C   UNL A   1      43.927  18.449  26.123  1.00  0.00     0.237 C 
ATOM      6  H   UNL A   1      43.432  20.376  25.671  1.00  0.00     0.163 HD
BRANCH   5   7
ATOM      7  C   UNL A   1      45.161  18.452  25.265  1.00  0.00     0.259 C 
BRANCH   7   8
ATOM      8  S   UNL A   1      45.730  20.071  24.775  1.00  0.00     0.241 S 
ATOM      9  O   UNL A   1      47.148  20.013  24.483  1.00  0.00    -0.206 OA
ATOM     10  O   UNL A   1      44.820  20.535  23.740  1.00  0.00    -0.206 OA
BRANCH   8  11
ATOM     11  N   UNL A   1      45.498  21.184  26.000  1.00  0.00    -0.283 N 
ATOM     12  H   UNL A   1      45.496  20.849  26.926  1.00  0.00     0.180 HD
BRANCH  11  13
ATOM     13  C   UNL A   1      45.303  22.580  25.804  1.00  0.00     0.049 A 
ATOM     14  C   UNL A   1      44.081  23.203  25.995  1.00  0.00     0.027 A 
ATOM     15  C   UNL A   1      46.421  23.366  25.515  1.00  0.00     0.035 A 
ATOM     16  C   UNL A   1      43.913  24.553  25.676  1.00  0.00     0.011 A 
ATOM     17  C   UNL A   1      46.295  24.749  25.290  1.00  0.00    -0.016 A 
ATOM     18  C   UNL A   1      45.013  25.337  25.309  1.00  0.00    -0.018 A 
ATOM     19  C   UNL A   1      47.415  25.558  25.047  1.00  0.00     0.009 A 
ATOM     20  C   UNL A   1      44.871  26.698  25.000  1.00  0.00     0.009 A 
ATOM     21  C   UNL A   1      47.264  26.922  24.787  1.00  0.00     0.001 A 
ATOM     22  C   UNL A   1      45.992  27.485  24.741  1.00  0.00     0.001 A 
ENDBRANCH  11  13
ENDBRANCH   8  11
ENDBRANCH   7   8
ENDBRANCH   5   7
ENDBRANCH   2   3
ENDBRANCH   1   2
BRANCH   1  23
ATOM     23  C   UNL A   1      40.942  21.695  27.614  1.00  0.00     0.118 C 
BRANCH  23  24
ATOM     24  N   UNL A   1      39.779  21.714  26.733  1.00  0.00    -0.352 N 
ATOM     25  C   UNL A   1      38.962  22.763  26.376  1.00  0.00     0.251 C 
ATOM     26  H   UNL A   1      39.542  20.847  26.334  1.00  0.00     0.163 HD
ATOM     27  O   UNL A   1      37.955  22.545  25.707  1.00  0.00    -0.269 OA
BRANCH  25  28
ATOM     28  C   UNL A   1      39.273  24.141  26.818  1.00  0.00     0.039 A 
ATOM     29  C   UNL A   1      38.888  24.541  28.101  1.00  0.00     0.014 A 
ATOM     30  C   UNL A   1      39.942  25.038  25.981  1.00  0.00     0.014 A 
ATOM     31  C   UNL A   1      39.243  25.810  28.568  1.00  0.00     0.010 A 
ATOM     32  C   UNL A   1      40.377  26.261  26.482  1.00  0.00     0.010 A 
ATOM     33  C   UNL A   1      40.028  26.667  27.778  1.00  0.00    -0.014 A 
BRANCH  33  34
ATOM     34  C   UNL A   1      40.502  27.976  28.295  1.00  0.00     0.031 A 
ATOM     35  C   UNL A   1      41.976  28.270  28.395  1.00  0.00     0.074 A 
ATOM     36  C   UNL A   1      39.606  28.875  28.754  1.00  0.00     0.049 A 
ATOM     37  N   UNL A   1      42.574  29.338  28.859  1.00  0.00    -0.248 NA
ATOM     38  C   UNL A   1      42.900  27.219  27.939  1.00  0.00     0.031 C 
ATOM     39  C   UNL A   1      38.155  28.679  28.793  1.00  0.00     0.029 A 
ATOM     40  N   UNL A   1      39.786  30.122  29.300  1.00  0.00    -0.354 N 
ATOM     41  C   UNL A   1      43.937  29.073  28.785  1.00  0.00     0.074 A 
ATOM     42  C   UNL A   1      44.078  27.731  28.267  1.00  0.00     0.031 C 
ATOM     43  C   UNL A   1      37.577  29.769  29.323  1.00  0.00     0.029 A 
ATOM     44  C   UNL A   1      38.614  30.726  29.693  1.00  0.00     0.049 A 
ATOM     45  H   UNL A   1      40.670  30.544  29.401  1.00  0.00     0.167 HD
ATOM     46  C   UNL A   1      44.977  29.884  29.091  1.00  0.00     0.034 A 
ATOM     47  C   UNL A   1      38.397  31.914  30.293  1.00  0.00     0.034 A 
ATOM     48  C   UNL A   1      44.836  31.233  29.571  1.00  0.00     0.049 A 
ATOM     49  C   UNL A   1      39.569  32.809  30.591  1.00  0.00     0.074 A 
ATOM     50  C   UNL A   1      45.827  32.163  29.824  1.00  0.00     0.029 A 
ATOM     51  N   UNL A   1      43.629  31.840  29.882  1.00  0.00    -0.354 N 
ATOM     52  N   UNL A   1      40.844  32.604  30.362  1.00  0.00    -0.248 NA
ATOM     53  C   UNL A   1      39.271  34.115  31.196  1.00  0.00     0.031 C 
ATOM     54  C   UNL A   1      45.222  33.323  30.319  1.00  0.00     0.029 A 
ATOM     55  C   UNL A   1      43.851  33.129  30.337  1.00  0.00     0.049 A 
ATOM     56  H   UNL A   1      42.744  31.417  29.791  1.00  0.00     0.167 HD
ATOM     57  C   UNL A   1      41.495  33.766  30.757  1.00  0.00     0.074 A 
ATOM     58  C   UNL A   1      40.471  34.680  31.221  1.00  0.00     0.031 C 
ATOM     59  C   UNL A   1      42.822  34.048  30.749  1.00  0.00     0.034 A 
BRANCH  46  60
ATOM     60  C   UNL A   1      46.370  29.349  28.872  1.00  0.00     0.023 A 
ATOM     61  C   UNL A   1      47.042  29.627  27.663  1.00  0.00     0.012 A 
ATOM     62  C   UNL A   1      47.037  28.627  29.881  1.00  0.00     0.148 A 
ATOM     63  C   UNL A   1      48.338  29.163  27.447  1.00  0.00     0.002 A 
ATOM     64  C   UNL A   1      48.347  28.210  29.677  1.00  0.00     0.091 A 
ATOM     65  F   UNL A   1      46.377  28.356  31.016  1.00  0.00    -0.205 F 
ATOM     66  C   UNL A   1      48.994  28.464  28.456  1.00  0.00     0.022 A 
BRANCH  64  67
ATOM     67  S   UNL A   1      49.309  27.377  30.945  1.00  0.00     0.127 S 
ATOM     68  O   UNL A   1      50.590  27.189  30.267  1.00  0.00    -0.237 OA
ATOM     69  O   UNL A   1      49.327  28.371  32.018  1.00  0.00    -0.237 OA
ATOM     70  O   UNL A   1      48.585  26.153  31.261  1.00  0.00    -0.744 OA
ENDBRANCH  64  67
ENDBRANCH  46  60
BRANCH  47  71
ATOM     71  C   UNL A   1      37.005  32.353  30.598  1.00  0.00     0.023 A 
ATOM     72  C   UNL A   1      36.494  32.179  31.899  1.00  0.00     0.012 A 
ATOM     73  C   UNL A   1      36.194  32.954  29.617  1.00  0.00     0.148 A 
ATOM     74  C   UNL A   1      35.188  32.562  32.209  1.00  0.00     0.002 A 
ATOM     75  C   UNL A   1      34.915  33.386  29.946  1.00  0.00     0.091 A 
ATOM     76  F   UNL A   1      36.695  33.102  28.382  1.00  0.00    -0.205 F 
ATOM     77  C   UNL A   1      34.403  33.174  31.236  1.00  0.00     0.022 A 
BRANCH  75  78
ATOM     78  S   UNL A   1      33.880  34.300  28.797  1.00  0.00     0.127 S 
ATOM     79  O   UNL A   1      34.778  35.372  28.374  1.00  0.00    -0.237 OA
ATOM     80  O   UNL A   1      33.599  33.290  27.776  1.00  0.00    -0.237 OA
ATOM     81  O   UNL A   1      32.714  34.719  29.564  1.00  0.00    -0.744 OA
ENDBRANCH  75  78
ENDBRANCH  47  71
BRANCH  59  82
ATOM     82  C   UNL A   1      43.249  35.416  31.213  1.00  0.00     0.023 A 
ATOM     83  C   UNL A   1      43.537  35.642  32.574  1.00  0.00     0.012 A 
ATOM     84  C   UNL A   1      43.434  36.460  30.285  1.00  0.00     0.148 A 
ATOM     85  C   UNL A   1      43.963  36.896  33.010  1.00  0.00     0.002 A 
ATOM     86  C   UNL A   1      43.912  37.691  30.718  1.00  0.00     0.091 A 
ATOM     87  F   UNL A   1      43.140  36.232  28.997  1.00  0.00    -0.205 F 
ATOM     88  C   UNL A   1      44.162  37.916  32.081  1.00  0.00     0.022 A 
BRANCH  86  89
ATOM     89  S   UNL A   1      44.292  39.031  29.584  1.00  0.00     0.127 S 
ATOM     90  O   UNL A   1      45.060  38.338  28.551  1.00  0.00    -0.237 OA
ATOM     91  O   UNL A   1      42.961  39.469  29.164  1.00  0.00    -0.237 OA
ATOM     92  O   UNL A   1      45.035  40.016  30.359  1.00  0.00    -0.744 OA
ENDBRANCH  86  89
ENDBRANCH  59  82
ENDBRANCH  33  34
ENDBRANCH  25  28
ENDBRANCH  23  24
ENDBRANCH   1  23
TORSDOF 16
ENDMDL
MODEL 3
REMARK VINA RESULT:     -10.5      5.318     11.368
REMARK SMILES O=C(CS(=O)(=O)Nc1ccc2ccccc2c1)NCCCNC(=O)c1ccc(-c2c3nc(c(-c4cccc(S(=O)(=O)[O-])c4F)c4ccc([nH]4)c(-c4cccc(S(=O)(=O)[O-])c4F)c4nc(c(-c5cccc(S(=O)(=O)[O-])c5F)c5ccc2[nH]5)C=C4)C=C3)cc1
REMARK SMILES IDX 20 1 19 2 18 3 1 4 2 5 3 7 4 8 5 9 6 10 7 11 8 13 9 14 17 15
REMARK SMILES IDX 10 16 16 17 11 18 15 19 12 20 14 21 13 22 21 23 22 24 23 25
REMARK SMILES IDX 24 27 25 28 26 29 87 30 27 31 86 32 28 33 29 34 30 35 80 36
REMARK SMILES IDX 31 37 85 38 79 39 81 40 32 41 84 42 78 43 77 44 33 46 65 47
REMARK SMILES IDX 45 48 64 49 46 50 49 51 63 52 82 53 47 54 48 55 62 57 83 58
REMARK SMILES IDX 50 59 34 60 35 61 43 62 36 63 38 64 44 65 37 66 39 67 40 68
REMARK SMILES IDX 41 69 42 70 66 71 67 72 75 73 68 74 70 75 76 76 69 77 71 78
REMARK SMILES IDX 72 79 73 80 74 81 51 82 52 83 60 84 53 85 55 86 61 87 54 88
REMARK SMILES IDX 56 89 57 90 58 91 59 92
REMARK H PARENT 18 6 7 12 22 26 81 45 49 56
REMARK Flexibility Score: inf
ROOT
ATOM      1  C   UNL A   1      33.650  28.201  24.879  1.00  0.00     0.042 C 
ENDROOT
BRANCH   1   2
ATOM      2  C   UNL A   1      32.142  28.336  24.868  1.00  0.00     0.117 C 
BRANCH   2   3
ATOM      3  N   UNL A   1      31.437  27.067  24.844  1.00  0.00    -0.355 N 
ATOM      4  O   UNL A   1      31.186  26.879  27.100  1.00  0.00    -0.274 OA
ATOM      5  C   UNL A   1      30.867  26.516  25.967  1.00  0.00     0.237 C 
ATOM      6  H   UNL A   1      31.364  26.583  23.990  1.00  0.00     0.163 HD
BRANCH   5   7
ATOM      7  C   UNL A   1      29.857  25.418  25.786  1.00  0.00     0.259 C 
BRANCH   7   8
ATOM      8  S   UNL A   1      30.304  23.857  26.529  1.00  0.00     0.241 S 
ATOM      9  O   UNL A   1      29.334  23.518  27.549  1.00  0.00    -0.206 OA
ATOM     10  O   UNL A   1      30.526  22.926  25.435  1.00  0.00    -0.206 OA
BRANCH   8  11
ATOM     11  N   UNL A   1      31.807  23.948  27.252  1.00  0.00    -0.283 N 
ATOM     12  H   UNL A   1      31.895  24.513  28.055  1.00  0.00     0.180 HD
BRANCH  11  13
ATOM     13  C   UNL A   1      32.972  23.269  26.795  1.00  0.00     0.049 A 
ATOM     14  C   UNL A   1      33.382  22.050  27.308  1.00  0.00     0.027 A 
ATOM     15  C   UNL A   1      33.661  23.806  25.706  1.00  0.00     0.035 A 
ATOM     16  C   UNL A   1      34.594  21.481  26.910  1.00  0.00     0.011 A 
ATOM     17  C   UNL A   1      34.830  23.196  25.217  1.00  0.00    -0.016 A 
ATOM     18  C   UNL A   1      35.337  22.052  25.870  1.00  0.00    -0.018 A 
ATOM     19  C   UNL A   1      35.507  23.696  24.094  1.00  0.00     0.009 A 
ATOM     20  C   UNL A   1      36.548  21.489  25.442  1.00  0.00     0.009 A 
ATOM     21  C   UNL A   1      36.687  23.098  23.649  1.00  0.00     0.001 A 
ATOM     22  C   UNL A   1      37.219  22.011  24.336  1.00  0.00     0.001 A 
ENDBRANCH  11  13
ENDBRANCH   8  11
ENDBRANCH   7   8
ENDBRANCH   5   7
ENDBRANCH   2   3
ENDBRANCH   1   2
BRANCH   1  23
ATOM     23  C   UNL A   1      34.304  28.587  26.198  1.00  0.00     0.118 C 
BRANCH  23  24
ATOM     24  N   UNL A   1      33.907  29.902  26.688  1.00  0.00    -0.352 N 
ATOM     25  C   UNL A   1      34.516  30.718  27.614  1.00  0.00     0.251 C 
ATOM     26  H   UNL A   1      33.077  30.260  26.299  1.00  0.00     0.163 HD
ATOM     27  O   UNL A   1      33.954  31.747  27.978  1.00  0.00    -0.269 OA
BRANCH  25  28
ATOM     28  C   UNL A   1      35.828  30.348  28.193  1.00  0.00     0.039 A 
ATOM     29  C   UNL A   1      35.856  29.583  29.363  1.00  0.00     0.014 A 
ATOM     30  C   UNL A   1      37.024  30.743  27.591  1.00  0.00     0.014 A 
ATOM     31  C   UNL A   1      37.081  29.154  29.882  1.00  0.00     0.010 A 
ATOM     32  C   UNL A   1      38.235  30.235  28.054  1.00  0.00     0.010 A 
ATOM     33  C   UNL A   1      38.281  29.440  29.208  1.00  0.00    -0.014 A 
BRANCH  33  34
ATOM     34  C   UNL A   1      39.582  28.907  29.686  1.00  0.00     0.031 A 
ATOM     35  C   UNL A   1      40.326  29.593  30.802  1.00  0.00     0.074 A 
ATOM     36  C   UNL A   1      40.138  27.848  29.062  1.00  0.00     0.049 A 
ATOM     37  N   UNL A   1      41.489  29.297  31.322  1.00  0.00    -0.248 NA
ATOM     38  C   UNL A   1      39.693  30.783  31.395  1.00  0.00     0.031 C 
ATOM     39  C   UNL A   1      39.562  27.144  27.914  1.00  0.00     0.029 A 
ATOM     40  N   UNL A   1      41.325  27.195  29.288  1.00  0.00    -0.354 N 
ATOM     41  C   UNL A   1      41.744  30.280  32.272  1.00  0.00     0.074 A 
ATOM     42  C   UNL A   1      40.631  31.203  32.231  1.00  0.00     0.031 C 
ATOM     43  C   UNL A   1      40.389  26.153  27.543  1.00  0.00     0.029 A 
ATOM     44  C   UNL A   1      41.569  26.171  28.401  1.00  0.00     0.049 A 
ATOM     45  H   UNL A   1      41.943  27.437  30.015  1.00  0.00     0.167 HD
ATOM     46  C   UNL A   1      42.792  30.389  33.121  1.00  0.00     0.034 A 
ATOM     47  C   UNL A   1      42.627  25.343  28.286  1.00  0.00     0.034 A 
ATOM     48  C   UNL A   1      43.879  29.449  33.187  1.00  0.00     0.049 A 
ATOM     49  C   UNL A   1      43.762  25.466  29.265  1.00  0.00     0.074 A 
ATOM     50  C   UNL A   1      44.941  29.423  34.073  1.00  0.00     0.029 A 
ATOM     51  N   UNL A   1      44.052  28.377  32.325  1.00  0.00    -0.354 N 
ATOM     52  N   UNL A   1      43.906  26.304  30.263  1.00  0.00    -0.248 NA
ATOM     53  C   UNL A   1      44.865  24.503  29.128  1.00  0.00     0.031 C 
ATOM     54  C   UNL A   1      45.774  28.354  33.727  1.00  0.00     0.029 A 
ATOM     55  C   UNL A   1      45.210  27.690  32.650  1.00  0.00     0.049 A 
ATOM     56  H   UNL A   1      43.440  28.138  31.591  1.00  0.00     0.167 HD
ATOM     57  C   UNL A   1      45.091  25.947  30.894  1.00  0.00     0.074 A 
ATOM     58  C   UNL A   1      45.617  24.803  30.179  1.00  0.00     0.031 C 
ATOM     59  C   UNL A   1      45.698  26.523  31.962  1.00  0.00     0.034 A 
BRANCH  46  60
ATOM     60  C   UNL A   1      42.793  31.546  34.089  1.00  0.00     0.023 A 
ATOM     61  C   UNL A   1      43.381  32.771  33.712  1.00  0.00     0.012 A 
ATOM     62  C   UNL A   1      42.161  31.442  35.343  1.00  0.00     0.148 A 
ATOM     63  C   UNL A   1      43.374  33.861  34.580  1.00  0.00     0.002 A 
ATOM     64  C   UNL A   1      42.115  32.547  36.184  1.00  0.00     0.091 A 
ATOM     65  F   UNL A   1      41.623  30.264  35.694  1.00  0.00    -0.205 F 
ATOM     66  C   UNL A   1      42.733  33.753  35.810  1.00  0.00     0.022 A 
BRANCH  64  67
ATOM     67  S   UNL A   1      41.241  32.538  37.754  1.00  0.00     0.127 S 
ATOM     68  O   UNL A   1      42.074  31.638  38.549  1.00  0.00    -0.237 OA
ATOM     69  O   UNL A   1      41.311  33.944  38.152  1.00  0.00    -0.237 OA
ATOM     70  O   UNL A   1      39.899  32.053  37.465  1.00  0.00    -0.744 OA
ENDBRANCH  64  67
ENDBRANCH  46  60
BRANCH  47  71
ATOM     71  C   UNL A   1      42.635  24.285  27.236  1.00  0.00     0.023 A 
ATOM     72  C   UNL A   1      43.309  24.520  26.022  1.00  0.00     0.012 A 
ATOM     73  C   UNL A   1      41.997  23.046  27.438  1.00  0.00     0.148 A 
ATOM     74  C   UNL A   1      43.317  23.555  25.013  1.00  0.00     0.002 A 
ATOM     75  C   UNL A   1      42.057  22.067  26.453  1.00  0.00     0.091 A 
ATOM     76  F   UNL A   1      41.352  22.845  28.597  1.00  0.00    -0.205 F 
ATOM     77  C   UNL A   1      42.700  22.326  25.232  1.00  0.00     0.022 A 
BRANCH  75  78
ATOM     78  S   UNL A   1      41.405  20.412  26.697  1.00  0.00     0.127 S 
ATOM     79  O   UNL A   1      41.786  19.754  25.450  1.00  0.00    -0.237 OA
ATOM     80  O   UNL A   1      42.145  19.969  27.880  1.00  0.00    -0.237 OA
ATOM     81  O   UNL A   1      39.974  20.579  26.912  1.00  0.00    -0.744 OA
ENDBRANCH  75  78
ENDBRANCH  47  71
BRANCH  59  82
ATOM     82  C   UNL A   1      46.978  25.902  32.459  1.00  0.00     0.023 A 
ATOM     83  C   UNL A   1      48.218  26.342  31.955  1.00  0.00     0.012 A 
ATOM     84  C   UNL A   1      46.952  24.929  33.478  1.00  0.00     0.148 A 
ATOM     85  C   UNL A   1      49.410  25.796  32.430  1.00  0.00     0.002 A 
ATOM     86  C   UNL A   1      48.146  24.429  33.984  1.00  0.00     0.091 A 
ATOM     87  F   UNL A   1      45.763  24.510  33.933  1.00  0.00    -0.205 F 
ATOM     88  C   UNL A   1      49.375  24.850  33.451  1.00  0.00     0.022 A 
BRANCH  86  89
ATOM     89  S   UNL A   1      48.202  23.282  35.366  1.00  0.00     0.127 S 
ATOM     90  O   UNL A   1      47.565  24.062  36.426  1.00  0.00    -0.237 OA
ATOM     91  O   UNL A   1      47.404  22.161  34.870  1.00  0.00    -0.237 OA
ATOM     92  O   UNL A   1      49.610  22.974  35.576  1.00  0.00    -0.744 OA
ENDBRANCH  86  89
ENDBRANCH  59  82
ENDBRANCH  33  34
ENDBRANCH  25  28
ENDBRANCH  23  24
ENDBRANCH   1  23
TORSDOF 16
ENDMDL
