MODEL 1
REMARK VINA RESULT:      -8.9      0.000      0.000
REMARK SMILES CCOC(=O)[C@H](c1ccccc1)N1C(=O)/C(=C/c2ccc(C(=O)NCCCNC(=O)c3ccc(-c4c5nc(c(-c6cccc(S(=O)(=O)[O-])c6F)c6ccc([nH]6)c(-c6cccc(S(=O)(=O)[O-])c6F)c6nc(c(-c7cccc(S(=O)(=O)[O-])c7F)c7ccc4[nH]7)C=C6)C=C5)cc3)cc2)SC1=S
REMARK SMILES IDX 25 1 24 2 22 3 23 4 21 6 18 7 19 8 95 9 20 10 94 11 17 12
REMARK SMILES IDX 13 13 14 14 97 15 15 16 16 17 96 18 98 19 6 20 4 21 5 22
REMARK SMILES IDX 3 23 2 24 1 25 7 26 8 27 12 28 9 29 11 30 10 31 26 32 27 33
REMARK SMILES IDX 28 34 29 35 30 37 31 38 32 39 93 40 33 41 92 42 34 43 35 44
REMARK SMILES IDX 36 45 86 46 37 47 91 48 85 49 87 50 38 51 90 52 84 53 83 54
REMARK SMILES IDX 39 56 71 57 51 58 70 59 52 60 55 61 69 62 88 63 53 64 54 65
REMARK SMILES IDX 68 67 89 68 56 69 40 70 41 71 49 72 42 73 44 74 50 75 43 76
REMARK SMILES IDX 45 77 46 78 47 79 48 80 72 81 73 82 81 83 74 84 76 85 82 86
REMARK SMILES IDX 75 87 77 88 78 89 79 90 80 91 57 92 58 93 66 94 59 95 61 96
REMARK SMILES IDX 67 97 60 98 62 99 63 100 64 101 65 102
REMARK H PARENT 24 5 28 36 87 55 55 66
REMARK Flexibility Score: inf
ROOT
ATOM      1  C   UNL A   1      35.193  34.035  30.621  1.00  0.00     0.118 C 
ENDROOT
BRANCH   1   2
ATOM      2  N   UNL A   1      34.476  33.206  29.665  1.00  0.00    -0.352 N 
ATOM      3  C   UNL A   1      34.806  32.015  29.070  1.00  0.00     0.251 C 
ATOM      4  O   UNL A   1      33.954  31.446  28.388  1.00  0.00    -0.269 OA
ATOM      5  H   UNL A   1      33.598  33.563  29.398  1.00  0.00     0.163 HD
BRANCH   3   6
ATOM      6  C   UNL A   1      36.126  31.362  29.272  1.00  0.00     0.039 A 
ATOM      7  C   UNL A   1      38.680  30.228  29.546  1.00  0.00    -0.024 A 
ATOM      8  C   UNL A   1      38.543  31.529  29.056  1.00  0.00     0.009 A 
ATOM      9  C   UNL A   1      37.546  29.521  29.951  1.00  0.00     0.009 A 
ATOM     10  C   UNL A   1      37.270  32.092  28.918  1.00  0.00     0.014 A 
ATOM     11  C   UNL A   1      36.280  30.095  29.836  1.00  0.00     0.014 A 
BRANCH   7  12
ATOM     12  C   UNL A   1      39.999  29.615  29.670  1.00  0.00     0.029 C 
ATOM     13  N   UNL A   1      42.199  27.260  28.034  1.00  0.00    -0.274 N 
ATOM     14  C   UNL A   1      41.837  28.094  29.074  1.00  0.00     0.267 C 
ATOM     15  C   UNL A   1      41.221  27.052  27.074  1.00  0.00     0.149 C 
ATOM     16  O   UNL A   1      42.428  28.262  30.127  1.00  0.00    -0.268 OA
ATOM     17  C   UNL A   1      40.516  28.719  28.819  1.00  0.00     0.081 C 
ATOM     18  S   UNL A   1      39.839  28.102  27.375  1.00  0.00    -0.054 SA
ATOM     19  S   UNL A   1      41.220  25.991  25.784  1.00  0.00    -0.052 S 
BRANCH  13  20
ATOM     20  C   UNL A   1      43.544  26.630  27.981  1.00  0.00     0.232 C 
BRANCH  20  21
ATOM     21  C   UNL A   1      44.156  26.351  26.581  1.00  0.00     0.333 C 
ATOM     22  O   UNL A   1      44.407  25.241  26.130  1.00  0.00    -0.249 OA
BRANCH  21  23
ATOM     23  O   UNL A   1      44.387  27.524  25.920  1.00  0.00    -0.464 OA
BRANCH  23  24
ATOM     24  C   UNL A   1      45.605  27.602  25.159  1.00  0.00     0.229 C 
ATOM     25  C   UNL A   1      46.514  28.756  25.560  1.00  0.00     0.049 C 
ENDBRANCH  23  24
ENDBRANCH  21  23
ENDBRANCH  20  21
BRANCH  20  26
ATOM     26  C   UNL A   1      43.576  25.324  28.786  1.00  0.00    -0.014 A 
ATOM     27  C   UNL A   1      44.438  25.173  29.885  1.00  0.00     0.006 A 
ATOM     28  C   UNL A   1      42.712  24.266  28.457  1.00  0.00     0.006 A 
ATOM     29  C   UNL A   1      44.429  23.998  30.636  1.00  0.00     0.000 A 
ATOM     30  C   UNL A   1      42.719  23.086  29.200  1.00  0.00     0.000 A 
ATOM     31  C   UNL A   1      43.573  22.954  30.292  1.00  0.00     0.000 A 
ENDBRANCH  20  26
ENDBRANCH  13  20
ENDBRANCH   7  12
ENDBRANCH   3   6
ENDBRANCH   1   2
BRANCH   1  32
ATOM     32  C   UNL A   1      34.353  34.316  31.866  1.00  0.00     0.042 C 
BRANCH  32  33
ATOM     33  C   UNL A   1      34.396  33.195  32.899  1.00  0.00     0.118 C 
BRANCH  33  34
ATOM     34  N   UNL A   1      34.698  33.693  34.234  1.00  0.00    -0.352 N 
ATOM     35  C   UNL A   1      35.840  33.558  34.982  1.00  0.00     0.251 C 
ATOM     36  H   UNL A   1      33.973  34.202  34.664  1.00  0.00     0.163 HD
ATOM     37  O   UNL A   1      35.821  33.872  36.170  1.00  0.00    -0.269 OA
BRANCH  35  38
ATOM     38  C   UNL A   1      37.085  33.033  34.376  1.00  0.00     0.039 A 
ATOM     39  C   UNL A   1      38.308  33.592  34.761  1.00  0.00     0.014 A 
ATOM     40  C   UNL A   1      37.051  32.031  33.402  1.00  0.00     0.014 A 
ATOM     41  C   UNL A   1      39.498  33.114  34.204  1.00  0.00     0.010 A 
ATOM     42  C   UNL A   1      38.241  31.511  32.898  1.00  0.00     0.010 A 
ATOM     43  C   UNL A   1      39.476  32.055  33.284  1.00  0.00    -0.014 A 
BRANCH  43  44
ATOM     44  C   UNL A   1      40.731  31.496  32.719  1.00  0.00     0.031 A 
ATOM     45  C   UNL A   1      41.367  30.281  33.338  1.00  0.00     0.074 A 
ATOM     46  C   UNL A   1      41.347  32.140  31.709  1.00  0.00     0.049 A 
ATOM     47  N   UNL A   1      42.494  29.692  33.028  1.00  0.00    -0.248 NA
ATOM     48  C   UNL A   1      40.660  29.661  34.471  1.00  0.00     0.031 C 
ATOM     49  C   UNL A   1      40.872  33.374  31.078  1.00  0.00     0.029 A 
ATOM     50  N   UNL A   1      42.523  31.865  31.055  1.00  0.00    -0.354 N 
ATOM     51  C   UNL A   1      42.652  28.664  33.949  1.00  0.00     0.074 A 
ATOM     52  C   UNL A   1      41.517  28.723  34.845  1.00  0.00     0.031 C 
ATOM     53  C   UNL A   1      41.749  33.751  30.136  1.00  0.00     0.029 A 
ATOM     54  C   UNL A   1      42.860  32.804  30.108  1.00  0.00     0.049 A 
ATOM     55  H   UNL A   1      43.073  31.071  31.247  1.00  0.00     0.167 HD
ATOM     56  C   UNL A   1      43.636  27.736  34.025  1.00  0.00     0.034 A 
ATOM     57  C   UNL A   1      43.943  32.897  29.313  1.00  0.00     0.034 A 
ATOM     58  C   UNL A   1      44.732  27.647  33.097  1.00  0.00     0.049 A 
ATOM     59  C   UNL A   1      44.990  31.818  29.375  1.00  0.00     0.074 A 
ATOM     60  C   UNL A   1      45.722  26.684  33.025  1.00  0.00     0.029 A 
ATOM     61  N   UNL A   1      44.984  28.556  32.081  1.00  0.00    -0.354 N 
ATOM     62  N   UNL A   1      45.033  30.755  30.142  1.00  0.00    -0.248 NA
ATOM     63  C   UNL A   1      46.117  31.929  28.438  1.00  0.00     0.031 C 
ATOM     64  C   UNL A   1      46.582  27.019  31.974  1.00  0.00     0.029 A 
ATOM     65  C   UNL A   1      46.117  28.181  31.381  1.00  0.00     0.049 A 
ATOM     66  H   UNL A   1      44.436  29.351  31.886  1.00  0.00     0.167 HD
ATOM     67  C   UNL A   1      46.170  30.054  29.758  1.00  0.00     0.074 A 
ATOM     68  C   UNL A   1      46.777  30.802  28.676  1.00  0.00     0.031 C 
ATOM     69  C   UNL A   1      46.678  28.905  30.268  1.00  0.00     0.034 A 
BRANCH  56  70
ATOM     70  C   UNL A   1      43.543  26.700  35.114  1.00  0.00     0.023 A 
ATOM     71  C   UNL A   1      42.863  25.491  34.862  1.00  0.00     0.012 A 
ATOM     72  C   UNL A   1      44.174  26.891  36.359  1.00  0.00     0.148 A 
ATOM     73  C   UNL A   1      42.787  24.500  35.841  1.00  0.00     0.002 A 
ATOM     74  C   UNL A   1      44.129  25.882  37.315  1.00  0.00     0.091 A 
ATOM     75  F   UNL A   1      44.797  28.056  36.588  1.00  0.00    -0.205 F 
ATOM     76  C   UNL A   1      43.428  24.691  37.061  1.00  0.00     0.022 A 
BRANCH  74  77
ATOM     77  S   UNL A   1      44.988  26.002  38.889  1.00  0.00     0.127 S 
ATOM     78  O   UNL A   1      45.106  24.595  39.268  1.00  0.00    -0.237 OA
ATOM     79  O   UNL A   1      46.249  26.637  38.505  1.00  0.00    -0.237 OA
ATOM     80  O   UNL A   1      44.138  26.813  39.748  1.00  0.00    -0.744 OA
ENDBRANCH  74  77
ENDBRANCH  56  70
BRANCH  57  81
ATOM     81  C   UNL A   1      44.048  34.015  28.334  1.00  0.00     0.023 A 
ATOM     82  C   UNL A   1      43.593  33.822  27.015  1.00  0.00     0.012 A 
ATOM     83  C   UNL A   1      44.551  35.275  28.708  1.00  0.00     0.148 A 
ATOM     84  C   UNL A   1      43.661  34.855  26.080  1.00  0.00     0.002 A 
ATOM     85  C   UNL A   1      44.566  36.317  27.787  1.00  0.00     0.091 A 
ATOM     86  F   UNL A   1      44.993  35.437  29.964  1.00  0.00    -0.205 F 
ATOM     87  C   UNL A   1      44.137  36.104  26.468  1.00  0.00     0.022 A 
BRANCH  85  88
ATOM     88  S   UNL A   1      45.031  37.992  28.239  1.00  0.00     0.127 S 
ATOM     89  O   UNL A   1      46.456  37.842  28.520  1.00  0.00    -0.237 OA
ATOM     90  O   UNL A   1      44.720  38.735  27.017  1.00  0.00    -0.237 OA
ATOM     91  O   UNL A   1      44.190  38.337  29.376  1.00  0.00    -0.744 OA
ENDBRANCH  85  88
ENDBRANCH  57  81
BRANCH  69  92
ATOM     92  C   UNL A   1      47.938  28.361  29.649  1.00  0.00     0.023 A 
ATOM     93  C   UNL A   1      49.189  28.844  30.078  1.00  0.00     0.012 A 
ATOM     94  C   UNL A   1      47.884  27.316  28.705  1.00  0.00     0.148 A 
ATOM     95  C   UNL A   1      50.368  28.315  29.556  1.00  0.00     0.002 A 
ATOM     96  C   UNL A   1      49.066  26.762  28.225  1.00  0.00     0.091 A 
ATOM     97  F   UNL A   1      46.683  26.884  28.295  1.00  0.00    -0.205 F 
ATOM     98  C   UNL A   1      50.308  27.267  28.640  1.00  0.00     0.022 A 
BRANCH  96  99
ATOM     99  S   UNL A   1      49.080  25.349  27.115  1.00  0.00     0.127 S 
ATOM    100  O   UNL A   1      48.844  25.985  25.819  1.00  0.00    -0.237 OA
ATOM    101  O   UNL A   1      50.433  24.822  27.297  1.00  0.00    -0.237 OA
ATOM    102  O   UNL A   1      48.021  24.464  27.582  1.00  0.00    -0.744 OA
ENDBRANCH  96  99
ENDBRANCH  69  92
ENDBRANCH  43  44
ENDBRANCH  35  38
ENDBRANCH  33  34
ENDBRANCH  32  33
ENDBRANCH   1  32
TORSDOF 19
ENDMDL
MODEL 2
REMARK VINA RESULT:      -8.0      3.032     10.334
REMARK SMILES CCOC(=O)[C@H](c1ccccc1)N1C(=O)/C(=C/c2ccc(C(=O)NCCCNC(=O)c3ccc(-c4c5nc(c(-c6cccc(S(=O)(=O)[O-])c6F)c6ccc([nH]6)c(-c6cccc(S(=O)(=O)[O-])c6F)c6nc(c(-c7cccc(S(=O)(=O)[O-])c7F)c7ccc4[nH]7)C=C6)C=C5)cc3)cc2)SC1=S
REMARK SMILES IDX 25 1 24 2 22 3 23 4 21 6 18 7 19 8 95 9 20 10 94 11 17 12
REMARK SMILES IDX 13 13 14 14 97 15 15 16 16 17 96 18 98 19 6 20 4 21 5 22
REMARK SMILES IDX 3 23 2 24 1 25 7 26 8 27 12 28 9 29 11 30 10 31 26 32 27 33
REMARK SMILES IDX 28 34 29 35 30 37 31 38 32 39 93 40 33 41 92 42 34 43 35 44
REMARK SMILES IDX 36 45 86 46 37 47 91 48 85 49 87 50 38 51 90 52 84 53 83 54
REMARK SMILES IDX 39 56 71 57 51 58 70 59 52 60 55 61 69 62 88 63 53 64 54 65
REMARK SMILES IDX 68 67 89 68 56 69 40 70 41 71 49 72 42 73 44 74 50 75 43 76
REMARK SMILES IDX 45 77 46 78 47 79 48 80 72 81 73 82 81 83 74 84 76 85 82 86
REMARK SMILES IDX 75 87 77 88 78 89 79 90 80 91 57 92 58 93 66 94 59 95 61 96
REMARK SMILES IDX 67 97 60 98 62 99 63 100 64 101 65 102
REMARK H PARENT 24 5 28 36 87 55 55 66
REMARK Flexibility Score: inf
ROOT
ATOM      1  C   UNL A   1      47.067  24.894  25.049  1.00  0.00     0.118 C 
ENDROOT
BRANCH   1   2
ATOM      2  N   UNL A   1      48.294  25.665  25.163  1.00  0.00    -0.352 N 
ATOM      3  C   UNL A   1      48.560  26.860  25.783  1.00  0.00     0.251 C 
ATOM      4  O   UNL A   1      49.730  27.239  25.844  1.00  0.00    -0.269 OA
ATOM      5  H   UNL A   1      49.071  25.259  24.715  1.00  0.00     0.163 HD
BRANCH   3   6
ATOM      6  C   UNL A   1      47.501  27.674  26.433  1.00  0.00     0.039 A 
ATOM      7  C   UNL A   1      45.499  29.109  27.782  1.00  0.00    -0.024 A 
ATOM      8  C   UNL A   1      46.341  28.250  28.492  1.00  0.00     0.009 A 
ATOM      9  C   UNL A   1      45.698  29.292  26.412  1.00  0.00     0.009 A 
ATOM     10  C   UNL A   1      47.336  27.534  27.819  1.00  0.00     0.014 A 
ATOM     11  C   UNL A   1      46.708  28.596  25.748  1.00  0.00     0.014 A 
BRANCH   7  12
ATOM     12  C   UNL A   1      44.437  29.842  28.464  1.00  0.00     0.029 C 
ATOM     13  N   UNL A   1      43.807  32.917  30.256  1.00  0.00    -0.274 N 
ATOM     14  C   UNL A   1      43.456  31.664  29.793  1.00  0.00     0.267 C 
ATOM     15  C   UNL A   1      45.141  33.257  30.089  1.00  0.00     0.149 C 
ATOM     16  O   UNL A   1      42.420  31.060  30.008  1.00  0.00    -0.268 OA
ATOM     17  C   UNL A   1      44.580  31.035  29.056  1.00  0.00     0.081 C 
ATOM     18  S   UNL A   1      45.967  32.031  29.131  1.00  0.00    -0.054 SA
ATOM     19  S   UNL A   1      45.969  34.588  30.667  1.00  0.00    -0.052 S 
BRANCH  13  20
ATOM     20  C   UNL A   1      42.809  33.811  30.898  1.00  0.00     0.232 C 
BRANCH  20  21
ATOM     21  C   UNL A   1      42.512  35.172  30.210  1.00  0.00     0.333 C 
ATOM     22  O   UNL A   1      43.193  36.184  30.326  1.00  0.00    -0.249 OA
BRANCH  21  23
ATOM     23  O   UNL A   1      41.374  35.089  29.461  1.00  0.00    -0.464 OA
BRANCH  23  24
ATOM     24  C   UNL A   1      40.340  34.222  29.958  1.00  0.00     0.229 C 
ATOM     25  C   UNL A   1      39.052  34.942  30.330  1.00  0.00     0.049 C 
ENDBRANCH  23  24
ENDBRANCH  21  23
ENDBRANCH  20  21
BRANCH  20  26
ATOM     26  C   UNL A   1      43.172  34.084  32.363  1.00  0.00    -0.014 A 
ATOM     27  C   UNL A   1      42.966  35.351  32.935  1.00  0.00     0.006 A 
ATOM     28  C   UNL A   1      43.684  33.055  33.171  1.00  0.00     0.006 A 
ATOM     29  C   UNL A   1      43.259  35.576  34.280  1.00  0.00     0.000 A 
ATOM     30  C   UNL A   1      43.992  33.290  34.511  1.00  0.00     0.000 A 
ATOM     31  C   UNL A   1      43.775  34.548  35.066  1.00  0.00     0.000 A 
ENDBRANCH  20  26
ENDBRANCH  13  20
ENDBRANCH   7  12
ENDBRANCH   3   6
ENDBRANCH   1   2
BRANCH   1  32
ATOM     32  C   UNL A   1      46.682  24.248  26.379  1.00  0.00     0.042 C 
BRANCH  32  33
ATOM     33  C   UNL A   1      45.904  22.945  26.225  1.00  0.00     0.118 C 
BRANCH  33  34
ATOM     34  N   UNL A   1      44.959  23.000  25.118  1.00  0.00    -0.352 N 
ATOM     35  C   UNL A   1      43.736  23.618  25.040  1.00  0.00     0.251 C 
ATOM     36  H   UNL A   1      45.240  22.522  24.305  1.00  0.00     0.163 HD
ATOM     37  O   UNL A   1      42.998  23.370  24.089  1.00  0.00    -0.269 OA
BRANCH  35  38
ATOM     38  C   UNL A   1      43.298  24.567  26.089  1.00  0.00     0.039 A 
ATOM     39  C   UNL A   1      42.532  24.084  27.155  1.00  0.00     0.014 A 
ATOM     40  C   UNL A   1      43.597  25.930  26.005  1.00  0.00     0.014 A 
ATOM     41  C   UNL A   1      42.106  24.959  28.158  1.00  0.00     0.010 A 
ATOM     42  C   UNL A   1      43.229  26.787  27.039  1.00  0.00     0.010 A 
ATOM     43  C   UNL A   1      42.469  26.314  28.120  1.00  0.00    -0.014 A 
BRANCH  43  44
ATOM     44  C   UNL A   1      42.073  27.251  29.202  1.00  0.00     0.031 A 
ATOM     45  C   UNL A   1      42.800  27.243  30.519  1.00  0.00     0.074 A 
ATOM     46  C   UNL A   1      40.996  28.044  29.031  1.00  0.00     0.049 A 
ATOM     47  N   UNL A   1      42.555  27.936  31.601  1.00  0.00    -0.248 NA
ATOM     48  C   UNL A   1      43.935  26.314  30.648  1.00  0.00     0.031 C 
ATOM     49  C   UNL A   1      40.159  28.084  27.830  1.00  0.00     0.029 A 
ATOM     50  N   UNL A   1      40.402  28.944  29.880  1.00  0.00    -0.354 N 
ATOM     51  C   UNL A   1      43.473  27.499  32.549  1.00  0.00     0.074 A 
ATOM     52  C   UNL A   1      44.266  26.465  31.923  1.00  0.00     0.031 C 
ATOM     53  C   UNL A   1      39.158  28.957  28.021  1.00  0.00     0.029 A 
ATOM     54  C   UNL A   1      39.265  29.522  29.363  1.00  0.00     0.049 A 
ATOM     55  H   UNL A   1      40.755  29.155  30.774  1.00  0.00     0.167 HD
ATOM     56  C   UNL A   1      43.658  27.940  33.816  1.00  0.00     0.034 A 
ATOM     57  C   UNL A   1      38.403  30.400  29.910  1.00  0.00     0.034 A 
ATOM     58  C   UNL A   1      42.904  29.009  34.416  1.00  0.00     0.049 A 
ATOM     59  C   UNL A   1      38.670  30.920  31.296  1.00  0.00     0.074 A 
ATOM     60  C   UNL A   1      43.084  29.599  35.654  1.00  0.00     0.029 A 
ATOM     61  N   UNL A   1      41.826  29.646  33.821  1.00  0.00    -0.354 N 
ATOM     62  N   UNL A   1      39.648  30.618  32.116  1.00  0.00    -0.248 NA
ATOM     63  C   UNL A   1      37.737  31.929  31.820  1.00  0.00     0.031 C 
ATOM     64  C   UNL A   1      42.104  30.584  35.814  1.00  0.00     0.029 A 
ATOM     65  C   UNL A   1      41.325  30.619  34.669  1.00  0.00     0.049 A 
ATOM     66  H   UNL A   1      41.470  29.438  32.928  1.00  0.00     0.167 HD
ATOM     67  C   UNL A   1      39.469  31.422  33.235  1.00  0.00     0.074 A 
ATOM     68  C   UNL A   1      38.301  32.239  32.981  1.00  0.00     0.031 C 
ATOM     69  C   UNL A   1      40.196  31.466  34.379  1.00  0.00     0.034 A 
BRANCH  56  70
ATOM     70  C   UNL A   1      44.762  27.311  34.624  1.00  0.00     0.023 A 
ATOM     71  C   UNL A   1      46.042  27.901  34.626  1.00  0.00     0.012 A 
ATOM     72  C   UNL A   1      44.523  26.178  35.428  1.00  0.00     0.148 A 
ATOM     73  C   UNL A   1      47.075  27.358  35.389  1.00  0.00     0.002 A 
ATOM     74  C   UNL A   1      45.547  25.667  36.218  1.00  0.00     0.091 A 
ATOM     75  F   UNL A   1      43.305  25.618  35.397  1.00  0.00    -0.205 F 
ATOM     76  C   UNL A   1      46.825  26.249  36.192  1.00  0.00     0.022 A 
BRANCH  74  77
ATOM     77  S   UNL A   1      45.303  24.288  37.344  1.00  0.00     0.127 S 
ATOM     78  O   UNL A   1      44.228  24.792  38.198  1.00  0.00    -0.237 OA
ATOM     79  O   UNL A   1      44.904  23.213  36.435  1.00  0.00    -0.237 OA
ATOM     80  O   UNL A   1      46.583  24.079  38.004  1.00  0.00    -0.744 OA
ENDBRANCH  74  77
ENDBRANCH  56  70
BRANCH  57  81
ATOM     81  C   UNL A   1      37.250  30.901  29.109  1.00  0.00     0.023 A 
ATOM     82  C   UNL A   1      37.187  32.268  28.773  1.00  0.00     0.012 A 
ATOM     83  C   UNL A   1      36.246  30.032  28.642  1.00  0.00     0.148 A 
ATOM     84  C   UNL A   1      36.131  32.764  28.009  1.00  0.00     0.002 A 
ATOM     85  C   UNL A   1      35.225  30.523  27.836  1.00  0.00     0.091 A 
ATOM     86  F   UNL A   1      36.315  28.737  28.984  1.00  0.00    -0.205 F 
ATOM     87  C   UNL A   1      35.156  31.892  27.531  1.00  0.00     0.022 A 
BRANCH  85  88
ATOM     88  S   UNL A   1      34.009  29.449  27.064  1.00  0.00     0.127 S 
ATOM     89  O   UNL A   1      33.467  28.734  28.217  1.00  0.00    -0.237 OA
ATOM     90  O   UNL A   1      33.095  30.414  26.452  1.00  0.00    -0.237 OA
ATOM     91  O   UNL A   1      34.753  28.642  26.107  1.00  0.00    -0.744 OA
ENDBRANCH  85  88
ENDBRANCH  57  81
BRANCH  69  92
ATOM     92  C   UNL A   1      39.773  32.447  35.439  1.00  0.00     0.023 A 
ATOM     93  C   UNL A   1      40.184  33.792  35.348  1.00  0.00     0.012 A 
ATOM     94  C   UNL A   1      38.903  32.057  36.477  1.00  0.00     0.148 A 
ATOM     95  C   UNL A   1      39.758  34.727  36.290  1.00  0.00     0.002 A 
ATOM     96  C   UNL A   1      38.446  33.006  37.385  1.00  0.00     0.091 A 
ATOM     97  F   UNL A   1      38.540  30.769  36.558  1.00  0.00    -0.205 F 
ATOM     98  C   UNL A   1      38.881  34.338  37.300  1.00  0.00     0.022 A 
BRANCH  96  99
ATOM     99  S   UNL A   1      37.243  32.612  38.659  1.00  0.00     0.127 S 
ATOM    100  O   UNL A   1      35.992  33.032  38.030  1.00  0.00    -0.237 OA
ATOM    101  O   UNL A   1      37.399  31.163  38.800  1.00  0.00    -0.237 OA
ATOM    102  O   UNL A   1      37.642  33.376  39.834  1.00  0.00    -0.744 OA
ENDBRANCH  96  99
ENDBRANCH  69  92
ENDBRANCH  43  44
ENDBRANCH  35  38
ENDBRANCH  33  34
ENDBRANCH  32  33
ENDBRANCH   1  32
TORSDOF 19
ENDMDL
MODEL 3
REMARK VINA RESULT:      -7.9      3.474      8.592
REMARK SMILES CCOC(=O)[C@H](c1ccccc1)N1C(=O)/C(=C/c2ccc(C(=O)NCCCNC(=O)c3ccc(-c4c5nc(c(-c6cccc(S(=O)(=O)[O-])c6F)c6ccc([nH]6)c(-c6cccc(S(=O)(=O)[O-])c6F)c6nc(c(-c7cccc(S(=O)(=O)[O-])c7F)c7ccc4[nH]7)C=C6)C=C5)cc3)cc2)SC1=S
REMARK SMILES IDX 25 1 24 2 22 3 23 4 21 6 18 7 19 8 95 9 20 10 94 11 17 12
REMARK SMILES IDX 13 13 14 14 97 15 15 16 16 17 96 18 98 19 6 20 4 21 5 22
REMARK SMILES IDX 3 23 2 24 1 25 7 26 8 27 12 28 9 29 11 30 10 31 26 32 27 33
REMARK SMILES IDX 28 34 29 35 30 37 31 38 32 39 93 40 33 41 92 42 34 43 35 44
REMARK SMILES IDX 36 45 86 46 37 47 91 48 85 49 87 50 38 51 90 52 84 53 83 54
REMARK SMILES IDX 39 56 71 57 51 58 70 59 52 60 55 61 69 62 88 63 53 64 54 65
REMARK SMILES IDX 68 67 89 68 56 69 40 70 41 71 49 72 42 73 44 74 50 75 43 76
REMARK SMILES IDX 45 77 46 78 47 79 48 80 72 81 73 82 81 83 74 84 76 85 82 86
REMARK SMILES IDX 75 87 77 88 78 89 79 90 80 91 57 92 58 93 66 94 59 95 61 96
REMARK SMILES IDX 67 97 60 98 62 99 63 100 64 101 65 102
REMARK H PARENT 24 5 28 36 87 55 55 66
REMARK Flexibility Score: inf
ROOT
ATOM      1  C   UNL A   1      37.124  33.282  31.657  1.00  0.00     0.118 C 
ENDROOT
BRANCH   1   2
ATOM      2  N   UNL A   1      35.980  33.275  30.759  1.00  0.00    -0.352 N 
ATOM      3  C   UNL A   1      35.564  32.357  29.827  1.00  0.00     0.251 C 
ATOM      4  O   UNL A   1      34.474  32.531  29.282  1.00  0.00    -0.269 OA
ATOM      5  H   UNL A   1      35.403  34.069  30.831  1.00  0.00     0.163 HD
BRANCH   3   6
ATOM      6  C   UNL A   1      36.349  31.138  29.504  1.00  0.00     0.039 A 
ATOM      7  C   UNL A   1      37.854  28.812  29.046  1.00  0.00    -0.024 A 
ATOM      8  C   UNL A   1      37.233  29.009  30.281  1.00  0.00     0.009 A 
ATOM      9  C   UNL A   1      37.674  29.748  28.025  1.00  0.00     0.009 A 
ATOM     10  C   UNL A   1      36.485  30.169  30.508  1.00  0.00     0.014 A 
ATOM     11  C   UNL A   1      36.906  30.892  28.247  1.00  0.00     0.014 A 
BRANCH   7  12
ATOM     12  C   UNL A   1      38.662  27.620  28.802  1.00  0.00     0.029 C 
ATOM     13  N   UNL A   1      41.793  26.564  27.336  1.00  0.00    -0.274 N 
ATOM     14  C   UNL A   1      40.559  26.333  27.914  1.00  0.00     0.267 C 
ATOM     15  C   UNL A   1      42.043  27.882  26.987  1.00  0.00     0.149 C 
ATOM     16  O   UNL A   1      40.025  25.254  28.111  1.00  0.00    -0.268 OA
ATOM     17  C   UNL A   1      39.851  27.608  28.184  1.00  0.00     0.081 C 
ATOM     18  S   UNL A   1      40.756  28.926  27.581  1.00  0.00    -0.054 SA
ATOM     19  S   UNL A   1      43.324  28.516  26.123  1.00  0.00    -0.052 S 
BRANCH  13  20
ATOM     20  C   UNL A   1      42.757  25.458  27.104  1.00  0.00     0.232 C 
BRANCH  20  21
ATOM     21  C   UNL A   1      42.315  24.302  26.165  1.00  0.00     0.333 C 
ATOM     22  O   UNL A   1      41.421  23.501  26.406  1.00  0.00    -0.249 OA
BRANCH  21  23
ATOM     23  O   UNL A   1      43.073  24.294  25.029  1.00  0.00    -0.464 OA
BRANCH  23  24
ATOM     24  C   UNL A   1      44.390  23.726  25.141  1.00  0.00     0.229 C 
ATOM     25  C   UNL A   1      44.714  22.697  24.067  1.00  0.00     0.049 C 
ENDBRANCH  23  24
ENDBRANCH  21  23
ENDBRANCH  20  21
BRANCH  20  26
ATOM     26  C   UNL A   1      43.227  24.845  28.429  1.00  0.00    -0.014 A 
ATOM     27  C   UNL A   1      43.073  23.473  28.687  1.00  0.00     0.006 A 
ATOM     28  C   UNL A   1      43.857  25.646  29.397  1.00  0.00     0.006 A 
ATOM     29  C   UNL A   1      43.543  22.919  29.877  1.00  0.00     0.000 A 
ATOM     30  C   UNL A   1      44.310  25.090  30.594  1.00  0.00     0.000 A 
ATOM     31  C   UNL A   1      44.157  23.727  30.831  1.00  0.00     0.000 A 
ENDBRANCH  20  26
ENDBRANCH  13  20
ENDBRANCH   7  12
ENDBRANCH   3   6
ENDBRANCH   1   2
BRANCH   1  32
ATOM     32  C   UNL A   1      36.735  32.841  33.067  1.00  0.00     0.042 C 
BRANCH  32  33
ATOM     33  C   UNL A   1      37.923  32.418  33.926  1.00  0.00     0.118 C 
BRANCH  33  34
ATOM     34  N   UNL A   1      38.051  30.969  34.008  1.00  0.00    -0.352 N 
ATOM     35  C   UNL A   1      38.927  30.130  33.366  1.00  0.00     0.251 C 
ATOM     36  H   UNL A   1      37.413  30.527  34.613  1.00  0.00     0.163 HD
ATOM     37  O   UNL A   1      38.736  28.917  33.408  1.00  0.00    -0.269 OA
BRANCH  35  38
ATOM     38  C   UNL A   1      40.086  30.670  32.621  1.00  0.00     0.039 A 
ATOM     39  C   UNL A   1      40.024  30.722  31.225  1.00  0.00     0.014 A 
ATOM     40  C   UNL A   1      41.247  31.081  33.284  1.00  0.00     0.014 A 
ATOM     41  C   UNL A   1      41.105  31.228  30.497  1.00  0.00     0.010 A 
ATOM     42  C   UNL A   1      42.296  31.645  32.562  1.00  0.00     0.010 A 
ATOM     43  C   UNL A   1      42.241  31.714  31.162  1.00  0.00    -0.014 A 
BRANCH  43  44
ATOM     44  C   UNL A   1      43.381  32.305  30.413  1.00  0.00     0.031 A 
ATOM     45  C   UNL A   1      43.309  33.722  29.914  1.00  0.00     0.074 A 
ATOM     46  C   UNL A   1      44.440  31.532  30.100  1.00  0.00     0.049 A 
ATOM     47  N   UNL A   1      44.171  34.386  29.187  1.00  0.00    -0.248 NA
ATOM     48  C   UNL A   1      42.098  34.488  30.253  1.00  0.00     0.031 C 
ATOM     49  C   UNL A   1      44.589  30.119  30.456  1.00  0.00     0.029 A 
ATOM     50  N   UNL A   1      45.576  31.816  29.384  1.00  0.00    -0.354 N 
ATOM     51  C   UNL A   1      43.592  35.626  28.946  1.00  0.00     0.074 A 
ATOM     52  C   UNL A   1      42.294  35.616  29.585  1.00  0.00     0.031 C 
ATOM     53  C   UNL A   1      45.745  29.660  29.953  1.00  0.00     0.029 A 
ATOM     54  C   UNL A   1      46.409  30.734  29.219  1.00  0.00     0.049 A 
ATOM     55  H   UNL A   1      45.776  32.710  29.023  1.00  0.00     0.167 HD
ATOM     56  C   UNL A   1      44.105  36.687  28.279  1.00  0.00     0.034 A 
ATOM     57  C   UNL A   1      47.571  30.617  28.548  1.00  0.00     0.034 A 
ATOM     58  C   UNL A   1      45.419  36.711  27.695  1.00  0.00     0.049 A 
ATOM     59  C   UNL A   1      48.149  31.829  27.870  1.00  0.00     0.074 A 
ATOM     60  C   UNL A   1      46.072  37.770  27.089  1.00  0.00     0.029 A 
ATOM     61  N   UNL A   1      46.281  35.627  27.640  1.00  0.00    -0.354 N 
ATOM     62  N   UNL A   1      47.662  33.045  27.800  1.00  0.00    -0.248 NA
ATOM     63  C   UNL A   1      49.452  31.665  27.210  1.00  0.00     0.031 C 
ATOM     64  C   UNL A   1      47.324  37.321  26.655  1.00  0.00     0.029 A 
ATOM     65  C   UNL A   1      47.457  35.988  27.005  1.00  0.00     0.049 A 
ATOM     66  H   UNL A   1      46.085  34.732  28.000  1.00  0.00     0.167 HD
ATOM     67  C   UNL A   1      48.612  33.797  27.120  1.00  0.00     0.074 A 
ATOM     68  C   UNL A   1      49.713  32.906  26.817  1.00  0.00     0.031 C 
ATOM     69  C   UNL A   1      48.569  35.104  26.762  1.00  0.00     0.034 A 
BRANCH  56  70
ATOM     70  C   UNL A   1      43.269  37.937  28.198  1.00  0.00     0.023 A 
ATOM     71  C   UNL A   1      42.422  38.132  27.088  1.00  0.00     0.012 A 
ATOM     72  C   UNL A   1      43.272  38.885  29.240  1.00  0.00     0.148 A 
ATOM     73  C   UNL A   1      41.613  39.264  27.000  1.00  0.00     0.002 A 
ATOM     74  C   UNL A   1      42.433  39.992  29.165  1.00  0.00     0.091 A 
ATOM     75  F   UNL A   1      44.100  38.694  30.277  1.00  0.00    -0.205 F 
ATOM     76  C   UNL A   1      41.611  40.188  28.042  1.00  0.00     0.022 A 
BRANCH  74  77
ATOM     77  S   UNL A   1      42.301  41.198  30.491  1.00  0.00     0.127 S 
ATOM     78  O   UNL A   1      43.350  42.150  30.128  1.00  0.00    -0.237 OA
ATOM     79  O   UNL A   1      40.937  41.700  30.317  1.00  0.00    -0.237 OA
ATOM     80  O   UNL A   1      42.522  40.460  31.726  1.00  0.00    -0.744 OA
ENDBRANCH  74  77
ENDBRANCH  56  70
BRANCH  57  81
ATOM     81  C   UNL A   1      48.302  29.318  28.555  1.00  0.00     0.023 A 
ATOM     82  C   UNL A   1      49.318  29.105  29.507  1.00  0.00     0.012 A 
ATOM     83  C   UNL A   1      47.969  28.282  27.662  1.00  0.00     0.148 A 
ATOM     84  C   UNL A   1      50.008  27.893  29.551  1.00  0.00     0.002 A 
ATOM     85  C   UNL A   1      48.623  27.058  27.747  1.00  0.00     0.091 A 
ATOM     86  F   UNL A   1      47.008  28.508  26.754  1.00  0.00    -0.205 F 
ATOM     87  C   UNL A   1      49.654  26.867  28.680  1.00  0.00     0.022 A 
BRANCH  85  88
ATOM     88  S   UNL A   1      48.136  25.638  26.759  1.00  0.00     0.127 S 
ATOM     89  O   UNL A   1      48.995  24.588  27.300  1.00  0.00    -0.237 OA
ATOM     90  O   UNL A   1      46.717  25.507  27.094  1.00  0.00    -0.237 OA
ATOM     91  O   UNL A   1      48.390  26.020  25.377  1.00  0.00    -0.744 OA
ENDBRANCH  85  88
ENDBRANCH  57  81
BRANCH  69  92
ATOM     92  C   UNL A   1      49.755  35.667  26.025  1.00  0.00     0.023 A 
ATOM     93  C   UNL A   1      49.860  35.488  24.632  1.00  0.00     0.012 A 
ATOM     94  C   UNL A   1      50.721  36.442  26.699  1.00  0.00     0.148 A 
ATOM     95  C   UNL A   1      50.922  36.049  23.925  1.00  0.00     0.002 A 
ATOM     96  C   UNL A   1      51.752  37.035  25.980  1.00  0.00     0.091 A 
ATOM     97  F   UNL A   1      50.615  36.583  28.029  1.00  0.00    -0.205 F 
ATOM     98  C   UNL A   1      51.860  36.831  24.595  1.00  0.00     0.022 A 
BRANCH  96  99
ATOM     99  S   UNL A   1      52.948  38.133  26.747  1.00  0.00     0.127 S 
ATOM    100  O   UNL A   1      53.748  38.554  25.598  1.00  0.00    -0.237 OA
ATOM    101  O   UNL A   1      52.095  39.180  27.312  1.00  0.00    -0.237 OA
ATOM    102  O   UNL A   1      53.650  37.328  27.739  1.00  0.00    -0.744 OA
ENDBRANCH  96  99
ENDBRANCH  69  92
ENDBRANCH  43  44
ENDBRANCH  35  38
ENDBRANCH  33  34
ENDBRANCH  32  33
ENDBRANCH   1  32
TORSDOF 19
ENDMDL
