MODEL 1
REMARK VINA RESULT:     -11.9      0.000      0.000
REMARK SMILES O=C(NCCCNC(=O)c1cc(Br)ccc1NC(=O)c1ccc(Br)s1)c1ccc(-c2c3nc(c(-c4cccc(S(=O)(=O)[O-])c4F)c4ccc([nH]4)c(-c4cccc(S(=O)(=O)[O-])c4F)c4nc(c(-c5cccc(S(=O)(=O)[O-])c5F)c5ccc2[nH]5)C=C4)C=C3)cc1
REMARK SMILES IDX 4 1 3 2 1 3 2 4 26 6 27 7 88 8 28 9 87 10 29 11 30 12 31 13
REMARK SMILES IDX 81 14 32 15 86 16 80 17 82 18 33 19 85 20 79 21 78 22 34 24
REMARK SMILES IDX 66 25 46 26 65 27 47 28 50 29 64 30 83 31 48 32 49 33 63 35
REMARK SMILES IDX 84 36 51 37 35 38 36 39 44 40 37 41 39 42 45 43 38 44 40 45
REMARK SMILES IDX 41 46 42 47 43 48 67 49 68 50 76 51 69 52 71 53 77 54 70 55
REMARK SMILES IDX 72 56 73 57 74 58 75 59 52 60 53 61 61 62 54 63 56 64 62 65
REMARK SMILES IDX 55 66 57 67 58 68 59 69 60 70 5 71 6 72 7 73 8 74 9 76 10 77
REMARK SMILES IDX 11 78 16 79 12 80 15 81 13 82 14 83 17 84 18 85 19 87 20 88
REMARK SMILES IDX 21 89 25 90 22 91 23 92 24 93
REMARK H PARENT 3 5 82 23 50 34 7 75 17 86
REMARK Flexibility Score: inf
ROOT
ATOM      1  C   UNL A   1      33.073  28.897  25.384  1.00  0.00     0.118 C 
ENDROOT
BRANCH   1   2
ATOM      2  N   UNL A   1      32.611  30.229  25.741  1.00  0.00    -0.352 N 
ATOM      3  O   UNL A   1      32.349  32.081  26.974  1.00  0.00    -0.269 OA
ATOM      4  C   UNL A   1      33.039  31.098  26.714  1.00  0.00     0.251 C 
ATOM      5  H   UNL A   1      31.865  30.566  25.192  1.00  0.00     0.163 HD
BRANCH   4   6
ATOM      6  C   UNL A   1      34.296  30.854  27.459  1.00  0.00     0.039 A 
ATOM      7  C   UNL A   1      35.225  31.875  27.676  1.00  0.00     0.014 A 
ATOM      8  C   UNL A   1      34.518  29.586  28.005  1.00  0.00     0.014 A 
ATOM      9  C   UNL A   1      36.434  31.597  28.312  1.00  0.00     0.010 A 
ATOM     10  C   UNL A   1      35.695  29.328  28.712  1.00  0.00     0.010 A 
ATOM     11  C   UNL A   1      36.678  30.322  28.844  1.00  0.00    -0.014 A 
BRANCH  11  12
ATOM     12  C   UNL A   1      37.935  30.044  29.583  1.00  0.00     0.031 A 
ATOM     13  C   UNL A   1      38.963  29.102  29.023  1.00  0.00     0.074 A 
ATOM     14  C   UNL A   1      38.122  30.604  30.794  1.00  0.00     0.049 A 
ATOM     15  N   UNL A   1      40.076  28.681  29.565  1.00  0.00    -0.248 NA
ATOM     16  C   UNL A   1      38.700  28.549  27.684  1.00  0.00     0.031 C 
ATOM     17  C   UNL A   1      37.176  31.504  31.459  1.00  0.00     0.029 A 
ATOM     18  N   UNL A   1      39.150  30.477  31.694  1.00  0.00    -0.354 N 
ATOM     19  C   UNL A   1      40.624  27.781  28.660  1.00  0.00     0.074 A 
ATOM     20  C   UNL A   1      39.718  27.712  27.533  1.00  0.00     0.031 C 
ATOM     21  C   UNL A   1      37.661  31.838  32.663  1.00  0.00     0.029 A 
ATOM     22  C   UNL A   1      38.926  31.140  32.877  1.00  0.00     0.049 A 
ATOM     23  H   UNL A   1      39.967  29.961  31.509  1.00  0.00     0.167 HD
ATOM     24  C   UNL A   1      41.783  27.085  28.753  1.00  0.00     0.034 A 
ATOM     25  C   UNL A   1      39.637  31.162  34.020  1.00  0.00     0.034 A 
ATOM     26  C   UNL A   1      42.698  27.186  29.859  1.00  0.00     0.049 A 
ATOM     27  C   UNL A   1      40.930  30.402  34.091  1.00  0.00     0.074 A 
ATOM     28  C   UNL A   1      43.933  26.581  30.011  1.00  0.00     0.029 A 
ATOM     29  N   UNL A   1      42.475  27.934  31.005  1.00  0.00    -0.354 N 
ATOM     30  N   UNL A   1      41.498  29.660  33.172  1.00  0.00    -0.248 NA
ATOM     31  C   UNL A   1      41.697  30.504  35.341  1.00  0.00     0.031 C 
ATOM     32  C   UNL A   1      44.449  26.950  31.257  1.00  0.00     0.029 A 
ATOM     33  C   UNL A   1      43.544  27.801  31.874  1.00  0.00     0.049 A 
ATOM     34  H   UNL A   1      41.673  28.480  31.176  1.00  0.00     0.167 HD
ATOM     35  C   UNL A   1      42.702  29.232  33.716  1.00  0.00     0.074 A 
ATOM     36  C   UNL A   1      42.787  29.808  35.044  1.00  0.00     0.031 C 
ATOM     37  C   UNL A   1      43.644  28.426  33.169  1.00  0.00     0.034 A 
BRANCH  24  38
ATOM     38  C   UNL A   1      42.146  26.176  27.608  1.00  0.00     0.023 A 
ATOM     39  C   UNL A   1      42.870  26.690  26.514  1.00  0.00     0.012 A 
ATOM     40  C   UNL A   1      41.814  24.807  27.635  1.00  0.00     0.148 A 
ATOM     41  C   UNL A   1      43.227  25.865  25.447  1.00  0.00     0.002 A 
ATOM     42  C   UNL A   1      42.208  23.983  26.586  1.00  0.00     0.091 A 
ATOM     43  F   UNL A   1      41.103  24.338  28.669  1.00  0.00    -0.205 F 
ATOM     44  C   UNL A   1      42.906  24.512  25.488  1.00  0.00     0.022 A 
BRANCH  42  45
ATOM     45  S   UNL A   1      41.895  22.213  26.595  1.00  0.00     0.127 S 
ATOM     46  O   UNL A   1      42.563  21.788  25.367  1.00  0.00    -0.237 OA
ATOM     47  O   UNL A   1      42.556  21.782  27.828  1.00  0.00    -0.237 OA
ATOM     48  O   UNL A   1      40.445  22.074  26.612  1.00  0.00    -0.744 OA
ENDBRANCH  42  45
ENDBRANCH  24  38
BRANCH  25  49
ATOM     49  C   UNL A   1      39.142  31.977  35.164  1.00  0.00     0.023 A 
ATOM     50  C   UNL A   1      38.261  31.397  36.096  1.00  0.00     0.012 A 
ATOM     51  C   UNL A   1      39.615  33.286  35.383  1.00  0.00     0.148 A 
ATOM     52  C   UNL A   1      37.853  32.111  37.224  1.00  0.00     0.002 A 
ATOM     53  C   UNL A   1      39.249  33.970  36.535  1.00  0.00     0.091 A 
ATOM     54  F   UNL A   1      40.445  33.819  34.476  1.00  0.00    -0.205 F 
ATOM     55  C   UNL A   1      38.357  33.389  37.450  1.00  0.00     0.022 A 
BRANCH  53  56
ATOM     56  S   UNL A   1      39.960  35.558  36.982  1.00  0.00     0.127 S 
ATOM     57  O   UNL A   1      39.277  35.848  38.240  1.00  0.00    -0.237 OA
ATOM     58  O   UNL A   1      41.378  35.225  37.113  1.00  0.00    -0.237 OA
ATOM     59  O   UNL A   1      39.652  36.454  35.876  1.00  0.00    -0.744 OA
ENDBRANCH  53  56
ENDBRANCH  25  49
BRANCH  37  60
ATOM     60  C   UNL A   1      44.879  28.137  33.978  1.00  0.00     0.023 A 
ATOM     61  C   UNL A   1      45.975  29.019  33.917  1.00  0.00     0.012 A 
ATOM     62  C   UNL A   1      44.908  27.054  34.878  1.00  0.00     0.148 A 
ATOM     63  C   UNL A   1      47.090  28.819  34.731  1.00  0.00     0.002 A 
ATOM     64  C   UNL A   1      46.004  26.886  35.717  1.00  0.00     0.091 A 
ATOM     65  F   UNL A   1      43.861  26.217  34.905  1.00  0.00    -0.205 F 
ATOM     66  C   UNL A   1      47.098  27.763  35.639  1.00  0.00     0.022 A 
BRANCH  64  67
ATOM     67  S   UNL A   1      46.062  25.610  36.981  1.00  0.00     0.127 S 
ATOM     68  O   UNL A   1      47.364  25.862  37.598  1.00  0.00    -0.237 OA
ATOM     69  O   UNL A   1      44.913  25.952  37.820  1.00  0.00    -0.237 OA
ATOM     70  O   UNL A   1      45.940  24.341  36.278  1.00  0.00    -0.744 OA
ENDBRANCH  64  67
ENDBRANCH  37  60
ENDBRANCH  11  12
ENDBRANCH   4   6
ENDBRANCH   1   2
BRANCH   1  71
ATOM     71  C   UNL A   1      33.929  28.893  24.123  1.00  0.00     0.042 C 
BRANCH  71  72
ATOM     72  C   UNL A   1      33.134  28.930  22.825  1.00  0.00     0.118 C 
BRANCH  72  73
ATOM     73  N   UNL A   1      33.430  27.805  21.943  1.00  0.00    -0.352 N 
ATOM     74  C   UNL A   1      33.164  26.467  22.106  1.00  0.00     0.253 C 
ATOM     75  H   UNL A   1      33.890  28.041  21.105  1.00  0.00     0.163 HD
ATOM     76  O   UNL A   1      33.653  25.637  21.344  1.00  0.00    -0.269 OA
BRANCH  74  77
ATOM     77  C   UNL A   1      32.334  26.014  23.244  1.00  0.00     0.064 A 
ATOM     78  C   UNL A   1      30.948  26.232  23.182  1.00  0.00     0.031 A 
ATOM     79  C   UNL A   1      32.919  25.391  24.364  1.00  0.00     0.054 A 
ATOM     80  C   UNL A   1      30.163  25.983  24.299  1.00  0.00     0.018 A 
ATOM     81  C   UNL A   1      32.120  25.240  25.502  1.00  0.00     0.028 A 
ATOM     82  Br  UNL A   1      28.308  26.328  24.242  1.00  0.00    -0.051 Br
ATOM     83  C   UNL A   1      30.750  25.529  25.472  1.00  0.00     0.018 A 
BRANCH  79  84
ATOM     84  N   UNL A   1      34.270  24.970  24.304  1.00  0.00    -0.321 N 
ATOM     85  C   UNL A   1      34.871  23.725  24.299  1.00  0.00     0.265 C 
ATOM     86  H   UNL A   1      34.911  25.715  24.256  1.00  0.00     0.170 HD
ATOM     87  O   UNL A   1      36.096  23.682  24.420  1.00  0.00    -0.268 OA
BRANCH  85  88
ATOM     88  C   UNL A   1      34.074  22.534  24.078  1.00  0.00     0.093 A 
ATOM     89  C   UNL A   1      33.047  22.316  23.174  1.00  0.00     0.027 A 
ATOM     90  S   UNL A   1      34.400  21.127  25.003  1.00  0.00    -0.123 S 
ATOM     91  C   UNL A   1      32.448  21.031  23.337  1.00  0.00     0.028 A 
ATOM     92  C   UNL A   1      33.089  20.308  24.312  1.00  0.00     0.071 A 
ATOM     93  Br  UNL A   1      32.570  18.585  24.832  1.00  0.00    -0.039 Br
ENDBRANCH  85  88
ENDBRANCH  79  84
ENDBRANCH  74  77
ENDBRANCH  72  73
ENDBRANCH  71  72
ENDBRANCH   1  71
TORSDOF 15
ENDMDL
MODEL 2
REMARK VINA RESULT:     -11.8      2.546      8.484
REMARK SMILES O=C(NCCCNC(=O)c1cc(Br)ccc1NC(=O)c1ccc(Br)s1)c1ccc(-c2c3nc(c(-c4cccc(S(=O)(=O)[O-])c4F)c4ccc([nH]4)c(-c4cccc(S(=O)(=O)[O-])c4F)c4nc(c(-c5cccc(S(=O)(=O)[O-])c5F)c5ccc2[nH]5)C=C4)C=C3)cc1
REMARK SMILES IDX 4 1 3 2 1 3 2 4 26 6 27 7 88 8 28 9 87 10 29 11 30 12 31 13
REMARK SMILES IDX 81 14 32 15 86 16 80 17 82 18 33 19 85 20 79 21 78 22 34 24
REMARK SMILES IDX 66 25 46 26 65 27 47 28 50 29 64 30 83 31 48 32 49 33 63 35
REMARK SMILES IDX 84 36 51 37 35 38 36 39 44 40 37 41 39 42 45 43 38 44 40 45
REMARK SMILES IDX 41 46 42 47 43 48 67 49 68 50 76 51 69 52 71 53 77 54 70 55
REMARK SMILES IDX 72 56 73 57 74 58 75 59 52 60 53 61 61 62 54 63 56 64 62 65
REMARK SMILES IDX 55 66 57 67 58 68 59 69 60 70 5 71 6 72 7 73 8 74 9 76 10 77
REMARK SMILES IDX 11 78 16 79 12 80 15 81 13 82 14 83 17 84 18 85 19 87 20 88
REMARK SMILES IDX 21 89 25 90 22 91 23 92 24 93
REMARK H PARENT 3 5 82 23 50 34 7 75 17 86
REMARK Flexibility Score: inf
ROOT
ATOM      1  C   UNL A   1      34.149  28.930  25.865  1.00  0.00     0.118 C 
ENDROOT
BRANCH   1   2
ATOM      2  N   UNL A   1      33.873  30.172  26.571  1.00  0.00    -0.352 N 
ATOM      3  O   UNL A   1      33.962  31.701  28.205  1.00  0.00    -0.269 OA
ATOM      4  C   UNL A   1      34.511  30.760  27.635  1.00  0.00     0.251 C 
ATOM      5  H   UNL A   1      33.099  30.675  26.228  1.00  0.00     0.163 HD
BRANCH   4   6
ATOM      6  C   UNL A   1      35.824  30.267  28.110  1.00  0.00     0.039 A 
ATOM      7  C   UNL A   1      36.988  30.457  27.362  1.00  0.00     0.014 A 
ATOM      8  C   UNL A   1      35.897  29.654  29.365  1.00  0.00     0.014 A 
ATOM      9  C   UNL A   1      38.196  29.913  27.798  1.00  0.00     0.010 A 
ATOM     10  C   UNL A   1      37.123  29.180  29.838  1.00  0.00     0.010 A 
ATOM     11  C   UNL A   1      38.277  29.275  29.044  1.00  0.00    -0.014 A 
BRANCH  11  12
ATOM     12  C   UNL A   1      39.577  28.758  29.541  1.00  0.00     0.031 A 
ATOM     13  C   UNL A   1      40.310  29.461  30.649  1.00  0.00     0.074 A 
ATOM     14  C   UNL A   1      40.123  27.678  28.950  1.00  0.00     0.049 A 
ATOM     15  N   UNL A   1      41.489  29.199  31.152  1.00  0.00    -0.248 NA
ATOM     16  C   UNL A   1      39.639  30.618  31.263  1.00  0.00     0.031 C 
ATOM     17  C   UNL A   1      39.523  26.935  27.839  1.00  0.00     0.029 A 
ATOM     18  N   UNL A   1      41.314  27.036  29.176  1.00  0.00    -0.354 N 
ATOM     19  C   UNL A   1      41.722  30.181  32.107  1.00  0.00     0.074 A 
ATOM     20  C   UNL A   1      40.564  31.049  32.110  1.00  0.00     0.031 C 
ATOM     21  C   UNL A   1      40.353  25.949  27.472  1.00  0.00     0.029 A 
ATOM     22  C   UNL A   1      41.563  26.017  28.287  1.00  0.00     0.049 A 
ATOM     23  H   UNL A   1      41.930  27.282  29.902  1.00  0.00     0.167 HD
ATOM     24  C   UNL A   1      42.798  30.337  32.915  1.00  0.00     0.034 A 
ATOM     25  C   UNL A   1      42.652  25.243  28.120  1.00  0.00     0.034 A 
ATOM     26  C   UNL A   1      43.929  29.449  32.934  1.00  0.00     0.049 A 
ATOM     27  C   UNL A   1      43.822  25.419  29.044  1.00  0.00     0.074 A 
ATOM     28  C   UNL A   1      45.032  29.479  33.769  1.00  0.00     0.029 A 
ATOM     29  N   UNL A   1      44.107  28.376  32.073  1.00  0.00    -0.354 N 
ATOM     30  N   UNL A   1      43.969  26.271  30.030  1.00  0.00    -0.248 NA
ATOM     31  C   UNL A   1      44.963  24.512  28.857  1.00  0.00     0.031 C 
ATOM     32  C   UNL A   1      45.886  28.433  33.401  1.00  0.00     0.029 A 
ATOM     33  C   UNL A   1      45.306  27.741  32.350  1.00  0.00     0.049 A 
ATOM     34  H   UNL A   1      43.475  28.106  31.368  1.00  0.00     0.167 HD
ATOM     35  C   UNL A   1      45.202  25.984  30.602  1.00  0.00     0.074 A 
ATOM     36  C   UNL A   1      45.757  24.871  29.858  1.00  0.00     0.031 C 
ATOM     37  C   UNL A   1      45.821  26.597  31.640  1.00  0.00     0.034 A 
BRANCH  24  38
ATOM     38  C   UNL A   1      42.786  31.497  33.876  1.00  0.00     0.023 A 
ATOM     39  C   UNL A   1      43.343  32.732  33.484  1.00  0.00     0.012 A 
ATOM     40  C   UNL A   1      42.185  31.384  35.144  1.00  0.00     0.148 A 
ATOM     41  C   UNL A   1      43.334  33.824  34.351  1.00  0.00     0.002 A 
ATOM     42  C   UNL A   1      42.144  32.489  35.988  1.00  0.00     0.091 A 
ATOM     43  F   UNL A   1      41.683  30.197  35.514  1.00  0.00    -0.205 F 
ATOM     44  C   UNL A   1      42.726  33.705  35.598  1.00  0.00     0.022 A 
BRANCH  42  45
ATOM     45  S   UNL A   1      41.317  32.439  37.583  1.00  0.00     0.127 S 
ATOM     46  O   UNL A   1      42.127  31.460  38.306  1.00  0.00    -0.237 OA
ATOM     47  O   UNL A   1      41.461  33.816  38.057  1.00  0.00    -0.237 OA
ATOM     48  O   UNL A   1      39.945  32.043  37.299  1.00  0.00    -0.744 OA
ENDBRANCH  42  45
ENDBRANCH  24  38
BRANCH  25  49
ATOM     49  C   UNL A   1      42.644  24.205  27.053  1.00  0.00     0.023 A 
ATOM     50  C   UNL A   1      43.292  24.463  25.831  1.00  0.00     0.012 A 
ATOM     51  C   UNL A   1      42.083  22.932  27.280  1.00  0.00     0.148 A 
ATOM     52  C   UNL A   1      43.375  23.474  24.850  1.00  0.00     0.002 A 
ATOM     53  C   UNL A   1      42.217  21.936  26.323  1.00  0.00     0.091 A 
ATOM     54  F   UNL A   1      41.462  22.714  28.448  1.00  0.00    -0.205 F 
ATOM     55  C   UNL A   1      42.851  22.210  25.100  1.00  0.00     0.022 A 
BRANCH  53  56
ATOM     56  S   UNL A   1      41.704  20.239  26.615  1.00  0.00     0.127 S 
ATOM     57  O   UNL A   1      40.255  20.380  26.726  1.00  0.00    -0.237 OA
ATOM     58  O   UNL A   1      42.168  19.572  25.398  1.00  0.00    -0.237 OA
ATOM     59  O   UNL A   1      42.393  19.822  27.829  1.00  0.00    -0.744 OA
ENDBRANCH  53  56
ENDBRANCH  25  49
BRANCH  37  60
ATOM     60  C   UNL A   1      47.159  26.062  32.076  1.00  0.00     0.023 A 
ATOM     61  C   UNL A   1      48.335  26.569  31.493  1.00  0.00     0.012 A 
ATOM     62  C   UNL A   1      47.250  25.141  33.137  1.00  0.00     0.148 A 
ATOM     63  C   UNL A   1      49.586  26.154  31.951  1.00  0.00     0.002 A 
ATOM     64  C   UNL A   1      48.499  24.766  33.617  1.00  0.00     0.091 A 
ATOM     65  F   UNL A   1      46.115  24.658  33.664  1.00  0.00    -0.205 F 
ATOM     66  C   UNL A   1      49.668  25.265  33.020  1.00  0.00     0.022 A 
BRANCH  64  67
ATOM     67  S   UNL A   1      48.700  23.699  35.048  1.00  0.00     0.127 S 
ATOM     68  O   UNL A   1      50.143  23.772  35.274  1.00  0.00    -0.237 OA
ATOM     69  O   UNL A   1      47.889  24.378  36.059  1.00  0.00    -0.237 OA
ATOM     70  O   UNL A   1      48.197  22.391  34.650  1.00  0.00    -0.744 OA
ENDBRANCH  64  67
ENDBRANCH  37  60
ENDBRANCH  11  12
ENDBRANCH   4   6
ENDBRANCH   1   2
BRANCH   1  71
ATOM     71  C   UNL A   1      33.531  27.718  26.551  1.00  0.00     0.042 C 
BRANCH  71  72
ATOM     72  C   UNL A   1      33.704  26.410  25.790  1.00  0.00     0.118 C 
BRANCH  72  73
ATOM     73  N   UNL A   1      33.013  25.289  26.419  1.00  0.00    -0.352 N 
ATOM     74  C   UNL A   1      33.214  23.938  26.270  1.00  0.00     0.253 C 
ATOM     75  H   UNL A   1      32.293  25.538  27.043  1.00  0.00     0.163 HD
ATOM     76  O   UNL A   1      32.412  23.134  26.738  1.00  0.00    -0.269 OA
BRANCH  74  77
ATOM     77  C   UNL A   1      34.369  23.447  25.488  1.00  0.00     0.064 A 
ATOM     78  C   UNL A   1      35.642  23.511  26.075  1.00  0.00     0.031 A 
ATOM     79  C   UNL A   1      34.198  22.937  24.185  1.00  0.00     0.054 A 
ATOM     80  C   UNL A   1      36.766  23.226  25.312  1.00  0.00     0.018 A 
ATOM     81  C   UNL A   1      35.350  22.750  23.415  1.00  0.00     0.028 A 
ATOM     82  Br  UNL A   1      38.485  23.367  26.078  1.00  0.00    -0.051 Br
ATOM     83  C   UNL A   1      36.628  22.888  23.972  1.00  0.00     0.018 A 
BRANCH  79  84
ATOM     84  N   UNL A   1      32.894  22.662  23.707  1.00  0.00    -0.321 N 
ATOM     85  C   UNL A   1      31.881  23.465  23.215  1.00  0.00     0.265 C 
ATOM     86  H   UNL A   1      32.661  21.706  23.730  1.00  0.00     0.170 HD
ATOM     87  O   UNL A   1      30.776  22.947  23.040  1.00  0.00    -0.268 OA
BRANCH  85  88
ATOM     88  C   UNL A   1      32.156  24.841  22.849  1.00  0.00     0.093 A 
ATOM     89  C   UNL A   1      33.228  25.368  22.147  1.00  0.00     0.027 A 
ATOM     90  S   UNL A   1      31.030  26.060  23.279  1.00  0.00    -0.123 S 
ATOM     91  C   UNL A   1      33.179  26.793  22.078  1.00  0.00     0.028 A 
ATOM     92  C   UNL A   1      32.041  27.277  22.674  1.00  0.00     0.071 A 
ATOM     93  Br  UNL A   1      31.640  29.101  22.809  1.00  0.00    -0.039 Br
ENDBRANCH  85  88
ENDBRANCH  79  84
ENDBRANCH  74  77
ENDBRANCH  72  73
ENDBRANCH  71  72
ENDBRANCH   1  71
TORSDOF 15
ENDMDL
MODEL 3
REMARK VINA RESULT:     -11.8      2.610      8.320
REMARK SMILES O=C(NCCCNC(=O)c1cc(Br)ccc1NC(=O)c1ccc(Br)s1)c1ccc(-c2c3nc(c(-c4cccc(S(=O)(=O)[O-])c4F)c4ccc([nH]4)c(-c4cccc(S(=O)(=O)[O-])c4F)c4nc(c(-c5cccc(S(=O)(=O)[O-])c5F)c5ccc2[nH]5)C=C4)C=C3)cc1
REMARK SMILES IDX 4 1 3 2 1 3 2 4 26 6 27 7 88 8 28 9 87 10 29 11 30 12 31 13
REMARK SMILES IDX 81 14 32 15 86 16 80 17 82 18 33 19 85 20 79 21 78 22 34 24
REMARK SMILES IDX 66 25 46 26 65 27 47 28 50 29 64 30 83 31 48 32 49 33 63 35
REMARK SMILES IDX 84 36 51 37 35 38 36 39 44 40 37 41 39 42 45 43 38 44 40 45
REMARK SMILES IDX 41 46 42 47 43 48 67 49 68 50 76 51 69 52 71 53 77 54 70 55
REMARK SMILES IDX 72 56 73 57 74 58 75 59 52 60 53 61 61 62 54 63 56 64 62 65
REMARK SMILES IDX 55 66 57 67 58 68 59 69 60 70 5 71 6 72 7 73 8 74 9 76 10 77
REMARK SMILES IDX 11 78 16 79 12 80 15 81 13 82 14 83 17 84 18 85 19 87 20 88
REMARK SMILES IDX 21 89 25 90 22 91 23 92 24 93
REMARK H PARENT 3 5 82 23 50 34 7 75 17 86
REMARK Flexibility Score: inf
ROOT
ATOM      1  C   UNL A   1      33.631  28.651  26.892  1.00  0.00     0.118 C 
ENDROOT
BRANCH   1   2
ATOM      2  N   UNL A   1      33.669  30.088  27.114  1.00  0.00    -0.352 N 
ATOM      3  O   UNL A   1      34.254  32.035  28.054  1.00  0.00    -0.269 OA
ATOM      4  C   UNL A   1      34.552  30.865  27.822  1.00  0.00     0.251 C 
ATOM      5  H   UNL A   1      32.937  30.588  26.684  1.00  0.00     0.163 HD
BRANCH   4   6
ATOM      6  C   UNL A   1      35.832  30.311  28.320  1.00  0.00     0.039 A 
ATOM      7  C   UNL A   1      35.914  29.659  29.553  1.00  0.00     0.014 A 
ATOM      8  C   UNL A   1      36.963  30.394  27.502  1.00  0.00     0.014 A 
ATOM      9  C   UNL A   1      37.147  29.218  30.030  1.00  0.00     0.010 A 
ATOM     10  C   UNL A   1      38.184  29.880  27.947  1.00  0.00     0.010 A 
ATOM     11  C   UNL A   1      38.294  29.317  29.228  1.00  0.00    -0.014 A 
BRANCH  11  12
ATOM     12  C   UNL A   1      39.594  28.783  29.706  1.00  0.00     0.031 A 
ATOM     13  C   UNL A   1      40.352  29.476  30.803  1.00  0.00     0.074 A 
ATOM     14  C   UNL A   1      40.118  27.698  29.106  1.00  0.00     0.049 A 
ATOM     15  N   UNL A   1      41.534  29.199  31.290  1.00  0.00    -0.248 NA
ATOM     16  C   UNL A   1      39.703  30.641  31.428  1.00  0.00     0.031 C 
ATOM     17  C   UNL A   1      39.494  26.963  28.002  1.00  0.00     0.029 A 
ATOM     18  N   UNL A   1      41.306  27.041  29.314  1.00  0.00    -0.354 N 
ATOM     19  C   UNL A   1      41.792  30.177  32.242  1.00  0.00     0.074 A 
ATOM     20  C   UNL A   1      40.645  31.059  32.263  1.00  0.00     0.031 C 
ATOM     21  C   UNL A   1      40.307  25.967  27.622  1.00  0.00     0.029 A 
ATOM     22  C   UNL A   1      41.529  26.021  28.420  1.00  0.00     0.049 A 
ATOM     23  H   UNL A   1      41.935  27.279  30.032  1.00  0.00     0.167 HD
ATOM     24  C   UNL A   1      42.882  30.320  33.035  1.00  0.00     0.034 A 
ATOM     25  C   UNL A   1      42.606  25.233  28.237  1.00  0.00     0.034 A 
ATOM     26  C   UNL A   1      44.002  29.418  33.036  1.00  0.00     0.049 A 
ATOM     27  C   UNL A   1      43.792  25.395  29.144  1.00  0.00     0.074 A 
ATOM     28  C   UNL A   1      45.117  29.433  33.856  1.00  0.00     0.029 A 
ATOM     29  N   UNL A   1      44.155  28.344  32.172  1.00  0.00    -0.354 N 
ATOM     30  N   UNL A   1      43.963  26.243  30.129  1.00  0.00    -0.248 NA
ATOM     31  C   UNL A   1      44.919  24.474  28.940  1.00  0.00     0.031 C 
ATOM     32  C   UNL A   1      45.953  28.378  33.475  1.00  0.00     0.029 A 
ATOM     33  C   UNL A   1      45.350  27.694  32.431  1.00  0.00     0.049 A 
ATOM     34  H   UNL A   1      43.510  28.082  31.476  1.00  0.00     0.167 HD
ATOM     35  C   UNL A   1      45.200  25.941  30.683  1.00  0.00     0.074 A 
ATOM     36  C   UNL A   1      45.732  24.822  29.930  1.00  0.00     0.031 C 
ATOM     37  C   UNL A   1      45.841  26.545  31.713  1.00  0.00     0.034 A 
BRANCH  24  38
ATOM     38  C   UNL A   1      42.898  31.479  33.997  1.00  0.00     0.023 A 
ATOM     39  C   UNL A   1      43.483  32.700  33.606  1.00  0.00     0.012 A 
ATOM     40  C   UNL A   1      42.294  31.378  35.265  1.00  0.00     0.148 A 
ATOM     41  C   UNL A   1      43.500  33.791  34.474  1.00  0.00     0.002 A 
ATOM     42  C   UNL A   1      42.280  32.483  36.111  1.00  0.00     0.091 A 
ATOM     43  F   UNL A   1      41.764  30.203  35.634  1.00  0.00    -0.205 F 
ATOM     44  C   UNL A   1      42.890  33.685  35.721  1.00  0.00     0.022 A 
BRANCH  42  45
ATOM     45  S   UNL A   1      41.452  32.451  37.706  1.00  0.00     0.127 S 
ATOM     46  O   UNL A   1      40.120  31.973  37.339  1.00  0.00    -0.237 OA
ATOM     47  O   UNL A   1      42.256  31.488  38.460  1.00  0.00    -0.237 OA
ATOM     48  O   UNL A   1      41.522  33.815  38.209  1.00  0.00    -0.744 OA
ENDBRANCH  42  45
ENDBRANCH  24  38
BRANCH  25  49
ATOM     49  C   UNL A   1      42.571  24.197  27.169  1.00  0.00     0.023 A 
ATOM     50  C   UNL A   1      43.191  24.455  25.932  1.00  0.00     0.012 A 
ATOM     51  C   UNL A   1      42.012  22.925  27.408  1.00  0.00     0.148 A 
ATOM     52  C   UNL A   1      43.247  23.468  24.948  1.00  0.00     0.002 A 
ATOM     53  C   UNL A   1      42.122  21.930  26.446  1.00  0.00     0.091 A 
ATOM     54  F   UNL A   1      41.419  22.706  28.590  1.00  0.00    -0.205 F 
ATOM     55  C   UNL A   1      42.727  22.204  25.209  1.00  0.00     0.022 A 
BRANCH  53  56
ATOM     56  S   UNL A   1      41.612  20.234  26.749  1.00  0.00     0.127 S 
ATOM     57  O   UNL A   1      40.185  20.393  27.017  1.00  0.00    -0.237 OA
ATOM     58  O   UNL A   1      41.932  19.593  25.473  1.00  0.00    -0.237 OA
ATOM     59  O   UNL A   1      42.418  19.774  27.871  1.00  0.00    -0.744 OA
ENDBRANCH  53  56
ENDBRANCH  25  49
BRANCH  37  60
ATOM     60  C   UNL A   1      47.178  25.994  32.129  1.00  0.00     0.023 A 
ATOM     61  C   UNL A   1      48.354  26.497  31.540  1.00  0.00     0.012 A 
ATOM     62  C   UNL A   1      47.272  25.060  33.179  1.00  0.00     0.148 A 
ATOM     63  C   UNL A   1      49.605  26.066  31.980  1.00  0.00     0.002 A 
ATOM     64  C   UNL A   1      48.523  24.669  33.642  1.00  0.00     0.091 A 
ATOM     65  F   UNL A   1      46.139  24.581  33.712  1.00  0.00    -0.205 F 
ATOM     66  C   UNL A   1      49.690  25.165  33.039  1.00  0.00     0.022 A 
BRANCH  64  67
ATOM     67  S   UNL A   1      48.729  23.584  35.059  1.00  0.00     0.127 S 
ATOM     68  O   UNL A   1      50.185  23.485  35.150  1.00  0.00    -0.237 OA
ATOM     69  O   UNL A   1      48.103  24.355  36.134  1.00  0.00    -0.237 OA
ATOM     70  O   UNL A   1      48.040  22.346  34.723  1.00  0.00    -0.744 OA
ENDBRANCH  64  67
ENDBRANCH  37  60
ENDBRANCH  11  12
ENDBRANCH   4   6
ENDBRANCH   1   2
BRANCH   1  71
ATOM     71  C   UNL A   1      33.488  28.290  25.419  1.00  0.00     0.042 C 
BRANCH  71  72
ATOM     72  C   UNL A   1      33.843  26.846  25.089  1.00  0.00     0.118 C 
BRANCH  72  73
ATOM     73  N   UNL A   1      33.166  25.881  25.951  1.00  0.00    -0.352 N 
ATOM     74  C   UNL A   1      33.343  24.523  26.058  1.00  0.00     0.253 C 
ATOM     75  H   UNL A   1      32.477  26.262  26.544  1.00  0.00     0.163 HD
ATOM     76  O   UNL A   1      32.552  23.841  26.705  1.00  0.00    -0.269 OA
BRANCH  74  77
ATOM     77  C   UNL A   1      34.457  23.867  25.340  1.00  0.00     0.064 A 
ATOM     78  C   UNL A   1      35.700  23.777  25.986  1.00  0.00     0.031 A 
ATOM     79  C   UNL A   1      34.278  23.353  24.040  1.00  0.00     0.054 A 
ATOM     80  C   UNL A   1      36.810  23.331  25.281  1.00  0.00     0.018 A 
ATOM     81  C   UNL A   1      35.429  22.998  23.329  1.00  0.00     0.028 A 
ATOM     82  Br  UNL A   1      38.497  23.263  26.125  1.00  0.00    -0.051 Br
ATOM     83  C   UNL A   1      36.687  22.981  23.943  1.00  0.00     0.018 A 
BRANCH  79  84
ATOM     84  N   UNL A   1      32.971  23.240  23.507  1.00  0.00    -0.321 N 
ATOM     85  C   UNL A   1      32.126  22.166  23.301  1.00  0.00     0.265 C 
ATOM     86  H   UNL A   1      32.587  24.101  23.225  1.00  0.00     0.170 HD
ATOM     87  O   UNL A   1      31.102  22.362  22.645  1.00  0.00    -0.268 OA
BRANCH  85  88
ATOM     88  C   UNL A   1      32.417  20.884  23.914  1.00  0.00     0.093 A 
ATOM     89  C   UNL A   1      32.664  20.579  25.243  1.00  0.00     0.027 A 
ATOM     90  S   UNL A   1      32.449  19.477  22.934  1.00  0.00    -0.123 S 
ATOM     91  C   UNL A   1      33.005  19.206  25.427  1.00  0.00     0.028 A 
ATOM     92  C   UNL A   1      32.938  18.518  24.241  1.00  0.00     0.071 A 
ATOM     93  Br  UNL A   1      33.348  16.698  24.076  1.00  0.00    -0.039 Br
ENDBRANCH  85  88
ENDBRANCH  79  84
ENDBRANCH  74  77
ENDBRANCH  72  73
ENDBRANCH  71  72
ENDBRANCH   1  71
TORSDOF 15
ENDMDL
