MODEL 1
REMARK VINA RESULT:      -9.2      0.000      0.000
REMARK SMILES CCCCCCNC(=O)Oc1cccc(-c2ccc([C@@H](C)C(=O)NCCCNC(=O)c3ccc(-c4c5nc(c(-c6cccc(S(=O)(=O)[O-])c6F)c6ccc([nH]6)c(-c6cccc(S(=O)(=O)[O-])c6F)c6nc(c(-c7cccc(S(=O)(=O)[O-])c7F)c7ccc4[nH]7)C=C6)C=C5)cc3)cc2)c1
REMARK SMILES IDX 20 1 21 2 19 3 16 4 17 5 95 6 18 7 94 8 15 9 11 10 12 11
REMARK SMILES IDX 96 12 13 13 14 14 10 15 8 16 7 17 9 19 6 20 5 21 4 22 3 23
REMARK SMILES IDX 2 24 1 25 22 26 23 27 24 28 25 30 26 31 27 32 28 33 29 34
REMARK SMILES IDX 30 36 31 37 32 38 93 39 33 40 92 41 34 42 35 43 36 44 86 45
REMARK SMILES IDX 37 46 91 47 85 48 87 49 38 50 90 51 84 52 83 53 39 55 71 56
REMARK SMILES IDX 51 57 70 58 52 59 55 60 69 61 88 62 53 63 54 64 68 66 89 67
REMARK SMILES IDX 56 68 40 69 41 70 49 71 42 72 44 73 50 74 43 75 45 76 46 77
REMARK SMILES IDX 47 78 48 79 72 80 73 81 81 82 74 83 76 84 82 85 75 86 77 87
REMARK SMILES IDX 78 88 79 89 80 90 57 91 58 92 66 93 59 94 61 95 67 96 60 97
REMARK SMILES IDX 62 98 63 99 64 100 65 101
REMARK H PARENT 7 18 24 29 28 35 87 54 55 65
REMARK Flexibility Score: inf
ROOT
ATOM      1  C   UNL A   1      42.489  23.165  27.444  1.00  0.00     0.105 C 
ATOM      2  C   UNL A   1      42.569  22.199  28.624  1.00  0.00     0.023 C 
ENDROOT
BRANCH   1   3
ATOM      3  C   UNL A   1      41.683  24.431  27.684  1.00  0.00    -0.036 A 
ATOM      4  C   UNL A   1      40.030  26.675  28.305  1.00  0.00    -0.018 A 
ATOM      5  C   UNL A   1      41.365  26.604  28.728  1.00  0.00     0.009 A 
ATOM      6  C   UNL A   1      39.556  25.618  27.514  1.00  0.00     0.009 A 
ATOM      7  C   UNL A   1      42.186  25.524  28.391  1.00  0.00     0.005 A 
ATOM      8  C   UNL A   1      40.360  24.506  27.227  1.00  0.00     0.005 A 
BRANCH   4   9
ATOM      9  C   UNL A   1      39.164  27.801  28.719  1.00  0.00    -0.015 A 
ATOM     10  C   UNL A   1      37.796  28.926  30.386  1.00  0.00     0.133 A 
ATOM     11  C   UNL A   1      37.617  30.024  29.553  1.00  0.00     0.047 A 
ATOM     12  C   UNL A   1      38.548  27.821  29.983  1.00  0.00     0.056 A 
ATOM     13  C   UNL A   1      38.206  30.019  28.294  1.00  0.00     0.004 A 
ATOM     14  C   UNL A   1      38.960  28.917  27.881  1.00  0.00     0.009 A 
BRANCH  10  15
ATOM     15  O   UNL A   1      37.099  28.933  31.602  1.00  0.00    -0.410 OA
BRANCH  15  16
ATOM     16  C   UNL A   1      37.775  28.549  32.750  1.00  0.00     0.412 C 
ATOM     17  N   UNL A   1      38.004  29.594  33.602  1.00  0.00    -0.321 N 
ATOM     18  H   UNL A   1      38.519  29.397  34.417  1.00  0.00     0.167 HD
ATOM     19  O   UNL A   1      38.131  27.415  33.040  1.00  0.00    -0.224 OA
BRANCH  17  20
ATOM     20  C   UNL A   1      37.565  30.963  33.425  1.00  0.00     0.119 C 
BRANCH  20  21
ATOM     21  C   UNL A   1      38.700  31.848  32.905  1.00  0.00     0.021 C 
BRANCH  21  22
ATOM     22  C   UNL A   1      38.369  33.345  32.861  1.00  0.00     0.002 C 
BRANCH  22  23
ATOM     23  C   UNL A   1      37.926  33.878  31.494  1.00  0.00    -0.000 C 
BRANCH  23  24
ATOM     24  C   UNL A   1      36.582  33.347  30.989  1.00  0.00    -0.003 C 
ATOM     25  C   UNL A   1      35.399  34.190  31.439  1.00  0.00     0.004 C 
ENDBRANCH  23  24
ENDBRANCH  22  23
ENDBRANCH  21  22
ENDBRANCH  20  21
ENDBRANCH  17  20
ENDBRANCH  15  16
ENDBRANCH  10  15
ENDBRANCH   4   9
ENDBRANCH   1   3
BRANCH   1  26
ATOM     26  C   UNL A   1      42.193  22.491  26.095  1.00  0.00     0.227 C 
ATOM     27  O   UNL A   1      41.336  21.600  26.028  1.00  0.00    -0.274 OA
ATOM     28  N   UNL A   1      42.802  22.824  24.925  1.00  0.00    -0.356 N 
ATOM     29  H   UNL A   1      42.470  22.327  24.143  1.00  0.00     0.163 HD
BRANCH  28  30
ATOM     30  C   UNL A   1      43.849  23.778  24.616  1.00  0.00     0.117 C 
BRANCH  30  31
ATOM     31  C   UNL A   1      45.222  23.123  24.496  1.00  0.00     0.042 C 
BRANCH  31  32
ATOM     32  C   UNL A   1      46.305  23.804  25.320  1.00  0.00     0.118 C 
BRANCH  32  33
ATOM     33  N   UNL A   1      47.014  24.824  24.558  1.00  0.00    -0.352 N 
ATOM     34  C   UNL A   1      47.004  26.192  24.668  1.00  0.00     0.251 C 
ATOM     35  H   UNL A   1      47.598  24.474  23.847  1.00  0.00     0.163 HD
ATOM     36  O   UNL A   1      47.507  26.859  23.766  1.00  0.00    -0.269 OA
BRANCH  34  37
ATOM     37  C   UNL A   1      46.404  26.869  25.843  1.00  0.00     0.039 A 
ATOM     38  C   UNL A   1      47.248  27.291  26.875  1.00  0.00     0.014 A 
ATOM     39  C   UNL A   1      45.023  27.030  25.973  1.00  0.00     0.014 A 
ATOM     40  C   UNL A   1      46.711  27.895  28.015  1.00  0.00     0.010 A 
ATOM     41  C   UNL A   1      44.498  27.720  27.062  1.00  0.00     0.010 A 
ATOM     42  C   UNL A   1      45.330  28.131  28.110  1.00  0.00    -0.014 A 
BRANCH  42  43
ATOM     43  C   UNL A   1      44.742  28.772  29.315  1.00  0.00     0.031 A 
ATOM     44  C   UNL A   1      44.550  27.977  30.581  1.00  0.00     0.074 A 
ATOM     45  C   UNL A   1      44.327  30.053  29.253  1.00  0.00     0.049 A 
ATOM     46  N   UNL A   1      44.044  28.357  31.726  1.00  0.00    -0.248 NA
ATOM     47  C   UNL A   1      44.954  26.561  30.552  1.00  0.00     0.031 C 
ATOM     48  C   UNL A   1      44.380  30.902  28.060  1.00  0.00     0.029 A 
ATOM     49  N   UNL A   1      43.760  30.859  30.208  1.00  0.00    -0.354 N 
ATOM     50  C   UNL A   1      44.031  27.225  32.534  1.00  0.00     0.074 A 
ATOM     51  C   UNL A   1      44.545  26.134  31.737  1.00  0.00     0.031 C 
ATOM     52  C   UNL A   1      43.879  32.111  28.358  1.00  0.00     0.029 A 
ATOM     53  C   UNL A   1      43.444  32.117  29.751  1.00  0.00     0.049 A 
ATOM     54  H   UNL A   1      43.596  30.565  31.133  1.00  0.00     0.167 HD
ATOM     55  C   UNL A   1      43.659  27.108  33.831  1.00  0.00     0.034 A 
ATOM     56  C   UNL A   1      42.869  33.158  30.383  1.00  0.00     0.034 A 
ATOM     57  C   UNL A   1      43.190  28.206  34.631  1.00  0.00     0.049 A 
ATOM     58  C   UNL A   1      42.521  33.020  31.841  1.00  0.00     0.074 A 
ATOM     59  C   UNL A   1      42.864  28.216  35.976  1.00  0.00     0.029 A 
ATOM     60  N   UNL A   1      42.972  29.492  34.159  1.00  0.00    -0.354 N 
ATOM     61  N   UNL A   1      42.664  31.982  32.630  1.00  0.00    -0.248 NA
ATOM     62  C   UNL A   1      41.975  34.210  32.508  1.00  0.00     0.031 C 
ATOM     63  C   UNL A   1      42.426  29.502  36.310  1.00  0.00     0.029 A 
ATOM     64  C   UNL A   1      42.514  30.302  35.183  1.00  0.00     0.049 A 
ATOM     65  H   UNL A   1      43.121  29.785  33.230  1.00  0.00     0.167 HD
ATOM     66  C   UNL A   1      42.268  32.406  33.893  1.00  0.00     0.074 A 
ATOM     67  C   UNL A   1      41.899  33.802  33.767  1.00  0.00     0.031 C 
ATOM     68  C   UNL A   1      42.202  31.702  35.052  1.00  0.00     0.034 A 
BRANCH  55  69
ATOM     69  C   UNL A   1      43.790  25.753  34.481  1.00  0.00     0.023 A 
ATOM     70  C   UNL A   1      42.661  24.911  34.572  1.00  0.00     0.012 A 
ATOM     71  C   UNL A   1      45.033  25.290  34.950  1.00  0.00     0.148 A 
ATOM     72  C   UNL A   1      42.759  23.648  35.156  1.00  0.00     0.002 A 
ATOM     73  C   UNL A   1      45.135  24.010  35.485  1.00  0.00     0.091 A 
ATOM     74  F   UNL A   1      46.092  26.109  34.874  1.00  0.00    -0.205 F 
ATOM     75  C   UNL A   1      43.997  23.195  35.601  1.00  0.00     0.022 A 
BRANCH  73  76
ATOM     76  S   UNL A   1      46.698  23.298  36.011  1.00  0.00     0.127 S 
ATOM     77  O   UNL A   1      47.483  23.365  34.779  1.00  0.00    -0.237 OA
ATOM     78  O   UNL A   1      47.124  24.231  37.055  1.00  0.00    -0.237 OA
ATOM     79  O   UNL A   1      46.391  21.955  36.483  1.00  0.00    -0.744 OA
ENDBRANCH  73  76
ENDBRANCH  55  69
BRANCH  56  80
ATOM     80  C   UNL A   1      42.661  34.446  29.663  1.00  0.00     0.023 A 
ATOM     81  C   UNL A   1      41.397  34.734  29.111  1.00  0.00     0.012 A 
ATOM     82  C   UNL A   1      43.696  35.394  29.540  1.00  0.00     0.148 A 
ATOM     83  C   UNL A   1      41.177  35.924  28.416  1.00  0.00     0.002 A 
ATOM     84  C   UNL A   1      43.454  36.603  28.894  1.00  0.00     0.091 A 
ATOM     85  F   UNL A   1      44.893  35.101  30.065  1.00  0.00    -0.205 F 
ATOM     86  C   UNL A   1      42.202  36.861  28.315  1.00  0.00     0.022 A 
BRANCH  84  87
ATOM     87  S   UNL A   1      44.672  37.923  28.825  1.00  0.00     0.127 S 
ATOM     88  O   UNL A   1      43.954  38.953  28.079  1.00  0.00    -0.237 OA
ATOM     89  O   UNL A   1      44.876  38.219  30.243  1.00  0.00    -0.237 OA
ATOM     90  O   UNL A   1      45.835  37.357  28.157  1.00  0.00    -0.744 OA
ENDBRANCH  84  87
ENDBRANCH  56  80
BRANCH  68  91
ATOM     91  C   UNL A   1      41.767  32.441  36.291  1.00  0.00     0.023 A 
ATOM     92  C   UNL A   1      42.685  33.245  36.996  1.00  0.00     0.012 A 
ATOM     93  C   UNL A   1      40.428  32.378  36.727  1.00  0.00     0.148 A 
ATOM     94  C   UNL A   1      42.289  33.937  38.140  1.00  0.00     0.002 A 
ATOM     95  C   UNL A   1      40.028  33.113  37.835  1.00  0.00     0.091 A 
ATOM     96  F   UNL A   1      39.573  31.593  36.055  1.00  0.00    -0.205 F 
ATOM     97  C   UNL A   1      40.959  33.880  38.552  1.00  0.00     0.022 A 
BRANCH  95  98
ATOM     98  S   UNL A   1      38.315  33.178  38.373  1.00  0.00     0.127 S 
ATOM     99  O   UNL A   1      38.401  34.065  39.532  1.00  0.00    -0.237 OA
ATOM    100  O   UNL A   1      37.645  33.758  37.210  1.00  0.00    -0.237 OA
ATOM    101  O   UNL A   1      37.934  31.802  38.663  1.00  0.00    -0.744 OA
ENDBRANCH  95  98
ENDBRANCH  68  91
ENDBRANCH  42  43
ENDBRANCH  34  37
ENDBRANCH  32  33
ENDBRANCH  31  32
ENDBRANCH  30  31
ENDBRANCH  28  30
ENDBRANCH   1  26
TORSDOF 22
ENDMDL
MODEL 2
REMARK VINA RESULT:      -8.7      3.773      7.676
REMARK SMILES CCCCCCNC(=O)Oc1cccc(-c2ccc([C@@H](C)C(=O)NCCCNC(=O)c3ccc(-c4c5nc(c(-c6cccc(S(=O)(=O)[O-])c6F)c6ccc([nH]6)c(-c6cccc(S(=O)(=O)[O-])c6F)c6nc(c(-c7cccc(S(=O)(=O)[O-])c7F)c7ccc4[nH]7)C=C6)C=C5)cc3)cc2)c1
REMARK SMILES IDX 20 1 21 2 19 3 16 4 17 5 95 6 18 7 94 8 15 9 11 10 12 11
REMARK SMILES IDX 96 12 13 13 14 14 10 15 8 16 7 17 9 19 6 20 5 21 4 22 3 23
REMARK SMILES IDX 2 24 1 25 22 26 23 27 24 28 25 30 26 31 27 32 28 33 29 34
REMARK SMILES IDX 30 36 31 37 32 38 93 39 33 40 92 41 34 42 35 43 36 44 86 45
REMARK SMILES IDX 37 46 91 47 85 48 87 49 38 50 90 51 84 52 83 53 39 55 71 56
REMARK SMILES IDX 51 57 70 58 52 59 55 60 69 61 88 62 53 63 54 64 68 66 89 67
REMARK SMILES IDX 56 68 40 69 41 70 49 71 42 72 44 73 50 74 43 75 45 76 46 77
REMARK SMILES IDX 47 78 48 79 72 80 73 81 81 82 74 83 76 84 82 85 75 86 77 87
REMARK SMILES IDX 78 88 79 89 80 90 57 91 58 92 66 93 59 94 61 95 67 96 60 97
REMARK SMILES IDX 62 98 63 99 64 100 65 101
REMARK H PARENT 7 18 24 29 28 35 87 54 55 65
REMARK Flexibility Score: inf
ROOT
ATOM      1  C   UNL A   1      43.370  22.306  25.782  1.00  0.00     0.105 C 
ATOM      2  C   UNL A   1      43.446  23.272  24.602  1.00  0.00     0.023 C 
ENDROOT
BRANCH   1   3
ATOM      3  C   UNL A   1      43.627  22.917  27.150  1.00  0.00    -0.036 A 
ATOM      4  C   UNL A   1      44.079  23.830  29.819  1.00  0.00    -0.018 A 
ATOM      5  C   UNL A   1      45.120  23.744  28.883  1.00  0.00     0.009 A 
ATOM      6  C   UNL A   1      42.792  23.500  29.369  1.00  0.00     0.009 A 
ATOM      7  C   UNL A   1      44.892  23.334  27.565  1.00  0.00     0.005 A 
ATOM      8  C   UNL A   1      42.572  23.031  28.066  1.00  0.00     0.005 A 
BRANCH   4   9
ATOM      9  C   UNL A   1      44.351  24.213  31.221  1.00  0.00    -0.015 A 
ATOM     10  C   UNL A   1      44.892  25.890  32.897  1.00  0.00     0.133 A 
ATOM     11  C   UNL A   1      44.739  24.967  33.925  1.00  0.00     0.047 A 
ATOM     12  C   UNL A   1      44.712  25.528  31.561  1.00  0.00     0.056 A 
ATOM     13  C   UNL A   1      44.394  23.658  33.610  1.00  0.00     0.004 A 
ATOM     14  C   UNL A   1      44.214  23.285  32.275  1.00  0.00     0.009 A 
BRANCH  10  15
ATOM     15  O   UNL A   1      45.339  27.170  33.256  1.00  0.00    -0.410 OA
BRANCH  15  16
ATOM     16  C   UNL A   1      46.616  27.298  33.780  1.00  0.00     0.412 C 
ATOM     17  N   UNL A   1      46.625  27.917  35.000  1.00  0.00    -0.321 N 
ATOM     18  H   UNL A   1      47.507  28.078  35.408  1.00  0.00     0.167 HD
ATOM     19  O   UNL A   1      47.655  26.901  33.271  1.00  0.00    -0.224 OA
BRANCH  17  20
ATOM     20  C   UNL A   1      45.469  28.358  35.753  1.00  0.00     0.119 C 
BRANCH  20  21
ATOM     21  C   UNL A   1      45.039  27.308  36.778  1.00  0.00     0.021 C 
BRANCH  21  22
ATOM     22  C   UNL A   1      43.528  27.049  36.825  1.00  0.00     0.002 C 
BRANCH  22  23
ATOM     23  C   UNL A   1      43.120  25.623  37.215  1.00  0.00    -0.000 C 
BRANCH  23  24
ATOM     24  C   UNL A   1      41.884  25.077  36.496  1.00  0.00    -0.003 C 
ATOM     25  C   UNL A   1      41.484  25.900  35.282  1.00  0.00     0.004 C 
ENDBRANCH  23  24
ENDBRANCH  22  23
ENDBRANCH  21  22
ENDBRANCH  20  21
ENDBRANCH  17  20
ENDBRANCH  15  16
ENDBRANCH  10  15
ENDBRANCH   4   9
ENDBRANCH   1   3
BRANCH   1  26
ATOM     26  C   UNL A   1      44.098  20.972  25.554  1.00  0.00     0.227 C 
ATOM     27  O   UNL A   1      45.154  20.951  24.909  1.00  0.00    -0.274 OA
ATOM     28  N   UNL A   1      43.671  19.776  26.044  1.00  0.00    -0.356 N 
ATOM     29  H   UNL A   1      44.273  19.023  25.845  1.00  0.00     0.163 HD
BRANCH  28  30
ATOM     30  C   UNL A   1      42.496  19.406  26.807  1.00  0.00     0.117 C 
BRANCH  30  31
ATOM     31  C   UNL A   1      41.197  19.798  26.110  1.00  0.00     0.042 C 
BRANCH  31  32
ATOM     32  C   UNL A   1      40.527  21.031  26.701  1.00  0.00     0.118 C 
BRANCH  32  33
ATOM     33  N   UNL A   1      39.287  21.365  26.012  1.00  0.00    -0.352 N 
ATOM     34  C   UNL A   1      38.566  22.532  25.983  1.00  0.00     0.251 C 
ATOM     35  H   UNL A   1      38.903  20.632  25.478  1.00  0.00     0.163 HD
ATOM     36  O   UNL A   1      37.429  22.510  25.516  1.00  0.00    -0.269 OA
BRANCH  34  37
ATOM     37  C   UNL A   1      39.129  23.802  26.498  1.00  0.00     0.039 A 
ATOM     38  C   UNL A   1      38.852  24.170  27.819  1.00  0.00     0.014 A 
ATOM     39  C   UNL A   1      39.863  24.665  25.682  1.00  0.00     0.014 A 
ATOM     40  C   UNL A   1      39.333  25.382  28.322  1.00  0.00     0.010 A 
ATOM     41  C   UNL A   1      40.425  25.823  26.213  1.00  0.00     0.010 A 
ATOM     42  C   UNL A   1      40.140  26.212  27.528  1.00  0.00    -0.014 A 
BRANCH  42  43
ATOM     43  C   UNL A   1      40.660  27.503  28.047  1.00  0.00     0.031 A 
ATOM     44  C   UNL A   1      42.141  27.787  28.033  1.00  0.00     0.074 A 
ATOM     45  C   UNL A   1      39.807  28.397  28.585  1.00  0.00     0.049 A 
ATOM     46  N   UNL A   1      42.783  28.846  28.453  1.00  0.00    -0.248 NA
ATOM     47  C   UNL A   1      43.021  26.731  27.503  1.00  0.00     0.031 C 
ATOM     48  C   UNL A   1      38.363  28.204  28.734  1.00  0.00     0.029 A 
ATOM     49  N   UNL A   1      40.032  29.639  29.124  1.00  0.00    -0.354 N 
ATOM     50  C   UNL A   1      44.134  28.571  28.276  1.00  0.00     0.074 A 
ATOM     51  C   UNL A   1      44.224  27.229  27.747  1.00  0.00     0.031 C 
ATOM     52  C   UNL A   1      37.831  29.291  29.313  1.00  0.00     0.029 A 
ATOM     53  C   UNL A   1      38.895  30.247  29.602  1.00  0.00     0.049 A 
ATOM     54  H   UNL A   1      40.923  30.055  29.165  1.00  0.00     0.167 HD
ATOM     55  C   UNL A   1      45.204  29.371  28.501  1.00  0.00     0.034 A 
ATOM     56  C   UNL A   1      38.729  31.440  30.205  1.00  0.00     0.034 A 
ATOM     57  C   UNL A   1      45.105  30.720  28.987  1.00  0.00     0.049 A 
ATOM     58  C   UNL A   1      39.925  32.334  30.388  1.00  0.00     0.074 A 
ATOM     59  C   UNL A   1      46.117  31.646  29.173  1.00  0.00     0.029 A 
ATOM     60  N   UNL A   1      43.925  31.338  29.372  1.00  0.00    -0.354 N 
ATOM     61  N   UNL A   1      41.178  32.115  30.068  1.00  0.00    -0.248 NA
ATOM     62  C   UNL A   1      39.679  33.660  30.971  1.00  0.00     0.031 C 
ATOM     63  C   UNL A   1      45.551  32.814  29.694  1.00  0.00     0.029 A 
ATOM     64  C   UNL A   1      44.181  32.629  29.797  1.00  0.00     0.049 A 
ATOM     65  H   UNL A   1      43.034  30.918  29.347  1.00  0.00     0.167 HD
ATOM     66  C   UNL A   1      41.861  33.287  30.371  1.00  0.00     0.074 A 
ATOM     67  C   UNL A   1      40.876  34.221  30.880  1.00  0.00     0.031 C 
ATOM     68  C   UNL A   1      43.183  33.563  30.251  1.00  0.00     0.034 A 
BRANCH  55  69
ATOM     69  C   UNL A   1      46.572  28.824  28.178  1.00  0.00     0.023 A 
ATOM     70  C   UNL A   1      47.223  29.230  26.993  1.00  0.00     0.012 A 
ATOM     71  C   UNL A   1      47.236  27.957  29.065  1.00  0.00     0.148 A 
ATOM     72  C   UNL A   1      48.493  28.748  26.678  1.00  0.00     0.002 A 
ATOM     73  C   UNL A   1      48.523  27.521  28.770  1.00  0.00     0.091 A 
ATOM     74  F   UNL A   1      46.596  27.566  30.177  1.00  0.00    -0.205 F 
ATOM     75  C   UNL A   1      49.147  27.904  27.571  1.00  0.00     0.022 A 
BRANCH  73  76
ATOM     76  S   UNL A   1      49.485  26.500  29.892  1.00  0.00     0.127 S 
ATOM     77  O   UNL A   1      50.397  25.825  28.970  1.00  0.00    -0.237 OA
ATOM     78  O   UNL A   1      50.119  27.501  30.751  1.00  0.00    -0.237 OA
ATOM     79  O   UNL A   1      48.529  25.635  30.570  1.00  0.00    -0.744 OA
ENDBRANCH  73  76
ENDBRANCH  55  69
BRANCH  56  80
ATOM     80  C   UNL A   1      37.365  31.890  30.606  1.00  0.00     0.023 A 
ATOM     81  C   UNL A   1      36.919  31.658  31.922  1.00  0.00     0.012 A 
ATOM     82  C   UNL A   1      36.518  32.563  29.703  1.00  0.00     0.148 A 
ATOM     83  C   UNL A   1      35.641  32.052  32.321  1.00  0.00     0.002 A 
ATOM     84  C   UNL A   1      35.268  33.003  30.123  1.00  0.00     0.091 A 
ATOM     85  F   UNL A   1      36.957  32.769  28.454  1.00  0.00    -0.205 F 
ATOM     86  C   UNL A   1      34.820  32.731  31.426  1.00  0.00     0.022 A 
BRANCH  84  87
ATOM     87  S   UNL A   1      34.191  33.996  29.082  1.00  0.00     0.127 S 
ATOM     88  O   UNL A   1      33.645  32.992  28.172  1.00  0.00    -0.237 OA
ATOM     89  O   UNL A   1      33.238  34.529  30.055  1.00  0.00    -0.237 OA
ATOM     90  O   UNL A   1      35.047  35.001  28.468  1.00  0.00    -0.744 OA
ENDBRANCH  84  87
ENDBRANCH  56  80
BRANCH  68  91
ATOM     91  C   UNL A   1      43.641  34.950  30.625  1.00  0.00     0.023 A 
ATOM     92  C   UNL A   1      44.176  35.198  31.905  1.00  0.00     0.012 A 
ATOM     93  C   UNL A   1      43.587  35.998  29.684  1.00  0.00     0.148 A 
ATOM     94  C   UNL A   1      44.607  36.477  32.257  1.00  0.00     0.002 A 
ATOM     95  C   UNL A   1      44.069  37.256  30.024  1.00  0.00     0.091 A 
ATOM     96  F   UNL A   1      43.058  35.748  28.477  1.00  0.00    -0.205 F 
ATOM     97  C   UNL A   1      44.564  37.501  31.314  1.00  0.00     0.022 A 
BRANCH  95  98
ATOM     98  S   UNL A   1      44.145  38.604  28.839  1.00  0.00     0.127 S 
ATOM     99  O   UNL A   1      44.849  37.978  27.722  1.00  0.00    -0.237 OA
ATOM    100  O   UNL A   1      42.730  38.881  28.590  1.00  0.00    -0.237 OA
ATOM    101  O   UNL A   1      44.861  39.683  29.507  1.00  0.00    -0.744 OA
ENDBRANCH  95  98
ENDBRANCH  68  91
ENDBRANCH  42  43
ENDBRANCH  34  37
ENDBRANCH  32  33
ENDBRANCH  31  32
ENDBRANCH  30  31
ENDBRANCH  28  30
ENDBRANCH   1  26
TORSDOF 22
ENDMDL
MODEL 3
REMARK VINA RESULT:      -8.7      4.063      8.481
REMARK SMILES CCCCCCNC(=O)Oc1cccc(-c2ccc([C@@H](C)C(=O)NCCCNC(=O)c3ccc(-c4c5nc(c(-c6cccc(S(=O)(=O)[O-])c6F)c6ccc([nH]6)c(-c6cccc(S(=O)(=O)[O-])c6F)c6nc(c(-c7cccc(S(=O)(=O)[O-])c7F)c7ccc4[nH]7)C=C6)C=C5)cc3)cc2)c1
REMARK SMILES IDX 20 1 21 2 19 3 16 4 17 5 95 6 18 7 94 8 15 9 11 10 12 11
REMARK SMILES IDX 96 12 13 13 14 14 10 15 8 16 7 17 9 19 6 20 5 21 4 22 3 23
REMARK SMILES IDX 2 24 1 25 22 26 23 27 24 28 25 30 26 31 27 32 28 33 29 34
REMARK SMILES IDX 30 36 31 37 32 38 93 39 33 40 92 41 34 42 35 43 36 44 86 45
REMARK SMILES IDX 37 46 91 47 85 48 87 49 38 50 90 51 84 52 83 53 39 55 71 56
REMARK SMILES IDX 51 57 70 58 52 59 55 60 69 61 88 62 53 63 54 64 68 66 89 67
REMARK SMILES IDX 56 68 40 69 41 70 49 71 42 72 44 73 50 74 43 75 45 76 46 77
REMARK SMILES IDX 47 78 48 79 72 80 73 81 81 82 74 83 76 84 82 85 75 86 77 87
REMARK SMILES IDX 78 88 79 89 80 90 57 91 58 92 66 93 59 94 61 95 67 96 60 97
REMARK SMILES IDX 62 98 63 99 64 100 65 101
REMARK H PARENT 7 18 24 29 28 35 87 54 55 65
REMARK Flexibility Score: inf
ROOT
ATOM      1  C   UNL A   1      43.460  22.423  25.840  1.00  0.00     0.105 C 
ATOM      2  C   UNL A   1      43.552  23.448  24.711  1.00  0.00     0.023 C 
ENDROOT
BRANCH   1   3
ATOM      3  C   UNL A   1      43.865  22.924  27.217  1.00  0.00    -0.036 A 
ATOM      4  C   UNL A   1      44.616  24.103  29.707  1.00  0.00    -0.018 A 
ATOM      5  C   UNL A   1      43.349  23.535  29.514  1.00  0.00     0.009 A 
ATOM      6  C   UNL A   1      45.521  24.018  28.639  1.00  0.00     0.009 A 
ATOM      7  C   UNL A   1      42.995  22.922  28.307  1.00  0.00     0.005 A 
ATOM      8  C   UNL A   1      45.147  23.459  27.409  1.00  0.00     0.005 A 
BRANCH   4   9
ATOM      9  C   UNL A   1      44.951  24.794  30.972  1.00  0.00    -0.015 A 
ATOM     10  C   UNL A   1      44.636  25.117  33.362  1.00  0.00     0.133 A 
ATOM     11  C   UNL A   1      45.690  26.022  33.416  1.00  0.00     0.047 A 
ATOM     12  C   UNL A   1      44.258  24.512  32.162  1.00  0.00     0.056 A 
ATOM     13  C   UNL A   1      46.381  26.324  32.249  1.00  0.00     0.004 A 
ATOM     14  C   UNL A   1      46.008  25.725  31.042  1.00  0.00     0.009 A 
BRANCH  10  15
ATOM     15  O   UNL A   1      43.906  24.923  34.542  1.00  0.00    -0.410 OA
BRANCH  15  16
ATOM     16  C   UNL A   1      43.576  23.627  34.907  1.00  0.00     0.412 C 
ATOM     17  N   UNL A   1      44.399  23.127  35.878  1.00  0.00    -0.321 N 
ATOM     18  H   UNL A   1      44.246  22.194  36.152  1.00  0.00     0.167 HD
ATOM     19  O   UNL A   1      42.651  22.959  34.465  1.00  0.00    -0.224 OA
BRANCH  17  20
ATOM     20  C   UNL A   1      45.474  23.832  36.546  1.00  0.00     0.119 C 
BRANCH  20  21
ATOM     21  C   UNL A   1      46.331  22.878  37.381  1.00  0.00     0.021 C 
BRANCH  21  22
ATOM     22  C   UNL A   1      46.138  21.394  37.047  1.00  0.00     0.002 C 
BRANCH  22  23
ATOM     23  C   UNL A   1      47.232  20.772  36.173  1.00  0.00    -0.000 C 
BRANCH  23  24
ATOM     24  C   UNL A   1      46.731  19.959  34.976  1.00  0.00    -0.003 C 
ATOM     25  C   UNL A   1      45.285  19.513  35.119  1.00  0.00     0.004 C 
ENDBRANCH  23  24
ENDBRANCH  22  23
ENDBRANCH  21  22
ENDBRANCH  20  21
ENDBRANCH  17  20
ENDBRANCH  15  16
ENDBRANCH  10  15
ENDBRANCH   4   9
ENDBRANCH   1   3
BRANCH   1  26
ATOM     26  C   UNL A   1      44.039  21.044  25.489  1.00  0.00     0.227 C 
ATOM     27  O   UNL A   1      45.032  20.963  24.755  1.00  0.00    -0.274 OA
ATOM     28  N   UNL A   1      43.543  19.866  25.958  1.00  0.00    -0.356 N 
ATOM     29  H   UNL A   1      44.054  19.074  25.673  1.00  0.00     0.163 HD
BRANCH  28  30
ATOM     30  C   UNL A   1      42.405  19.563  26.801  1.00  0.00     0.117 C 
BRANCH  30  31
ATOM     31  C   UNL A   1      41.073  19.871  26.123  1.00  0.00     0.042 C 
BRANCH  31  32
ATOM     32  C   UNL A   1      40.701  21.347  26.136  1.00  0.00     0.118 C 
BRANCH  32  33
ATOM     33  N   UNL A   1      39.287  21.559  25.856  1.00  0.00    -0.352 N 
ATOM     34  C   UNL A   1      38.463  22.613  26.160  1.00  0.00     0.251 C 
ATOM     35  H   UNL A   1      38.850  20.823  25.368  1.00  0.00     0.163 HD
ATOM     36  O   UNL A   1      37.249  22.470  26.023  1.00  0.00    -0.269 OA
BRANCH  34  37
ATOM     37  C   UNL A   1      39.005  23.905  26.642  1.00  0.00     0.039 A 
ATOM     38  C   UNL A   1      38.814  24.251  27.984  1.00  0.00     0.014 A 
ATOM     39  C   UNL A   1      39.633  24.806  25.781  1.00  0.00     0.014 A 
ATOM     40  C   UNL A   1      39.276  25.481  28.461  1.00  0.00     0.010 A 
ATOM     41  C   UNL A   1      40.180  25.986  26.278  1.00  0.00     0.010 A 
ATOM     42  C   UNL A   1      39.980  26.353  27.615  1.00  0.00    -0.014 A 
BRANCH  42  43
ATOM     43  C   UNL A   1      40.479  27.664  28.106  1.00  0.00     0.031 A 
ATOM     44  C   UNL A   1      41.959  27.952  28.132  1.00  0.00     0.074 A 
ATOM     45  C   UNL A   1      39.606  28.573  28.582  1.00  0.00     0.049 A 
ATOM     46  N   UNL A   1      42.583  29.028  28.536  1.00  0.00    -0.248 NA
ATOM     47  C   UNL A   1      42.859  26.882  27.670  1.00  0.00     0.031 C 
ATOM     48  C   UNL A   1      38.158  28.379  28.688  1.00  0.00     0.029 A 
ATOM     49  N   UNL A   1      39.809  29.834  29.084  1.00  0.00    -0.354 N 
ATOM     50  C   UNL A   1      43.940  28.752  28.415  1.00  0.00     0.074 A 
ATOM     51  C   UNL A   1      44.052  27.392  27.937  1.00  0.00     0.031 C 
ATOM     52  C   UNL A   1      37.603  29.485  29.210  1.00  0.00     0.029 A 
ATOM     53  C   UNL A   1      38.654  30.454  29.501  1.00  0.00     0.049 A 
ATOM     54  H   UNL A   1      40.697  30.255  29.140  1.00  0.00     0.167 HD
ATOM     55  C   UNL A   1      44.999  29.564  28.648  1.00  0.00     0.034 A 
ATOM     56  C   UNL A   1      38.465  31.667  30.055  1.00  0.00     0.034 A 
ATOM     57  C   UNL A   1      44.881  30.929  29.082  1.00  0.00     0.049 A 
ATOM     58  C   UNL A   1      39.652  32.572  30.246  1.00  0.00     0.074 A 
ATOM     59  C   UNL A   1      45.883  31.864  29.269  1.00  0.00     0.029 A 
ATOM     60  N   UNL A   1      43.686  31.555  29.404  1.00  0.00    -0.354 N 
ATOM     61  N   UNL A   1      40.916  32.345  29.977  1.00  0.00    -0.248 NA
ATOM     62  C   UNL A   1      39.382  33.917  30.774  1.00  0.00     0.031 C 
ATOM     63  C   UNL A   1      45.297  33.048  29.728  1.00  0.00     0.029 A 
ATOM     64  C   UNL A   1      43.925  32.862  29.791  1.00  0.00     0.049 A 
ATOM     65  H   UNL A   1      42.798  31.131  29.363  1.00  0.00     0.167 HD
ATOM     66  C   UNL A   1      41.584  33.530  30.262  1.00  0.00     0.074 A 
ATOM     67  C   UNL A   1      40.581  34.478  30.703  1.00  0.00     0.031 C 
ATOM     68  C   UNL A   1      42.910  33.808  30.177  1.00  0.00     0.034 A 
BRANCH  55  69
ATOM     69  C   UNL A   1      46.379  29.011  28.391  1.00  0.00     0.023 A 
ATOM     70  C   UNL A   1      47.198  28.645  29.481  1.00  0.00     0.012 A 
ATOM     71  C   UNL A   1      46.845  28.801  27.080  1.00  0.00     0.148 A 
ATOM     72  C   UNL A   1      48.472  28.119  29.269  1.00  0.00     0.002 A 
ATOM     73  C   UNL A   1      48.096  28.229  26.875  1.00  0.00     0.091 A 
ATOM     74  F   UNL A   1      46.063  29.171  26.055  1.00  0.00    -0.205 F 
ATOM     75  C   UNL A   1      48.916  27.901  27.968  1.00  0.00     0.022 A 
BRANCH  73  76
ATOM     76  S   UNL A   1      48.727  27.829  25.241  1.00  0.00     0.127 S 
ATOM     77  O   UNL A   1      49.929  28.658  25.177  1.00  0.00    -0.237 OA
ATOM     78  O   UNL A   1      48.984  26.392  25.356  1.00  0.00    -0.237 OA
ATOM     79  O   UNL A   1      47.671  28.184  24.304  1.00  0.00    -0.744 OA
ENDBRANCH  73  76
ENDBRANCH  55  69
BRANCH  56  80
ATOM     80  C   UNL A   1      37.087  32.126  30.393  1.00  0.00     0.023 A 
ATOM     81  C   UNL A   1      36.598  31.942  31.701  1.00  0.00     0.012 A 
ATOM     82  C   UNL A   1      36.268  32.759  29.437  1.00  0.00     0.148 A 
ATOM     83  C   UNL A   1      35.306  32.346  32.042  1.00  0.00     0.002 A 
ATOM     84  C   UNL A   1      35.003  33.209  29.798  1.00  0.00     0.091 A 
ATOM     85  F   UNL A   1      36.747  32.920  28.196  1.00  0.00    -0.205 F 
ATOM     86  C   UNL A   1      34.513  32.986  31.094  1.00  0.00     0.022 A 
BRANCH  84  87
ATOM     87  S   UNL A   1      33.958  34.157  28.684  1.00  0.00     0.127 S 
ATOM     88  O   UNL A   1      33.588  33.150  27.693  1.00  0.00    -0.237 OA
ATOM     89  O   UNL A   1      32.873  34.576  29.571  1.00  0.00    -0.237 OA
ATOM     90  O   UNL A   1      34.787  35.249  28.192  1.00  0.00    -0.744 OA
ENDBRANCH  84  87
ENDBRANCH  56  80
BRANCH  68  91
ATOM     91  C   UNL A   1      43.350  35.208  30.517  1.00  0.00     0.023 A 
ATOM     92  C   UNL A   1      43.835  35.505  31.806  1.00  0.00     0.012 A 
ATOM     93  C   UNL A   1      43.331  36.220  29.537  1.00  0.00     0.148 A 
ATOM     94  C   UNL A   1      44.250  36.797  32.128  1.00  0.00     0.002 A 
ATOM     95  C   UNL A   1      43.797  37.491  29.848  1.00  0.00     0.091 A 
ATOM     96  F   UNL A   1      42.849  35.925  28.321  1.00  0.00    -0.205 F 
ATOM     97  C   UNL A   1      44.243  37.785  31.147  1.00  0.00     0.022 A 
BRANCH  95  98
ATOM     98  S   UNL A   1      43.918  38.795  28.618  1.00  0.00     0.127 S 
ATOM     99  O   UNL A   1      42.511  39.056  28.323  1.00  0.00    -0.237 OA
ATOM    100  O   UNL A   1      44.593  39.861  29.359  1.00  0.00    -0.237 OA
ATOM    101  O   UNL A   1      44.697  38.239  27.521  1.00  0.00    -0.744 OA
ENDBRANCH  95  98
ENDBRANCH  68  91
ENDBRANCH  42  43
ENDBRANCH  34  37
ENDBRANCH  32  33
ENDBRANCH  31  32
ENDBRANCH  30  31
ENDBRANCH  28  30
ENDBRANCH   1  26
TORSDOF 22
ENDMDL
