MODEL 1
REMARK VINA RESULT:      -9.5      0.000      0.000
REMARK SMILES C[C@@H](C(=O)NCCCNC(=O)c1ccc(-c2c3nc(c(-c4cccc(S(=O)(=O)[O-])c4F)c4ccc([nH]4)c(-c4cccc(S(=O)(=O)[O-])c4F)c4nc(c(-c5cccc(S(=O)(=O)[O-])c5F)c5ccc2[nH]5)C=C4)C=C3)cc1)c1ccc(Cc2cccs2)cc1F
REMARK SMILES IDX 7 1 6 2 5 3 3 4 4 5 2 7 1 8 75 9 76 10 86 11 77 12 85 13
REMARK SMILES IDX 87 14 78 15 79 16 80 17 81 18 84 19 82 20 83 21 8 22 9 23
REMARK SMILES IDX 10 24 11 26 12 27 13 28 74 29 14 30 73 31 15 32 16 33 17 34
REMARK SMILES IDX 67 35 18 36 72 37 66 38 68 39 19 40 71 41 65 42 64 43 20 45
REMARK SMILES IDX 52 46 32 47 51 48 33 49 36 50 50 51 69 52 34 53 35 54 49 56
REMARK SMILES IDX 70 57 37 58 21 59 22 60 30 61 23 62 25 63 31 64 24 65 26 66
REMARK SMILES IDX 27 67 28 68 29 69 53 70 54 71 62 72 55 73 57 74 63 75 56 76
REMARK SMILES IDX 58 77 59 78 60 79 61 80 38 81 39 82 47 83 40 84 42 85 48 86
REMARK SMILES IDX 41 87 43 88 44 89 45 90 46 91
REMARK H PARENT 5 6 9 25 68 44 36 55
REMARK Flexibility Score: inf
ROOT
ATOM      1  C   UNL A   1      34.502  34.625  28.894  1.00  0.00     0.042 C 
ENDROOT
BRANCH   1   2
ATOM      2  C   UNL A   1      34.065  34.086  30.253  1.00  0.00     0.117 C 
BRANCH   2   3
ATOM      3  N   UNL A   1      34.471  34.969  31.329  1.00  0.00    -0.356 N 
ATOM      4  C   UNL A   1      35.377  34.785  32.330  1.00  0.00     0.227 C 
ATOM      5  O   UNL A   1      35.459  35.687  33.166  1.00  0.00    -0.274 OA
ATOM      6  H   UNL A   1      34.017  35.843  31.336  1.00  0.00     0.163 HD
BRANCH   4   7
ATOM      7  C   UNL A   1      36.260  33.527  32.356  1.00  0.00     0.108 C 
ATOM      8  C   UNL A   1      36.528  33.020  33.778  1.00  0.00     0.023 C 
BRANCH   7   9
ATOM      9  C   UNL A   1      37.583  33.760  31.638  1.00  0.00    -0.000 A 
ATOM     10  C   UNL A   1      37.758  33.365  30.304  1.00  0.00     0.008 A 
ATOM     11  C   UNL A   1      38.660  34.356  32.295  1.00  0.00     0.127 A 
ATOM     12  C   UNL A   1      38.968  33.588  29.647  1.00  0.00     0.004 A 
ATOM     13  C   UNL A   1      39.882  34.564  31.650  1.00  0.00     0.043 A 
ATOM     14  F   UNL A   1      38.534  34.755  33.568  1.00  0.00    -0.207 F 
ATOM     15  C   UNL A   1      40.049  34.181  30.312  1.00  0.00    -0.040 A 
BRANCH  15  16
ATOM     16  C   UNL A   1      41.358  34.413  29.591  1.00  0.00     0.082 C 
BRANCH  16  17
ATOM     17  C   UNL A   1      42.413  33.374  29.869  1.00  0.00     0.009 A 
ATOM     18  C   UNL A   1      42.287  31.997  29.922  1.00  0.00     0.016 A 
ATOM     19  S   UNL A   1      44.044  33.850  30.112  1.00  0.00    -0.149 S 
ATOM     20  C   UNL A   1      43.525  31.338  30.168  1.00  0.00     0.012 A 
ATOM     21  C   UNL A   1      44.565  32.230  30.281  1.00  0.00     0.065 A 
ENDBRANCH  16  17
ENDBRANCH  15  16
ENDBRANCH   7   9
ENDBRANCH   4   7
ENDBRANCH   2   3
ENDBRANCH   1   2
BRANCH   1  22
ATOM     22  C   UNL A   1      35.180  33.588  28.008  1.00  0.00     0.118 C 
BRANCH  22  23
ATOM     23  N   UNL A   1      34.283  32.505  27.625  1.00  0.00    -0.352 N 
ATOM     24  C   UNL A   1      34.502  31.149  27.641  1.00  0.00     0.251 C 
ATOM     25  H   UNL A   1      33.394  32.785  27.309  1.00  0.00     0.163 HD
ATOM     26  O   UNL A   1      33.698  30.390  27.105  1.00  0.00    -0.269 OA
BRANCH  24  27
ATOM     27  C   UNL A   1      35.715  30.610  28.292  1.00  0.00     0.039 A 
ATOM     28  C   UNL A   1      35.592  29.904  29.492  1.00  0.00     0.014 A 
ATOM     29  C   UNL A   1      36.969  30.798  27.710  1.00  0.00     0.014 A 
ATOM     30  C   UNL A   1      36.724  29.330  30.076  1.00  0.00     0.010 A 
ATOM     31  C   UNL A   1      38.079  30.158  28.247  1.00  0.00     0.010 A 
ATOM     32  C   UNL A   1      37.971  29.426  29.441  1.00  0.00    -0.014 A 
BRANCH  32  33
ATOM     33  C   UNL A   1      39.195  28.793  29.994  1.00  0.00     0.031 A 
ATOM     34  C   UNL A   1      39.851  29.391  31.207  1.00  0.00     0.074 A 
ATOM     35  C   UNL A   1      39.785  27.777  29.336  1.00  0.00     0.049 A 
ATOM     36  N   UNL A   1      41.011  29.112  31.742  1.00  0.00    -0.248 NA
ATOM     37  C   UNL A   1      39.122  30.477  31.884  1.00  0.00     0.031 C 
ATOM     38  C   UNL A   1      39.278  27.152  28.113  1.00  0.00     0.029 A 
ATOM     39  N   UNL A   1      40.969  27.125  29.577  1.00  0.00    -0.354 N 
ATOM     40  C   UNL A   1      41.175  30.022  32.780  1.00  0.00     0.074 A 
ATOM     41  C   UNL A   1      40.011  30.879  32.780  1.00  0.00     0.031 C 
ATOM     42  C   UNL A   1      40.152  26.220  27.702  1.00  0.00     0.029 A 
ATOM     43  C   UNL A   1      41.300  26.211  28.604  1.00  0.00     0.049 A 
ATOM     44  H   UNL A   1      41.527  27.295  30.371  1.00  0.00     0.167 HD
ATOM     45  C   UNL A   1      42.193  30.123  33.668  1.00  0.00     0.034 A 
ATOM     46  C   UNL A   1      42.413  25.470  28.440  1.00  0.00     0.034 A 
ATOM     47  C   UNL A   1      43.328  29.241  33.686  1.00  0.00     0.049 A 
ATOM     48  C   UNL A   1      43.518  25.569  29.457  1.00  0.00     0.074 A 
ATOM     49  C   UNL A   1      44.370  29.198  34.594  1.00  0.00     0.029 A 
ATOM     50  N   UNL A   1      43.575  28.252  32.745  1.00  0.00    -0.354 N 
ATOM     51  N   UNL A   1      43.596  26.342  30.513  1.00  0.00    -0.248 NA
ATOM     52  C   UNL A   1      44.669  24.672  29.283  1.00  0.00     0.031 C 
ATOM     53  C   UNL A   1      45.263  28.203  34.185  1.00  0.00     0.029 A 
ATOM     54  C   UNL A   1      44.756  27.598  33.046  1.00  0.00     0.049 A 
ATOM     55  H   UNL A   1      42.995  28.046  31.977  1.00  0.00     0.167 HD
ATOM     56  C   UNL A   1      44.781  25.995  31.154  1.00  0.00     0.074 A 
ATOM     57  C   UNL A   1      45.386  24.939  30.368  1.00  0.00     0.031 C 
ATOM     58  C   UNL A   1      45.317  26.508  32.288  1.00  0.00     0.034 A 
BRANCH  45  59
ATOM     59  C   UNL A   1      42.103  31.208  34.710  1.00  0.00     0.023 A 
ATOM     60  C   UNL A   1      41.628  30.902  36.002  1.00  0.00     0.012 A 
ATOM     61  C   UNL A   1      42.509  32.526  34.419  1.00  0.00     0.148 A 
ATOM     62  C   UNL A   1      41.506  31.898  36.970  1.00  0.00     0.002 A 
ATOM     63  C   UNL A   1      42.433  33.502  35.406  1.00  0.00     0.091 A 
ATOM     64  F   UNL A   1      42.938  32.806  33.181  1.00  0.00    -0.205 F 
ATOM     65  C   UNL A   1      41.916  33.195  36.675  1.00  0.00     0.022 A 
BRANCH  63  66
ATOM     66  S   UNL A   1      43.020  35.179  35.147  1.00  0.00     0.127 S 
ATOM     67  O   UNL A   1      42.752  35.790  36.447  1.00  0.00    -0.237 OA
ATOM     68  O   UNL A   1      44.437  34.969  34.854  1.00  0.00    -0.237 OA
ATOM     69  O   UNL A   1      42.244  35.706  34.032  1.00  0.00    -0.744 OA
ENDBRANCH  63  66
ENDBRANCH  45  59
BRANCH  46  70
ATOM     70  C   UNL A   1      42.506  24.531  27.287  1.00  0.00     0.023 A 
ATOM     71  C   UNL A   1      43.110  24.962  26.090  1.00  0.00     0.012 A 
ATOM     72  C   UNL A   1      42.056  23.200  27.390  1.00  0.00     0.148 A 
ATOM     73  C   UNL A   1      43.246  24.092  25.008  1.00  0.00     0.002 A 
ATOM     74  C   UNL A   1      42.245  22.322  26.328  1.00  0.00     0.091 A 
ATOM     75  F   UNL A   1      41.482  22.812  28.536  1.00  0.00    -0.205 F 
ATOM     76  C   UNL A   1      42.825  22.771  25.131  1.00  0.00     0.022 A 
BRANCH  74  77
ATOM     77  S   UNL A   1      41.858  20.572  26.438  1.00  0.00     0.127 S 
ATOM     78  O   UNL A   1      40.417  20.568  26.201  1.00  0.00    -0.237 OA
ATOM     79  O   UNL A   1      42.664  20.019  25.349  1.00  0.00    -0.237 OA
ATOM     80  O   UNL A   1      42.277  20.155  27.769  1.00  0.00    -0.744 OA
ENDBRANCH  74  77
ENDBRANCH  46  70
BRANCH  58  81
ATOM     81  C   UNL A   1      46.594  25.901  32.805  1.00  0.00     0.023 A 
ATOM     82  C   UNL A   1      47.835  26.495  32.506  1.00  0.00     0.012 A 
ATOM     83  C   UNL A   1      46.546  24.804  33.691  1.00  0.00     0.148 A 
ATOM     84  C   UNL A   1      49.011  25.995  33.065  1.00  0.00     0.002 A 
ATOM     85  C   UNL A   1      47.715  24.345  34.284  1.00  0.00     0.091 A 
ATOM     86  F   UNL A   1      45.355  24.243  33.947  1.00  0.00    -0.205 F 
ATOM     87  C   UNL A   1      48.949  24.932  33.964  1.00  0.00     0.022 A 
BRANCH  85  88
ATOM     88  S   UNL A   1      47.720  23.052  35.531  1.00  0.00     0.127 S 
ATOM     89  O   UNL A   1      49.140  22.968  35.868  1.00  0.00    -0.237 OA
ATOM     90  O   UNL A   1      46.877  23.630  36.578  1.00  0.00    -0.237 OA
ATOM     91  O   UNL A   1      47.163  21.869  34.888  1.00  0.00    -0.744 OA
ENDBRANCH  85  88
ENDBRANCH  58  81
ENDBRANCH  32  33
ENDBRANCH  24  27
ENDBRANCH  22  23
ENDBRANCH   1  22
TORSDOF 16
ENDMDL
MODEL 2
REMARK VINA RESULT:      -9.4      4.672     10.444
REMARK SMILES C[C@@H](C(=O)NCCCNC(=O)c1ccc(-c2c3nc(c(-c4cccc(S(=O)(=O)[O-])c4F)c4ccc([nH]4)c(-c4cccc(S(=O)(=O)[O-])c4F)c4nc(c(-c5cccc(S(=O)(=O)[O-])c5F)c5ccc2[nH]5)C=C4)C=C3)cc1)c1ccc(Cc2cccs2)cc1F
REMARK SMILES IDX 7 1 6 2 5 3 3 4 4 5 2 7 1 8 75 9 76 10 86 11 77 12 85 13
REMARK SMILES IDX 87 14 78 15 79 16 80 17 81 18 84 19 82 20 83 21 8 22 9 23
REMARK SMILES IDX 10 24 11 26 12 27 13 28 74 29 14 30 73 31 15 32 16 33 17 34
REMARK SMILES IDX 67 35 18 36 72 37 66 38 68 39 19 40 71 41 65 42 64 43 20 45
REMARK SMILES IDX 52 46 32 47 51 48 33 49 36 50 50 51 69 52 34 53 35 54 49 56
REMARK SMILES IDX 70 57 37 58 21 59 22 60 30 61 23 62 25 63 31 64 24 65 26 66
REMARK SMILES IDX 27 67 28 68 29 69 53 70 54 71 62 72 55 73 57 74 63 75 56 76
REMARK SMILES IDX 58 77 59 78 60 79 61 80 38 81 39 82 47 83 40 84 42 85 48 86
REMARK SMILES IDX 41 87 43 88 44 89 45 90 46 91
REMARK H PARENT 5 6 9 25 68 44 36 55
REMARK Flexibility Score: inf
ROOT
ATOM      1  C   UNL A   1      31.665  31.832  26.624  1.00  0.00     0.042 C 
ENDROOT
BRANCH   1   2
ATOM      2  C   UNL A   1      31.989  30.422  26.140  1.00  0.00     0.117 C 
BRANCH   2   3
ATOM      3  N   UNL A   1      31.780  29.442  27.187  1.00  0.00    -0.356 N 
ATOM      4  C   UNL A   1      31.651  28.087  27.117  1.00  0.00     0.227 C 
ATOM      5  O   UNL A   1      31.395  27.507  28.174  1.00  0.00    -0.274 OA
ATOM      6  H   UNL A   1      31.723  29.817  28.096  1.00  0.00     0.163 HD
BRANCH   4   7
ATOM      7  C   UNL A   1      31.862  27.355  25.782  1.00  0.00     0.108 C 
ATOM      8  C   UNL A   1      30.650  27.460  24.850  1.00  0.00     0.023 C 
BRANCH   7   9
ATOM      9  C   UNL A   1      32.215  25.890  26.000  1.00  0.00    -0.000 A 
ATOM     10  C   UNL A   1      31.222  24.946  26.299  1.00  0.00     0.008 A 
ATOM     11  C   UNL A   1      33.538  25.451  25.926  1.00  0.00     0.127 A 
ATOM     12  C   UNL A   1      31.547  23.604  26.490  1.00  0.00     0.004 A 
ATOM     13  C   UNL A   1      33.874  24.112  26.137  1.00  0.00     0.043 A 
ATOM     14  F   UNL A   1      34.518  26.319  25.636  1.00  0.00    -0.207 F 
ATOM     15  C   UNL A   1      32.877  23.169  26.422  1.00  0.00    -0.040 A 
BRANCH  15  16
ATOM     16  C   UNL A   1      33.218  21.711  26.636  1.00  0.00     0.082 C 
BRANCH  16  17
ATOM     17  C   UNL A   1      32.935  20.827  25.449  1.00  0.00     0.009 A 
ATOM     18  C   UNL A   1      32.900  19.445  25.382  1.00  0.00     0.016 A 
ATOM     19  S   UNL A   1      32.530  21.525  23.934  1.00  0.00    -0.149 S 
ATOM     20  C   UNL A   1      32.550  18.963  24.089  1.00  0.00     0.012 A 
ATOM     21  C   UNL A   1      32.310  19.992  23.208  1.00  0.00     0.065 A 
ENDBRANCH  16  17
ENDBRANCH  15  16
ENDBRANCH   7   9
ENDBRANCH   4   7
ENDBRANCH   2   3
ENDBRANCH   1   2
BRANCH   1  22
ATOM     22  C   UNL A   1      32.849  32.557  27.252  1.00  0.00     0.118 C 
BRANCH  22  23
ATOM     23  N   UNL A   1      32.534  33.931  27.623  1.00  0.00    -0.352 N 
ATOM     24  C   UNL A   1      33.059  34.701  28.632  1.00  0.00     0.251 C 
ATOM     25  H   UNL A   1      31.847  34.370  27.071  1.00  0.00     0.163 HD
ATOM     26  O   UNL A   1      32.539  35.777  28.918  1.00  0.00    -0.269 OA
BRANCH  24  27
ATOM     27  C   UNL A   1      34.239  34.221  29.382  1.00  0.00     0.039 A 
ATOM     28  C   UNL A   1      34.054  33.405  30.501  1.00  0.00     0.014 A 
ATOM     29  C   UNL A   1      35.525  34.573  28.971  1.00  0.00     0.014 A 
ATOM     30  C   UNL A   1      35.165  32.889  31.173  1.00  0.00     0.010 A 
ATOM     31  C   UNL A   1      36.627  33.994  29.588  1.00  0.00     0.010 A 
ATOM     32  C   UNL A   1      36.459  33.154  30.701  1.00  0.00    -0.014 A 
BRANCH  32  33
ATOM     33  C   UNL A   1      37.671  32.590  31.349  1.00  0.00     0.031 A 
ATOM     34  C   UNL A   1      38.395  31.447  30.694  1.00  0.00     0.074 A 
ATOM     35  C   UNL A   1      38.036  33.009  32.576  1.00  0.00     0.049 A 
ATOM     36  N   UNL A   1      39.353  30.694  31.167  1.00  0.00    -0.248 NA
ATOM     37  C   UNL A   1      37.951  31.074  29.340  1.00  0.00     0.031 C 
ATOM     38  C   UNL A   1      37.374  34.068  33.341  1.00  0.00     0.029 A 
ATOM     39  N   UNL A   1      39.024  32.558  33.416  1.00  0.00    -0.354 N 
ATOM     40  C   UNL A   1      39.588  29.728  30.197  1.00  0.00     0.074 A 
ATOM     41  C   UNL A   1      38.652  29.972  29.122  1.00  0.00     0.031 C 
ATOM     42  C   UNL A   1      37.963  34.173  34.542  1.00  0.00     0.029 A 
ATOM     43  C   UNL A   1      39.012  33.164  34.652  1.00  0.00     0.049 A 
ATOM     44  H   UNL A   1      39.678  31.868  33.159  1.00  0.00     0.167 HD
ATOM     45  C   UNL A   1      40.514  28.740  30.189  1.00  0.00     0.034 A 
ATOM     46  C   UNL A   1      39.743  32.916  35.756  1.00  0.00     0.034 A 
ATOM     47  C   UNL A   1      41.467  28.529  31.244  1.00  0.00     0.049 A 
ATOM     48  C   UNL A   1      40.792  31.837  35.716  1.00  0.00     0.074 A 
ATOM     49  C   UNL A   1      42.503  27.615  31.297  1.00  0.00     0.029 A 
ATOM     50  N   UNL A   1      41.495  29.237  32.436  1.00  0.00    -0.354 N 
ATOM     51  N   UNL A   1      41.092  31.019  34.737  1.00  0.00    -0.248 NA
ATOM     52  C   UNL A   1      41.624  31.670  36.915  1.00  0.00     0.031 C 
ATOM     53  C   UNL A   1      43.139  27.749  32.535  1.00  0.00     0.029 A 
ATOM     54  C   UNL A   1      42.525  28.776  33.236  1.00  0.00     0.049 A 
ATOM     55  H   UNL A   1      40.872  29.960  32.678  1.00  0.00     0.167 HD
ATOM     56  C   UNL A   1      42.177  30.271  35.184  1.00  0.00     0.074 A 
ATOM     57  C   UNL A   1      42.481  30.736  36.521  1.00  0.00     0.031 C 
ATOM     58  C   UNL A   1      42.854  29.288  34.542  1.00  0.00     0.034 A 
BRANCH  45  59
ATOM     59  C   UNL A   1      40.554  27.833  28.985  1.00  0.00     0.023 A 
ATOM     60  C   UNL A   1      39.605  26.798  28.855  1.00  0.00     0.012 A 
ATOM     61  C   UNL A   1      41.517  28.017  27.973  1.00  0.00     0.148 A 
ATOM     62  C   UNL A   1      39.646  25.928  27.766  1.00  0.00     0.002 A 
ATOM     63  C   UNL A   1      41.517  27.178  26.865  1.00  0.00     0.091 A 
ATOM     64  F   UNL A   1      42.425  28.991  28.120  1.00  0.00    -0.205 F 
ATOM     65  C   UNL A   1      40.595  26.123  26.768  1.00  0.00     0.022 A 
BRANCH  63  66
ATOM     66  S   UNL A   1      42.646  27.405  25.486  1.00  0.00     0.127 S 
ATOM     67  O   UNL A   1      43.931  27.523  26.172  1.00  0.00    -0.237 OA
ATOM     68  O   UNL A   1      42.469  26.162  24.735  1.00  0.00    -0.237 OA
ATOM     69  O   UNL A   1      42.191  28.601  24.791  1.00  0.00    -0.744 OA
ENDBRANCH  63  66
ENDBRANCH  45  59
BRANCH  46  70
ATOM     70  C   UNL A   1      39.535  33.748  36.975  1.00  0.00     0.023 A 
ATOM     71  C   UNL A   1      39.963  35.089  36.979  1.00  0.00     0.012 A 
ATOM     72  C   UNL A   1      38.861  33.237  38.102  1.00  0.00     0.148 A 
ATOM     73  C   UNL A   1      39.746  35.902  38.092  1.00  0.00     0.002 A 
ATOM     74  C   UNL A   1      38.598  34.067  39.185  1.00  0.00     0.091 A 
ATOM     75  F   UNL A   1      38.465  31.957  38.077  1.00  0.00    -0.205 F 
ATOM     76  C   UNL A   1      39.053  35.395  39.189  1.00  0.00     0.022 A 
BRANCH  74  77
ATOM     77  S   UNL A   1      37.600  33.547  40.584  1.00  0.00     0.127 S 
ATOM     78  O   UNL A   1      36.384  33.074  39.926  1.00  0.00    -0.237 OA
ATOM     79  O   UNL A   1      38.432  32.496  41.170  1.00  0.00    -0.237 OA
ATOM     80  O   UNL A   1      37.442  34.727  41.421  1.00  0.00    -0.744 OA
ENDBRANCH  74  77
ENDBRANCH  46  70
BRANCH  58  81
ATOM     81  C   UNL A   1      44.042  28.677  35.237  1.00  0.00     0.023 A 
ATOM     82  C   UNL A   1      45.332  29.205  35.036  1.00  0.00     0.012 A 
ATOM     83  C   UNL A   1      43.853  27.649  36.184  1.00  0.00     0.148 A 
ATOM     84  C   UNL A   1      46.419  28.707  35.753  1.00  0.00     0.002 A 
ATOM     85  C   UNL A   1      44.931  27.194  36.931  1.00  0.00     0.091 A 
ATOM     86  F   UNL A   1      42.620  27.149  36.344  1.00  0.00    -0.205 F 
ATOM     87  C   UNL A   1      46.217  27.714  36.710  1.00  0.00     0.022 A 
BRANCH  85  88
ATOM     88  S   UNL A   1      44.749  25.995  38.256  1.00  0.00     0.127 S 
ATOM     89  O   UNL A   1      46.131  25.830  38.702  1.00  0.00    -0.237 OA
ATOM     90  O   UNL A   1      43.884  26.705  39.198  1.00  0.00    -0.237 OA
ATOM     91  O   UNL A   1      44.146  24.814  37.651  1.00  0.00    -0.744 OA
ENDBRANCH  85  88
ENDBRANCH  58  81
ENDBRANCH  32  33
ENDBRANCH  24  27
ENDBRANCH  22  23
ENDBRANCH   1  22
TORSDOF 16
ENDMDL
MODEL 3
REMARK VINA RESULT:      -9.4      4.235     11.837
REMARK SMILES C[C@@H](C(=O)NCCCNC(=O)c1ccc(-c2c3nc(c(-c4cccc(S(=O)(=O)[O-])c4F)c4ccc([nH]4)c(-c4cccc(S(=O)(=O)[O-])c4F)c4nc(c(-c5cccc(S(=O)(=O)[O-])c5F)c5ccc2[nH]5)C=C4)C=C3)cc1)c1ccc(Cc2cccs2)cc1F
REMARK SMILES IDX 7 1 6 2 5 3 3 4 4 5 2 7 1 8 75 9 76 10 86 11 77 12 85 13
REMARK SMILES IDX 87 14 78 15 79 16 80 17 81 18 84 19 82 20 83 21 8 22 9 23
REMARK SMILES IDX 10 24 11 26 12 27 13 28 74 29 14 30 73 31 15 32 16 33 17 34
REMARK SMILES IDX 67 35 18 36 72 37 66 38 68 39 19 40 71 41 65 42 64 43 20 45
REMARK SMILES IDX 52 46 32 47 51 48 33 49 36 50 50 51 69 52 34 53 35 54 49 56
REMARK SMILES IDX 70 57 37 58 21 59 22 60 30 61 23 62 25 63 31 64 24 65 26 66
REMARK SMILES IDX 27 67 28 68 29 69 53 70 54 71 62 72 55 73 57 74 63 75 56 76
REMARK SMILES IDX 58 77 59 78 60 79 61 80 38 81 39 82 47 83 40 84 42 85 48 86
REMARK SMILES IDX 41 87 43 88 44 89 45 90 46 91
REMARK H PARENT 5 6 9 25 68 44 36 55
REMARK Flexibility Score: inf
ROOT
ATOM      1  C   UNL A   1      41.792  19.966  27.628  1.00  0.00     0.042 C 
ENDROOT
BRANCH   1   2
ATOM      2  C   UNL A   1      42.037  19.208  26.327  1.00  0.00     0.117 C 
BRANCH   2   3
ATOM      3  N   UNL A   1      43.369  18.639  26.288  1.00  0.00    -0.356 N 
ATOM      4  C   UNL A   1      44.349  18.745  25.347  1.00  0.00     0.227 C 
ATOM      5  O   UNL A   1      45.367  18.077  25.539  1.00  0.00    -0.274 OA
ATOM      6  H   UNL A   1      43.604  18.087  27.069  1.00  0.00     0.163 HD
BRANCH   4   7
ATOM      7  C   UNL A   1      44.175  19.690  24.147  1.00  0.00     0.108 C 
ATOM      8  C   UNL A   1      44.911  19.201  22.895  1.00  0.00     0.023 C 
BRANCH   7   9
ATOM      9  C   UNL A   1      44.622  21.106  24.483  1.00  0.00    -0.000 A 
ATOM     10  C   UNL A   1      43.685  22.131  24.681  1.00  0.00     0.008 A 
ATOM     11  C   UNL A   1      45.977  21.425  24.587  1.00  0.00     0.127 A 
ATOM     12  C   UNL A   1      44.098  23.424  24.998  1.00  0.00     0.004 A 
ATOM     13  C   UNL A   1      46.399  22.723  24.883  1.00  0.00     0.043 A 
ATOM     14  F   UNL A   1      46.906  20.475  24.413  1.00  0.00    -0.207 F 
ATOM     15  C   UNL A   1      45.460  23.741  25.094  1.00  0.00    -0.040 A 
BRANCH  15  16
ATOM     16  C   UNL A   1      45.896  25.149  25.433  1.00  0.00     0.082 C 
BRANCH  16  17
ATOM     17  C   UNL A   1      47.183  25.230  26.211  1.00  0.00     0.009 A 
ATOM     18  C   UNL A   1      47.421  24.913  27.537  1.00  0.00     0.016 A 
ATOM     19  S   UNL A   1      48.631  25.716  25.428  1.00  0.00    -0.149 S 
ATOM     20  C   UNL A   1      48.786  25.076  27.909  1.00  0.00     0.012 A 
ATOM     21  C   UNL A   1      49.556  25.499  26.850  1.00  0.00     0.065 A 
ENDBRANCH  16  17
ENDBRANCH  15  16
ENDBRANCH   7   9
ENDBRANCH   4   7
ENDBRANCH   2   3
ENDBRANCH   1   2
BRANCH   1  22
ATOM     22  C   UNL A   1      41.339  21.407  27.427  1.00  0.00     0.118 C 
BRANCH  22  23
ATOM     23  N   UNL A   1      40.076  21.504  26.706  1.00  0.00    -0.352 N 
ATOM     24  C   UNL A   1      39.273  22.599  26.502  1.00  0.00     0.251 C 
ATOM     25  H   UNL A   1      39.752  20.663  26.309  1.00  0.00     0.163 HD
ATOM     26  O   UNL A   1      38.148  22.457  26.031  1.00  0.00    -0.269 OA
BRANCH  24  27
ATOM     27  C   UNL A   1      39.764  23.945  26.867  1.00  0.00     0.039 A 
ATOM     28  C   UNL A   1      40.304  24.769  25.877  1.00  0.00     0.014 A 
ATOM     29  C   UNL A   1      39.680  24.391  28.187  1.00  0.00     0.014 A 
ATOM     30  C   UNL A   1      40.704  26.068  26.200  1.00  0.00     0.010 A 
ATOM     31  C   UNL A   1      40.000  25.708  28.490  1.00  0.00     0.010 A 
ATOM     32  C   UNL A   1      40.525  26.558  27.502  1.00  0.00    -0.014 A 
BRANCH  32  33
ATOM     33  C   UNL A   1      40.888  27.946  27.885  1.00  0.00     0.031 A 
ATOM     34  C   UNL A   1      42.336  28.346  27.930  1.00  0.00     0.074 A 
ATOM     35  C   UNL A   1      39.937  28.796  28.318  1.00  0.00     0.049 A 
ATOM     36  N   UNL A   1      42.879  29.435  28.404  1.00  0.00    -0.248 NA
ATOM     37  C   UNL A   1      43.306  27.368  27.408  1.00  0.00     0.031 C 
ATOM     38  C   UNL A   1      38.504  28.503  28.381  1.00  0.00     0.029 A 
ATOM     39  N   UNL A   1      40.041  30.064  28.835  1.00  0.00    -0.354 N 
ATOM     40  C   UNL A   1      44.252  29.253  28.290  1.00  0.00     0.074 A 
ATOM     41  C   UNL A   1      44.459  27.936  27.729  1.00  0.00     0.031 C 
ATOM     42  C   UNL A   1      37.865  29.553  28.922  1.00  0.00     0.029 A 
ATOM     43  C   UNL A   1      38.844  30.573  29.285  1.00  0.00     0.049 A 
ATOM     44  H   UNL A   1      40.890  30.560  28.881  1.00  0.00     0.167 HD
ATOM     45  C   UNL A   1      45.253  30.111  28.603  1.00  0.00     0.034 A 
ATOM     46  C   UNL A   1      38.570  31.718  29.939  1.00  0.00     0.034 A 
ATOM     47  C   UNL A   1      45.037  31.434  29.122  1.00  0.00     0.049 A 
ATOM     48  C   UNL A   1      39.690  32.676  30.246  1.00  0.00     0.074 A 
ATOM     49  C   UNL A   1      45.974  32.416  29.390  1.00  0.00     0.029 A 
ATOM     50  N   UNL A   1      43.798  31.957  29.463  1.00  0.00    -0.354 N 
ATOM     51  N   UNL A   1      40.972  32.544  30.007  1.00  0.00    -0.248 NA
ATOM     52  C   UNL A   1      39.324  33.951  30.877  1.00  0.00     0.031 C 
ATOM     53  C   UNL A   1      45.304  33.522  29.921  1.00  0.00     0.029 A 
ATOM     54  C   UNL A   1      43.946  33.245  29.945  1.00  0.00     0.049 A 
ATOM     55  H   UNL A   1      42.941  31.480  29.375  1.00  0.00     0.167 HD
ATOM     56  C   UNL A   1      41.561  33.736  30.417  1.00  0.00     0.074 A 
ATOM     57  C   UNL A   1      40.493  34.578  30.917  1.00  0.00     0.031 C 
ATOM     58  C   UNL A   1      42.868  34.094  30.383  1.00  0.00     0.034 A 
BRANCH  45  59
ATOM     59  C   UNL A   1      46.667  29.650  28.360  1.00  0.00     0.023 A 
ATOM     60  C   UNL A   1      47.275  29.882  27.109  1.00  0.00     0.012 A 
ATOM     61  C   UNL A   1      47.402  29.006  29.375  1.00  0.00     0.148 A 
ATOM     62  C   UNL A   1      48.570  29.434  26.853  1.00  0.00     0.002 A 
ATOM     63  C   UNL A   1      48.711  28.609  29.128  1.00  0.00     0.091 A 
ATOM     64  F   UNL A   1      46.804  28.773  30.551  1.00  0.00    -0.205 F 
ATOM     65  C   UNL A   1      49.291  28.806  27.864  1.00  0.00     0.022 A 
BRANCH  63  66
ATOM     66  S   UNL A   1      49.749  27.872  30.396  1.00  0.00     0.127 S 
ATOM     67  O   UNL A   1      50.000  29.013  31.273  1.00  0.00    -0.237 OA
ATOM     68  O   UNL A   1      48.866  26.852  30.962  1.00  0.00    -0.237 OA
ATOM     69  O   UNL A   1      50.914  27.343  29.700  1.00  0.00    -0.744 OA
ENDBRANCH  63  66
ENDBRANCH  45  59
BRANCH  46  70
ATOM     70  C   UNL A   1      37.159  32.037  30.299  1.00  0.00     0.023 A 
ATOM     71  C   UNL A   1      36.673  31.681  31.572  1.00  0.00     0.012 A 
ATOM     72  C   UNL A   1      36.321  32.743  29.414  1.00  0.00     0.148 A 
ATOM     73  C   UNL A   1      35.369  32.003  31.950  1.00  0.00     0.002 A 
ATOM     74  C   UNL A   1      35.042  33.109  29.818  1.00  0.00     0.091 A 
ATOM     75  F   UNL A   1      36.804  33.069  28.208  1.00  0.00    -0.205 F 
ATOM     76  C   UNL A   1      34.558  32.726  31.079  1.00  0.00     0.022 A 
BRANCH  74  77
ATOM     77  S   UNL A   1      33.974  34.153  28.821  1.00  0.00     0.127 S 
ATOM     78  O   UNL A   1      33.491  33.213  27.813  1.00  0.00    -0.237 OA
ATOM     79  O   UNL A   1      32.972  34.576  29.800  1.00  0.00    -0.237 OA
ATOM     80  O   UNL A   1      34.820  35.228  28.323  1.00  0.00    -0.744 OA
ENDBRANCH  74  77
ENDBRANCH  46  70
BRANCH  58  81
ATOM     81  C   UNL A   1      43.233  35.484  30.836  1.00  0.00     0.023 A 
ATOM     82  C   UNL A   1      43.572  35.727  32.181  1.00  0.00     0.012 A 
ATOM     83  C   UNL A   1      43.351  36.524  29.892  1.00  0.00     0.148 A 
ATOM     84  C   UNL A   1      44.007  36.989  32.583  1.00  0.00     0.002 A 
ATOM     85  C   UNL A   1      43.834  37.764  30.290  1.00  0.00     0.091 A 
ATOM     86  F   UNL A   1      43.004  36.275  28.621  1.00  0.00    -0.205 F 
ATOM     87  C   UNL A   1      44.153  38.001  31.636  1.00  0.00     0.022 A 
BRANCH  85  88
ATOM     88  S   UNL A   1      44.153  39.094  29.125  1.00  0.00     0.127 S 
ATOM     89  O   UNL A   1      45.016  38.433  28.146  1.00  0.00    -0.237 OA
ATOM     90  O   UNL A   1      42.809  39.408  28.640  1.00  0.00    -0.237 OA
ATOM     91  O   UNL A   1      44.785  40.159  29.891  1.00  0.00    -0.744 OA
ENDBRANCH  85  88
ENDBRANCH  58  81
ENDBRANCH  32  33
ENDBRANCH  24  27
ENDBRANCH  22  23
ENDBRANCH   1  22
TORSDOF 16
ENDMDL
