MODEL 1
REMARK VINA RESULT:     -12.7      0.000      0.000
REMARK SMILES Cc1n[nH]c(C[N@H+]2CCC[C@H](c3cccc(C(=O)NCCCNC(=O)c4ccc(-c5c6nc(c(-c7cccc(S(=O)(=O)[O-])c7F)c7ccc([nH]7)c(-c7cccc(S(=O)(=O)[O-])c7F)c7nc(c(-c8cccc(S(=O)(=O)[O-])c8F)c8ccc5[nH]8)C=C7)C=C6)cc4)c3)C2)n1
REMARK SMILES IDX 21 1 20 2 19 3 17 4 18 5 16 7 12 8 13 9 89 10 14 11 15 12
REMARK SMILES IDX 11 13 7 14 8 15 90 16 9 18 10 19 6 20 5 21 1 22 2 23 3 24
REMARK SMILES IDX 91 25 4 26 22 28 23 29 24 30 25 32 26 33 27 34 88 35 28 36
REMARK SMILES IDX 87 37 29 38 30 39 31 40 81 41 32 42 86 43 80 44 82 45 33 46
REMARK SMILES IDX 85 47 79 48 78 49 34 51 66 52 46 53 65 54 47 55 50 56 64 57
REMARK SMILES IDX 83 58 48 59 49 60 63 62 84 63 51 64 35 65 36 66 44 67 37 68
REMARK SMILES IDX 39 69 45 70 38 71 40 72 41 73 42 74 43 75 67 76 68 77 76 78
REMARK SMILES IDX 69 79 71 80 77 81 70 82 72 83 73 84 74 85 75 86 52 87 53 88
REMARK SMILES IDX 61 89 54 90 56 91 62 92 55 93 57 94 58 95 59 96 60 97
REMARK H PARENT 19 6 7 17 4 27 23 31 82 50 50 61
REMARK Flexibility Score: inf
ROOT
ATOM      1  C   UNL A   1      38.217  19.793  25.047  1.00  0.00     0.042 C 
ENDROOT
BRANCH   1   2
ATOM      2  C   UNL A   1      37.188  20.930  24.935  1.00  0.00     0.118 C 
BRANCH   2   3
ATOM      3  N   UNL A   1      35.809  20.478  25.032  1.00  0.00    -0.352 N 
ATOM      4  C   UNL A   1      34.594  21.107  24.882  1.00  0.00     0.251 C 
ATOM      5  O   UNL A   1      33.600  20.385  24.795  1.00  0.00    -0.269 OA
ATOM      6  H   UNL A   1      35.727  19.520  25.251  1.00  0.00     0.163 HD
BRANCH   4   7
ATOM      7  C   UNL A   1      34.410  22.585  24.787  1.00  0.00     0.040 A 
ATOM      8  C   UNL A   1      33.350  24.592  23.841  1.00  0.00    -0.039 A 
ATOM      9  C   UNL A   1      34.089  25.386  24.721  1.00  0.00     0.004 A 
ATOM     10  C   UNL A   1      33.577  23.208  23.864  1.00  0.00     0.018 A 
ATOM     11  C   UNL A   1      34.988  24.799  25.615  1.00  0.00     0.001 A 
ATOM     12  C   UNL A   1      35.134  23.409  25.659  1.00  0.00     0.014 A 
BRANCH   8  13
ATOM     13  C   UNL A   1      32.334  25.108  22.831  1.00  0.00     0.074 C 
ATOM     14  N   UNL A   1      31.754  27.379  23.748  1.00  0.00    -0.328 N 
ATOM     15  C   UNL A   1      30.390  26.945  24.069  1.00  0.00     0.262 C 
ATOM     16  C   UNL A   1      32.313  26.629  22.602  1.00  0.00     0.270 C 
ATOM     17  H   UNL A   1      32.318  27.161  24.569  1.00  0.00     0.348 HD
ATOM     18  C   UNL A   1      30.312  25.439  24.325  1.00  0.00     0.062 C 
ATOM     19  C   UNL A   1      30.890  24.653  23.153  1.00  0.00     0.020 C 
BRANCH  14  20
ATOM     20  C   UNL A   1      31.864  28.836  23.541  1.00  0.00     0.340 C 
BRANCH  20  21
ATOM     21  C   UNL A   1      30.632  29.466  22.982  1.00  0.00     0.179 A 
ATOM     22  C   UNL A   1      27.893  31.666  22.995  1.00  0.00     0.092 C 
ATOM     23  C   UNL A   1      28.946  30.687  22.665  1.00  0.00     0.147 A 
ATOM     24  N   UNL A   1      29.366  30.442  21.418  1.00  0.00    -0.159 NA
ATOM     25  N   UNL A   1      29.652  30.049  23.642  1.00  0.00    -0.211 NA
ATOM     26  N   UNL A   1      30.423  29.643  21.646  1.00  0.00    -0.258 N 
ATOM     27  H   UNL A   1      30.975  29.237  20.939  1.00  0.00     0.192 HD
ENDBRANCH  20  21
ENDBRANCH  14  20
ENDBRANCH   8  13
ENDBRANCH   4   7
ENDBRANCH   2   3
ENDBRANCH   1   2
BRANCH   1  28
ATOM     28  C   UNL A   1      39.366  20.117  25.984  1.00  0.00     0.118 C 
BRANCH  28  29
ATOM     29  N   UNL A   1      40.543  19.290  25.702  1.00  0.00    -0.352 N 
ATOM     30  C   UNL A   1      41.881  19.631  25.739  1.00  0.00     0.251 C 
ATOM     31  H   UNL A   1      40.352  18.358  25.451  1.00  0.00     0.163 HD
ATOM     32  O   UNL A   1      42.713  18.929  25.193  1.00  0.00    -0.269 OA
BRANCH  30  33
ATOM     33  C   UNL A   1      42.271  20.876  26.424  1.00  0.00     0.039 A 
ATOM     34  C   UNL A   1      42.487  22.046  25.693  1.00  0.00     0.014 A 
ATOM     35  C   UNL A   1      42.332  20.878  27.814  1.00  0.00     0.014 A 
ATOM     36  C   UNL A   1      42.647  23.243  26.383  1.00  0.00     0.010 A 
ATOM     37  C   UNL A   1      42.323  22.077  28.484  1.00  0.00     0.010 A 
ATOM     38  C   UNL A   1      42.520  23.261  27.782  1.00  0.00    -0.014 A 
BRANCH  38  39
ATOM     39  C   UNL A   1      42.487  24.532  28.499  1.00  0.00     0.031 A 
ATOM     40  C   UNL A   1      41.270  25.359  28.270  1.00  0.00     0.074 A 
ATOM     41  C   UNL A   1      43.386  24.891  29.439  1.00  0.00     0.049 A 
ATOM     42  N   UNL A   1      41.184  26.441  27.568  1.00  0.00    -0.248 NA
ATOM     43  C   UNL A   1      39.976  24.863  28.761  1.00  0.00     0.031 C 
ATOM     44  C   UNL A   1      44.459  24.083  30.034  1.00  0.00     0.029 A 
ATOM     45  N   UNL A   1      43.441  26.041  30.164  1.00  0.00    -0.354 N 
ATOM     46  C   UNL A   1      39.874  26.893  27.723  1.00  0.00     0.074 A 
ATOM     47  C   UNL A   1      39.139  25.793  28.293  1.00  0.00     0.031 C 
ATOM     48  C   UNL A   1      44.868  24.657  31.185  1.00  0.00     0.029 A 
ATOM     49  C   UNL A   1      44.239  25.958  31.298  1.00  0.00     0.049 A 
ATOM     50  H   UNL A   1      42.958  26.860  29.908  1.00  0.00     0.167 HD
ATOM     51  C   UNL A   1      39.561  28.212  27.591  1.00  0.00     0.034 A 
ATOM     52  C   UNL A   1      44.353  26.884  32.276  1.00  0.00     0.034 A 
ATOM     53  C   UNL A   1      40.660  28.957  27.028  1.00  0.00     0.049 A 
ATOM     54  C   UNL A   1      43.928  28.177  31.697  1.00  0.00     0.074 A 
ATOM     55  C   UNL A   1      41.383  28.914  25.855  1.00  0.00     0.029 A 
ATOM     56  N   UNL A   1      41.409  29.695  27.913  1.00  0.00    -0.354 N 
ATOM     57  N   UNL A   1      44.583  28.796  30.754  1.00  0.00    -0.248 NA
ATOM     58  C   UNL A   1      42.550  28.601  31.883  1.00  0.00     0.031 C 
ATOM     59  C   UNL A   1      42.722  29.224  26.240  1.00  0.00     0.029 A 
ATOM     60  C   UNL A   1      42.728  29.497  27.611  1.00  0.00     0.049 A 
ATOM     61  H   UNL A   1      41.059  30.265  28.636  1.00  0.00     0.167 HD
ATOM     62  C   UNL A   1      43.592  29.331  29.943  1.00  0.00     0.074 A 
ATOM     63  C   UNL A   1      42.381  29.299  30.758  1.00  0.00     0.031 C 
ATOM     64  C   UNL A   1      43.787  29.476  28.598  1.00  0.00     0.034 A 
BRANCH  51  65
ATOM     65  C   UNL A   1      38.430  28.934  28.292  1.00  0.00     0.023 A 
ATOM     66  C   UNL A   1      37.565  29.712  27.485  1.00  0.00     0.012 A 
ATOM     67  C   UNL A   1      38.338  29.121  29.688  1.00  0.00     0.148 A 
ATOM     68  C   UNL A   1      36.702  30.666  28.035  1.00  0.00     0.002 A 
ATOM     69  C   UNL A   1      37.419  30.012  30.235  1.00  0.00     0.091 A 
ATOM     70  F   UNL A   1      39.226  28.542  30.499  1.00  0.00    -0.205 F 
ATOM     71  C   UNL A   1      36.623  30.812  29.413  1.00  0.00     0.022 A 
BRANCH  69  72
ATOM     72  S   UNL A   1      37.233  30.202  32.012  1.00  0.00     0.127 S 
ATOM     73  O   UNL A   1      36.072  31.084  32.092  1.00  0.00    -0.237 OA
ATOM     74  O   UNL A   1      36.994  28.821  32.436  1.00  0.00    -0.237 OA
ATOM     75  O   UNL A   1      38.495  30.759  32.479  1.00  0.00    -0.744 OA
ENDBRANCH  69  72
ENDBRANCH  51  65
BRANCH  52  76
ATOM     76  C   UNL A   1      44.607  26.711  33.721  1.00  0.00     0.023 A 
ATOM     77  C   UNL A   1      45.840  27.119  34.263  1.00  0.00     0.012 A 
ATOM     78  C   UNL A   1      43.547  26.420  34.609  1.00  0.00     0.148 A 
ATOM     79  C   UNL A   1      46.001  27.280  35.643  1.00  0.00     0.002 A 
ATOM     80  C   UNL A   1      43.713  26.579  35.981  1.00  0.00     0.091 A 
ATOM     81  F   UNL A   1      42.355  26.080  34.101  1.00  0.00    -0.205 F 
ATOM     82  C   UNL A   1      44.936  27.023  36.501  1.00  0.00     0.022 A 
BRANCH  80  83
ATOM     83  S   UNL A   1      42.376  26.302  37.150  1.00  0.00     0.127 S 
ATOM     84  O   UNL A   1      43.042  26.533  38.433  1.00  0.00    -0.237 OA
ATOM     85  O   UNL A   1      41.419  27.335  36.763  1.00  0.00    -0.237 OA
ATOM     86  O   UNL A   1      41.943  24.928  36.937  1.00  0.00    -0.744 OA
ENDBRANCH  80  83
ENDBRANCH  52  76
BRANCH  64  87
ATOM     87  C   UNL A   1      45.191  29.340  28.061  1.00  0.00     0.023 A 
ATOM     88  C   UNL A   1      46.115  30.406  28.074  1.00  0.00     0.012 A 
ATOM     89  C   UNL A   1      45.639  28.058  27.697  1.00  0.00     0.148 A 
ATOM     90  C   UNL A   1      47.449  30.201  27.708  1.00  0.00     0.002 A 
ATOM     91  C   UNL A   1      46.975  27.849  27.383  1.00  0.00     0.091 A 
ATOM     92  F   UNL A   1      44.750  27.054  27.692  1.00  0.00    -0.205 F 
ATOM     93  C   UNL A   1      47.883  28.919  27.377  1.00  0.00     0.022 A 
BRANCH  91  94
ATOM     94  S   UNL A   1      47.617  26.201  27.079  1.00  0.00     0.127 S 
ATOM     95  O   UNL A   1      47.241  25.495  28.302  1.00  0.00    -0.237 OA
ATOM     96  O   UNL A   1      46.877  25.789  25.884  1.00  0.00    -0.237 OA
ATOM     97  O   UNL A   1      49.049  26.363  26.860  1.00  0.00    -0.744 OA
ENDBRANCH  91  94
ENDBRANCH  64  87
ENDBRANCH  38  39
ENDBRANCH  30  33
ENDBRANCH  28  29
ENDBRANCH   1  28
TORSDOF 16
ENDMDL
MODEL 2
REMARK VINA RESULT:     -12.6      1.589      2.072
REMARK SMILES Cc1n[nH]c(C[N@H+]2CCC[C@H](c3cccc(C(=O)NCCCNC(=O)c4ccc(-c5c6nc(c(-c7cccc(S(=O)(=O)[O-])c7F)c7ccc([nH]7)c(-c7cccc(S(=O)(=O)[O-])c7F)c7nc(c(-c8cccc(S(=O)(=O)[O-])c8F)c8ccc5[nH]8)C=C7)C=C6)cc4)c3)C2)n1
REMARK SMILES IDX 21 1 20 2 19 3 17 4 18 5 16 7 12 8 13 9 89 10 14 11 15 12
REMARK SMILES IDX 11 13 7 14 8 15 90 16 9 18 10 19 6 20 5 21 1 22 2 23 3 24
REMARK SMILES IDX 91 25 4 26 22 28 23 29 24 30 25 32 26 33 27 34 88 35 28 36
REMARK SMILES IDX 87 37 29 38 30 39 31 40 81 41 32 42 86 43 80 44 82 45 33 46
REMARK SMILES IDX 85 47 79 48 78 49 34 51 66 52 46 53 65 54 47 55 50 56 64 57
REMARK SMILES IDX 83 58 48 59 49 60 63 62 84 63 51 64 35 65 36 66 44 67 37 68
REMARK SMILES IDX 39 69 45 70 38 71 40 72 41 73 42 74 43 75 67 76 68 77 76 78
REMARK SMILES IDX 69 79 71 80 77 81 70 82 72 83 73 84 74 85 75 86 52 87 53 88
REMARK SMILES IDX 61 89 54 90 56 91 62 92 55 93 57 94 58 95 59 96 60 97
REMARK H PARENT 19 6 7 17 4 27 23 31 82 50 50 61
REMARK Flexibility Score: inf
ROOT
ATOM      1  C   UNL A   1      36.856  21.502  24.455  1.00  0.00     0.042 C 
ENDROOT
BRANCH   1   2
ATOM      2  C   UNL A   1      35.714  20.633  25.005  1.00  0.00     0.118 C 
BRANCH   2   3
ATOM      3  N   UNL A   1      35.192  21.097  26.282  1.00  0.00    -0.352 N 
ATOM      4  C   UNL A   1      34.033  21.740  26.653  1.00  0.00     0.251 C 
ATOM      5  O   UNL A   1      33.783  21.784  27.858  1.00  0.00    -0.269 OA
ATOM      6  H   UNL A   1      35.795  20.913  27.039  1.00  0.00     0.163 HD
BRANCH   4   7
ATOM      7  C   UNL A   1      33.060  22.351  25.701  1.00  0.00     0.040 A 
ATOM      8  C   UNL A   1      31.381  24.040  25.088  1.00  0.00    -0.039 A 
ATOM      9  C   UNL A   1      31.288  23.472  23.815  1.00  0.00     0.004 A 
ATOM     10  C   UNL A   1      32.231  23.423  26.017  1.00  0.00     0.018 A 
ATOM     11  C   UNL A   1      32.054  22.352  23.486  1.00  0.00     0.001 A 
ATOM     12  C   UNL A   1      32.945  21.807  24.416  1.00  0.00     0.014 A 
BRANCH   8  13
ATOM     13  C   UNL A   1      30.611  25.264  25.564  1.00  0.00     0.074 C 
ATOM     14  N   UNL A   1      30.908  26.877  23.655  1.00  0.00    -0.328 N 
ATOM     15  C   UNL A   1      31.737  27.762  24.481  1.00  0.00     0.262 C 
ATOM     16  C   UNL A   1      29.939  26.114  24.472  1.00  0.00     0.270 C 
ATOM     17  H   UNL A   1      31.550  26.210  23.228  1.00  0.00     0.348 HD
ATOM     18  C   UNL A   1      32.458  27.001  25.594  1.00  0.00     0.062 C 
ATOM     19  C   UNL A   1      31.471  26.205  26.441  1.00  0.00     0.020 C 
BRANCH  14  20
ATOM     20  C   UNL A   1      30.238  27.581  22.545  1.00  0.00     0.340 C 
BRANCH  20  21
ATOM     21  C   UNL A   1      29.153  28.509  22.979  1.00  0.00     0.179 A 
ATOM     22  C   UNL A   1      27.610  31.641  23.375  1.00  0.00     0.092 C 
ATOM     23  C   UNL A   1      27.955  30.208  23.318  1.00  0.00     0.147 A 
ATOM     24  N   UNL A   1      27.048  29.230  23.201  1.00  0.00    -0.159 NA
ATOM     25  N   UNL A   1      29.253  29.793  23.261  1.00  0.00    -0.211 NA
ATOM     26  N   UNL A   1      27.835  28.158  23.012  1.00  0.00    -0.258 N 
ATOM     27  H   UNL A   1      27.504  27.236  22.909  1.00  0.00     0.192 HD
ENDBRANCH  20  21
ENDBRANCH  14  20
ENDBRANCH   8  13
ENDBRANCH   4   7
ENDBRANCH   2   3
ENDBRANCH   1   2
BRANCH   1  28
ATOM     28  C   UNL A   1      38.043  21.595  25.396  1.00  0.00     0.118 C 
BRANCH  28  29
ATOM     29  N   UNL A   1      38.782  20.331  25.460  1.00  0.00    -0.352 N 
ATOM     30  C   UNL A   1      40.098  20.103  25.813  1.00  0.00     0.251 C 
ATOM     31  H   UNL A   1      38.266  19.530  25.217  1.00  0.00     0.163 HD
ATOM     32  O   UNL A   1      40.641  19.051  25.529  1.00  0.00    -0.269 OA
BRANCH  30  33
ATOM     33  C   UNL A   1      40.835  21.173  26.509  1.00  0.00     0.039 A 
ATOM     34  C   UNL A   1      41.432  22.206  25.784  1.00  0.00     0.014 A 
ATOM     35  C   UNL A   1      40.844  21.175  27.900  1.00  0.00     0.014 A 
ATOM     36  C   UNL A   1      41.935  23.303  26.477  1.00  0.00     0.010 A 
ATOM     37  C   UNL A   1      41.188  22.326  28.567  1.00  0.00     0.010 A 
ATOM     38  C   UNL A   1      41.771  23.379  27.870  1.00  0.00    -0.014 A 
BRANCH  38  39
ATOM     39  C   UNL A   1      42.113  24.607  28.582  1.00  0.00     0.031 A 
ATOM     40  C   UNL A   1      41.160  25.735  28.397  1.00  0.00     0.074 A 
ATOM     41  C   UNL A   1      43.112  24.701  29.485  1.00  0.00     0.049 A 
ATOM     42  N   UNL A   1      41.344  26.804  27.694  1.00  0.00    -0.248 NA
ATOM     43  C   UNL A   1      39.800  25.607  28.940  1.00  0.00     0.031 C 
ATOM     44  C   UNL A   1      43.946  23.627  30.041  1.00  0.00     0.029 A 
ATOM     45  N   UNL A   1      43.506  25.788  30.202  1.00  0.00    -0.354 N 
ATOM     46  C   UNL A   1      40.214  27.595  27.898  1.00  0.00     0.074 A 
ATOM     47  C   UNL A   1      39.230  26.733  28.501  1.00  0.00     0.031 C 
ATOM     48  C   UNL A   1      44.540  24.061  31.173  1.00  0.00     0.029 A 
ATOM     49  C   UNL A   1      44.294  25.483  31.304  1.00  0.00     0.049 A 
ATOM     50  H   UNL A   1      43.255  26.709  29.962  1.00  0.00     0.167 HD
ATOM     51  C   UNL A   1      40.268  28.950  27.772  1.00  0.00     0.034 A 
ATOM     52  C   UNL A   1      44.694  26.337  32.274  1.00  0.00     0.034 A 
ATOM     53  C   UNL A   1      41.506  29.371  27.164  1.00  0.00     0.049 A 
ATOM     54  C   UNL A   1      44.615  27.701  31.706  1.00  0.00     0.074 A 
ATOM     55  C   UNL A   1      42.144  29.140  25.963  1.00  0.00     0.029 A 
ATOM     56  N   UNL A   1      42.461  29.871  28.016  1.00  0.00    -0.354 N 
ATOM     57  N   UNL A   1      45.377  28.124  30.735  1.00  0.00    -0.248 NA
ATOM     58  C   UNL A   1      43.414  28.483  31.943  1.00  0.00     0.031 C 
ATOM     59  C   UNL A   1      43.530  29.071  26.295  1.00  0.00     0.029 A 
ATOM     60  C   UNL A   1      43.663  29.323  27.663  1.00  0.00     0.049 A 
ATOM     61  H   UNL A   1      42.308  30.510  28.749  1.00  0.00     0.167 HD
ATOM     62  C   UNL A   1      44.539  28.914  29.960  1.00  0.00     0.074 A 
ATOM     63  C   UNL A   1      43.397  29.207  30.822  1.00  0.00     0.031 C 
ATOM     64  C   UNL A   1      44.713  29.009  28.609  1.00  0.00     0.034 A 
BRANCH  51  65
ATOM     65  C   UNL A   1      39.404  29.948  28.513  1.00  0.00     0.023 A 
ATOM     66  C   UNL A   1      39.841  30.349  29.799  1.00  0.00     0.012 A 
ATOM     67  C   UNL A   1      38.083  30.291  28.154  1.00  0.00     0.148 A 
ATOM     68  C   UNL A   1      38.989  30.998  30.699  1.00  0.00     0.002 A 
ATOM     69  C   UNL A   1      37.265  31.008  29.021  1.00  0.00     0.091 A 
ATOM     70  F   UNL A   1      37.551  29.812  27.026  1.00  0.00    -0.205 F 
ATOM     71  C   UNL A   1      37.700  31.334  30.308  1.00  0.00     0.022 A 
BRANCH  69  72
ATOM     72  S   UNL A   1      35.609  31.522  28.550  1.00  0.00     0.127 S 
ATOM     73  O   UNL A   1      35.060  31.954  29.831  1.00  0.00    -0.237 OA
ATOM     74  O   UNL A   1      35.890  32.599  27.599  1.00  0.00    -0.237 OA
ATOM     75  O   UNL A   1      34.991  30.345  27.951  1.00  0.00    -0.744 OA
ENDBRANCH  69  72
ENDBRANCH  51  65
BRANCH  52  76
ATOM     76  C   UNL A   1      44.946  26.092  33.708  1.00  0.00     0.023 A 
ATOM     77  C   UNL A   1      46.265  26.138  34.198  1.00  0.00     0.012 A 
ATOM     78  C   UNL A   1      43.883  26.103  34.639  1.00  0.00     0.148 A 
ATOM     79  C   UNL A   1      46.520  26.239  35.569  1.00  0.00     0.002 A 
ATOM     80  C   UNL A   1      44.142  26.202  36.003  1.00  0.00     0.091 A 
ATOM     81  F   UNL A   1      42.625  26.112  34.181  1.00  0.00    -0.205 F 
ATOM     82  C   UNL A   1      45.460  26.285  36.471  1.00  0.00     0.022 A 
BRANCH  80  83
ATOM     83  S   UNL A   1      42.828  26.303  37.225  1.00  0.00     0.127 S 
ATOM     84  O   UNL A   1      43.583  26.362  38.477  1.00  0.00    -0.237 OA
ATOM     85  O   UNL A   1      42.164  27.549  36.851  1.00  0.00    -0.237 OA
ATOM     86  O   UNL A   1      42.038  25.091  37.057  1.00  0.00    -0.744 OA
ENDBRANCH  80  83
ENDBRANCH  52  76
BRANCH  64  87
ATOM     87  C   UNL A   1      46.006  28.499  28.018  1.00  0.00     0.023 A 
ATOM     88  C   UNL A   1      47.184  29.274  27.986  1.00  0.00     0.012 A 
ATOM     89  C   UNL A   1      46.075  27.144  27.647  1.00  0.00     0.148 A 
ATOM     90  C   UNL A   1      48.396  28.717  27.570  1.00  0.00     0.002 A 
ATOM     91  C   UNL A   1      47.291  26.582  27.283  1.00  0.00     0.091 A 
ATOM     92  F   UNL A   1      44.947  26.419  27.686  1.00  0.00    -0.205 F 
ATOM     93  C   UNL A   1      48.454  27.366  27.233  1.00  0.00     0.022 A 
BRANCH  91  94
ATOM     94  S   UNL A   1      47.450  24.822  26.968  1.00  0.00     0.127 S 
ATOM     95  O   UNL A   1      47.077  24.729  25.558  1.00  0.00    -0.237 OA
ATOM     96  O   UNL A   1      48.867  24.578  27.243  1.00  0.00    -0.237 OA
ATOM     97  O   UNL A   1      46.544  24.165  27.903  1.00  0.00    -0.744 OA
ENDBRANCH  91  94
ENDBRANCH  64  87
ENDBRANCH  38  39
ENDBRANCH  30  33
ENDBRANCH  28  29
ENDBRANCH   1  28
TORSDOF 16
ENDMDL
MODEL 3
REMARK VINA RESULT:     -12.3      3.153      8.452
REMARK SMILES Cc1n[nH]c(C[N@H+]2CCC[C@H](c3cccc(C(=O)NCCCNC(=O)c4ccc(-c5c6nc(c(-c7cccc(S(=O)(=O)[O-])c7F)c7ccc([nH]7)c(-c7cccc(S(=O)(=O)[O-])c7F)c7nc(c(-c8cccc(S(=O)(=O)[O-])c8F)c8ccc5[nH]8)C=C7)C=C6)cc4)c3)C2)n1
REMARK SMILES IDX 21 1 20 2 19 3 17 4 18 5 16 7 12 8 13 9 89 10 14 11 15 12
REMARK SMILES IDX 11 13 7 14 8 15 90 16 9 18 10 19 6 20 5 21 1 22 2 23 3 24
REMARK SMILES IDX 91 25 4 26 22 28 23 29 24 30 25 32 26 33 27 34 88 35 28 36
REMARK SMILES IDX 87 37 29 38 30 39 31 40 81 41 32 42 86 43 80 44 82 45 33 46
REMARK SMILES IDX 85 47 79 48 78 49 34 51 66 52 46 53 65 54 47 55 50 56 64 57
REMARK SMILES IDX 83 58 48 59 49 60 63 62 84 63 51 64 35 65 36 66 44 67 37 68
REMARK SMILES IDX 39 69 45 70 38 71 40 72 41 73 42 74 43 75 67 76 68 77 76 78
REMARK SMILES IDX 69 79 71 80 77 81 70 82 72 83 73 84 74 85 75 86 52 87 53 88
REMARK SMILES IDX 61 89 54 90 56 91 62 92 55 93 57 94 58 95 59 96 60 97
REMARK H PARENT 19 6 7 17 4 27 23 31 82 50 50 61
REMARK Flexibility Score: inf
ROOT
ATOM      1  C   UNL A   1      33.609  29.695  27.131  1.00  0.00     0.042 C 
ENDROOT
BRANCH   1   2
ATOM      2  C   UNL A   1      33.860  28.541  26.147  1.00  0.00     0.118 C 
BRANCH   2   3
ATOM      3  N   UNL A   1      33.819  28.947  24.751  1.00  0.00    -0.352 N 
ATOM      4  C   UNL A   1      33.179  28.449  23.638  1.00  0.00     0.251 C 
ATOM      5  O   UNL A   1      33.160  29.167  22.638  1.00  0.00    -0.269 OA
ATOM      6  H   UNL A   1      34.362  29.747  24.561  1.00  0.00     0.163 HD
BRANCH   4   7
ATOM      7  C   UNL A   1      32.491  27.126  23.577  1.00  0.00     0.040 A 
ATOM      8  C   UNL A   1      32.447  24.713  23.104  1.00  0.00    -0.039 A 
ATOM      9  C   UNL A   1      31.125  24.659  23.551  1.00  0.00     0.004 A 
ATOM     10  C   UNL A   1      33.077  25.967  23.080  1.00  0.00     0.018 A 
ATOM     11  C   UNL A   1      30.482  25.818  23.993  1.00  0.00     0.001 A 
ATOM     12  C   UNL A   1      31.166  27.037  24.021  1.00  0.00     0.014 A 
BRANCH   8  13
ATOM     13  C   UNL A   1      33.260  23.524  22.611  1.00  0.00     0.074 C 
ATOM     14  N   UNL A   1      32.807  21.782  24.370  1.00  0.00    -0.328 N 
ATOM     15  C   UNL A   1      34.197  21.834  24.836  1.00  0.00     0.262 C 
ATOM     16  C   UNL A   1      32.695  22.131  22.937  1.00  0.00     0.270 C 
ATOM     17  H   UNL A   1      32.306  22.492  24.904  1.00  0.00     0.348 HD
ATOM     18  C   UNL A   1      34.844  23.193  24.563  1.00  0.00     0.062 C 
ATOM     19  C   UNL A   1      34.731  23.567  23.089  1.00  0.00     0.020 C 
BRANCH  14  20
ATOM     20  C   UNL A   1      32.146  20.496  24.664  1.00  0.00     0.340 C 
BRANCH  20  21
ATOM     21  C   UNL A   1      32.695  19.340  23.896  1.00  0.00     0.179 A 
ATOM     22  C   UNL A   1      34.329  16.252  23.521  1.00  0.00     0.092 C 
ATOM     23  C   UNL A   1      33.574  17.507  23.345  1.00  0.00     0.147 A 
ATOM     24  N   UNL A   1      32.669  17.699  22.377  1.00  0.00    -0.159 NA
ATOM     25  N   UNL A   1      33.667  18.524  24.249  1.00  0.00    -0.211 NA
ATOM     26  N   UNL A   1      32.143  18.883  22.735  1.00  0.00    -0.258 N 
ATOM     27  H   UNL A   1      31.448  19.359  22.226  1.00  0.00     0.192 HD
ENDBRANCH  20  21
ENDBRANCH  14  20
ENDBRANCH   8  13
ENDBRANCH   4   7
ENDBRANCH   2   3
ENDBRANCH   1   2
BRANCH   1  28
ATOM     28  C   UNL A   1      34.801  30.622  27.282  1.00  0.00     0.118 C 
BRANCH  28  29
ATOM     29  N   UNL A   1      34.527  31.706  28.229  1.00  0.00    -0.352 N 
ATOM     30  C   UNL A   1      35.073  31.938  29.476  1.00  0.00     0.251 C 
ATOM     31  H   UNL A   1      33.856  32.362  27.934  1.00  0.00     0.163 HD
ATOM     32  O   UNL A   1      34.531  32.698  30.257  1.00  0.00    -0.269 OA
BRANCH  30  33
ATOM     33  C   UNL A   1      36.306  31.222  29.848  1.00  0.00     0.039 A 
ATOM     34  C   UNL A   1      36.275  29.850  30.111  1.00  0.00     0.014 A 
ATOM     35  C   UNL A   1      37.509  31.922  29.842  1.00  0.00     0.014 A 
ATOM     36  C   UNL A   1      37.480  29.170  30.252  1.00  0.00     0.010 A 
ATOM     37  C   UNL A   1      38.692  31.225  29.815  1.00  0.00     0.010 A 
ATOM     38  C   UNL A   1      38.691  29.855  30.059  1.00  0.00    -0.014 A 
BRANCH  38  39
ATOM     39  C   UNL A   1      39.950  29.118  30.006  1.00  0.00     0.031 A 
ATOM     40  C   UNL A   1      40.584  28.848  31.327  1.00  0.00     0.074 A 
ATOM     41  C   UNL A   1      40.447  28.555  28.885  1.00  0.00     0.049 A 
ATOM     42  N   UNL A   1      41.634  29.420  31.818  1.00  0.00    -0.248 NA
ATOM     43  C   UNL A   1      39.905  27.943  32.264  1.00  0.00     0.031 C 
ATOM     44  C   UNL A   1      39.814  28.430  27.566  1.00  0.00     0.029 A 
ATOM     45  N   UNL A   1      41.600  27.849  28.732  1.00  0.00    -0.354 N 
ATOM     46  C   UNL A   1      41.887  28.778  33.028  1.00  0.00     0.074 A 
ATOM     47  C   UNL A   1      40.695  28.030  33.338  1.00  0.00     0.031 C 
ATOM     48  C   UNL A   1      40.454  27.483  26.848  1.00  0.00     0.029 A 
ATOM     49  C   UNL A   1      41.647  27.089  27.570  1.00  0.00     0.049 A 
ATOM     50  H   UNL A   1      42.335  27.872  29.386  1.00  0.00     0.167 HD
ATOM     51  C   UNL A   1      43.143  28.725  33.552  1.00  0.00     0.034 A 
ATOM     52  C   UNL A   1      42.590  26.178  27.237  1.00  0.00     0.034 A 
ATOM     53  C   UNL A   1      44.039  29.616  32.855  1.00  0.00     0.049 A 
ATOM     54  C   UNL A   1      43.800  26.502  28.024  1.00  0.00     0.074 A 
ATOM     55  C   UNL A   1      44.092  30.973  32.615  1.00  0.00     0.029 A 
ATOM     56  N   UNL A   1      44.888  29.033  31.946  1.00  0.00    -0.354 N 
ATOM     57  N   UNL A   1      44.500  27.590  27.857  1.00  0.00    -0.248 NA
ATOM     58  C   UNL A   1      44.015  25.807  29.282  1.00  0.00     0.031 C 
ATOM     59  C   UNL A   1      44.602  31.089  31.287  1.00  0.00     0.029 A 
ATOM     60  C   UNL A   1      44.886  29.804  30.817  1.00  0.00     0.049 A 
ATOM     61  H   UNL A   1      45.406  28.206  32.082  1.00  0.00     0.167 HD
ATOM     62  C   UNL A   1      44.874  27.958  29.142  1.00  0.00     0.074 A 
ATOM     63  C   UNL A   1      44.669  26.760  29.951  1.00  0.00     0.031 C 
ATOM     64  C   UNL A   1      45.032  29.273  29.478  1.00  0.00     0.034 A 
BRANCH  51  65
ATOM     65  C   UNL A   1      43.696  27.628  34.437  1.00  0.00     0.023 A 
ATOM     66  C   UNL A   1      44.345  28.028  35.630  1.00  0.00     0.012 A 
ATOM     67  C   UNL A   1      43.864  26.284  34.040  1.00  0.00     0.148 A 
ATOM     68  C   UNL A   1      45.165  27.155  36.352  1.00  0.00     0.002 A 
ATOM     69  C   UNL A   1      44.614  25.397  34.806  1.00  0.00     0.091 A 
ATOM     70  F   UNL A   1      43.415  25.877  32.850  1.00  0.00    -0.205 F 
ATOM     71  C   UNL A   1      45.295  25.835  35.944  1.00  0.00     0.022 A 
BRANCH  69  72
ATOM     72  S   UNL A   1      44.772  23.663  34.359  1.00  0.00     0.127 S 
ATOM     73  O   UNL A   1      43.423  23.358  33.891  1.00  0.00    -0.237 OA
ATOM     74  O   UNL A   1      45.795  23.717  33.314  1.00  0.00    -0.237 OA
ATOM     75  O   UNL A   1      45.198  22.985  35.576  1.00  0.00    -0.744 OA
ENDBRANCH  69  72
ENDBRANCH  51  65
BRANCH  52  76
ATOM     76  C   UNL A   1      42.470  24.935  26.448  1.00  0.00     0.023 A 
ATOM     77  C   UNL A   1      43.436  24.641  25.467  1.00  0.00     0.012 A 
ATOM     78  C   UNL A   1      41.587  23.908  26.851  1.00  0.00     0.148 A 
ATOM     79  C   UNL A   1      43.552  23.352  24.936  1.00  0.00     0.002 A 
ATOM     80  C   UNL A   1      41.706  22.628  26.318  1.00  0.00     0.091 A 
ATOM     81  F   UNL A   1      40.699  24.164  27.820  1.00  0.00    -0.205 F 
ATOM     82  C   UNL A   1      42.697  22.343  25.370  1.00  0.00     0.022 A 
BRANCH  80  83
ATOM     83  S   UNL A   1      40.664  21.264  26.853  1.00  0.00     0.127 S 
ATOM     84  O   UNL A   1      39.344  21.690  26.385  1.00  0.00    -0.237 OA
ATOM     85  O   UNL A   1      41.240  20.140  26.121  1.00  0.00    -0.237 OA
ATOM     86  O   UNL A   1      40.797  21.210  28.303  1.00  0.00    -0.744 OA
ENDBRANCH  80  83
ENDBRANCH  52  76
BRANCH  64  87
ATOM     87  C   UNL A   1      45.103  30.291  28.365  1.00  0.00     0.023 A 
ATOM     88  C   UNL A   1      43.951  30.827  27.753  1.00  0.00     0.012 A 
ATOM     89  C   UNL A   1      46.357  30.844  28.053  1.00  0.00     0.148 A 
ATOM     90  C   UNL A   1      44.052  31.875  26.833  1.00  0.00     0.002 A 
ATOM     91  C   UNL A   1      46.448  31.919  27.178  1.00  0.00     0.091 A 
ATOM     92  F   UNL A   1      47.443  30.326  28.646  1.00  0.00    -0.205 F 
ATOM     93  C   UNL A   1      45.298  32.431  26.556  1.00  0.00     0.022 A 
BRANCH  91  94
ATOM     94  S   UNL A   1      48.007  32.758  26.886  1.00  0.00     0.127 S 
ATOM     95  O   UNL A   1      47.650  33.712  25.839  1.00  0.00    -0.237 OA
ATOM     96  O   UNL A   1      48.291  33.360  28.191  1.00  0.00    -0.237 OA
ATOM     97  O   UNL A   1      48.953  31.719  26.497  1.00  0.00    -0.744 OA
ENDBRANCH  91  94
ENDBRANCH  64  87
ENDBRANCH  38  39
ENDBRANCH  30  33
ENDBRANCH  28  29
ENDBRANCH   1  28
TORSDOF 16
ENDMDL
