MODEL 1
REMARK VINA RESULT:     -11.3      0.000      0.000
REMARK SMILES CC(C)Cc1ccc([C@H](CF)C(=O)NCCCNC(=O)c2ccc(-c3c4nc(c(-c5cccc(S(=O)(=O)[O-])c5F)c5ccc([nH]5)c(-c5cccc(S(=O)(=O)[O-])c5F)c5nc(c(-c6cccc(S(=O)(=O)[O-])c6F)c6ccc3[nH]6)C=C5)C=C4)cc2)cc1
REMARK SMILES IDX 16 1 15 2 14 3 12 4 13 5 9 7 8 8 5 9 6 10 85 11 7 12 84 13
REMARK SMILES IDX 4 14 2 15 1 16 3 17 10 18 11 19 17 20 18 21 19 22 20 24
REMARK SMILES IDX 21 25 22 26 83 27 23 28 82 29 24 30 25 31 26 32 76 33 27 34
REMARK SMILES IDX 81 35 75 36 77 37 28 38 80 39 74 40 73 41 29 43 61 44 41 45
REMARK SMILES IDX 60 46 42 47 45 48 59 49 78 50 43 51 44 52 58 54 79 55 46 56
REMARK SMILES IDX 30 57 31 58 39 59 32 60 34 61 40 62 33 63 35 64 36 65 37 66
REMARK SMILES IDX 38 67 62 68 63 69 71 70 64 71 66 72 72 73 65 74 67 75 68 76
REMARK SMILES IDX 69 77 70 78 47 79 48 80 56 81 49 82 51 83 57 84 50 85 52 86
REMARK SMILES IDX 53 87 54 88 55 89
REMARK H PARENT 14 6 18 23 77 42 45 53
REMARK Flexibility Score: inf
ROOT
ATOM      1  C   UNL A   1      32.218  31.023  26.711  1.00  0.00     0.042 C 
ENDROOT
BRANCH   1   2
ATOM      2  C   UNL A   1      32.853  29.803  26.070  1.00  0.00     0.117 C 
BRANCH   2   3
ATOM      3  N   UNL A   1      32.485  29.659  24.668  1.00  0.00    -0.355 N 
ATOM      4  C   UNL A   1      31.717  28.713  24.064  1.00  0.00     0.230 C 
ATOM      5  O   UNL A   1      31.443  28.885  22.871  1.00  0.00    -0.274 OA
ATOM      6  H   UNL A   1      32.845  30.352  24.069  1.00  0.00     0.163 HD
BRANCH   4   7
ATOM      7  C   UNL A   1      31.219  27.475  24.798  1.00  0.00     0.139 C 
BRANCH   7   8
ATOM      8  C   UNL A   1      32.263  26.400  25.086  1.00  0.00    -0.033 A 
ATOM      9  C   UNL A   1      34.233  24.435  25.609  1.00  0.00    -0.048 A 
ATOM     10  C   UNL A   1      33.048  24.467  26.347  1.00  0.00     0.004 A 
ATOM     11  C   UNL A   1      34.426  25.385  24.602  1.00  0.00     0.004 A 
ATOM     12  C   UNL A   1      32.063  25.409  26.061  1.00  0.00     0.005 A 
ATOM     13  C   UNL A   1      33.454  26.356  24.346  1.00  0.00     0.005 A 
BRANCH   9  14
ATOM     14  C   UNL A   1      35.249  23.352  25.865  1.00  0.00     0.038 C 
BRANCH  14  15
ATOM     15  C   UNL A   1      36.519  23.529  25.006  1.00  0.00    -0.013 C 
ATOM     16  C   UNL A   1      37.753  23.810  25.868  1.00  0.00     0.008 C 
ATOM     17  C   UNL A   1      36.750  22.290  24.143  1.00  0.00     0.008 C 
ENDBRANCH  14  15
ENDBRANCH   9  14
ENDBRANCH   7   8
BRANCH   7  18
ATOM     18  C   UNL A   1      29.915  27.003  24.142  1.00  0.00     0.232 C 
ATOM     19  F   UNL A   1      29.243  26.135  24.942  1.00  0.00    -0.250 F 
ENDBRANCH   7  18
ENDBRANCH   4   7
ENDBRANCH   2   3
ENDBRANCH   1   2
BRANCH   1  20
ATOM     20  C   UNL A   1      33.207  31.895  27.473  1.00  0.00     0.118 C 
BRANCH  20  21
ATOM     21  N   UNL A   1      32.765  33.281  27.610  1.00  0.00    -0.352 N 
ATOM     22  C   UNL A   1      33.187  34.252  28.486  1.00  0.00     0.251 C 
ATOM     23  H   UNL A   1      32.060  33.559  26.982  1.00  0.00     0.163 HD
ATOM     24  O   UNL A   1      32.585  35.320  28.563  1.00  0.00    -0.269 OA
BRANCH  22  25
ATOM     25  C   UNL A   1      34.352  33.989  29.354  1.00  0.00     0.039 A 
ATOM     26  C   UNL A   1      34.168  33.301  30.556  1.00  0.00     0.014 A 
ATOM     27  C   UNL A   1      35.630  34.371  28.947  1.00  0.00     0.014 A 
ATOM     28  C   UNL A   1      35.282  32.899  31.295  1.00  0.00     0.010 A 
ATOM     29  C   UNL A   1      36.738  33.892  29.633  1.00  0.00     0.010 A 
ATOM     30  C   UNL A   1      36.577  33.140  30.807  1.00  0.00    -0.014 A 
BRANCH  30  31
ATOM     31  C   UNL A   1      37.785  32.583  31.468  1.00  0.00     0.031 A 
ATOM     32  C   UNL A   1      38.523  31.433  30.840  1.00  0.00     0.074 A 
ATOM     33  C   UNL A   1      38.127  33.017  32.698  1.00  0.00     0.049 A 
ATOM     34  N   UNL A   1      39.500  30.716  31.328  1.00  0.00    -0.248 NA
ATOM     35  C   UNL A   1      38.078  31.010  29.501  1.00  0.00     0.031 C 
ATOM     36  C   UNL A   1      37.436  34.068  33.450  1.00  0.00     0.029 A 
ATOM     37  N   UNL A   1      39.119  32.598  33.551  1.00  0.00    -0.354 N 
ATOM     38  C   UNL A   1      39.756  29.731  30.383  1.00  0.00     0.074 A 
ATOM     39  C   UNL A   1      38.812  29.924  29.303  1.00  0.00     0.031 C 
ATOM     40  C   UNL A   1      38.021  34.209  34.650  1.00  0.00     0.029 A 
ATOM     41  C   UNL A   1      39.102  33.237  34.771  1.00  0.00     0.049 A 
ATOM     42  H   UNL A   1      39.779  31.908  33.314  1.00  0.00     0.167 HD
ATOM     43  C   UNL A   1      40.710  28.771  30.396  1.00  0.00     0.034 A 
ATOM     44  C   UNL A   1      39.860  33.049  35.869  1.00  0.00     0.034 A 
ATOM     45  C   UNL A   1      41.686  28.624  31.441  1.00  0.00     0.049 A 
ATOM     46  C   UNL A   1      40.940  32.003  35.841  1.00  0.00     0.074 A 
ATOM     47  C   UNL A   1      42.766  27.761  31.492  1.00  0.00     0.029 A 
ATOM     48  N   UNL A   1      41.698  29.351  32.620  1.00  0.00    -0.354 N 
ATOM     49  N   UNL A   1      41.279  31.194  34.866  1.00  0.00    -0.248 NA
ATOM     50  C   UNL A   1      41.760  31.859  37.053  1.00  0.00     0.031 C 
ATOM     51  C   UNL A   1      43.424  27.958  32.710  1.00  0.00     0.029 A 
ATOM     52  C   UNL A   1      42.759  28.950  33.413  1.00  0.00     0.049 A 
ATOM     53  H   UNL A   1      41.048  30.052  32.858  1.00  0.00     0.167 HD
ATOM     54  C   UNL A   1      42.363  30.464  35.336  1.00  0.00     0.074 A 
ATOM     55  C   UNL A   1      42.642  30.943  36.674  1.00  0.00     0.031 C 
ATOM     56  C   UNL A   1      43.054  29.472  34.722  1.00  0.00     0.034 A 
BRANCH  43  57
ATOM     57  C   UNL A   1      40.789  27.848  29.210  1.00  0.00     0.023 A 
ATOM     58  C   UNL A   1      39.967  26.703  29.170  1.00  0.00     0.012 A 
ATOM     59  C   UNL A   1      41.628  28.136  28.116  1.00  0.00     0.148 A 
ATOM     60  C   UNL A   1      40.001  25.842  28.075  1.00  0.00     0.002 A 
ATOM     61  C   UNL A   1      41.626  27.294  27.009  1.00  0.00     0.091 A 
ATOM     62  F   UNL A   1      42.420  29.216  28.182  1.00  0.00    -0.205 F 
ATOM     63  C   UNL A   1      40.821  26.143  26.991  1.00  0.00     0.022 A 
BRANCH  61  64
ATOM     64  S   UNL A   1      42.593  27.635  25.535  1.00  0.00     0.127 S 
ATOM     65  O   UNL A   1      43.950  27.678  26.077  1.00  0.00    -0.237 OA
ATOM     66  O   UNL A   1      42.308  26.467  24.700  1.00  0.00    -0.237 OA
ATOM     67  O   UNL A   1      42.087  28.894  25.007  1.00  0.00    -0.744 OA
ENDBRANCH  61  64
ENDBRANCH  43  57
BRANCH  44  68
ATOM     68  C   UNL A   1      39.663  33.916  37.065  1.00  0.00     0.023 A 
ATOM     69  C   UNL A   1      40.092  35.257  37.019  1.00  0.00     0.012 A 
ATOM     70  C   UNL A   1      39.023  33.440  38.226  1.00  0.00     0.148 A 
ATOM     71  C   UNL A   1      39.909  36.101  38.115  1.00  0.00     0.002 A 
ATOM     72  C   UNL A   1      38.798  34.301  39.295  1.00  0.00     0.091 A 
ATOM     73  F   UNL A   1      38.636  32.157  38.259  1.00  0.00    -0.205 F 
ATOM     74  C   UNL A   1      39.253  35.628  39.247  1.00  0.00     0.022 A 
BRANCH  72  75
ATOM     75  S   UNL A   1      37.848  33.810  40.739  1.00  0.00     0.127 S 
ATOM     76  O   UNL A   1      38.768  32.896  41.407  1.00  0.00    -0.237 OA
ATOM     77  O   UNL A   1      37.647  35.090  41.421  1.00  0.00    -0.237 OA
ATOM     78  O   UNL A   1      36.625  33.215  40.217  1.00  0.00    -0.744 OA
ENDBRANCH  72  75
ENDBRANCH  44  68
BRANCH  56  79
ATOM     79  C   UNL A   1      44.190  28.837  35.480  1.00  0.00     0.023 A 
ATOM     80  C   UNL A   1      45.489  29.367  35.350  1.00  0.00     0.012 A 
ATOM     81  C   UNL A   1      43.955  27.787  36.388  1.00  0.00     0.148 A 
ATOM     82  C   UNL A   1      46.543  28.846  36.098  1.00  0.00     0.002 A 
ATOM     83  C   UNL A   1      45.002  27.302  37.163  1.00  0.00     0.091 A 
ATOM     84  F   UNL A   1      42.714  27.289  36.484  1.00  0.00    -0.205 F 
ATOM     85  C   UNL A   1      46.298  27.824  37.012  1.00  0.00     0.022 A 
BRANCH  83  86
ATOM     86  S   UNL A   1      44.767  26.051  38.431  1.00  0.00     0.127 S 
ATOM     87  O   UNL A   1      44.283  24.918  37.645  1.00  0.00    -0.237 OA
ATOM     88  O   UNL A   1      46.120  25.892  38.964  1.00  0.00    -0.237 OA
ATOM     89  O   UNL A   1      43.808  26.611  39.374  1.00  0.00    -0.744 OA
ENDBRANCH  83  86
ENDBRANCH  56  79
ENDBRANCH  30  31
ENDBRANCH  22  25
ENDBRANCH  20  21
ENDBRANCH   1  20
TORSDOF 17
ENDMDL
MODEL 2
REMARK VINA RESULT:     -11.2      5.919      9.011
REMARK SMILES CC(C)Cc1ccc([C@H](CF)C(=O)NCCCNC(=O)c2ccc(-c3c4nc(c(-c5cccc(S(=O)(=O)[O-])c5F)c5ccc([nH]5)c(-c5cccc(S(=O)(=O)[O-])c5F)c5nc(c(-c6cccc(S(=O)(=O)[O-])c6F)c6ccc3[nH]6)C=C5)C=C4)cc2)cc1
REMARK SMILES IDX 16 1 15 2 14 3 12 4 13 5 9 7 8 8 5 9 6 10 85 11 7 12 84 13
REMARK SMILES IDX 4 14 2 15 1 16 3 17 10 18 11 19 17 20 18 21 19 22 20 24
REMARK SMILES IDX 21 25 22 26 83 27 23 28 82 29 24 30 25 31 26 32 76 33 27 34
REMARK SMILES IDX 81 35 75 36 77 37 28 38 80 39 74 40 73 41 29 43 61 44 41 45
REMARK SMILES IDX 60 46 42 47 45 48 59 49 78 50 43 51 44 52 58 54 79 55 46 56
REMARK SMILES IDX 30 57 31 58 39 59 32 60 34 61 40 62 33 63 35 64 36 65 37 66
REMARK SMILES IDX 38 67 62 68 63 69 71 70 64 71 66 72 72 73 65 74 67 75 68 76
REMARK SMILES IDX 69 77 70 78 47 79 48 80 56 81 49 82 51 83 57 84 50 85 52 86
REMARK SMILES IDX 53 87 54 88 55 89
REMARK H PARENT 14 6 18 23 77 42 45 53
REMARK Flexibility Score: inf
ROOT
ATOM      1  C   UNL A   1      36.080  21.275  25.568  1.00  0.00     0.042 C 
ENDROOT
BRANCH   1   2
ATOM      2  C   UNL A   1      35.419  20.086  24.894  1.00  0.00     0.117 C 
BRANCH   2   3
ATOM      3  N   UNL A   1      34.026  19.931  25.287  1.00  0.00    -0.355 N 
ATOM      4  C   UNL A   1      32.911  20.538  24.799  1.00  0.00     0.230 C 
ATOM      5  O   UNL A   1      31.819  20.137  25.216  1.00  0.00    -0.274 OA
ATOM      6  H   UNL A   1      33.867  19.289  26.016  1.00  0.00     0.163 HD
BRANCH   4   7
ATOM      7  C   UNL A   1      32.979  21.680  23.792  1.00  0.00     0.139 C 
BRANCH   7   8
ATOM      8  C   UNL A   1      33.203  23.073  24.372  1.00  0.00    -0.033 A 
ATOM      9  C   UNL A   1      33.620  25.641  25.490  1.00  0.00    -0.048 A 
ATOM     10  C   UNL A   1      34.156  25.313  24.244  1.00  0.00     0.004 A 
ATOM     11  C   UNL A   1      32.866  24.682  26.173  1.00  0.00     0.004 A 
ATOM     12  C   UNL A   1      33.917  24.063  23.678  1.00  0.00     0.005 A 
ATOM     13  C   UNL A   1      32.663  23.413  25.621  1.00  0.00     0.005 A 
BRANCH   9  14
ATOM     14  C   UNL A   1      33.807  27.028  26.049  1.00  0.00     0.038 C 
BRANCH  14  15
ATOM     15  C   UNL A   1      32.551  27.906  25.862  1.00  0.00    -0.013 C 
ATOM     16  C   UNL A   1      31.601  27.799  27.058  1.00  0.00     0.008 C 
ATOM     17  C   UNL A   1      32.954  29.362  25.637  1.00  0.00     0.008 C 
ENDBRANCH  14  15
ENDBRANCH   9  14
ENDBRANCH   7   8
BRANCH   7  18
ATOM     18  C   UNL A   1      31.820  21.531  22.799  1.00  0.00     0.232 C 
ATOM     19  F   UNL A   1      32.179  20.779  21.726  1.00  0.00    -0.250 F 
ENDBRANCH   7  18
ENDBRANCH   4   7
ENDBRANCH   2   3
ENDBRANCH   1   2
BRANCH   1  20
ATOM     20  C   UNL A   1      37.500  21.537  25.085  1.00  0.00     0.118 C 
BRANCH  20  21
ATOM     21  N   UNL A   1      38.468  20.567  25.591  1.00  0.00    -0.352 N 
ATOM     22  C   UNL A   1      39.625  20.773  26.304  1.00  0.00     0.251 C 
ATOM     23  H   UNL A   1      38.261  19.626  25.390  1.00  0.00     0.163 HD
ATOM     24  O   UNL A   1      40.401  19.844  26.506  1.00  0.00    -0.269 OA
BRANCH  22  25
ATOM     25  C   UNL A   1      39.938  22.128  26.799  1.00  0.00     0.039 A 
ATOM     26  C   UNL A   1      40.948  22.291  27.752  1.00  0.00     0.014 A 
ATOM     27  C   UNL A   1      39.275  23.237  26.274  1.00  0.00     0.014 A 
ATOM     28  C   UNL A   1      41.367  23.578  28.095  1.00  0.00     0.010 A 
ATOM     29  C   UNL A   1      39.753  24.512  26.547  1.00  0.00     0.010 A 
ATOM     30  C   UNL A   1      40.812  24.696  27.450  1.00  0.00    -0.014 A 
BRANCH  30  31
ATOM     31  C   UNL A   1      41.343  26.068  27.656  1.00  0.00     0.031 A 
ATOM     32  C   UNL A   1      42.734  26.413  27.198  1.00  0.00     0.074 A 
ATOM     33  C   UNL A   1      40.628  26.954  28.379  1.00  0.00     0.049 A 
ATOM     34  N   UNL A   1      43.427  27.498  27.416  1.00  0.00    -0.248 NA
ATOM     35  C   UNL A   1      43.453  25.386  26.425  1.00  0.00     0.031 C 
ATOM     36  C   UNL A   1      39.302  26.708  28.952  1.00  0.00     0.029 A 
ATOM     37  N   UNL A   1      40.936  28.227  28.792  1.00  0.00    -0.354 N 
ATOM     38  C   UNL A   1      44.676  27.270  26.853  1.00  0.00     0.074 A 
ATOM     39  C   UNL A   1      44.655  25.930  26.307  1.00  0.00     0.031 C 
ATOM     40  C   UNL A   1      38.912  27.792  29.643  1.00  0.00     0.029 A 
ATOM     41  C   UNL A   1      39.972  28.793  29.596  1.00  0.00     0.049 A 
ATOM     42  H   UNL A   1      41.766  28.692  28.539  1.00  0.00     0.167 HD
ATOM     43  C   UNL A   1      45.734  28.110  26.768  1.00  0.00     0.034 A 
ATOM     44  C   UNL A   1      39.951  29.978  30.238  1.00  0.00     0.034 A 
ATOM     45  C   UNL A   1      45.727  29.461  27.256  1.00  0.00     0.049 A 
ATOM     46  C   UNL A   1      41.124  30.908  30.093  1.00  0.00     0.074 A 
ATOM     47  C   UNL A   1      46.704  30.430  27.115  1.00  0.00     0.029 A 
ATOM     48  N   UNL A   1      44.696  30.034  27.983  1.00  0.00    -0.354 N 
ATOM     49  N   UNL A   1      42.229  30.740  29.409  1.00  0.00    -0.248 NA
ATOM     50  C   UNL A   1      41.038  32.201  30.788  1.00  0.00     0.031 C 
ATOM     51  C   UNL A   1      46.269  31.587  27.770  1.00  0.00     0.029 A 
ATOM     52  C   UNL A   1      45.017  31.340  28.310  1.00  0.00     0.049 A 
ATOM     53  H   UNL A   1      43.858  29.580  28.229  1.00  0.00     0.167 HD
ATOM     54  C   UNL A   1      42.959  31.911  29.568  1.00  0.00     0.074 A 
ATOM     55  C   UNL A   1      42.160  32.793  30.394  1.00  0.00     0.031 C 
ATOM     56  C   UNL A   1      44.189  32.222  29.090  1.00  0.00     0.034 A 
BRANCH  43  57
ATOM     57  C   UNL A   1      46.966  27.612  26.062  1.00  0.00     0.023 A 
ATOM     58  C   UNL A   1      47.913  26.852  26.777  1.00  0.00     0.012 A 
ATOM     59  C   UNL A   1      47.162  27.844  24.686  1.00  0.00     0.148 A 
ATOM     60  C   UNL A   1      49.053  26.358  26.145  1.00  0.00     0.002 A 
ATOM     61  C   UNL A   1      48.280  27.313  24.053  1.00  0.00     0.091 A 
ATOM     62  F   UNL A   1      46.263  28.589  24.027  1.00  0.00    -0.205 F 
ATOM     63  C   UNL A   1      49.231  26.579  24.782  1.00  0.00     0.022 A 
BRANCH  61  64
ATOM     64  S   UNL A   1      48.561  27.481  22.287  1.00  0.00     0.127 S 
ATOM     65  O   UNL A   1      47.317  28.112  21.850  1.00  0.00    -0.237 OA
ATOM     66  O   UNL A   1      49.736  28.353  22.241  1.00  0.00    -0.237 OA
ATOM     67  O   UNL A   1      48.789  26.132  21.789  1.00  0.00    -0.744 OA
ENDBRANCH  61  64
ENDBRANCH  43  57
BRANCH  44  68
ATOM     68  C   UNL A   1      38.749  30.376  31.025  1.00  0.00     0.023 A 
ATOM     69  C   UNL A   1      38.690  30.053  32.395  1.00  0.00     0.012 A 
ATOM     70  C   UNL A   1      37.690  31.099  30.443  1.00  0.00     0.148 A 
ATOM     71  C   UNL A   1      37.587  30.423  33.166  1.00  0.00     0.002 A 
ATOM     72  C   UNL A   1      36.617  31.508  31.230  1.00  0.00     0.091 A 
ATOM     73  F   UNL A   1      37.755  31.382  29.135  1.00  0.00    -0.205 F 
ATOM     74  C   UNL A   1      36.557  31.159  32.587  1.00  0.00     0.022 A 
BRANCH  72  75
ATOM     75  S   UNL A   1      35.313  32.569  30.595  1.00  0.00     0.127 S 
ATOM     76  O   UNL A   1      36.046  33.791  30.282  1.00  0.00    -0.237 OA
ATOM     77  O   UNL A   1      34.846  31.813  29.431  1.00  0.00    -0.237 OA
ATOM     78  O   UNL A   1      34.335  32.670  31.671  1.00  0.00    -0.744 OA
ENDBRANCH  72  75
ENDBRANCH  44  68
BRANCH  56  79
ATOM     79  C   UNL A   1      44.752  33.576  29.434  1.00  0.00     0.023 A 
ATOM     80  C   UNL A   1      45.546  33.721  30.589  1.00  0.00     0.012 A 
ATOM     81  C   UNL A   1      44.576  34.672  28.569  1.00  0.00     0.148 A 
ATOM     82  C   UNL A   1      46.141  34.945  30.888  1.00  0.00     0.002 A 
ATOM     83  C   UNL A   1      45.208  35.878  28.850  1.00  0.00     0.091 A 
ATOM     84  F   UNL A   1      43.803  34.515  27.484  1.00  0.00    -0.205 F 
ATOM     85  C   UNL A   1      45.983  36.018  30.014  1.00  0.00     0.022 A 
BRANCH  83  86
ATOM     86  S   UNL A   1      45.139  37.288  27.739  1.00  0.00     0.127 S 
ATOM     87  O   UNL A   1      45.759  36.745  26.532  1.00  0.00    -0.237 OA
ATOM     88  O   UNL A   1      43.699  37.527  27.631  1.00  0.00    -0.237 OA
ATOM     89  O   UNL A   1      45.881  38.355  28.397  1.00  0.00    -0.744 OA
ENDBRANCH  83  86
ENDBRANCH  56  79
ENDBRANCH  30  31
ENDBRANCH  22  25
ENDBRANCH  20  21
ENDBRANCH   1  20
TORSDOF 17
ENDMDL
MODEL 3
REMARK VINA RESULT:     -11.1      6.168     10.962
REMARK SMILES CC(C)Cc1ccc([C@H](CF)C(=O)NCCCNC(=O)c2ccc(-c3c4nc(c(-c5cccc(S(=O)(=O)[O-])c5F)c5ccc([nH]5)c(-c5cccc(S(=O)(=O)[O-])c5F)c5nc(c(-c6cccc(S(=O)(=O)[O-])c6F)c6ccc3[nH]6)C=C5)C=C4)cc2)cc1
REMARK SMILES IDX 16 1 15 2 14 3 12 4 13 5 9 7 8 8 5 9 6 10 85 11 7 12 84 13
REMARK SMILES IDX 4 14 2 15 1 16 3 17 10 18 11 19 17 20 18 21 19 22 20 24
REMARK SMILES IDX 21 25 22 26 83 27 23 28 82 29 24 30 25 31 26 32 76 33 27 34
REMARK SMILES IDX 81 35 75 36 77 37 28 38 80 39 74 40 73 41 29 43 61 44 41 45
REMARK SMILES IDX 60 46 42 47 45 48 59 49 78 50 43 51 44 52 58 54 79 55 46 56
REMARK SMILES IDX 30 57 31 58 39 59 32 60 34 61 40 62 33 63 35 64 36 65 37 66
REMARK SMILES IDX 38 67 62 68 63 69 71 70 64 71 66 72 72 73 65 74 67 75 68 76
REMARK SMILES IDX 69 77 70 78 47 79 48 80 56 81 49 82 51 83 57 84 50 85 52 86
REMARK SMILES IDX 53 87 54 88 55 89
REMARK H PARENT 14 6 18 23 77 42 45 53
REMARK Flexibility Score: inf
ROOT
ATOM      1  C   UNL A   1      36.022  21.866  24.264  1.00  0.00     0.042 C 
ENDROOT
BRANCH   1   2
ATOM      2  C   UNL A   1      35.130  23.023  23.856  1.00  0.00     0.117 C 
BRANCH   2   3
ATOM      3  N   UNL A   1      34.425  23.605  24.989  1.00  0.00    -0.355 N 
ATOM      4  C   UNL A   1      33.138  23.431  25.394  1.00  0.00     0.230 C 
ATOM      5  O   UNL A   1      32.811  23.939  26.473  1.00  0.00    -0.274 OA
ATOM      6  H   UNL A   1      34.960  24.214  25.546  1.00  0.00     0.163 HD
BRANCH   4   7
ATOM      7  C   UNL A   1      32.117  22.663  24.565  1.00  0.00     0.139 C 
BRANCH   7   8
ATOM      8  C   UNL A   1      32.391  21.174  24.374  1.00  0.00    -0.033 A 
ATOM      9  C   UNL A   1      32.886  18.404  24.064  1.00  0.00    -0.048 A 
ATOM     10  C   UNL A   1      32.427  19.168  22.990  1.00  0.00     0.004 A 
ATOM     11  C   UNL A   1      33.105  19.032  25.293  1.00  0.00     0.004 A 
ATOM     12  C   UNL A   1      32.222  20.538  23.134  1.00  0.00     0.005 A 
ATOM     13  C   UNL A   1      32.859  20.399  25.446  1.00  0.00     0.005 A 
BRANCH   9  14
ATOM     14  C   UNL A   1      33.194  16.941  23.870  1.00  0.00     0.038 C 
BRANCH  14  15
ATOM     15  C   UNL A   1      33.536  16.235  25.199  1.00  0.00    -0.013 C 
ATOM     16  C   UNL A   1      32.634  15.023  25.447  1.00  0.00     0.008 C 
ATOM     17  C   UNL A   1      35.004  15.812  25.209  1.00  0.00     0.008 C 
ENDBRANCH  14  15
ENDBRANCH   9  14
ENDBRANCH   7   8
BRANCH   7  18
ATOM     18  C   UNL A   1      31.805  23.468  23.297  1.00  0.00     0.232 C 
ATOM     19  F   UNL A   1      31.908  24.804  23.519  1.00  0.00    -0.250 F 
ENDBRANCH   7  18
ENDBRANCH   4   7
ENDBRANCH   2   3
ENDBRANCH   1   2
BRANCH   1  20
ATOM     20  C   UNL A   1      37.128  22.262  25.234  1.00  0.00     0.118 C 
BRANCH  20  21
ATOM     21  N   UNL A   1      38.090  21.190  25.478  1.00  0.00    -0.352 N 
ATOM     22  C   UNL A   1      39.318  21.237  26.094  1.00  0.00     0.251 C 
ATOM     23  H   UNL A   1      37.819  20.302  25.151  1.00  0.00     0.163 HD
ATOM     24  O   UNL A   1      40.063  20.262  26.066  1.00  0.00    -0.269 OA
BRANCH  22  25
ATOM     25  C   UNL A   1      39.743  22.481  26.766  1.00  0.00     0.039 A 
ATOM     26  C   UNL A   1      40.719  22.420  27.764  1.00  0.00     0.014 A 
ATOM     27  C   UNL A   1      39.220  23.710  26.363  1.00  0.00     0.014 A 
ATOM     28  C   UNL A   1      41.249  23.604  28.280  1.00  0.00     0.010 A 
ATOM     29  C   UNL A   1      39.811  24.884  26.809  1.00  0.00     0.010 A 
ATOM     30  C   UNL A   1      40.840  24.845  27.763  1.00  0.00    -0.014 A 
BRANCH  30  31
ATOM     31  C   UNL A   1      41.497  26.118  28.156  1.00  0.00     0.031 A 
ATOM     32  C   UNL A   1      40.696  27.202  28.823  1.00  0.00     0.074 A 
ATOM     33  C   UNL A   1      42.773  26.348  27.783  1.00  0.00     0.049 A 
ATOM     34  N   UNL A   1      41.047  28.429  29.106  1.00  0.00    -0.248 NA
ATOM     35  C   UNL A   1      39.307  26.875  29.186  1.00  0.00     0.031 C 
ATOM     36  C   UNL A   1      43.627  25.408  27.054  1.00  0.00     0.029 A 
ATOM     37  N   UNL A   1      43.560  27.464  27.929  1.00  0.00    -0.354 N 
ATOM     38  C   UNL A   1      39.913  29.034  29.634  1.00  0.00     0.074 A 
ATOM     39  C   UNL A   1      38.855  28.048  29.607  1.00  0.00     0.031 C 
ATOM     40  C   UNL A   1      44.815  25.985  26.815  1.00  0.00     0.029 A 
ATOM     41  C   UNL A   1      44.797  27.347  27.336  1.00  0.00     0.049 A 
ATOM     42  H   UNL A   1      43.268  28.271  28.411  1.00  0.00     0.167 HD
ATOM     43  C   UNL A   1      39.773  30.287  30.126  1.00  0.00     0.034 A 
ATOM     44  C   UNL A   1      45.798  28.241  27.212  1.00  0.00     0.034 A 
ATOM     45  C   UNL A   1      40.844  31.241  30.210  1.00  0.00     0.049 A 
ATOM     46  C   UNL A   1      45.629  29.613  27.805  1.00  0.00     0.074 A 
ATOM     47  C   UNL A   1      40.835  32.493  30.799  1.00  0.00     0.029 A 
ATOM     48  N   UNL A   1      42.113  31.054  29.685  1.00  0.00    -0.354 N 
ATOM     49  N   UNL A   1      44.605  30.109  28.456  1.00  0.00    -0.248 NA
ATOM     50  C   UNL A   1      46.762  30.540  27.669  1.00  0.00     0.031 C 
ATOM     51  C   UNL A   1      42.097  33.069  30.617  1.00  0.00     0.029 A 
ATOM     52  C   UNL A   1      42.893  32.171  29.924  1.00  0.00     0.049 A 
ATOM     53  H   UNL A   1      42.414  30.244  29.213  1.00  0.00     0.167 HD
ATOM     54  C   UNL A   1      44.977  31.395  28.828  1.00  0.00     0.074 A 
ATOM     55  C   UNL A   1      46.331  31.593  28.353  1.00  0.00     0.031 C 
ATOM     56  C   UNL A   1      44.256  32.334  29.488  1.00  0.00     0.034 A 
BRANCH  43  57
ATOM     57  C   UNL A   1      38.427  30.674  30.679  1.00  0.00     0.023 A 
ATOM     58  C   UNL A   1      38.112  30.357  32.015  1.00  0.00     0.012 A 
ATOM     59  C   UNL A   1      37.500  31.395  29.901  1.00  0.00     0.148 A 
ATOM     60  C   UNL A   1      36.883  30.722  32.562  1.00  0.00     0.002 A 
ATOM     61  C   UNL A   1      36.293  31.792  30.466  1.00  0.00     0.091 A 
ATOM     62  F   UNL A   1      37.807  31.667  28.625  1.00  0.00    -0.205 F 
ATOM     63  C   UNL A   1      35.979  31.447  31.791  1.00  0.00     0.022 A 
BRANCH  61  64
ATOM     64  S   UNL A   1      35.094  32.792  29.579  1.00  0.00     0.127 S 
ATOM     65  O   UNL A   1      34.111  33.071  30.626  1.00  0.00    -0.237 OA
ATOM     66  O   UNL A   1      35.894  33.947  29.171  1.00  0.00    -0.237 OA
ATOM     67  O   UNL A   1      34.620  31.965  28.478  1.00  0.00    -0.744 OA
ENDBRANCH  61  64
ENDBRANCH  43  57
BRANCH  44  68
ATOM     68  C   UNL A   1      47.072  27.842  26.550  1.00  0.00     0.023 A 
ATOM     69  C   UNL A   1      48.139  27.374  27.342  1.00  0.00     0.012 A 
ATOM     70  C   UNL A   1      47.223  27.885  25.150  1.00  0.00     0.148 A 
ATOM     71  C   UNL A   1      49.341  26.978  26.754  1.00  0.00     0.002 A 
ATOM     72  C   UNL A   1      48.406  27.440  24.568  1.00  0.00     0.091 A 
ATOM     73  F   UNL A   1      46.203  28.349  24.414  1.00  0.00    -0.205 F 
ATOM     74  C   UNL A   1      49.470  27.000  25.368  1.00  0.00     0.022 A 
BRANCH  72  75
ATOM     75  S   UNL A   1      48.609  27.314  22.787  1.00  0.00     0.127 S 
ATOM     76  O   UNL A   1      48.332  25.900  22.553  1.00  0.00    -0.237 OA
ATOM     77  O   UNL A   1      47.581  28.234  22.297  1.00  0.00    -0.237 OA
ATOM     78  O   UNL A   1      49.974  27.748  22.519  1.00  0.00    -0.744 OA
ENDBRANCH  72  75
ENDBRANCH  44  68
BRANCH  56  79
ATOM     79  C   UNL A   1      44.912  33.664  29.750  1.00  0.00     0.023 A 
ATOM     80  C   UNL A   1      45.693  33.832  30.910  1.00  0.00     0.012 A 
ATOM     81  C   UNL A   1      44.835  34.706  28.806  1.00  0.00     0.148 A 
ATOM     82  C   UNL A   1      46.372  35.028  31.137  1.00  0.00     0.002 A 
ATOM     83  C   UNL A   1      45.549  35.879  29.018  1.00  0.00     0.091 A 
ATOM     84  F   UNL A   1      44.072  34.528  27.717  1.00  0.00    -0.205 F 
ATOM     85  C   UNL A   1      46.311  36.045  30.188  1.00  0.00     0.022 A 
BRANCH  83  86
ATOM     86  S   UNL A   1      45.606  37.208  27.810  1.00  0.00     0.127 S 
ATOM     87  O   UNL A   1      46.138  36.519  26.636  1.00  0.00    -0.237 OA
ATOM     88  O   UNL A   1      44.198  37.592  27.706  1.00  0.00    -0.237 OA
ATOM     89  O   UNL A   1      46.471  38.232  28.379  1.00  0.00    -0.744 OA
ENDBRANCH  83  86
ENDBRANCH  56  79
ENDBRANCH  30  31
ENDBRANCH  22  25
ENDBRANCH  20  21
ENDBRANCH   1  20
TORSDOF 17
ENDMDL
