MODEL 1
REMARK VINA RESULT:     -12.7      0.000      0.000
REMARK SMILES CCNC(=O)c1ccc(NC(=O)CC2(C(=O)NCCCNC(=O)c3ccc(-c4c5nc(c(-c6cccc(S(=O)(=O)[O-])c6F)c6ccc([nH]6)c(-c6cccc(S(=O)(=O)[O-])c6F)c6nc(c(-c7cccc(S(=O)(=O)[O-])c7F)c7ccc4[nH]7)C=C6)C=C5)cc3)CCCC2)cc1
REMARK SMILES IDX 18 1 17 2 15 3 16 4 14 6 87 7 90 8 88 9 89 10 13 11 11 12
REMARK SMILES IDX 10 13 12 15 9 16 6 17 7 18 92 19 8 20 91 21 4 22 3 23 5 25
REMARK SMILES IDX 2 26 1 27 19 28 20 29 21 30 22 31 23 33 24 34 25 35 86 36
REMARK SMILES IDX 26 37 85 38 27 39 28 40 29 41 79 42 30 43 84 44 78 45 80 46
REMARK SMILES IDX 31 47 83 48 77 49 76 50 32 52 64 53 44 54 63 55 45 56 48 57
REMARK SMILES IDX 62 58 81 59 46 60 47 61 61 63 82 64 49 65 33 66 34 67 42 68
REMARK SMILES IDX 35 69 37 70 43 71 36 72 38 73 39 74 40 75 41 76 65 77 66 78
REMARK SMILES IDX 74 79 67 80 69 81 75 82 68 83 70 84 71 85 72 86 73 87 50 88
REMARK SMILES IDX 51 89 59 90 52 91 54 92 60 93 53 94 55 95 56 96 57 97 58 98
REMARK H PARENT 17 5 10 14 3 24 21 32 80 51 48 62
REMARK Flexibility Score: inf
ROOT
ATOM      1  C   UNL A   1      32.527  26.914  25.211  1.00  0.00     0.117 C 
ENDROOT
BRANCH   1   2
ATOM      2  N   UNL A   1      33.023  26.724  23.867  1.00  0.00    -0.356 N 
ATOM      3  C   UNL A   1      33.536  25.627  23.242  1.00  0.00     0.226 C 
ATOM      4  O   UNL A   1      33.782  25.771  22.041  1.00  0.00    -0.274 OA
ATOM      5  H   UNL A   1      32.982  27.529  23.302  1.00  0.00     0.163 HD
BRANCH   3   6
ATOM      6  C   UNL A   1      33.824  24.297  23.993  1.00  0.00     0.058 C 
ATOM      7  C   UNL A   1      34.902  24.511  25.076  1.00  0.00     0.017 C 
ATOM      8  C   UNL A   1      34.428  23.277  22.988  1.00  0.00     0.017 C 
ATOM      9  C   UNL A   1      36.077  23.581  24.780  1.00  0.00     0.001 C 
ATOM     10  C   UNL A   1      35.840  22.926  23.433  1.00  0.00     0.001 C 
BRANCH   6  11
ATOM     11  C   UNL A   1      32.455  23.715  24.496  1.00  0.00     0.117 C 
BRANCH  11  12
ATOM     12  C   UNL A   1      32.380  23.146  25.903  1.00  0.00     0.225 C 
ATOM     13  N   UNL A   1      32.658  21.835  26.186  1.00  0.00    -0.326 N 
ATOM     14  H   UNL A   1      32.504  21.578  27.123  1.00  0.00     0.169 HD
ATOM     15  O   UNL A   1      32.109  23.875  26.864  1.00  0.00    -0.275 OA
BRANCH  13  16
ATOM     16  C   UNL A   1      33.122  20.796  25.364  1.00  0.00     0.041 A 
ATOM     17  C   UNL A   1      33.734  18.418  24.044  1.00  0.00     0.039 A 
ATOM     18  C   UNL A   1      34.731  19.094  24.744  1.00  0.00     0.016 A 
ATOM     19  C   UNL A   1      32.447  18.953  23.943  1.00  0.00     0.016 A 
ATOM     20  C   UNL A   1      34.425  20.294  25.392  1.00  0.00     0.027 A 
ATOM     21  C   UNL A   1      32.155  20.164  24.570  1.00  0.00     0.027 A 
BRANCH  17  22
ATOM     22  C   UNL A   1      34.012  17.068  23.525  1.00  0.00     0.251 C 
ATOM     23  N   UNL A   1      33.975  16.006  24.386  1.00  0.00    -0.352 N 
ATOM     24  H   UNL A   1      34.321  15.153  24.038  1.00  0.00     0.163 HD
ATOM     25  O   UNL A   1      34.274  16.917  22.338  1.00  0.00    -0.269 OA
BRANCH  23  26
ATOM     26  C   UNL A   1      33.487  15.987  25.751  1.00  0.00     0.112 C 
ATOM     27  C   UNL A   1      32.152  15.274  25.837  1.00  0.00     0.027 C 
ENDBRANCH  23  26
ENDBRANCH  17  22
ENDBRANCH  13  16
ENDBRANCH  11  12
ENDBRANCH   6  11
ENDBRANCH   3   6
ENDBRANCH   1   2
BRANCH   1  28
ATOM     28  C   UNL A   1      32.031  28.317  25.472  1.00  0.00     0.042 C 
BRANCH  28  29
ATOM     29  C   UNL A   1      33.152  29.325  25.380  1.00  0.00     0.118 C 
BRANCH  29  30
ATOM     30  N   UNL A   1      32.727  30.652  25.826  1.00  0.00    -0.352 N 
ATOM     31  C   UNL A   1      33.149  31.400  26.893  1.00  0.00     0.251 C 
ATOM     32  H   UNL A   1      32.029  31.073  25.273  1.00  0.00     0.163 HD
ATOM     33  O   UNL A   1      32.494  32.374  27.253  1.00  0.00    -0.269 OA
BRANCH  31  34
ATOM     34  C   UNL A   1      34.392  31.028  27.592  1.00  0.00     0.039 A 
ATOM     35  C   UNL A   1      35.389  31.985  27.784  1.00  0.00     0.014 A 
ATOM     36  C   UNL A   1      34.569  29.722  28.052  1.00  0.00     0.014 A 
ATOM     37  C   UNL A   1      36.549  31.629  28.471  1.00  0.00     0.010 A 
ATOM     38  C   UNL A   1      35.643  29.417  28.865  1.00  0.00     0.010 A 
ATOM     39  C   UNL A   1      36.672  30.348  29.035  1.00  0.00    -0.014 A 
BRANCH  39  40
ATOM     40  C   UNL A   1      37.897  29.930  29.751  1.00  0.00     0.031 A 
ATOM     41  C   UNL A   1      38.153  30.439  31.146  1.00  0.00     0.074 A 
ATOM     42  C   UNL A   1      38.802  29.160  29.121  1.00  0.00     0.049 A 
ATOM     43  N   UNL A   1      39.175  30.215  31.929  1.00  0.00    -0.248 NA
ATOM     44  C   UNL A   1      37.154  31.358  31.726  1.00  0.00     0.031 C 
ATOM     45  C   UNL A   1      38.707  28.699  27.732  1.00  0.00     0.029 A 
ATOM     46  N   UNL A   1      39.990  28.641  29.562  1.00  0.00    -0.354 N 
ATOM     47  C   UNL A   1      38.961  30.993  33.062  1.00  0.00     0.074 A 
ATOM     48  C   UNL A   1      37.748  31.744  32.843  1.00  0.00     0.031 C 
ATOM     49  C   UNL A   1      39.777  27.941  27.447  1.00  0.00     0.029 A 
ATOM     50  C   UNL A   1      40.645  27.887  28.618  1.00  0.00     0.049 A 
ATOM     51  H   UNL A   1      40.342  28.793  30.469  1.00  0.00     0.167 HD
ATOM     52  C   UNL A   1      39.685  31.044  34.204  1.00  0.00     0.034 A 
ATOM     53  C   UNL A   1      41.811  27.219  28.697  1.00  0.00     0.034 A 
ATOM     54  C   UNL A   1      40.852  30.242  34.436  1.00  0.00     0.049 A 
ATOM     55  C   UNL A   1      42.553  27.226  30.006  1.00  0.00     0.074 A 
ATOM     56  C   UNL A   1      41.609  30.133  35.587  1.00  0.00     0.029 A 
ATOM     57  N   UNL A   1      41.434  29.409  33.491  1.00  0.00    -0.354 N 
ATOM     58  N   UNL A   1      42.248  27.835  31.127  1.00  0.00    -0.248 NA
ATOM     59  C   UNL A   1      43.777  26.418  30.075  1.00  0.00     0.031 C 
ATOM     60  C   UNL A   1      42.663  29.249  35.331  1.00  0.00     0.029 A 
ATOM     61  C   UNL A   1      42.543  28.785  34.031  1.00  0.00     0.049 A 
ATOM     62  H   UNL A   1      41.104  29.280  32.573  1.00  0.00     0.167 HD
ATOM     63  C   UNL A   1      43.222  27.459  32.043  1.00  0.00     0.074 A 
ATOM     64  C   UNL A   1      44.109  26.544  31.352  1.00  0.00     0.031 C 
ATOM     65  C   UNL A   1      43.384  27.846  33.334  1.00  0.00     0.034 A 
BRANCH  52  66
ATOM     66  C   UNL A   1      39.192  31.949  35.304  1.00  0.00     0.023 A 
ATOM     67  C   UNL A   1      39.400  33.342  35.210  1.00  0.00     0.012 A 
ATOM     68  C   UNL A   1      38.495  31.430  36.412  1.00  0.00     0.148 A 
ATOM     69  C   UNL A   1      38.961  34.198  36.219  1.00  0.00     0.002 A 
ATOM     70  C   UNL A   1      38.016  32.296  37.389  1.00  0.00     0.091 A 
ATOM     71  F   UNL A   1      38.329  30.103  36.499  1.00  0.00    -0.205 F 
ATOM     72  C   UNL A   1      38.260  33.676  37.302  1.00  0.00     0.022 A 
BRANCH  70  73
ATOM     73  S   UNL A   1      37.030  31.735  38.781  1.00  0.00     0.127 S 
ATOM     74  O   UNL A   1      37.956  31.926  39.896  1.00  0.00    -0.237 OA
ATOM     75  O   UNL A   1      35.906  32.671  38.755  1.00  0.00    -0.237 OA
ATOM     76  O   UNL A   1      36.677  30.352  38.493  1.00  0.00    -0.744 OA
ENDBRANCH  70  73
ENDBRANCH  52  66
BRANCH  53  77
ATOM     77  C   UNL A   1      42.296  26.424  27.536  1.00  0.00     0.023 A 
ATOM     78  C   UNL A   1      43.111  27.042  26.566  1.00  0.00     0.012 A 
ATOM     79  C   UNL A   1      41.983  25.059  27.400  1.00  0.00     0.148 A 
ATOM     80  C   UNL A   1      43.572  26.324  25.463  1.00  0.00     0.002 A 
ATOM     81  C   UNL A   1      42.493  24.336  26.329  1.00  0.00     0.091 A 
ATOM     82  F   UNL A   1      41.203  24.491  28.331  1.00  0.00    -0.205 F 
ATOM     83  C   UNL A   1      43.271  24.970  25.348  1.00  0.00     0.022 A 
BRANCH  81  84
ATOM     84  S   UNL A   1      42.265  22.561  26.171  1.00  0.00     0.127 S 
ATOM     85  O   UNL A   1      42.979  22.277  24.928  1.00  0.00    -0.237 OA
ATOM     86  O   UNL A   1      42.916  22.064  27.383  1.00  0.00    -0.237 OA
ATOM     87  O   UNL A   1      40.824  22.351  26.135  1.00  0.00    -0.744 OA
ENDBRANCH  81  84
ENDBRANCH  53  77
BRANCH  65  88
ATOM     88  C   UNL A   1      44.545  27.256  34.088  1.00  0.00     0.023 A 
ATOM     89  C   UNL A   1      45.816  27.858  34.000  1.00  0.00     0.012 A 
ATOM     90  C   UNL A   1      44.365  26.136  34.923  1.00  0.00     0.148 A 
ATOM     91  C   UNL A   1      46.901  27.323  34.693  1.00  0.00     0.002 A 
ATOM     92  C   UNL A   1      45.437  25.644  35.654  1.00  0.00     0.091 A 
ATOM     93  F   UNL A   1      43.151  25.568  34.980  1.00  0.00    -0.205 F 
ATOM     94  C   UNL A   1      46.710  26.225  35.528  1.00  0.00     0.022 A 
BRANCH  92  95
ATOM     95  S   UNL A   1      45.256  24.298  36.830  1.00  0.00     0.127 S 
ATOM     96  O   UNL A   1      45.004  23.163  35.945  1.00  0.00    -0.237 OA
ATOM     97  O   UNL A   1      46.563  24.282  37.488  1.00  0.00    -0.237 OA
ATOM     98  O   UNL A   1      44.150  24.676  37.700  1.00  0.00    -0.744 OA
ENDBRANCH  92  95
ENDBRANCH  65  88
ENDBRANCH  39  40
ENDBRANCH  31  34
ENDBRANCH  29  30
ENDBRANCH  28  29
ENDBRANCH   1  28
TORSDOF 18
ENDMDL
MODEL 2
REMARK VINA RESULT:     -12.3      2.616      3.232
REMARK SMILES CCNC(=O)c1ccc(NC(=O)CC2(C(=O)NCCCNC(=O)c3ccc(-c4c5nc(c(-c6cccc(S(=O)(=O)[O-])c6F)c6ccc([nH]6)c(-c6cccc(S(=O)(=O)[O-])c6F)c6nc(c(-c7cccc(S(=O)(=O)[O-])c7F)c7ccc4[nH]7)C=C6)C=C5)cc3)CCCC2)cc1
REMARK SMILES IDX 18 1 17 2 15 3 16 4 14 6 87 7 90 8 88 9 89 10 13 11 11 12
REMARK SMILES IDX 10 13 12 15 9 16 6 17 7 18 92 19 8 20 91 21 4 22 3 23 5 25
REMARK SMILES IDX 2 26 1 27 19 28 20 29 21 30 22 31 23 33 24 34 25 35 86 36
REMARK SMILES IDX 26 37 85 38 27 39 28 40 29 41 79 42 30 43 84 44 78 45 80 46
REMARK SMILES IDX 31 47 83 48 77 49 76 50 32 52 64 53 44 54 63 55 45 56 48 57
REMARK SMILES IDX 62 58 81 59 46 60 47 61 61 63 82 64 49 65 33 66 34 67 42 68
REMARK SMILES IDX 35 69 37 70 43 71 36 72 38 73 39 74 40 75 41 76 65 77 66 78
REMARK SMILES IDX 74 79 67 80 69 81 75 82 68 83 70 84 71 85 72 86 73 87 50 88
REMARK SMILES IDX 51 89 59 90 52 91 54 92 60 93 53 94 55 95 56 96 57 97 58 98
REMARK H PARENT 17 5 10 14 3 24 21 32 80 51 48 62
REMARK Flexibility Score: inf
ROOT
ATOM      1  C   UNL A   1      33.153  27.165  25.019  1.00  0.00     0.117 C 
ENDROOT
BRANCH   1   2
ATOM      2  N   UNL A   1      33.477  26.839  23.648  1.00  0.00    -0.356 N 
ATOM      3  C   UNL A   1      33.782  25.653  23.050  1.00  0.00     0.226 C 
ATOM      4  O   UNL A   1      33.915  25.700  21.825  1.00  0.00    -0.274 OA
ATOM      5  H   UNL A   1      33.476  27.611  23.037  1.00  0.00     0.163 HD
BRANCH   3   6
ATOM      6  C   UNL A   1      33.981  24.340  23.857  1.00  0.00     0.058 C 
ATOM      7  C   UNL A   1      35.081  24.523  24.923  1.00  0.00     0.017 C 
ATOM      8  C   UNL A   1      34.503  23.238  22.893  1.00  0.00     0.017 C 
ATOM      9  C   UNL A   1      36.185  23.500  24.662  1.00  0.00     0.001 C 
ATOM     10  C   UNL A   1      35.890  22.806  23.345  1.00  0.00     0.001 C 
BRANCH   6  11
ATOM     11  C   UNL A   1      32.579  23.879  24.392  1.00  0.00     0.117 C 
BRANCH  11  12
ATOM     12  C   UNL A   1      32.484  23.339  25.810  1.00  0.00     0.225 C 
ATOM     13  N   UNL A   1      32.690  22.019  26.113  1.00  0.00    -0.326 N 
ATOM     14  H   UNL A   1      32.530  21.787  27.055  1.00  0.00     0.169 HD
ATOM     15  O   UNL A   1      32.262  24.097  26.759  1.00  0.00    -0.275 OA
BRANCH  13  16
ATOM     16  C   UNL A   1      33.089  20.941  25.306  1.00  0.00     0.041 A 
ATOM     17  C   UNL A   1      33.490  18.533  23.961  1.00  0.00     0.039 A 
ATOM     18  C   UNL A   1      34.484  19.024  24.805  1.00  0.00     0.016 A 
ATOM     19  C   UNL A   1      32.323  19.267  23.732  1.00  0.00     0.016 A 
ATOM     20  C   UNL A   1      34.286  20.240  25.466  1.00  0.00     0.027 A 
ATOM     21  C   UNL A   1      32.144  20.491  24.374  1.00  0.00     0.027 A 
BRANCH  17  22
ATOM     22  C   UNL A   1      33.621  17.170  23.417  1.00  0.00     0.251 C 
ATOM     23  N   UNL A   1      33.148  16.116  24.150  1.00  0.00    -0.352 N 
ATOM     24  H   UNL A   1      33.397  15.219  23.830  1.00  0.00     0.163 HD
ATOM     25  O   UNL A   1      34.150  17.001  22.326  1.00  0.00    -0.269 OA
BRANCH  23  26
ATOM     26  C   UNL A   1      32.325  16.162  25.342  1.00  0.00     0.112 C 
ATOM     27  C   UNL A   1      32.443  14.874  26.131  1.00  0.00     0.027 C 
ENDBRANCH  23  26
ENDBRANCH  17  22
ENDBRANCH  13  16
ENDBRANCH  11  12
ENDBRANCH   6  11
ENDBRANCH   3   6
ENDBRANCH   1   2
BRANCH   1  28
ATOM     28  C   UNL A   1      34.038  28.240  25.603  1.00  0.00     0.042 C 
BRANCH  28  29
ATOM     29  C   UNL A   1      33.704  28.503  27.053  1.00  0.00     0.118 C 
BRANCH  29  30
ATOM     30  N   UNL A   1      33.627  29.935  27.341  1.00  0.00    -0.352 N 
ATOM     31  C   UNL A   1      34.459  30.730  28.085  1.00  0.00     0.251 C 
ATOM     32  H   UNL A   1      32.859  30.400  26.937  1.00  0.00     0.163 HD
ATOM     33  O   UNL A   1      34.090  31.851  28.424  1.00  0.00    -0.269 OA
BRANCH  31  34
ATOM     34  C   UNL A   1      35.792  30.229  28.463  1.00  0.00     0.039 A 
ATOM     35  C   UNL A   1      36.881  30.462  27.623  1.00  0.00     0.014 A 
ATOM     36  C   UNL A   1      35.959  29.520  29.654  1.00  0.00     0.014 A 
ATOM     37  C   UNL A   1      38.143  30.008  28.005  1.00  0.00     0.010 A 
ATOM     38  C   UNL A   1      37.229  29.212  30.102  1.00  0.00     0.010 A 
ATOM     39  C   UNL A   1      38.327  29.399  29.258  1.00  0.00    -0.014 A 
BRANCH  39  40
ATOM     40  C   UNL A   1      39.647  28.886  29.685  1.00  0.00     0.031 A 
ATOM     41  C   UNL A   1      40.385  29.573  30.804  1.00  0.00     0.074 A 
ATOM     42  C   UNL A   1      40.204  27.858  29.020  1.00  0.00     0.049 A 
ATOM     43  N   UNL A   1      41.559  29.298  31.307  1.00  0.00    -0.248 NA
ATOM     44  C   UNL A   1      39.743  30.754  31.414  1.00  0.00     0.031 C 
ATOM     45  C   UNL A   1      39.626  27.187  27.852  1.00  0.00     0.029 A 
ATOM     46  N   UNL A   1      41.391  27.206  29.223  1.00  0.00    -0.354 N 
ATOM     47  C   UNL A   1      41.810  30.288  32.250  1.00  0.00     0.074 A 
ATOM     48  C   UNL A   1      40.699  31.208  32.209  1.00  0.00     0.031 C 
ATOM     49  C   UNL A   1      40.446  26.200  27.461  1.00  0.00     0.029 A 
ATOM     50  C   UNL A   1      41.618  26.186  28.330  1.00  0.00     0.049 A 
ATOM     51  H   UNL A   1      42.022  27.444  29.940  1.00  0.00     0.167 HD
ATOM     52  C   UNL A   1      42.850  30.399  33.108  1.00  0.00     0.034 A 
ATOM     53  C   UNL A   1      42.653  25.331  28.234  1.00  0.00     0.034 A 
ATOM     54  C   UNL A   1      43.916  29.441  33.184  1.00  0.00     0.049 A 
ATOM     55  C   UNL A   1      43.756  25.425  29.253  1.00  0.00     0.074 A 
ATOM     56  C   UNL A   1      44.970  29.392  34.077  1.00  0.00     0.029 A 
ATOM     57  N   UNL A   1      44.063  28.359  32.328  1.00  0.00    -0.354 N 
ATOM     58  N   UNL A   1      43.894  26.268  30.247  1.00  0.00    -0.248 NA
ATOM     59  C   UNL A   1      44.824  24.421  29.163  1.00  0.00     0.031 C 
ATOM     60  C   UNL A   1      45.767  28.291  33.747  1.00  0.00     0.029 A 
ATOM     61  C   UNL A   1      45.193  27.638  32.668  1.00  0.00     0.049 A 
ATOM     62  H   UNL A   1      43.452  28.137  31.589  1.00  0.00     0.167 HD
ATOM     63  C   UNL A   1      45.045  25.878  30.921  1.00  0.00     0.074 A 
ATOM     64  C   UNL A   1      45.546  24.703  30.237  1.00  0.00     0.031 C 
ATOM     65  C   UNL A   1      45.646  26.447  31.997  1.00  0.00     0.034 A 
BRANCH  52  66
ATOM     66  C   UNL A   1      42.844  31.560  34.068  1.00  0.00     0.023 A 
ATOM     67  C   UNL A   1      43.429  32.788  33.686  1.00  0.00     0.012 A 
ATOM     68  C   UNL A   1      42.234  31.453  35.332  1.00  0.00     0.148 A 
ATOM     69  C   UNL A   1      43.443  33.873  34.560  1.00  0.00     0.002 A 
ATOM     70  C   UNL A   1      42.207  32.556  36.178  1.00  0.00     0.091 A 
ATOM     71  F   UNL A   1      41.707  30.273  35.689  1.00  0.00    -0.205 F 
ATOM     72  C   UNL A   1      42.823  33.761  35.801  1.00  0.00     0.022 A 
BRANCH  70  73
ATOM     73  S   UNL A   1      41.362  32.541  37.763  1.00  0.00     0.127 S 
ATOM     74  O   UNL A   1      40.034  32.063  37.385  1.00  0.00    -0.237 OA
ATOM     75  O   UNL A   1      42.162  31.582  38.525  1.00  0.00    -0.237 OA
ATOM     76  O   UNL A   1      41.415  33.909  38.261  1.00  0.00    -0.744 OA
ENDBRANCH  70  73
ENDBRANCH  52  66
BRANCH  53  77
ATOM     77  C   UNL A   1      42.647  24.266  27.194  1.00  0.00     0.023 A 
ATOM     78  C   UNL A   1      43.305  24.493  25.968  1.00  0.00     0.012 A 
ATOM     79  C   UNL A   1      42.024  23.025  27.419  1.00  0.00     0.148 A 
ATOM     80  C   UNL A   1      43.307  23.517  24.972  1.00  0.00     0.002 A 
ATOM     81  C   UNL A   1      42.079  22.036  26.444  1.00  0.00     0.091 A 
ATOM     82  F   UNL A   1      41.399  22.831  28.590  1.00  0.00    -0.205 F 
ATOM     83  C   UNL A   1      42.703  22.286  25.212  1.00  0.00     0.022 A 
BRANCH  81  84
ATOM     84  S   UNL A   1      41.443  20.378  26.717  1.00  0.00     0.127 S 
ATOM     85  O   UNL A   1      40.015  20.630  26.888  1.00  0.00    -0.237 OA
ATOM     86  O   UNL A   1      41.806  19.706  25.469  1.00  0.00    -0.237 OA
ATOM     87  O   UNL A   1      42.143  19.878  27.893  1.00  0.00    -0.744 OA
ENDBRANCH  81  84
ENDBRANCH  53  77
BRANCH  65  88
ATOM     88  C   UNL A   1      46.895  25.787  32.516  1.00  0.00     0.023 A 
ATOM     89  C   UNL A   1      46.819  24.912  33.618  1.00  0.00     0.012 A 
ATOM     90  C   UNL A   1      48.134  25.995  31.881  1.00  0.00     0.148 A 
ATOM     91  C   UNL A   1      47.967  24.293  34.110  1.00  0.00     0.002 A 
ATOM     92  C   UNL A   1      49.263  25.331  32.342  1.00  0.00     0.091 A 
ATOM     93  F   UNL A   1      48.189  26.845  30.845  1.00  0.00    -0.205 F 
ATOM     94  C   UNL A   1      49.185  24.493  33.466  1.00  0.00     0.022 A 
BRANCH  92  95
ATOM     95  S   UNL A   1      50.850  25.452  31.509  1.00  0.00     0.127 S 
ATOM     96  O   UNL A   1      51.214  26.844  31.764  1.00  0.00    -0.237 OA
ATOM     97  O   UNL A   1      51.656  24.467  32.232  1.00  0.00    -0.237 OA
ATOM     98  O   UNL A   1      50.595  25.113  30.115  1.00  0.00    -0.744 OA
ENDBRANCH  92  95
ENDBRANCH  65  88
ENDBRANCH  39  40
ENDBRANCH  31  34
ENDBRANCH  29  30
ENDBRANCH  28  29
ENDBRANCH   1  28
TORSDOF 18
ENDMDL
MODEL 3
REMARK VINA RESULT:     -12.2      2.663      4.894
REMARK SMILES CCNC(=O)c1ccc(NC(=O)CC2(C(=O)NCCCNC(=O)c3ccc(-c4c5nc(c(-c6cccc(S(=O)(=O)[O-])c6F)c6ccc([nH]6)c(-c6cccc(S(=O)(=O)[O-])c6F)c6nc(c(-c7cccc(S(=O)(=O)[O-])c7F)c7ccc4[nH]7)C=C6)C=C5)cc3)CCCC2)cc1
REMARK SMILES IDX 18 1 17 2 15 3 16 4 14 6 87 7 90 8 88 9 89 10 13 11 11 12
REMARK SMILES IDX 10 13 12 15 9 16 6 17 7 18 92 19 8 20 91 21 4 22 3 23 5 25
REMARK SMILES IDX 2 26 1 27 19 28 20 29 21 30 22 31 23 33 24 34 25 35 86 36
REMARK SMILES IDX 26 37 85 38 27 39 28 40 29 41 79 42 30 43 84 44 78 45 80 46
REMARK SMILES IDX 31 47 83 48 77 49 76 50 32 52 64 53 44 54 63 55 45 56 48 57
REMARK SMILES IDX 62 58 81 59 46 60 47 61 61 63 82 64 49 65 33 66 34 67 42 68
REMARK SMILES IDX 35 69 37 70 43 71 36 72 38 73 39 74 40 75 41 76 65 77 66 78
REMARK SMILES IDX 74 79 67 80 69 81 75 82 68 83 70 84 71 85 72 86 73 87 50 88
REMARK SMILES IDX 51 89 59 90 52 91 54 92 60 93 53 94 55 95 56 96 57 97 58 98
REMARK H PARENT 17 5 10 14 3 24 21 32 80 51 48 62
REMARK Flexibility Score: inf
ROOT
ATOM      1  C   UNL A   1      33.816  26.493  25.460  1.00  0.00     0.117 C 
ENDROOT
BRANCH   1   2
ATOM      2  N   UNL A   1      32.742  25.866  26.196  1.00  0.00    -0.356 N 
ATOM      3  C   UNL A   1      32.449  24.554  26.422  1.00  0.00     0.226 C 
ATOM      4  O   UNL A   1      31.501  24.351  27.185  1.00  0.00    -0.274 OA
ATOM      5  H   UNL A   1      32.110  26.498  26.608  1.00  0.00     0.163 HD
BRANCH   3   6
ATOM      6  C   UNL A   1      33.231  23.396  25.743  1.00  0.00     0.058 C 
ATOM      7  C   UNL A   1      32.477  22.061  25.916  1.00  0.00     0.017 C 
ATOM      8  C   UNL A   1      34.589  23.215  26.476  1.00  0.00     0.017 C 
ATOM      9  C   UNL A   1      33.390  21.080  26.649  1.00  0.00     0.001 C 
ATOM     10  C   UNL A   1      34.628  21.830  27.105  1.00  0.00     0.001 C 
BRANCH   6  11
ATOM     11  C   UNL A   1      33.542  23.820  24.264  1.00  0.00     0.117 C 
BRANCH  11  12
ATOM     12  C   UNL A   1      32.718  23.207  23.143  1.00  0.00     0.225 C 
ATOM     13  N   UNL A   1      31.647  23.848  22.578  1.00  0.00    -0.326 N 
ATOM     14  H   UNL A   1      31.157  23.314  21.912  1.00  0.00     0.169 HD
ATOM     15  O   UNL A   1      33.024  22.111  22.663  1.00  0.00    -0.275 OA
BRANCH  13  16
ATOM     16  C   UNL A   1      31.130  25.136  22.790  1.00  0.00     0.041 A 
ATOM     17  C   UNL A   1      30.585  27.793  23.432  1.00  0.00     0.039 A 
ATOM     18  C   UNL A   1      29.874  26.772  24.060  1.00  0.00     0.016 A 
ATOM     19  C   UNL A   1      31.523  27.500  22.437  1.00  0.00     0.016 A 
ATOM     20  C   UNL A   1      30.139  25.442  23.724  1.00  0.00     0.027 A 
ATOM     21  C   UNL A   1      31.762  26.172  22.089  1.00  0.00     0.027 A 
BRANCH  17  22
ATOM     22  C   UNL A   1      30.438  29.175  23.921  1.00  0.00     0.251 C 
ATOM     23  N   UNL A   1      29.493  29.982  23.350  1.00  0.00    -0.352 N 
ATOM     24  H   UNL A   1      29.535  30.936  23.590  1.00  0.00     0.163 HD
ATOM     25  O   UNL A   1      31.161  29.579  24.823  1.00  0.00    -0.269 OA
BRANCH  23  26
ATOM     26  C   UNL A   1      28.437  29.602  22.433  1.00  0.00     0.112 C 
ATOM     27  C   UNL A   1      28.079  30.753  21.514  1.00  0.00     0.027 C 
ENDBRANCH  23  26
ENDBRANCH  17  22
ENDBRANCH  13  16
ENDBRANCH  11  12
ENDBRANCH   6  11
ENDBRANCH   3   6
ENDBRANCH   1   2
BRANCH   1  28
ATOM     28  C   UNL A   1      33.804  28.000  25.551  1.00  0.00     0.042 C 
BRANCH  28  29
ATOM     29  C   UNL A   1      33.722  28.466  26.985  1.00  0.00     0.118 C 
BRANCH  29  30
ATOM     30  N   UNL A   1      33.691  29.926  27.081  1.00  0.00    -0.352 N 
ATOM     31  C   UNL A   1      34.526  30.783  27.748  1.00  0.00     0.251 C 
ATOM     32  H   UNL A   1      32.956  30.359  26.590  1.00  0.00     0.163 HD
ATOM     33  O   UNL A   1      34.189  31.950  27.924  1.00  0.00    -0.269 OA
BRANCH  31  34
ATOM     34  C   UNL A   1      35.824  30.291  28.243  1.00  0.00     0.039 A 
ATOM     35  C   UNL A   1      35.898  29.670  29.490  1.00  0.00     0.014 A 
ATOM     36  C   UNL A   1      36.974  30.453  27.466  1.00  0.00     0.014 A 
ATOM     37  C   UNL A   1      37.126  29.184  29.935  1.00  0.00     0.010 A 
ATOM     38  C   UNL A   1      38.150  29.832  27.839  1.00  0.00     0.010 A 
ATOM     39  C   UNL A   1      38.255  29.242  29.101  1.00  0.00    -0.014 A 
BRANCH  39  40
ATOM     40  C   UNL A   1      39.577  28.755  29.550  1.00  0.00     0.031 A 
ATOM     41  C   UNL A   1      40.289  29.466  30.673  1.00  0.00     0.074 A 
ATOM     42  C   UNL A   1      40.161  27.730  28.904  1.00  0.00     0.049 A 
ATOM     43  N   UNL A   1      41.460  29.215  31.194  1.00  0.00    -0.248 NA
ATOM     44  C   UNL A   1      39.619  30.642  31.262  1.00  0.00     0.031 C 
ATOM     45  C   UNL A   1      39.610  27.038  27.735  1.00  0.00     0.029 A 
ATOM     46  N   UNL A   1      41.355  27.100  29.130  1.00  0.00    -0.354 N 
ATOM     47  C   UNL A   1      41.682  30.220  32.130  1.00  0.00     0.074 A 
ATOM     48  C   UNL A   1      40.556  31.120  32.065  1.00  0.00     0.031 C 
ATOM     49  C   UNL A   1      40.452  26.060  27.366  1.00  0.00     0.029 A 
ATOM     50  C   UNL A   1      41.611  26.075  28.251  1.00  0.00     0.049 A 
ATOM     51  H   UNL A   1      41.972  27.356  29.853  1.00  0.00     0.167 HD
ATOM     52  C   UNL A   1      42.708  30.357  33.001  1.00  0.00     0.034 A 
ATOM     53  C   UNL A   1      42.662  25.237  28.178  1.00  0.00     0.034 A 
ATOM     54  C   UNL A   1      43.789  29.418  33.101  1.00  0.00     0.049 A 
ATOM     55  C   UNL A   1      43.750  25.359  29.210  1.00  0.00     0.074 A 
ATOM     56  C   UNL A   1      44.830  29.395  34.009  1.00  0.00     0.029 A 
ATOM     57  N   UNL A   1      43.965  28.329  32.259  1.00  0.00    -0.354 N 
ATOM     58  N   UNL A   1      43.860  26.215  30.198  1.00  0.00    -0.248 NA
ATOM     59  C   UNL A   1      44.835  24.373  29.145  1.00  0.00     0.031 C 
ATOM     60  C   UNL A   1      45.651  28.304  33.702  1.00  0.00     0.029 A 
ATOM     61  C   UNL A   1      45.102  27.631  32.622  1.00  0.00     0.049 A 
ATOM     62  H   UNL A   1      43.368  28.090  31.514  1.00  0.00     0.167 HD
ATOM     63  C   UNL A   1      45.008  25.851  30.891  1.00  0.00     0.074 A 
ATOM     64  C   UNL A   1      45.538  24.677  30.226  1.00  0.00     0.031 C 
ATOM     65  C   UNL A   1      45.584  26.441  31.969  1.00  0.00     0.034 A 
BRANCH  52  66
ATOM     66  C   UNL A   1      42.670  31.527  33.948  1.00  0.00     0.023 A 
ATOM     67  C   UNL A   1      43.224  32.765  33.555  1.00  0.00     0.012 A 
ATOM     68  C   UNL A   1      42.058  31.418  35.212  1.00  0.00     0.148 A 
ATOM     69  C   UNL A   1      43.207  33.859  34.418  1.00  0.00     0.002 A 
ATOM     70  C   UNL A   1      42.001  32.528  36.047  1.00  0.00     0.091 A 
ATOM     71  F   UNL A   1      41.560  30.228  35.580  1.00  0.00    -0.205 F 
ATOM     72  C   UNL A   1      42.587  33.744  35.658  1.00  0.00     0.022 A 
BRANCH  70  73
ATOM     73  S   UNL A   1      41.152  32.508  37.629  1.00  0.00     0.127 S 
ATOM     74  O   UNL A   1      42.010  31.621  38.413  1.00  0.00    -0.237 OA
ATOM     75  O   UNL A   1      41.209  33.916  38.023  1.00  0.00    -0.237 OA
ATOM     76  O   UNL A   1      39.812  32.005  37.361  1.00  0.00    -0.744 OA
ENDBRANCH  70  73
ENDBRANCH  52  66
BRANCH  53  77
ATOM     77  C   UNL A   1      42.688  24.161  27.148  1.00  0.00     0.023 A 
ATOM     78  C   UNL A   1      43.384  24.376  25.942  1.00  0.00     0.012 A 
ATOM     79  C   UNL A   1      42.057  22.923  27.366  1.00  0.00     0.148 A 
ATOM     80  C   UNL A   1      43.418  23.389  24.956  1.00  0.00     0.002 A 
ATOM     81  C   UNL A   1      42.142  21.924  26.404  1.00  0.00     0.091 A 
ATOM     82  F   UNL A   1      41.396  22.741  28.519  1.00  0.00    -0.205 F 
ATOM     83  C   UNL A   1      42.806  22.161  25.190  1.00  0.00     0.022 A 
BRANCH  81  84
ATOM     84  S   UNL A   1      41.497  20.269  26.673  1.00  0.00     0.127 S 
ATOM     85  O   UNL A   1      41.866  19.598  25.430  1.00  0.00    -0.237 OA
ATOM     86  O   UNL A   1      42.249  19.840  27.853  1.00  0.00    -0.237 OA
ATOM     87  O   UNL A   1      40.068  20.438  26.903  1.00  0.00    -0.744 OA
ENDBRANCH  81  84
ENDBRANCH  53  77
BRANCH  65  88
ATOM     88  C   UNL A   1      46.836  25.807  32.512  1.00  0.00     0.023 A 
ATOM     89  C   UNL A   1      48.093  26.185  31.998  1.00  0.00     0.012 A 
ATOM     90  C   UNL A   1      46.771  24.873  33.564  1.00  0.00     0.148 A 
ATOM     91  C   UNL A   1      49.261  25.607  32.491  1.00  0.00     0.002 A 
ATOM     92  C   UNL A   1      47.942  24.344  34.088  1.00  0.00     0.091 A 
ATOM     93  F   UNL A   1      45.565  24.514  34.027  1.00  0.00    -0.205 F 
ATOM     94  C   UNL A   1      49.187  24.697  33.542  1.00  0.00     0.022 A 
BRANCH  92  95
ATOM     95  S   UNL A   1      47.944  23.245  35.508  1.00  0.00     0.127 S 
ATOM     96  O   UNL A   1      47.348  22.034  34.948  1.00  0.00    -0.237 OA
ATOM     97  O   UNL A   1      49.370  23.137  35.817  1.00  0.00    -0.237 OA
ATOM     98  O   UNL A   1      47.156  23.917  36.534  1.00  0.00    -0.744 OA
ENDBRANCH  92  95
ENDBRANCH  65  88
ENDBRANCH  39  40
ENDBRANCH  31  34
ENDBRANCH  29  30
ENDBRANCH  28  29
ENDBRANCH   1  28
TORSDOF 18
ENDMDL
