MODEL 1
REMARK VINA RESULT:      -9.7      0.000      0.000
REMARK SMILES CCOc1cc(/C=C2/C(=O)N(c3cccc(C(=O)NCCCNC(=O)c4ccc(-c5c6nc(c(-c7cccc(S(=O)(=O)[O-])c7F)c7ccc([nH]7)c(-c7cccc(S(=O)(=O)[O-])c7F)c7nc(c(-c8cccc(S(=O)(=O)[O-])c8F)c8ccc5[nH]8)C=C7)C=C6)cc4)c3)N=C2C)cc(Cl)c1OC
REMARK SMILES IDX 20 1 19 2 17 3 18 4 16 6 12 7 13 8 89 9 14 10 15 11 11 12
REMARK SMILES IDX 7 13 8 14 9 15 91 16 10 17 90 18 92 19 6 20 4 21 5 22 96 23
REMARK SMILES IDX 94 24 93 25 95 26 3 27 2 28 1 29 97 30 98 31 21 32 22 33
REMARK SMILES IDX 23 34 24 35 25 37 26 38 27 39 88 40 28 41 87 42 29 43 30 44
REMARK SMILES IDX 31 45 81 46 32 47 86 48 80 49 82 50 33 51 85 52 79 53 78 54
REMARK SMILES IDX 34 56 66 57 46 58 65 59 47 60 50 61 64 62 83 63 48 64 49 65
REMARK SMILES IDX 63 67 84 68 51 69 35 70 36 71 44 72 37 73 39 74 45 75 38 76
REMARK SMILES IDX 40 77 41 78 42 79 43 80 67 81 68 82 76 83 69 84 71 85 77 86
REMARK SMILES IDX 70 87 72 88 73 89 74 90 75 91 52 92 53 93 61 94 54 95 56 96
REMARK SMILES IDX 62 97 55 98 57 99 58 100 59 101 60 102
REMARK H PARENT 19 5 23 36 82 55 50 66
REMARK Flexibility Score: inf
ROOT
ATOM      1  C   UNL A   1      45.496  22.443  25.794  1.00  0.00     0.118 C 
ENDROOT
BRANCH   1   2
ATOM      2  N   UNL A   1      45.499  22.874  27.190  1.00  0.00    -0.352 N 
ATOM      3  C   UNL A   1      44.490  23.137  28.093  1.00  0.00     0.251 C 
ATOM      4  O   UNL A   1      44.798  23.486  29.232  1.00  0.00    -0.269 OA
ATOM      5  H   UNL A   1      46.401  23.005  27.560  1.00  0.00     0.163 HD
BRANCH   3   6
ATOM      6  C   UNL A   1      43.052  23.091  27.720  1.00  0.00     0.041 A 
ATOM      7  C   UNL A   1      40.931  24.222  27.478  1.00  0.00     0.069 A 
ATOM      8  C   UNL A   1      40.278  22.983  27.535  1.00  0.00     0.028 A 
ATOM      9  C   UNL A   1      42.326  24.239  27.415  1.00  0.00     0.042 A 
ATOM     10  C   UNL A   1      41.009  21.797  27.614  1.00  0.00     0.003 A 
ATOM     11  C   UNL A   1      42.395  21.855  27.755  1.00  0.00     0.014 A 
BRANCH   7  12
ATOM     12  N   UNL A   1      40.212  25.425  27.678  1.00  0.00    -0.196 N 
ATOM     13  C   UNL A   1      39.644  28.910  27.538  1.00  0.00     0.024 C 
ATOM     14  C   UNL A   1      39.723  27.619  27.882  1.00  0.00     0.065 C 
ATOM     15  C   UNL A   1      40.397  26.638  26.996  1.00  0.00     0.280 C 
ATOM     16  C   UNL A   1      39.247  26.818  29.023  1.00  0.00     0.071 C 
ATOM     17  O   UNL A   1      40.966  26.903  25.955  1.00  0.00    -0.267 OA
ATOM     18  N   UNL A   1      39.500  25.545  28.869  1.00  0.00    -0.169 NA
ATOM     19  C   UNL A   1      38.622  27.365  30.261  1.00  0.00     0.069 C 
BRANCH  13  20
ATOM     20  C   UNL A   1      38.914  29.937  28.271  1.00  0.00    -0.019 A 
ATOM     21  C   UNL A   1      38.878  31.544  30.072  1.00  0.00     0.163 A 
ATOM     22  C   UNL A   1      39.508  30.498  29.395  1.00  0.00     0.058 A 
ATOM     23  C   UNL A   1      37.611  32.028  29.678  1.00  0.00     0.179 A 
ATOM     24  C   UNL A   1      36.995  31.406  28.577  1.00  0.00     0.087 A 
ATOM     25  C   UNL A   1      37.648  30.367  27.888  1.00  0.00     0.032 A 
ATOM     26  Cl  UNL A   1      35.434  31.791  27.943  1.00  0.00    -0.080 Cl
BRANCH  21  27
ATOM     27  O   UNL A   1      39.468  32.023  31.220  1.00  0.00    -0.490 OA
BRANCH  27  28
ATOM     28  C   UNL A   1      38.942  31.432  32.414  1.00  0.00     0.226 C 
ATOM     29  C   UNL A   1      39.497  30.030  32.623  1.00  0.00     0.049 C 
ENDBRANCH  27  28
ENDBRANCH  21  27
BRANCH  23  30
ATOM     30  O   UNL A   1      37.167  33.062  30.459  1.00  0.00    -0.491 OA
ATOM     31  C   UNL A   1      35.982  32.936  31.227  1.00  0.00     0.278 C 
ENDBRANCH  23  30
ENDBRANCH  13  20
ENDBRANCH   7  12
ENDBRANCH   3   6
ENDBRANCH   1   2
BRANCH   1  32
ATOM     32  C   UNL A   1      46.408  23.246  24.877  1.00  0.00     0.042 C 
BRANCH  32  33
ATOM     33  C   UNL A   1      47.000  24.505  25.490  1.00  0.00     0.118 C 
BRANCH  33  34
ATOM     34  N   UNL A   1      47.206  25.575  24.520  1.00  0.00    -0.352 N 
ATOM     35  C   UNL A   1      46.804  26.890  24.515  1.00  0.00     0.251 C 
ATOM     36  H   UNL A   1      47.724  25.307  23.727  1.00  0.00     0.163 HD
ATOM     37  O   UNL A   1      46.964  27.555  23.494  1.00  0.00    -0.269 OA
BRANCH  35  38
ATOM     38  C   UNL A   1      46.169  27.511  25.702  1.00  0.00     0.039 A 
ATOM     39  C   UNL A   1      44.785  27.386  25.871  1.00  0.00     0.014 A 
ATOM     40  C   UNL A   1      46.908  28.253  26.624  1.00  0.00     0.014 A 
ATOM     41  C   UNL A   1      44.163  27.939  26.997  1.00  0.00     0.010 A 
ATOM     42  C   UNL A   1      46.307  28.714  27.791  1.00  0.00     0.010 A 
ATOM     43  C   UNL A   1      44.926  28.576  27.988  1.00  0.00    -0.014 A 
BRANCH  43  44
ATOM     44  C   UNL A   1      44.311  29.113  29.232  1.00  0.00     0.031 A 
ATOM     45  C   UNL A   1      43.903  30.562  29.308  1.00  0.00     0.074 A 
ATOM     46  C   UNL A   1      44.220  28.331  30.327  1.00  0.00     0.049 A 
ATOM     47  N   UNL A   1      43.459  31.243  30.333  1.00  0.00    -0.248 NA
ATOM     48  C   UNL A   1      44.047  31.361  28.079  1.00  0.00     0.031 C 
ATOM     49  C   UNL A   1      44.653  26.934  30.408  1.00  0.00     0.029 A 
ATOM     50  N   UNL A   1      43.765  28.609  31.592  1.00  0.00    -0.354 N 
ATOM     51  C   UNL A   1      43.320  32.553  29.888  1.00  0.00     0.074 A 
ATOM     52  C   UNL A   1      43.759  32.580  28.510  1.00  0.00     0.031 C 
ATOM     53  C   UNL A   1      44.442  26.479  31.654  1.00  0.00     0.029 A 
ATOM     54  C   UNL A   1      43.891  27.557  32.469  1.00  0.00     0.049 A 
ATOM     55  H   UNL A   1      43.383  29.481  31.847  1.00  0.00     0.167 HD
ATOM     56  C   UNL A   1      42.841  33.632  30.554  1.00  0.00     0.034 A 
ATOM     57  C   UNL A   1      43.606  27.471  33.783  1.00  0.00     0.034 A 
ATOM     58  C   UNL A   1      42.347  33.588  31.903  1.00  0.00     0.049 A 
ATOM     59  C   UNL A   1      43.021  28.668  34.484  1.00  0.00     0.074 A 
ATOM     60  C   UNL A   1      41.748  34.599  32.633  1.00  0.00     0.029 A 
ATOM     61  N   UNL A   1      42.394  32.475  32.727  1.00  0.00    -0.354 N 
ATOM     62  N   UNL A   1      42.749  29.857  34.000  1.00  0.00    -0.248 NA
ATOM     63  C   UNL A   1      42.667  28.503  35.901  1.00  0.00     0.031 C 
ATOM     64  C   UNL A   1      41.449  34.102  33.906  1.00  0.00     0.029 A 
ATOM     65  C   UNL A   1      41.841  32.774  33.960  1.00  0.00     0.049 A 
ATOM     66  H   UNL A   1      42.765  31.600  32.473  1.00  0.00     0.167 HD
ATOM     67  C   UNL A   1      42.163  30.567  35.041  1.00  0.00     0.074 A 
ATOM     68  C   UNL A   1      42.098  29.669  36.175  1.00  0.00     0.031 C 
ATOM     69  C   UNL A   1      41.732  31.852  35.062  1.00  0.00     0.034 A 
BRANCH  56  70
ATOM     70  C   UNL A   1      42.771  34.941  29.810  1.00  0.00     0.023 A 
ATOM     71  C   UNL A   1      41.677  35.197  28.957  1.00  0.00     0.012 A 
ATOM     72  C   UNL A   1      43.752  35.936  29.992  1.00  0.00     0.148 A 
ATOM     73  C   UNL A   1      41.580  36.406  28.268  1.00  0.00     0.002 A 
ATOM     74  C   UNL A   1      43.624  37.156  29.338  1.00  0.00     0.091 A 
ATOM     75  F   UNL A   1      44.795  35.667  30.790  1.00  0.00    -0.205 F 
ATOM     76  C   UNL A   1      42.547  37.387  28.466  1.00  0.00     0.022 A 
BRANCH  74  77
ATOM     77  S   UNL A   1      44.771  38.515  29.588  1.00  0.00     0.127 S 
ATOM     78  O   UNL A   1      44.252  39.515  28.656  1.00  0.00    -0.237 OA
ATOM     79  O   UNL A   1      44.568  38.834  31.001  1.00  0.00    -0.237 OA
ATOM     80  O   UNL A   1      46.092  37.989  29.268  1.00  0.00    -0.744 OA
ENDBRANCH  74  77
ENDBRANCH  56  70
BRANCH  57  81
ATOM     81  C   UNL A   1      43.801  26.181  34.506  1.00  0.00     0.023 A 
ATOM     82  C   UNL A   1      42.696  25.332  34.708  1.00  0.00     0.012 A 
ATOM     83  C   UNL A   1      45.070  25.776  34.964  1.00  0.00     0.148 A 
ATOM     84  C   UNL A   1      42.843  24.119  35.381  1.00  0.00     0.002 A 
ATOM     85  C   UNL A   1      45.221  24.542  35.586  1.00  0.00     0.091 A 
ATOM     86  F   UNL A   1      46.109  26.604  34.773  1.00  0.00    -0.205 F 
ATOM     87  C   UNL A   1      44.106  23.719  35.811  1.00  0.00     0.022 A 
BRANCH  85  88
ATOM     88  S   UNL A   1      46.829  23.889  36.052  1.00  0.00     0.127 S 
ATOM     89  O   UNL A   1      46.495  22.522  36.444  1.00  0.00    -0.237 OA
ATOM     90  O   UNL A   1      47.580  24.006  34.801  1.00  0.00    -0.237 OA
ATOM     91  O   UNL A   1      47.309  24.758  37.118  1.00  0.00    -0.744 OA
ENDBRANCH  85  88
ENDBRANCH  57  81
BRANCH  69  92
ATOM     92  C   UNL A   1      41.117  32.364  36.338  1.00  0.00     0.023 A 
ATOM     93  C   UNL A   1      41.887  33.145  37.222  1.00  0.00     0.012 A 
ATOM     94  C   UNL A   1      39.755  32.138  36.621  1.00  0.00     0.148 A 
ATOM     95  C   UNL A   1      41.319  33.667  38.383  1.00  0.00     0.002 A 
ATOM     96  C   UNL A   1      39.184  32.701  37.755  1.00  0.00     0.091 A 
ATOM     97  F   UNL A   1      39.044  31.376  35.776  1.00  0.00    -0.205 F 
ATOM     98  C   UNL A   1      39.967  33.456  38.643  1.00  0.00     0.022 A 
BRANCH  96  99
ATOM     99  S   UNL A   1      37.430  32.564  38.119  1.00  0.00     0.127 S 
ATOM    100  O   UNL A   1      37.249  31.114  38.173  1.00  0.00    -0.237 OA
ATOM    101  O   UNL A   1      37.326  33.240  39.413  1.00  0.00    -0.237 OA
ATOM    102  O   UNL A   1      36.741  33.240  37.029  1.00  0.00    -0.744 OA
ENDBRANCH  96  99
ENDBRANCH  69  92
ENDBRANCH  43  44
ENDBRANCH  35  38
ENDBRANCH  33  34
ENDBRANCH  32  33
ENDBRANCH   1  32
TORSDOF 18
ENDMDL
MODEL 2
REMARK VINA RESULT:      -9.6      5.098     10.468
REMARK SMILES CCOc1cc(/C=C2/C(=O)N(c3cccc(C(=O)NCCCNC(=O)c4ccc(-c5c6nc(c(-c7cccc(S(=O)(=O)[O-])c7F)c7ccc([nH]7)c(-c7cccc(S(=O)(=O)[O-])c7F)c7nc(c(-c8cccc(S(=O)(=O)[O-])c8F)c8ccc5[nH]8)C=C7)C=C6)cc4)c3)N=C2C)cc(Cl)c1OC
REMARK SMILES IDX 20 1 19 2 17 3 18 4 16 6 12 7 13 8 89 9 14 10 15 11 11 12
REMARK SMILES IDX 7 13 8 14 9 15 91 16 10 17 90 18 92 19 6 20 4 21 5 22 96 23
REMARK SMILES IDX 94 24 93 25 95 26 3 27 2 28 1 29 97 30 98 31 21 32 22 33
REMARK SMILES IDX 23 34 24 35 25 37 26 38 27 39 88 40 28 41 87 42 29 43 30 44
REMARK SMILES IDX 31 45 81 46 32 47 86 48 80 49 82 50 33 51 85 52 79 53 78 54
REMARK SMILES IDX 34 56 66 57 46 58 65 59 47 60 50 61 64 62 83 63 48 64 49 65
REMARK SMILES IDX 63 67 84 68 51 69 35 70 36 71 44 72 37 73 39 74 45 75 38 76
REMARK SMILES IDX 40 77 41 78 42 79 43 80 67 81 68 82 76 83 69 84 71 85 77 86
REMARK SMILES IDX 70 87 72 88 73 89 74 90 75 91 52 92 53 93 61 94 54 95 56 96
REMARK SMILES IDX 62 97 55 98 57 99 58 100 59 101 60 102
REMARK H PARENT 19 5 23 36 82 55 50 66
REMARK Flexibility Score: inf
ROOT
ATOM      1  C   UNL A   1      34.671  34.539  32.361  1.00  0.00     0.118 C 
ENDROOT
BRANCH   1   2
ATOM      2  N   UNL A   1      33.618  35.045  31.482  1.00  0.00    -0.352 N 
ATOM      3  C   UNL A   1      33.342  34.856  30.144  1.00  0.00     0.251 C 
ATOM      4  O   UNL A   1      32.358  35.418  29.663  1.00  0.00    -0.269 OA
ATOM      5  H   UNL A   1      32.979  35.639  31.935  1.00  0.00     0.163 HD
BRANCH   3   6
ATOM      6  C   UNL A   1      34.229  34.069  29.248  1.00  0.00     0.041 A 
ATOM      7  C   UNL A   1      34.618  32.083  27.929  1.00  0.00     0.069 A 
ATOM      8  C   UNL A   1      35.996  32.323  27.996  1.00  0.00     0.028 A 
ATOM      9  C   UNL A   1      33.746  33.053  28.428  1.00  0.00     0.042 A 
ATOM     10  C   UNL A   1      36.489  33.467  28.625  1.00  0.00     0.003 A 
ATOM     11  C   UNL A   1      35.606  34.315  29.293  1.00  0.00     0.014 A 
BRANCH   7  12
ATOM     12  N   UNL A   1      34.124  30.811  27.549  1.00  0.00    -0.196 N 
ATOM     13  C   UNL A   1      34.340  27.444  26.497  1.00  0.00     0.024 C 
ATOM     14  C   UNL A   1      34.010  28.728  26.689  1.00  0.00     0.065 C 
ATOM     15  C   UNL A   1      34.825  29.595  27.575  1.00  0.00     0.280 C 
ATOM     16  C   UNL A   1      32.919  29.600  26.222  1.00  0.00     0.071 C 
ATOM     17  O   UNL A   1      35.852  29.264  28.136  1.00  0.00    -0.267 OA
ATOM     18  N   UNL A   1      32.976  30.789  26.762  1.00  0.00    -0.169 NA
ATOM     19  C   UNL A   1      31.902  29.236  25.194  1.00  0.00     0.069 C 
BRANCH  13  20
ATOM     20  C   UNL A   1      33.556  26.475  25.742  1.00  0.00    -0.019 A 
ATOM     21  C   UNL A   1      33.234  25.238  23.695  1.00  0.00     0.163 A 
ATOM     22  C   UNL A   1      33.905  26.223  24.422  1.00  0.00     0.058 A 
ATOM     23  C   UNL A   1      32.157  24.510  24.248  1.00  0.00     0.179 A 
ATOM     24  C   UNL A   1      31.774  24.822  25.565  1.00  0.00     0.087 A 
ATOM     25  C   UNL A   1      32.472  25.801  26.297  1.00  0.00     0.032 A 
ATOM     26  Cl  UNL A   1      30.465  24.103  26.433  1.00  0.00    -0.080 Cl
BRANCH  21  27
ATOM     27  O   UNL A   1      33.566  25.071  22.369  1.00  0.00    -0.490 OA
BRANCH  27  28
ATOM     28  C   UNL A   1      33.245  26.208  21.558  1.00  0.00     0.226 C 
ATOM     29  C   UNL A   1      31.776  26.201  21.160  1.00  0.00     0.049 C 
ENDBRANCH  27  28
ENDBRANCH  21  27
BRANCH  23  30
ATOM     30  O   UNL A   1      31.638  23.584  23.383  1.00  0.00    -0.491 OA
ATOM     31  C   UNL A   1      31.930  22.206  23.532  1.00  0.00     0.278 C 
ENDBRANCH  23  30
ENDBRANCH  13  20
ENDBRANCH   7  12
ENDBRANCH   3   6
ENDBRANCH   1   2
BRANCH   1  32
ATOM     32  C   UNL A   1      34.696  33.027  32.520  1.00  0.00     0.042 C 
BRANCH  32  33
ATOM     33  C   UNL A   1      36.063  32.426  32.806  1.00  0.00     0.118 C 
BRANCH  33  34
ATOM     34  N   UNL A   1      36.099  30.976  32.647  1.00  0.00    -0.352 N 
ATOM     35  C   UNL A   1      37.001  30.151  32.018  1.00  0.00     0.251 C 
ATOM     36  H   UNL A   1      35.342  30.505  33.064  1.00  0.00     0.163 HD
ATOM     37  O   UNL A   1      36.721  28.962  31.879  1.00  0.00    -0.269 OA
BRANCH  35  38
ATOM     38  C   UNL A   1      38.287  30.667  31.490  1.00  0.00     0.039 A 
ATOM     39  C   UNL A   1      39.288  31.040  32.394  1.00  0.00     0.014 A 
ATOM     40  C   UNL A   1      38.504  30.830  30.122  1.00  0.00     0.014 A 
ATOM     41  C   UNL A   1      40.522  31.505  31.924  1.00  0.00     0.010 A 
ATOM     42  C   UNL A   1      39.763  31.194  29.653  1.00  0.00     0.010 A 
ATOM     43  C   UNL A   1      40.784  31.548  30.546  1.00  0.00    -0.014 A 
BRANCH  43  44
ATOM     44  C   UNL A   1      42.107  31.967  30.008  1.00  0.00     0.031 A 
ATOM     45  C   UNL A   1      42.377  33.421  29.714  1.00  0.00     0.074 A 
ATOM     46  C   UNL A   1      43.024  31.035  29.681  1.00  0.00     0.049 A 
ATOM     47  N   UNL A   1      43.417  33.969  29.139  1.00  0.00    -0.248 NA
ATOM     48  C   UNL A   1      41.322  34.383  30.079  1.00  0.00     0.031 C 
ATOM     49  C   UNL A   1      42.855  29.588  29.842  1.00  0.00     0.029 A 
ATOM     50  N   UNL A   1      44.268  31.160  29.115  1.00  0.00    -0.354 N 
ATOM     51  C   UNL A   1      43.122  35.323  29.032  1.00  0.00     0.074 A 
ATOM     52  C   UNL A   1      41.792  35.510  29.567  1.00  0.00     0.031 C 
ATOM     53  C   UNL A   1      43.953  28.963  29.385  1.00  0.00     0.029 A 
ATOM     54  C   UNL A   1      44.889  29.957  28.871  1.00  0.00     0.049 A 
ATOM     55  H   UNL A   1      44.678  32.031  28.903  1.00  0.00     0.167 HD
ATOM     56  C   UNL A   1      43.898  36.328  28.558  1.00  0.00     0.034 A 
ATOM     57  C   UNL A   1      46.073  29.683  28.288  1.00  0.00     0.034 A 
ATOM     58  C   UNL A   1      45.244  36.148  28.084  1.00  0.00     0.049 A 
ATOM     59  C   UNL A   1      46.940  30.822  27.824  1.00  0.00     0.074 A 
ATOM     60  C   UNL A   1      46.149  37.113  27.679  1.00  0.00     0.029 A 
ATOM     61  N   UNL A   1      45.878  34.924  27.951  1.00  0.00    -0.354 N 
ATOM     62  N   UNL A   1      46.707  32.111  27.877  1.00  0.00    -0.248 NA
ATOM     63  C   UNL A   1      48.250  30.472  27.255  1.00  0.00     0.031 C 
ATOM     64  C   UNL A   1      47.326  36.469  27.284  1.00  0.00     0.029 A 
ATOM     65  C   UNL A   1      47.161  35.105  27.464  1.00  0.00     0.049 A 
ATOM     66  H   UNL A   1      45.476  34.053  28.170  1.00  0.00     0.167 HD
ATOM     67  C   UNL A   1      47.851  32.726  27.382  1.00  0.00     0.074 A 
ATOM     68  C   UNL A   1      48.786  31.668  27.055  1.00  0.00     0.031 C 
ATOM     69  C   UNL A   1      48.101  34.046  27.197  1.00  0.00     0.034 A 
BRANCH  56  70
ATOM     70  C   UNL A   1      43.332  37.725  28.587  1.00  0.00     0.023 A 
ATOM     71  C   UNL A   1      42.493  38.156  27.538  1.00  0.00     0.012 A 
ATOM     72  C   UNL A   1      43.582  38.590  29.670  1.00  0.00     0.148 A 
ATOM     73  C   UNL A   1      41.944  39.438  27.546  1.00  0.00     0.002 A 
ATOM     74  C   UNL A   1      42.994  39.850  29.694  1.00  0.00     0.091 A 
ATOM     75  F   UNL A   1      44.398  38.172  30.647  1.00  0.00    -0.205 F 
ATOM     76  C   UNL A   1      42.187  40.280  28.628  1.00  0.00     0.022 A 
BRANCH  74  77
ATOM     77  S   UNL A   1      43.178  40.979  31.079  1.00  0.00     0.127 S 
ATOM     78  O   UNL A   1      42.833  40.119  32.210  1.00  0.00    -0.237 OA
ATOM     79  O   UNL A   1      44.593  41.340  30.996  1.00  0.00    -0.237 OA
ATOM     80  O   UNL A   1      42.256  42.078  30.825  1.00  0.00    -0.744 OA
ENDBRANCH  74  77
ENDBRANCH  56  70
BRANCH  57  81
ATOM     81  C   UNL A   1      46.540  28.271  28.179  1.00  0.00     0.023 A 
ATOM     82  C   UNL A   1      47.228  27.688  29.262  1.00  0.00     0.012 A 
ATOM     83  C   UNL A   1      46.284  27.495  27.031  1.00  0.00     0.148 A 
ATOM     84  C   UNL A   1      47.681  26.370  29.191  1.00  0.00     0.002 A 
ATOM     85  C   UNL A   1      46.689  26.165  26.990  1.00  0.00     0.091 A 
ATOM     86  F   UNL A   1      45.639  28.070  26.006  1.00  0.00    -0.205 F 
ATOM     87  C   UNL A   1      47.403  25.606  28.061  1.00  0.00     0.022 A 
BRANCH  85  88
ATOM     88  S   UNL A   1      46.259  25.071  25.631  1.00  0.00     0.127 S 
ATOM     89  O   UNL A   1      47.015  25.655  24.525  1.00  0.00    -0.237 OA
ATOM     90  O   UNL A   1      46.760  23.781  26.107  1.00  0.00    -0.237 OA
ATOM     91  O   UNL A   1      44.808  25.142  25.517  1.00  0.00    -0.744 OA
ENDBRANCH  85  88
ENDBRANCH  57  81
BRANCH  69  92
ATOM     92  C   UNL A   1      49.448  34.434  26.649  1.00  0.00     0.023 A 
ATOM     93  C   UNL A   1      49.605  34.656  25.267  1.00  0.00     0.012 A 
ATOM     94  C   UNL A   1      50.539  34.658  27.514  1.00  0.00     0.148 A 
ATOM     95  C   UNL A   1      50.834  35.063  24.749  1.00  0.00     0.002 A 
ATOM     96  C   UNL A   1      51.746  35.110  26.997  1.00  0.00     0.091 A 
ATOM     97  F   UNL A   1      50.375  34.423  28.825  1.00  0.00    -0.205 F 
ATOM     98  C   UNL A   1      51.900  35.302  25.615  1.00  0.00     0.022 A 
BRANCH  96  99
ATOM     99  S   UNL A   1      53.142  35.536  28.046  1.00  0.00     0.127 S 
ATOM    100  O   UNL A   1      53.376  34.280  28.756  1.00  0.00    -0.237 OA
ATOM    101  O   UNL A   1      54.172  35.883  27.066  1.00  0.00    -0.237 OA
ATOM    102  O   UNL A   1      52.697  36.649  28.872  1.00  0.00    -0.744 OA
ENDBRANCH  96  99
ENDBRANCH  69  92
ENDBRANCH  43  44
ENDBRANCH  35  38
ENDBRANCH  33  34
ENDBRANCH  32  33
ENDBRANCH   1  32
TORSDOF 18
ENDMDL
MODEL 3
REMARK VINA RESULT:      -9.5      3.875     10.423
REMARK SMILES CCOc1cc(/C=C2/C(=O)N(c3cccc(C(=O)NCCCNC(=O)c4ccc(-c5c6nc(c(-c7cccc(S(=O)(=O)[O-])c7F)c7ccc([nH]7)c(-c7cccc(S(=O)(=O)[O-])c7F)c7nc(c(-c8cccc(S(=O)(=O)[O-])c8F)c8ccc5[nH]8)C=C7)C=C6)cc4)c3)N=C2C)cc(Cl)c1OC
REMARK SMILES IDX 20 1 19 2 17 3 18 4 16 6 12 7 13 8 89 9 14 10 15 11 11 12
REMARK SMILES IDX 7 13 8 14 9 15 91 16 10 17 90 18 92 19 6 20 4 21 5 22 96 23
REMARK SMILES IDX 94 24 93 25 95 26 3 27 2 28 1 29 97 30 98 31 21 32 22 33
REMARK SMILES IDX 23 34 24 35 25 37 26 38 27 39 88 40 28 41 87 42 29 43 30 44
REMARK SMILES IDX 31 45 81 46 32 47 86 48 80 49 82 50 33 51 85 52 79 53 78 54
REMARK SMILES IDX 34 56 66 57 46 58 65 59 47 60 50 61 64 62 83 63 48 64 49 65
REMARK SMILES IDX 63 67 84 68 51 69 35 70 36 71 44 72 37 73 39 74 45 75 38 76
REMARK SMILES IDX 40 77 41 78 42 79 43 80 67 81 68 82 76 83 69 84 71 85 77 86
REMARK SMILES IDX 70 87 72 88 73 89 74 90 75 91 52 92 53 93 61 94 54 95 56 96
REMARK SMILES IDX 62 97 55 98 57 99 58 100 59 101 60 102
REMARK H PARENT 19 5 23 36 82 55 50 66
REMARK Flexibility Score: inf
ROOT
ATOM      1  C   UNL A   1      35.906  34.321  29.548  1.00  0.00     0.118 C 
ENDROOT
BRANCH   1   2
ATOM      2  N   UNL A   1      34.876  34.833  30.448  1.00  0.00    -0.352 N 
ATOM      3  C   UNL A   1      34.577  34.585  31.771  1.00  0.00     0.251 C 
ATOM      4  O   UNL A   1      33.630  35.183  32.282  1.00  0.00    -0.269 OA
ATOM      5  H   UNL A   1      34.273  35.486  30.025  1.00  0.00     0.163 HD
BRANCH   3   6
ATOM      6  C   UNL A   1      35.301  33.566  32.577  1.00  0.00     0.041 A 
ATOM      7  C   UNL A   1      36.889  33.039  34.318  1.00  0.00     0.069 A 
ATOM      8  C   UNL A   1      37.052  31.762  33.766  1.00  0.00     0.028 A 
ATOM      9  C   UNL A   1      35.893  33.869  33.799  1.00  0.00     0.042 A 
ATOM     10  C   UNL A   1      36.292  31.360  32.667  1.00  0.00     0.003 A 
ATOM     11  C   UNL A   1      35.451  32.281  32.043  1.00  0.00     0.014 A 
BRANCH   7  12
ATOM     12  N   UNL A   1      37.834  33.552  35.240  1.00  0.00    -0.196 N 
ATOM     13  C   UNL A   1      38.984  34.745  38.361  1.00  0.00     0.024 C 
ATOM     14  C   UNL A   1      38.734  34.530  37.063  1.00  0.00     0.065 C 
ATOM     15  C   UNL A   1      37.759  33.496  36.640  1.00  0.00     0.280 C 
ATOM     16  C   UNL A   1      39.242  35.096  35.802  1.00  0.00     0.071 C 
ATOM     17  O   UNL A   1      37.081  32.818  37.388  1.00  0.00    -0.267 OA
ATOM     18  N   UNL A   1      38.743  34.489  34.757  1.00  0.00    -0.169 NA
ATOM     19  C   UNL A   1      40.151  36.272  35.686  1.00  0.00     0.069 C 
BRANCH  13  20
ATOM     20  C   UNL A   1      39.996  35.652  38.888  1.00  0.00    -0.019 A 
ATOM     21  C   UNL A   1      42.325  36.090  39.349  1.00  0.00     0.163 A 
ATOM     22  C   UNL A   1      41.316  35.219  38.933  1.00  0.00     0.058 A 
ATOM     23  C   UNL A   1      42.040  37.404  39.783  1.00  0.00     0.179 A 
ATOM     24  C   UNL A   1      40.692  37.805  39.792  1.00  0.00     0.087 A 
ATOM     25  C   UNL A   1      39.684  36.927  39.349  1.00  0.00     0.032 A 
ATOM     26  Cl  UNL A   1      40.098  39.338  40.321  1.00  0.00    -0.080 Cl
BRANCH  21  27
ATOM     27  O   UNL A   1      43.607  35.599  39.445  1.00  0.00    -0.490 OA
BRANCH  27  28
ATOM     28  C   UNL A   1      43.758  34.611  40.471  1.00  0.00     0.226 C 
ATOM     29  C   UNL A   1      44.351  33.325  39.911  1.00  0.00     0.049 C 
ENDBRANCH  27  28
ENDBRANCH  21  27
BRANCH  23  30
ATOM     30  O   UNL A   1      43.162  38.104  40.140  1.00  0.00    -0.491 OA
ATOM     31  C   UNL A   1      43.488  39.328  39.504  1.00  0.00     0.278 C 
ENDBRANCH  23  30
ENDBRANCH  13  20
ENDBRANCH   7  12
ENDBRANCH   3   6
ENDBRANCH   1   2
BRANCH   1  32
ATOM     32  C   UNL A   1      35.395  33.394  28.456  1.00  0.00     0.042 C 
BRANCH  32  33
ATOM     33  C   UNL A   1      34.205  32.530  28.840  1.00  0.00     0.118 C 
BRANCH  33  34
ATOM     34  N   UNL A   1      33.850  31.551  27.819  1.00  0.00    -0.352 N 
ATOM     35  C   UNL A   1      34.541  30.478  27.307  1.00  0.00     0.251 C 
ATOM     36  H   UNL A   1      32.958  31.683  27.426  1.00  0.00     0.163 HD
ATOM     37  O   UNL A   1      34.089  29.895  26.324  1.00  0.00    -0.269 OA
BRANCH  35  38
ATOM     38  C   UNL A   1      35.821  30.025  27.901  1.00  0.00     0.039 A 
ATOM     39  C   UNL A   1      35.826  29.552  29.218  1.00  0.00     0.014 A 
ATOM     40  C   UNL A   1      37.023  30.101  27.197  1.00  0.00     0.014 A 
ATOM     41  C   UNL A   1      37.015  29.091  29.795  1.00  0.00     0.010 A 
ATOM     42  C   UNL A   1      38.183  29.550  27.733  1.00  0.00     0.010 A 
ATOM     43  C   UNL A   1      38.199  29.050  29.043  1.00  0.00    -0.014 A 
BRANCH  43  44
ATOM     44  C   UNL A   1      39.466  28.501  29.597  1.00  0.00     0.031 A 
ATOM     45  C   UNL A   1      40.127  29.170  30.775  1.00  0.00     0.074 A 
ATOM     46  C   UNL A   1      40.080  27.474  28.976  1.00  0.00     0.049 A 
ATOM     47  N   UNL A   1      41.286  28.915  31.328  1.00  0.00    -0.248 NA
ATOM     48  C   UNL A   1      39.409  30.299  31.391  1.00  0.00     0.031 C 
ATOM     49  C   UNL A   1      39.586  26.790  27.779  1.00  0.00     0.029 A 
ATOM     50  N   UNL A   1      41.271  26.846  29.246  1.00  0.00    -0.354 N 
ATOM     51  C   UNL A   1      41.455  29.876  32.318  1.00  0.00     0.074 A 
ATOM     52  C   UNL A   1      40.297  30.742  32.268  1.00  0.00     0.031 C 
ATOM     53  C   UNL A   1      40.464  25.839  27.420  1.00  0.00     0.029 A 
ATOM     54  C   UNL A   1      41.598  25.866  28.338  1.00  0.00     0.049 A 
ATOM     55  H   UNL A   1      41.838  27.076  30.018  1.00  0.00     0.167 HD
ATOM     56  C   UNL A   1      42.466  30.011  33.209  1.00  0.00     0.034 A 
ATOM     57  C   UNL A   1      42.692  25.084  28.246  1.00  0.00     0.034 A 
ATOM     58  C   UNL A   1      43.584  29.111  33.298  1.00  0.00     0.049 A 
ATOM     59  C   UNL A   1      43.773  25.216  29.284  1.00  0.00     0.074 A 
ATOM     60  C   UNL A   1      44.608  29.099  34.228  1.00  0.00     0.029 A 
ATOM     61  N   UNL A   1      43.826  28.064  32.423  1.00  0.00    -0.354 N 
ATOM     62  N   UNL A   1      43.838  26.030  30.310  1.00  0.00    -0.248 NA
ATOM     63  C   UNL A   1      44.915  24.295  29.176  1.00  0.00     0.031 C 
ATOM     64  C   UNL A   1      45.480  28.054  33.906  1.00  0.00     0.029 A 
ATOM     65  C   UNL A   1      44.987  27.402  32.788  1.00  0.00     0.049 A 
ATOM     66  H   UNL A   1      43.258  27.825  31.657  1.00  0.00     0.167 HD
ATOM     67  C   UNL A   1      45.005  25.698  30.987  1.00  0.00     0.074 A 
ATOM     68  C   UNL A   1      45.606  24.593  30.268  1.00  0.00     0.031 C 
ATOM     69  C   UNL A   1      45.542  26.267  32.095  1.00  0.00     0.034 A 
BRANCH  56  70
ATOM     70  C   UNL A   1      42.378  31.140  34.205  1.00  0.00     0.023 A 
ATOM     71  C   UNL A   1      41.739  30.925  35.444  1.00  0.00     0.012 A 
ATOM     72  C   UNL A   1      42.971  32.390  33.942  1.00  0.00     0.148 A 
ATOM     73  C   UNL A   1      41.656  31.948  36.388  1.00  0.00     0.002 A 
ATOM     74  C   UNL A   1      42.925  33.390  34.907  1.00  0.00     0.091 A 
ATOM     75  F   UNL A   1      43.556  32.583  32.751  1.00  0.00    -0.205 F 
ATOM     76  C   UNL A   1      42.256  33.175  36.124  1.00  0.00     0.022 A 
BRANCH  74  77
ATOM     77  S   UNL A   1      43.737  34.979  34.697  1.00  0.00     0.127 S 
ATOM     78  O   UNL A   1      43.595  35.561  36.032  1.00  0.00    -0.237 OA
ATOM     79  O   UNL A   1      45.101  34.583  34.346  1.00  0.00    -0.237 OA
ATOM     80  O   UNL A   1      43.011  35.663  33.636  1.00  0.00    -0.744 OA
ENDBRANCH  74  77
ENDBRANCH  56  70
BRANCH  57  81
ATOM     81  C   UNL A   1      42.784  24.055  27.170  1.00  0.00     0.023 A 
ATOM     82  C   UNL A   1      43.541  24.334  26.014  1.00  0.00     0.012 A 
ATOM     83  C   UNL A   1      42.159  22.799  27.294  1.00  0.00     0.148 A 
ATOM     84  C   UNL A   1      43.646  23.394  24.989  1.00  0.00     0.002 A 
ATOM     85  C   UNL A   1      42.313  21.846  26.293  1.00  0.00     0.091 A 
ATOM     86  F   UNL A   1      41.433  22.557  28.395  1.00  0.00    -0.205 F 
ATOM     87  C   UNL A   1      43.042  22.148  25.132  1.00  0.00     0.022 A 
BRANCH  85  88
ATOM     88  S   UNL A   1      41.681  20.172  26.454  1.00  0.00     0.127 S 
ATOM     89  O   UNL A   1      42.286  19.512  25.299  1.00  0.00    -0.237 OA
ATOM     90  O   UNL A   1      42.223  19.764  27.750  1.00  0.00    -0.237 OA
ATOM     91  O   UNL A   1      40.230  20.298  26.427  1.00  0.00    -0.744 OA
ENDBRANCH  85  88
ENDBRANCH  57  81
BRANCH  69  92
ATOM     92  C   UNL A   1      46.827  25.689  32.627  1.00  0.00     0.023 A 
ATOM     93  C   UNL A   1      48.061  26.219  32.205  1.00  0.00     0.012 A 
ATOM     94  C   UNL A   1      46.807  24.674  33.605  1.00  0.00     0.148 A 
ATOM     95  C   UNL A   1      49.258  25.728  32.725  1.00  0.00     0.002 A 
ATOM     96  C   UNL A   1      48.001  24.223  34.153  1.00  0.00     0.091 A 
ATOM     97  F   UNL A   1      45.622  24.168  33.980  1.00  0.00    -0.205 F 
ATOM     98  C   UNL A   1      49.228  24.740  33.707  1.00  0.00     0.022 A 
BRANCH  96  99
ATOM     99  S   UNL A   1      48.053  23.024  35.491  1.00  0.00     0.127 S 
ATOM    100  O   UNL A   1      47.343  21.889  34.902  1.00  0.00    -0.237 OA
ATOM    101  O   UNL A   1      49.491  22.818  35.668  1.00  0.00    -0.237 OA
ATOM    102  O   UNL A   1      47.391  23.657  36.623  1.00  0.00    -0.744 OA
ENDBRANCH  96  99
ENDBRANCH  69  92
ENDBRANCH  43  44
ENDBRANCH  35  38
ENDBRANCH  33  34
ENDBRANCH  32  33
ENDBRANCH   1  32
TORSDOF 18
ENDMDL
