MODEL 1
REMARK VINA RESULT:     -11.3      0.000      0.000
REMARK SMILES C[C@@H](CCO)SCc1cccc(/C=C/C(=O)NCCCNC(=O)c2ccc(-c3c4nc(c(-c5cccc(S(=O)(=O)[O-])c5F)c5ccc([nH]5)c(-c5cccc(S(=O)(=O)[O-])c5F)c5nc(c(-c6cccc(S(=O)(=O)[O-])c6F)c6ccc3[nH]6)C=C5)C=C4)cc2)c1
REMARK SMILES IDX 15 1 16 2 17 3 14 5 13 6 12 7 8 8 9 9 87 10 10 11 11 12 7 13
REMARK SMILES IDX 6 14 2 15 1 16 3 17 4 18 5 19 18 21 19 22 20 23 21 24 22 25
REMARK SMILES IDX 23 27 24 28 25 29 86 30 26 31 85 32 27 33 28 34 29 35 79 36
REMARK SMILES IDX 30 37 84 38 78 39 80 40 31 41 83 42 77 43 76 44 32 46 64 47
REMARK SMILES IDX 44 48 63 49 45 50 48 51 62 52 81 53 46 54 47 55 61 57 82 58
REMARK SMILES IDX 49 59 33 60 34 61 42 62 35 63 37 64 43 65 36 66 38 67 39 68
REMARK SMILES IDX 40 69 41 70 65 71 66 72 74 73 67 74 69 75 75 76 68 77 70 78
REMARK SMILES IDX 71 79 72 80 73 81 50 82 51 83 59 84 52 85 54 86 60 87 53 88
REMARK SMILES IDX 55 89 56 90 57 91 58 92
REMARK H PARENT 17 4 5 20 21 26 80 45 48 56
REMARK Flexibility Score: inf
ROOT
ATOM      1  C   UNL A   1      31.124  23.111  26.831  1.00  0.00     0.244 C 
ATOM      2  O   UNL A   1      30.215  22.866  27.619  1.00  0.00    -0.270 OA
ATOM      3  N   UNL A   1      32.166  22.244  26.697  1.00  0.00    -0.352 N 
ATOM      4  H   UNL A   1      32.178  21.503  27.344  1.00  0.00     0.163 HD
ENDROOT
BRANCH   1   5
ATOM      5  C   UNL A   1      31.024  24.278  25.932  1.00  0.00     0.072 C 
ATOM      6  C   UNL A   1      30.002  25.148  25.944  1.00  0.00     0.014 C 
BRANCH   6   7
ATOM      7  C   UNL A   1      30.026  26.381  25.138  1.00  0.00    -0.025 A 
ATOM      8  C   UNL A   1      31.297  28.366  24.498  1.00  0.00    -0.037 A 
ATOM      9  C   UNL A   1      30.419  28.563  23.423  1.00  0.00     0.004 A 
ATOM     10  C   UNL A   1      31.042  27.313  25.390  1.00  0.00     0.012 A 
ATOM     11  C   UNL A   1      29.342  27.700  23.223  1.00  0.00     0.001 A 
ATOM     12  C   UNL A   1      29.155  26.604  24.068  1.00  0.00     0.008 A 
BRANCH   8  13
ATOM     13  C   UNL A   1      32.552  29.194  24.624  1.00  0.00     0.105 C 
BRANCH  13  14
ATOM     14  S   UNL A   1      33.606  29.069  23.120  1.00  0.00    -0.154 SA
BRANCH  14  15
ATOM     15  C   UNL A   1      34.022  27.274  22.952  1.00  0.00     0.046 C 
ATOM     16  C   UNL A   1      33.816  26.412  24.193  1.00  0.00     0.019 C 
BRANCH  15  17
ATOM     17  C   UNL A   1      33.482  26.611  21.663  1.00  0.00     0.042 C 
BRANCH  17  18
ATOM     18  C   UNL A   1      32.149  25.888  21.755  1.00  0.00     0.157 C 
BRANCH  18  19
ATOM     19  O   UNL A   1      31.435  25.956  20.532  1.00  0.00    -0.396 OA
ATOM     20  H   UNL A   1      30.485  26.024  20.717  1.00  0.00     0.210 HD
ENDBRANCH  18  19
ENDBRANCH  17  18
ENDBRANCH  15  17
ENDBRANCH  14  15
ENDBRANCH  13  14
ENDBRANCH   8  13
ENDBRANCH   6   7
ENDBRANCH   1   5
BRANCH   3  21
ATOM     21  C   UNL A   1      33.262  22.245  25.744  1.00  0.00     0.118 C 
BRANCH  21  22
ATOM     22  C   UNL A   1      34.458  21.441  26.242  1.00  0.00     0.042 C 
BRANCH  22  23
ATOM     23  C   UNL A   1      35.806  22.033  25.844  1.00  0.00     0.118 C 
BRANCH  23  24
ATOM     24  N   UNL A   1      36.840  21.017  25.701  1.00  0.00    -0.352 N 
ATOM     25  C   UNL A   1      38.208  21.130  25.721  1.00  0.00     0.251 C 
ATOM     26  H   UNL A   1      36.504  20.101  25.571  1.00  0.00     0.163 HD
ATOM     27  O   UNL A   1      38.887  20.161  25.386  1.00  0.00    -0.269 OA
BRANCH  25  28
ATOM     28  C   UNL A   1      38.875  22.392  26.122  1.00  0.00     0.039 A 
ATOM     29  C   UNL A   1      40.033  22.318  26.902  1.00  0.00     0.014 A 
ATOM     30  C   UNL A   1      38.346  23.643  25.791  1.00  0.00     0.014 A 
ATOM     31  C   UNL A   1      40.678  23.489  27.309  1.00  0.00     0.010 A 
ATOM     32  C   UNL A   1      39.038  24.807  26.125  1.00  0.00     0.010 A 
ATOM     33  C   UNL A   1      40.201  24.746  26.904  1.00  0.00    -0.014 A 
BRANCH  33  34
ATOM     34  C   UNL A   1      40.904  25.994  27.302  1.00  0.00     0.031 A 
ATOM     35  C   UNL A   1      42.335  26.236  26.891  1.00  0.00     0.074 A 
ATOM     36  C   UNL A   1      40.273  26.894  28.083  1.00  0.00     0.049 A 
ATOM     37  N   UNL A   1      43.102  27.265  27.143  1.00  0.00    -0.248 NA
ATOM     38  C   UNL A   1      42.999  25.172  26.119  1.00  0.00     0.031 C 
ATOM     39  C   UNL A   1      38.919  26.742  28.621  1.00  0.00     0.029 A 
ATOM     40  N   UNL A   1      40.690  28.105  28.575  1.00  0.00    -0.354 N 
ATOM     41  C   UNL A   1      44.343  26.962  26.593  1.00  0.00     0.074 A 
ATOM     42  C   UNL A   1      44.237  25.635  26.027  1.00  0.00     0.031 C 
ATOM     43  C   UNL A   1      38.613  27.823  29.355  1.00  0.00     0.029 A 
ATOM     44  C   UNL A   1      39.754  28.733  29.364  1.00  0.00     0.049 A 
ATOM     45  H   UNL A   1      41.576  28.489  28.382  1.00  0.00     0.167 HD
ATOM     46  C   UNL A   1      45.460  27.726  26.534  1.00  0.00     0.034 A 
ATOM     47  C   UNL A   1      39.807  29.909  30.019  1.00  0.00     0.034 A 
ATOM     48  C   UNL A   1      45.552  29.062  27.062  1.00  0.00     0.049 A 
ATOM     49  C   UNL A   1      41.038  30.764  29.888  1.00  0.00     0.074 A 
ATOM     50  C   UNL A   1      46.610  29.949  26.981  1.00  0.00     0.029 A 
ATOM     51  N   UNL A   1      44.550  29.701  27.778  1.00  0.00    -0.354 N 
ATOM     52  N   UNL A   1      42.143  30.526  29.226  1.00  0.00    -0.248 NA
ATOM     53  C   UNL A   1      41.010  32.073  30.558  1.00  0.00     0.031 C 
ATOM     54  C   UNL A   1      46.258  31.115  27.669  1.00  0.00     0.029 A 
ATOM     55  C   UNL A   1      44.966  30.969  28.148  1.00  0.00     0.049 A 
ATOM     56  H   UNL A   1      43.672  29.310  27.991  1.00  0.00     0.167 HD
ATOM     57  C   UNL A   1      42.925  31.668  29.364  1.00  0.00     0.074 A 
ATOM     58  C   UNL A   1      42.154  32.606  30.153  1.00  0.00     0.031 C 
ATOM     59  C   UNL A   1      44.172  31.913  28.891  1.00  0.00     0.034 A 
BRANCH  46  60
ATOM     60  C   UNL A   1      46.664  27.155  25.828  1.00  0.00     0.023 A 
ATOM     61  C   UNL A   1      47.421  26.141  26.450  1.00  0.00     0.012 A 
ATOM     62  C   UNL A   1      47.015  27.578  24.530  1.00  0.00     0.148 A 
ATOM     63  C   UNL A   1      48.530  25.585  25.811  1.00  0.00     0.002 A 
ATOM     64  C   UNL A   1      48.092  26.985  23.880  1.00  0.00     0.091 A 
ATOM     65  F   UNL A   1      46.297  28.556  23.960  1.00  0.00    -0.205 F 
ATOM     66  C   UNL A   1      48.857  25.999  24.524  1.00  0.00     0.022 A 
BRANCH  64  67
ATOM     67  S   UNL A   1      48.545  27.388  22.189  1.00  0.00     0.127 S 
ATOM     68  O   UNL A   1      49.721  28.234  22.393  1.00  0.00    -0.237 OA
ATOM     69  O   UNL A   1      48.836  26.069  21.627  1.00  0.00    -0.237 OA
ATOM     70  O   UNL A   1      47.388  28.053  21.610  1.00  0.00    -0.744 OA
ENDBRANCH  64  67
ENDBRANCH  46  60
BRANCH  47  71
ATOM     71  C   UNL A   1      38.625  30.384  30.794  1.00  0.00     0.023 A 
ATOM     72  C   UNL A   1      38.555  30.132  32.178  1.00  0.00     0.012 A 
ATOM     73  C   UNL A   1      37.584  31.100  30.173  1.00  0.00     0.148 A 
ATOM     74  C   UNL A   1      37.453  30.551  32.923  1.00  0.00     0.002 A 
ATOM     75  C   UNL A   1      36.517  31.567  30.933  1.00  0.00     0.091 A 
ATOM     76  F   UNL A   1      37.665  31.324  28.854  1.00  0.00    -0.205 F 
ATOM     77  C   UNL A   1      36.439  31.276  32.303  1.00  0.00     0.022 A 
BRANCH  75  78
ATOM     78  S   UNL A   1      35.241  32.628  30.245  1.00  0.00     0.127 S 
ATOM     79  O   UNL A   1      34.693  31.784  29.183  1.00  0.00    -0.237 OA
ATOM     80  O   UNL A   1      34.356  32.819  31.397  1.00  0.00    -0.237 OA
ATOM     81  O   UNL A   1      35.923  33.834  29.808  1.00  0.00    -0.744 OA
ENDBRANCH  75  78
ENDBRANCH  47  71
BRANCH  59  82
ATOM     82  C   UNL A   1      44.768  33.268  29.171  1.00  0.00     0.023 A 
ATOM     83  C   UNL A   1      45.507  33.487  30.352  1.00  0.00     0.012 A 
ATOM     84  C   UNL A   1      44.632  34.317  28.240  1.00  0.00     0.148 A 
ATOM     85  C   UNL A   1      46.058  34.738  30.623  1.00  0.00     0.002 A 
ATOM     86  C   UNL A   1      45.231  35.546  28.492  1.00  0.00     0.091 A 
ATOM     87  F   UNL A   1      43.910  34.100  27.132  1.00  0.00    -0.205 F 
ATOM     88  C   UNL A   1      45.929  35.764  29.689  1.00  0.00     0.022 A 
BRANCH  86  89
ATOM     89  S   UNL A   1      45.198  36.888  27.298  1.00  0.00     0.127 S 
ATOM     90  O   UNL A   1      43.775  36.961  26.969  1.00  0.00    -0.237 OA
ATOM     91  O   UNL A   1      45.701  38.016  28.083  1.00  0.00    -0.237 OA
ATOM     92  O   UNL A   1      46.075  36.475  26.211  1.00  0.00    -0.744 OA
ENDBRANCH  86  89
ENDBRANCH  59  82
ENDBRANCH  33  34
ENDBRANCH  25  28
ENDBRANCH  23  24
ENDBRANCH  22  23
ENDBRANCH  21  22
ENDBRANCH   3  21
TORSDOF 20
ENDMDL
MODEL 2
REMARK VINA RESULT:     -11.2      1.919      8.089
REMARK SMILES C[C@@H](CCO)SCc1cccc(/C=C/C(=O)NCCCNC(=O)c2ccc(-c3c4nc(c(-c5cccc(S(=O)(=O)[O-])c5F)c5ccc([nH]5)c(-c5cccc(S(=O)(=O)[O-])c5F)c5nc(c(-c6cccc(S(=O)(=O)[O-])c6F)c6ccc3[nH]6)C=C5)C=C4)cc2)c1
REMARK SMILES IDX 15 1 16 2 17 3 14 5 13 6 12 7 8 8 9 9 87 10 10 11 11 12 7 13
REMARK SMILES IDX 6 14 2 15 1 16 3 17 4 18 5 19 18 21 19 22 20 23 21 24 22 25
REMARK SMILES IDX 23 27 24 28 25 29 86 30 26 31 85 32 27 33 28 34 29 35 79 36
REMARK SMILES IDX 30 37 84 38 78 39 80 40 31 41 83 42 77 43 76 44 32 46 64 47
REMARK SMILES IDX 44 48 63 49 45 50 48 51 62 52 81 53 46 54 47 55 61 57 82 58
REMARK SMILES IDX 49 59 33 60 34 61 42 62 35 63 37 64 43 65 36 66 38 67 39 68
REMARK SMILES IDX 40 69 41 70 65 71 66 72 74 73 67 74 69 75 75 76 68 77 70 78
REMARK SMILES IDX 71 79 72 80 73 81 50 82 51 83 59 84 52 85 54 86 60 87 53 88
REMARK SMILES IDX 55 89 56 90 57 91 58 92
REMARK H PARENT 17 4 5 20 21 26 80 45 48 56
REMARK Flexibility Score: inf
ROOT
ATOM      1  C   UNL A   1      37.456  23.633  25.548  1.00  0.00     0.244 C 
ATOM      2  O   UNL A   1      38.185  24.440  26.118  1.00  0.00    -0.270 OA
ATOM      3  N   UNL A   1      37.987  22.521  24.968  1.00  0.00    -0.352 N 
ATOM      4  H   UNL A   1      38.971  22.490  24.949  1.00  0.00     0.163 HD
ENDROOT
BRANCH   1   5
ATOM      5  C   UNL A   1      35.990  23.799  25.604  1.00  0.00     0.072 C 
ATOM      6  C   UNL A   1      35.201  23.201  26.511  1.00  0.00     0.014 C 
BRANCH   6   7
ATOM      7  C   UNL A   1      33.768  23.523  26.622  1.00  0.00    -0.025 A 
ATOM      8  C   UNL A   1      31.934  24.928  25.832  1.00  0.00    -0.037 A 
ATOM      9  C   UNL A   1      31.021  24.042  26.419  1.00  0.00     0.004 A 
ATOM     10  C   UNL A   1      33.307  24.695  26.007  1.00  0.00     0.012 A 
ATOM     11  C   UNL A   1      31.473  22.927  27.124  1.00  0.00     0.001 A 
ATOM     12  C   UNL A   1      32.840  22.659  27.212  1.00  0.00     0.008 A 
BRANCH   8  13
ATOM     13  C   UNL A   1      31.452  26.041  24.933  1.00  0.00     0.105 C 
BRANCH  13  14
ATOM     14  S   UNL A   1      32.768  27.291  24.628  1.00  0.00    -0.154 SA
BRANCH  14  15
ATOM     15  C   UNL A   1      32.999  27.332  22.793  1.00  0.00     0.046 C 
ATOM     16  C   UNL A   1      34.059  28.294  22.265  1.00  0.00     0.019 C 
BRANCH  15  17
ATOM     17  C   UNL A   1      33.068  25.939  22.127  1.00  0.00     0.042 C 
BRANCH  17  18
ATOM     18  C   UNL A   1      32.263  25.731  20.855  1.00  0.00     0.157 C 
BRANCH  18  19
ATOM     19  O   UNL A   1      33.081  25.812  19.701  1.00  0.00    -0.396 OA
ATOM     20  H   UNL A   1      33.867  25.256  19.822  1.00  0.00     0.210 HD
ENDBRANCH  18  19
ENDBRANCH  17  18
ENDBRANCH  15  17
ENDBRANCH  14  15
ENDBRANCH  13  14
ENDBRANCH   8  13
ENDBRANCH   6   7
ENDBRANCH   1   5
BRANCH   3  21
ATOM     21  C   UNL A   1      37.324  21.373  24.375  1.00  0.00     0.118 C 
BRANCH  21  22
ATOM     22  C   UNL A   1      38.034  20.064  24.704  1.00  0.00     0.042 C 
BRANCH  22  23
ATOM     23  C   UNL A   1      38.726  20.065  26.064  1.00  0.00     0.118 C 
BRANCH  23  24
ATOM     24  N   UNL A   1      39.892  19.192  26.095  1.00  0.00    -0.352 N 
ATOM     25  C   UNL A   1      41.227  19.494  26.186  1.00  0.00     0.251 C 
ATOM     26  H   UNL A   1      39.688  18.230  26.045  1.00  0.00     0.163 HD
ATOM     27  O   UNL A   1      42.051  18.599  25.999  1.00  0.00    -0.269 OA
BRANCH  25  28
ATOM     28  C   UNL A   1      41.692  20.869  26.487  1.00  0.00     0.039 A 
ATOM     29  C   UNL A   1      41.690  21.816  25.459  1.00  0.00     0.014 A 
ATOM     30  C   UNL A   1      42.181  21.222  27.748  1.00  0.00     0.014 A 
ATOM     31  C   UNL A   1      42.135  23.118  25.706  1.00  0.00     0.010 A 
ATOM     32  C   UNL A   1      42.543  22.542  28.015  1.00  0.00     0.010 A 
ATOM     33  C   UNL A   1      42.544  23.502  26.993  1.00  0.00    -0.014 A 
BRANCH  33  34
ATOM     34  C   UNL A   1      42.982  24.895  27.272  1.00  0.00     0.031 A 
ATOM     35  C   UNL A   1      42.057  25.870  27.954  1.00  0.00     0.074 A 
ATOM     36  C   UNL A   1      44.200  25.303  26.863  1.00  0.00     0.049 A 
ATOM     37  N   UNL A   1      42.271  27.120  28.280  1.00  0.00    -0.248 NA
ATOM     38  C   UNL A   1      40.706  25.390  28.291  1.00  0.00     0.031 C 
ATOM     39  C   UNL A   1      45.159  24.486  26.117  1.00  0.00     0.029 A 
ATOM     40  N   UNL A   1      44.834  26.513  27.000  1.00  0.00    -0.354 N 
ATOM     41  C   UNL A   1      41.080  27.583  28.827  1.00  0.00     0.074 A 
ATOM     42  C   UNL A   1      40.133  26.491  28.754  1.00  0.00     0.031 C 
ATOM     43  C   UNL A   1      46.262  25.211  25.875  1.00  0.00     0.029 A 
ATOM     44  C   UNL A   1      46.082  26.552  26.423  1.00  0.00     0.049 A 
ATOM     45  H   UNL A   1      44.433  27.282  27.466  1.00  0.00     0.167 HD
ATOM     46  C   UNL A   1      40.803  28.793  29.370  1.00  0.00     0.034 A 
ATOM     47  C   UNL A   1      46.982  27.551  26.345  1.00  0.00     0.034 A 
ATOM     48  C   UNL A   1      41.757  29.865  29.478  1.00  0.00     0.049 A 
ATOM     49  C   UNL A   1      46.672  28.866  27.007  1.00  0.00     0.074 A 
ATOM     50  C   UNL A   1      41.601  31.098  30.085  1.00  0.00     0.029 A 
ATOM     51  N   UNL A   1      43.044  29.834  28.962  1.00  0.00    -0.354 N 
ATOM     52  N   UNL A   1      45.596  29.229  27.662  1.00  0.00    -0.248 NA
ATOM     53  C   UNL A   1      47.721  29.895  26.961  1.00  0.00     0.031 C 
ATOM     54  C   UNL A   1      42.786  31.823  29.913  1.00  0.00     0.029 A 
ATOM     55  C   UNL A   1      43.692  31.028  29.232  1.00  0.00     0.049 A 
ATOM     56  H   UNL A   1      43.439  29.075  28.475  1.00  0.00     0.167 HD
ATOM     57  C   UNL A   1      45.854  30.510  28.139  1.00  0.00     0.074 A 
ATOM     58  C   UNL A   1      47.197  30.848  27.718  1.00  0.00     0.031 C 
ATOM     59  C   UNL A   1      45.047  31.335  28.851  1.00  0.00     0.034 A 
BRANCH  46  60
ATOM     60  C   UNL A   1      39.422  29.008  29.937  1.00  0.00     0.023 A 
ATOM     61  C   UNL A   1      39.122  28.547  31.235  1.00  0.00     0.012 A 
ATOM     62  C   UNL A   1      38.440  29.712  29.213  1.00  0.00     0.148 A 
ATOM     63  C   UNL A   1      37.857  28.748  31.789  1.00  0.00     0.002 A 
ATOM     64  C   UNL A   1      37.198  29.951  29.790  1.00  0.00     0.091 A 
ATOM     65  F   UNL A   1      38.735  30.127  27.972  1.00  0.00    -0.205 F 
ATOM     66  C   UNL A   1      36.901  29.458  31.071  1.00  0.00     0.022 A 
BRANCH  64  67
ATOM     67  S   UNL A   1      35.925  30.928  28.981  1.00  0.00     0.127 S 
ATOM     68  O   UNL A   1      35.262  29.920  28.153  1.00  0.00    -0.237 OA
ATOM     69  O   UNL A   1      35.132  31.399  30.117  1.00  0.00    -0.237 OA
ATOM     70  O   UNL A   1      36.623  31.975  28.253  1.00  0.00    -0.744 OA
ENDBRANCH  64  67
ENDBRANCH  46  60
BRANCH  47  71
ATOM     71  C   UNL A   1      48.295  27.321  25.679  1.00  0.00     0.023 A 
ATOM     72  C   UNL A   1      49.392  26.871  26.440  1.00  0.00     0.012 A 
ATOM     73  C   UNL A   1      48.458  27.525  24.295  1.00  0.00     0.148 A 
ATOM     74  C   UNL A   1      50.636  26.665  25.844  1.00  0.00     0.002 A 
ATOM     75  C   UNL A   1      49.685  27.259  23.697  1.00  0.00     0.091 A 
ATOM     76  F   UNL A   1      47.406  27.960  23.588  1.00  0.00    -0.205 F 
ATOM     77  C   UNL A   1      50.780  26.849  24.472  1.00  0.00     0.022 A 
BRANCH  75  78
ATOM     78  S   UNL A   1      49.921  27.334  21.917  1.00  0.00     0.127 S 
ATOM     79  O   UNL A   1      49.784  28.767  21.658  1.00  0.00    -0.237 OA
ATOM     80  O   UNL A   1      51.281  26.810  21.772  1.00  0.00    -0.237 OA
ATOM     81  O   UNL A   1      48.889  26.486  21.346  1.00  0.00    -0.744 OA
ENDBRANCH  75  78
ENDBRANCH  47  71
BRANCH  59  82
ATOM     82  C   UNL A   1      45.609  32.671  29.265  1.00  0.00     0.023 A 
ATOM     83  C   UNL A   1      46.235  32.818  30.520  1.00  0.00     0.012 A 
ATOM     84  C   UNL A   1      45.553  33.773  28.390  1.00  0.00     0.148 A 
ATOM     85  C   UNL A   1      46.753  34.050  30.914  1.00  0.00     0.002 A 
ATOM     86  C   UNL A   1      46.120  34.984  28.768  1.00  0.00     0.091 A 
ATOM     87  F   UNL A   1      44.936  33.624  27.209  1.00  0.00    -0.205 F 
ATOM     88  C   UNL A   1      46.705  35.130  30.035  1.00  0.00     0.022 A 
BRANCH  86  89
ATOM     89  S   UNL A   1      46.191  36.396  27.659  1.00  0.00     0.127 S 
ATOM     90  O   UNL A   1      47.177  37.247  28.322  1.00  0.00    -0.237 OA
ATOM     91  O   UNL A   1      46.651  35.789  26.410  1.00  0.00    -0.237 OA
ATOM     92  O   UNL A   1      44.835  36.927  27.605  1.00  0.00    -0.744 OA
ENDBRANCH  86  89
ENDBRANCH  59  82
ENDBRANCH  33  34
ENDBRANCH  25  28
ENDBRANCH  23  24
ENDBRANCH  22  23
ENDBRANCH  21  22
ENDBRANCH   3  21
TORSDOF 20
ENDMDL
MODEL 3
REMARK VINA RESULT:     -11.2      1.954      2.690
REMARK SMILES C[C@@H](CCO)SCc1cccc(/C=C/C(=O)NCCCNC(=O)c2ccc(-c3c4nc(c(-c5cccc(S(=O)(=O)[O-])c5F)c5ccc([nH]5)c(-c5cccc(S(=O)(=O)[O-])c5F)c5nc(c(-c6cccc(S(=O)(=O)[O-])c6F)c6ccc3[nH]6)C=C5)C=C4)cc2)c1
REMARK SMILES IDX 15 1 16 2 17 3 14 5 13 6 12 7 8 8 9 9 87 10 10 11 11 12 7 13
REMARK SMILES IDX 6 14 2 15 1 16 3 17 4 18 5 19 18 21 19 22 20 23 21 24 22 25
REMARK SMILES IDX 23 27 24 28 25 29 86 30 26 31 85 32 27 33 28 34 29 35 79 36
REMARK SMILES IDX 30 37 84 38 78 39 80 40 31 41 83 42 77 43 76 44 32 46 64 47
REMARK SMILES IDX 44 48 63 49 45 50 48 51 62 52 81 53 46 54 47 55 61 57 82 58
REMARK SMILES IDX 49 59 33 60 34 61 42 62 35 63 37 64 43 65 36 66 38 67 39 68
REMARK SMILES IDX 40 69 41 70 65 71 66 72 74 73 67 74 69 75 75 76 68 77 70 78
REMARK SMILES IDX 71 79 72 80 73 81 50 82 51 83 59 84 52 85 54 86 60 87 53 88
REMARK SMILES IDX 55 89 56 90 57 91 58 92
REMARK H PARENT 17 4 5 20 21 26 80 45 48 56
REMARK Flexibility Score: inf
ROOT
ATOM      1  C   UNL A   1      31.127  23.266  26.878  1.00  0.00     0.244 C 
ATOM      2  O   UNL A   1      30.117  23.087  27.553  1.00  0.00    -0.270 OA
ATOM      3  N   UNL A   1      32.050  22.273  26.752  1.00  0.00    -0.352 N 
ATOM      4  H   UNL A   1      31.895  21.484  27.321  1.00  0.00     0.163 HD
ENDROOT
BRANCH   1   5
ATOM      5  C   UNL A   1      31.279  24.509  26.096  1.00  0.00     0.072 C 
ATOM      6  C   UNL A   1      32.459  25.100  25.848  1.00  0.00     0.014 C 
BRANCH   6   7
ATOM      7  C   UNL A   1      32.571  26.248  24.932  1.00  0.00    -0.025 A 
ATOM      8  C   UNL A   1      31.517  28.280  24.083  1.00  0.00    -0.037 A 
ATOM      9  C   UNL A   1      32.747  28.673  23.536  1.00  0.00     0.004 A 
ATOM     10  C   UNL A   1      31.428  27.030  24.712  1.00  0.00     0.012 A 
ATOM     11  C   UNL A   1      33.868  27.852  23.659  1.00  0.00     0.001 A 
ATOM     12  C   UNL A   1      33.784  26.652  24.368  1.00  0.00     0.008 A 
BRANCH   8  13
ATOM     13  C   UNL A   1      30.346  29.233  24.096  1.00  0.00     0.105 C 
BRANCH  13  14
ATOM     14  S   UNL A   1      29.714  29.562  22.399  1.00  0.00    -0.154 SA
BRANCH  14  15
ATOM     15  C   UNL A   1      27.942  30.050  22.614  1.00  0.00     0.046 C 
ATOM     16  C   UNL A   1      27.038  29.031  23.301  1.00  0.00     0.019 C 
BRANCH  15  17
ATOM     17  C   UNL A   1      27.736  31.489  23.142  1.00  0.00     0.042 C 
BRANCH  17  18
ATOM     18  C   UNL A   1      28.561  32.593  22.503  1.00  0.00     0.157 C 
BRANCH  18  19
ATOM     19  O   UNL A   1      27.769  33.418  21.666  1.00  0.00    -0.396 OA
ATOM     20  H   UNL A   1      27.300  34.072  22.207  1.00  0.00     0.210 HD
ENDBRANCH  18  19
ENDBRANCH  17  18
ENDBRANCH  15  17
ENDBRANCH  14  15
ENDBRANCH  13  14
ENDBRANCH   8  13
ENDBRANCH   6   7
ENDBRANCH   1   5
BRANCH   3  21
ATOM     21  C   UNL A   1      33.229  22.199  25.907  1.00  0.00     0.118 C 
BRANCH  21  22
ATOM     22  C   UNL A   1      34.484  21.846  26.698  1.00  0.00     0.042 C 
BRANCH  22  23
ATOM     23  C   UNL A   1      35.771  22.390  26.085  1.00  0.00     0.118 C 
BRANCH  23  24
ATOM     24  N   UNL A   1      36.785  21.359  25.916  1.00  0.00    -0.352 N 
ATOM     25  C   UNL A   1      38.155  21.445  25.936  1.00  0.00     0.251 C 
ATOM     26  H   UNL A   1      36.431  20.453  25.763  1.00  0.00     0.163 HD
ATOM     27  O   UNL A   1      38.815  20.472  25.575  1.00  0.00    -0.269 OA
BRANCH  25  28
ATOM     28  C   UNL A   1      38.845  22.684  26.369  1.00  0.00     0.039 A 
ATOM     29  C   UNL A   1      39.928  22.574  27.247  1.00  0.00     0.014 A 
ATOM     30  C   UNL A   1      38.409  23.950  25.968  1.00  0.00     0.014 A 
ATOM     31  C   UNL A   1      40.593  23.723  27.685  1.00  0.00     0.010 A 
ATOM     32  C   UNL A   1      39.126  25.088  26.338  1.00  0.00     0.010 A 
ATOM     33  C   UNL A   1      40.214  24.991  27.216  1.00  0.00    -0.014 A 
BRANCH  33  34
ATOM     34  C   UNL A   1      40.940  26.214  27.649  1.00  0.00     0.031 A 
ATOM     35  C   UNL A   1      42.386  26.422  27.276  1.00  0.00     0.074 A 
ATOM     36  C   UNL A   1      40.314  27.119  28.427  1.00  0.00     0.049 A 
ATOM     37  N   UNL A   1      43.175  27.426  27.561  1.00  0.00    -0.248 NA
ATOM     38  C   UNL A   1      43.041  25.351  26.505  1.00  0.00     0.031 C 
ATOM     39  C   UNL A   1      38.944  26.998  28.930  1.00  0.00     0.029 A 
ATOM     40  N   UNL A   1      40.752  28.312  28.947  1.00  0.00    -0.354 N 
ATOM     41  C   UNL A   1      44.420  27.097  27.037  1.00  0.00     0.074 A 
ATOM     42  C   UNL A   1      44.293  25.781  26.449  1.00  0.00     0.031 C 
ATOM     43  C   UNL A   1      38.650  28.077  29.672  1.00  0.00     0.029 A 
ATOM     44  C   UNL A   1      39.814  28.955  29.722  1.00  0.00     0.049 A 
ATOM     45  H   UNL A   1      41.652  28.674  28.780  1.00  0.00     0.167 HD
ATOM     46  C   UNL A   1      45.558  27.831  27.016  1.00  0.00     0.034 A 
ATOM     47  C   UNL A   1      39.882  30.120  30.394  1.00  0.00     0.034 A 
ATOM     48  C   UNL A   1      45.674  29.156  27.565  1.00  0.00     0.049 A 
ATOM     49  C   UNL A   1      41.139  30.943  30.305  1.00  0.00     0.074 A 
ATOM     50  C   UNL A   1      46.757  30.015  27.522  1.00  0.00     0.029 A 
ATOM     51  N   UNL A   1      44.672  29.812  28.265  1.00  0.00    -0.354 N 
ATOM     52  N   UNL A   1      42.254  30.683  29.667  1.00  0.00    -0.248 NA
ATOM     53  C   UNL A   1      41.131  32.242  30.993  1.00  0.00     0.031 C 
ATOM     54  C   UNL A   1      46.419  31.181  28.218  1.00  0.00     0.029 A 
ATOM     55  C   UNL A   1      45.113  31.064  28.664  1.00  0.00     0.049 A 
ATOM     56  H   UNL A   1      43.779  29.443  28.452  1.00  0.00     0.167 HD
ATOM     57  C   UNL A   1      43.062  31.802  29.840  1.00  0.00     0.074 A 
ATOM     58  C   UNL A   1      42.298  32.749  30.624  1.00  0.00     0.031 C 
ATOM     59  C   UNL A   1      44.326  32.019  29.400  1.00  0.00     0.034 A 
BRANCH  46  60
ATOM     60  C   UNL A   1      46.764  27.237  26.330  1.00  0.00     0.023 A 
ATOM     61  C   UNL A   1      46.925  27.400  24.939  1.00  0.00     0.012 A 
ATOM     62  C   UNL A   1      47.762  26.567  27.066  1.00  0.00     0.148 A 
ATOM     63  C   UNL A   1      48.039  26.874  24.284  1.00  0.00     0.002 A 
ATOM     64  C   UNL A   1      48.893  26.089  26.414  1.00  0.00     0.091 A 
ATOM     65  F   UNL A   1      47.584  26.404  28.385  1.00  0.00    -0.205 F 
ATOM     66  C   UNL A   1      49.026  26.229  25.023  1.00  0.00     0.022 A 
BRANCH  64  67
ATOM     67  S   UNL A   1      50.261  25.316  27.286  1.00  0.00     0.127 S 
ATOM     68  O   UNL A   1      50.772  26.433  28.081  1.00  0.00    -0.237 OA
ATOM     69  O   UNL A   1      49.581  24.278  28.062  1.00  0.00    -0.237 OA
ATOM     70  O   UNL A   1      51.161  24.815  26.260  1.00  0.00    -0.744 OA
ENDBRANCH  64  67
ENDBRANCH  46  60
BRANCH  47  71
ATOM     71  C   UNL A   1      38.696  30.616  31.147  1.00  0.00     0.023 A 
ATOM     72  C   UNL A   1      38.643  30.457  32.546  1.00  0.00     0.012 A 
ATOM     73  C   UNL A   1      37.631  31.262  30.490  1.00  0.00     0.148 A 
ATOM     74  C   UNL A   1      37.537  30.897  33.272  1.00  0.00     0.002 A 
ATOM     75  C   UNL A   1      36.559  31.752  31.227  1.00  0.00     0.091 A 
ATOM     76  F   UNL A   1      37.695  31.398  29.158  1.00  0.00    -0.205 F 
ATOM     77  C   UNL A   1      36.500  31.553  32.615  1.00  0.00     0.022 A 
BRANCH  75  78
ATOM     78  S   UNL A   1      35.250  32.731  30.482  1.00  0.00     0.127 S 
ATOM     79  O   UNL A   1      35.997  33.869  29.945  1.00  0.00    -0.237 OA
ATOM     80  O   UNL A   1      34.724  31.810  29.472  1.00  0.00    -0.237 OA
ATOM     81  O   UNL A   1      34.321  33.033  31.557  1.00  0.00    -0.744 OA
ENDBRANCH  75  78
ENDBRANCH  47  71
BRANCH  59  82
ATOM     82  C   UNL A   1      44.952  33.353  29.714  1.00  0.00     0.023 A 
ATOM     83  C   UNL A   1      45.714  33.520  30.889  1.00  0.00     0.012 A 
ATOM     84  C   UNL A   1      44.820  34.434  28.821  1.00  0.00     0.148 A 
ATOM     85  C   UNL A   1      46.293  34.751  31.191  1.00  0.00     0.002 A 
ATOM     86  C   UNL A   1      45.445  35.643  29.101  1.00  0.00     0.091 A 
ATOM     87  F   UNL A   1      44.076  34.267  27.718  1.00  0.00    -0.205 F 
ATOM     88  C   UNL A   1      46.168  35.809  30.293  1.00  0.00     0.022 A 
BRANCH  86  89
ATOM     89  S   UNL A   1      45.418  37.024  27.953  1.00  0.00     0.127 S 
ATOM     90  O   UNL A   1      46.242  36.517  26.857  1.00  0.00    -0.237 OA
ATOM     91  O   UNL A   1      43.994  37.144  27.641  1.00  0.00    -0.237 OA
ATOM     92  O   UNL A   1      45.971  38.158  28.682  1.00  0.00    -0.744 OA
ENDBRANCH  86  89
ENDBRANCH  59  82
ENDBRANCH  33  34
ENDBRANCH  25  28
ENDBRANCH  23  24
ENDBRANCH  22  23
ENDBRANCH  21  22
ENDBRANCH   3  21
TORSDOF 20
ENDMDL
