MODEL 1
REMARK VINA RESULT:     -10.7      0.000      0.000
REMARK SMILES CC(C)CN(C)/C=C\C(=O)NCCCNC(=O)c1ccc(-c2c3nc(c(-c4cccc(S(=O)(=O)[O-])c4F)c4ccc([nH]4)c(-c4cccc(S(=O)(=O)[O-])c4F)c4nc(c(-c5cccc(S(=O)(=O)[O-])c5F)c5ccc2[nH]5)C=C4)C=C3)cc1
REMARK SMILES IDX 13 1 12 2 11 3 9 4 10 5 8 7 7 8 5 9 6 10 4 11 2 12 1 13 3 14
REMARK SMILES IDX 14 15 15 16 16 17 17 19 18 20 19 21 80 22 20 23 79 24 21 25
REMARK SMILES IDX 22 26 23 27 73 28 24 29 78 30 72 31 74 32 25 33 77 34 71 35
REMARK SMILES IDX 70 36 26 38 58 39 38 40 57 41 39 42 42 43 56 44 75 45 40 46
REMARK SMILES IDX 41 47 55 49 76 50 43 51 27 52 28 53 36 54 29 55 31 56 37 57
REMARK SMILES IDX 30 58 32 59 33 60 34 61 35 62 59 63 60 64 68 65 61 66 63 67
REMARK SMILES IDX 69 68 62 69 64 70 65 71 66 72 67 73 44 74 45 75 53 76 46 77
REMARK SMILES IDX 48 78 54 79 47 80 49 81 50 82 51 83 52 84
REMARK H PARENT 11 6 15 18 74 37 42 48
REMARK Flexibility Score: inf
ROOT
ATOM      1  C   UNL A   1      32.434  29.600  25.494  1.00  0.00     0.042 C 
ENDROOT
BRANCH   1   2
ATOM      2  C   UNL A   1      30.996  29.733  24.970  1.00  0.00     0.118 C 
BRANCH   2   3
ATOM      3  N   UNL A   1      30.828  29.721  23.524  1.00  0.00    -0.352 N 
ATOM      4  C   UNL A   1      29.977  29.018  22.727  1.00  0.00     0.245 C 
ATOM      5  O   UNL A   1      29.848  29.345  21.547  1.00  0.00    -0.270 OA
ATOM      6  H   UNL A   1      31.436  30.325  23.039  1.00  0.00     0.163 HD
BRANCH   4   7
ATOM      7  C   UNL A   1      29.126  27.943  23.271  1.00  0.00     0.088 C 
ATOM      8  C   UNL A   1      29.485  26.744  23.746  1.00  0.00     0.086 C 
BRANCH   8   9
ATOM      9  N   UNL A   1      30.696  26.085  23.887  1.00  0.00    -0.380 N 
ATOM     10  C   UNL A   1      31.378  26.094  25.188  1.00  0.00     0.143 C 
BRANCH   9  11
ATOM     11  C   UNL A   1      31.431  25.447  22.786  1.00  0.00     0.118 C 
BRANCH  11  12
ATOM     12  C   UNL A   1      32.136  26.370  21.788  1.00  0.00     0.002 C 
ATOM     13  C   UNL A   1      33.345  27.107  22.355  1.00  0.00     0.009 C 
ATOM     14  C   UNL A   1      32.586  25.492  20.607  1.00  0.00     0.009 C 
ENDBRANCH  11  12
ENDBRANCH   9  11
ENDBRANCH   8   9
ENDBRANCH   4   7
ENDBRANCH   2   3
ENDBRANCH   1   2
BRANCH   1  15
ATOM     15  C   UNL A   1      32.716  30.078  26.923  1.00  0.00     0.118 C 
BRANCH  15  16
ATOM     16  N   UNL A   1      32.871  31.518  26.983  1.00  0.00    -0.352 N 
ATOM     17  C   UNL A   1      33.811  32.269  27.645  1.00  0.00     0.251 C 
ATOM     18  H   UNL A   1      32.203  32.033  26.475  1.00  0.00     0.163 HD
ATOM     19  O   UNL A   1      33.567  33.458  27.855  1.00  0.00    -0.269 OA
BRANCH  17  20
ATOM     20  C   UNL A   1      35.111  31.705  28.098  1.00  0.00     0.039 A 
ATOM     21  C   UNL A   1      35.125  30.394  28.591  1.00  0.00     0.014 A 
ATOM     22  C   UNL A   1      36.271  32.481  28.192  1.00  0.00     0.014 A 
ATOM     23  C   UNL A   1      36.282  29.869  29.179  1.00  0.00     0.010 A 
ATOM     24  C   UNL A   1      37.442  31.938  28.750  1.00  0.00     0.010 A 
ATOM     25  C   UNL A   1      37.454  30.636  29.274  1.00  0.00    -0.014 A 
BRANCH  25  26
ATOM     26  C   UNL A   1      38.667  30.078  29.943  1.00  0.00     0.031 A 
ATOM     27  C   UNL A   1      39.071  30.530  31.325  1.00  0.00     0.074 A 
ATOM     28  C   UNL A   1      39.427  29.164  29.305  1.00  0.00     0.049 A 
ATOM     29  N   UNL A   1      40.072  30.126  32.068  1.00  0.00    -0.248 NA
ATOM     30  C   UNL A   1      38.253  31.580  31.951  1.00  0.00     0.031 C 
ATOM     31  C   UNL A   1      39.189  28.670  27.949  1.00  0.00     0.029 A 
ATOM     32  N   UNL A   1      40.561  28.499  29.707  1.00  0.00    -0.354 N 
ATOM     33  C   UNL A   1      40.020  30.885  33.233  1.00  0.00     0.074 A 
ATOM     34  C   UNL A   1      38.903  31.793  33.088  1.00  0.00     0.031 C 
ATOM     35  C   UNL A   1      40.145  27.784  27.629  1.00  0.00     0.029 A 
ATOM     36  C   UNL A   1      41.077  27.657  28.748  1.00  0.00     0.049 A 
ATOM     37  H   UNL A   1      40.966  28.613  30.596  1.00  0.00     0.167 HD
ATOM     38  C   UNL A   1      40.810  30.818  34.334  1.00  0.00     0.034 A 
ATOM     39  C   UNL A   1      42.175  26.874  28.760  1.00  0.00     0.034 A 
ATOM     40  C   UNL A   1      41.901  29.892  34.501  1.00  0.00     0.049 A 
ATOM     41  C   UNL A   1      43.022  26.800  30.003  1.00  0.00     0.074 A 
ATOM     42  C   UNL A   1      42.702  29.700  35.613  1.00  0.00     0.029 A 
ATOM     43  N   UNL A   1      42.353  29.013  33.530  1.00  0.00    -0.354 N 
ATOM     44  N   UNL A   1      42.857  27.410  31.152  1.00  0.00    -0.248 NA
ATOM     45  C   UNL A   1      44.186  25.899  29.966  1.00  0.00     0.031 C 
ATOM     46  C   UNL A   1      43.655  28.722  35.305  1.00  0.00     0.029 A 
ATOM     47  C   UNL A   1      43.430  28.286  34.011  1.00  0.00     0.049 A 
ATOM     48  H   UNL A   1      41.965  28.919  32.630  1.00  0.00     0.167 HD
ATOM     49  C   UNL A   1      43.871  26.942  31.982  1.00  0.00     0.074 A 
ATOM     50  C   UNL A   1      44.632  25.982  31.212  1.00  0.00     0.031 C 
ATOM     51  C   UNL A   1      44.153  27.290  33.261  1.00  0.00     0.034 A 
BRANCH  38  52
ATOM     52  C   UNL A   1      40.496  31.744  35.483  1.00  0.00     0.023 A 
ATOM     53  C   UNL A   1      41.360  32.822  35.760  1.00  0.00     0.012 A 
ATOM     54  C   UNL A   1      39.313  31.598  36.235  1.00  0.00     0.148 A 
ATOM     55  C   UNL A   1      41.072  33.721  36.788  1.00  0.00     0.002 A 
ATOM     56  C   UNL A   1      39.011  32.522  37.231  1.00  0.00     0.091 A 
ATOM     57  F   UNL A   1      38.508  30.560  35.968  1.00  0.00    -0.205 F 
ATOM     58  C   UNL A   1      39.895  33.576  37.515  1.00  0.00     0.022 A 
BRANCH  56  59
ATOM     59  S   UNL A   1      37.481  32.470  38.171  1.00  0.00     0.127 S 
ATOM     60  O   UNL A   1      37.789  33.366  39.285  1.00  0.00    -0.237 OA
ATOM     61  O   UNL A   1      36.511  33.001  37.213  1.00  0.00    -0.237 OA
ATOM     62  O   UNL A   1      37.278  31.073  38.530  1.00  0.00    -0.744 OA
ENDBRANCH  56  59
ENDBRANCH  38  52
BRANCH  39  63
ATOM     63  C   UNL A   1      42.505  26.042  27.567  1.00  0.00     0.023 A 
ATOM     64  C   UNL A   1      43.292  26.586  26.534  1.00  0.00     0.012 A 
ATOM     65  C   UNL A   1      42.065  24.707  27.463  1.00  0.00     0.148 A 
ATOM     66  C   UNL A   1      43.610  25.829  25.406  1.00  0.00     0.002 A 
ATOM     67  C   UNL A   1      42.435  23.940  26.365  1.00  0.00     0.091 A 
ATOM     68  F   UNL A   1      41.302  24.212  28.448  1.00  0.00    -0.205 F 
ATOM     69  C   UNL A   1      43.191  24.504  25.327  1.00  0.00     0.022 A 
BRANCH  67  70
ATOM     70  S   UNL A   1      42.057  22.188  26.251  1.00  0.00     0.127 S 
ATOM     71  O   UNL A   1      40.603  22.205  26.089  1.00  0.00    -0.237 OA
ATOM     72  O   UNL A   1      42.804  21.795  25.053  1.00  0.00    -0.237 OA
ATOM     73  O   UNL A   1      42.551  21.597  27.482  1.00  0.00    -0.744 OA
ENDBRANCH  67  70
ENDBRANCH  39  63
BRANCH  51  74
ATOM     74  C   UNL A   1      45.317  26.610  33.936  1.00  0.00     0.023 A 
ATOM     75  C   UNL A   1      46.621  27.116  33.764  1.00  0.00     0.012 A 
ATOM     76  C   UNL A   1      45.111  25.515  34.798  1.00  0.00     0.148 A 
ATOM     77  C   UNL A   1      47.705  26.524  34.413  1.00  0.00     0.002 A 
ATOM     78  C   UNL A   1      46.189  24.959  35.479  1.00  0.00     0.091 A 
ATOM     79  F   UNL A   1      43.868  25.033  34.936  1.00  0.00    -0.205 F 
ATOM     80  C   UNL A   1      47.487  25.455  35.278  1.00  0.00     0.022 A 
BRANCH  78  81
ATOM     81  S   UNL A   1      45.993  23.640  36.683  1.00  0.00     0.127 S 
ATOM     82  O   UNL A   1      45.501  22.545  35.850  1.00  0.00    -0.237 OA
ATOM     83  O   UNL A   1      47.359  23.463  37.177  1.00  0.00    -0.237 OA
ATOM     84  O   UNL A   1      45.053  24.141  37.678  1.00  0.00    -0.744 OA
ENDBRANCH  78  81
ENDBRANCH  51  74
ENDBRANCH  25  26
ENDBRANCH  17  20
ENDBRANCH  15  16
ENDBRANCH   1  15
TORSDOF 16
ENDMDL
MODEL 2
REMARK VINA RESULT:     -10.5      5.531     10.774
REMARK SMILES CC(C)CN(C)/C=C\C(=O)NCCCNC(=O)c1ccc(-c2c3nc(c(-c4cccc(S(=O)(=O)[O-])c4F)c4ccc([nH]4)c(-c4cccc(S(=O)(=O)[O-])c4F)c4nc(c(-c5cccc(S(=O)(=O)[O-])c5F)c5ccc2[nH]5)C=C4)C=C3)cc1
REMARK SMILES IDX 13 1 12 2 11 3 9 4 10 5 8 7 7 8 5 9 6 10 4 11 2 12 1 13 3 14
REMARK SMILES IDX 14 15 15 16 16 17 17 19 18 20 19 21 80 22 20 23 79 24 21 25
REMARK SMILES IDX 22 26 23 27 73 28 24 29 78 30 72 31 74 32 25 33 77 34 71 35
REMARK SMILES IDX 70 36 26 38 58 39 38 40 57 41 39 42 42 43 56 44 75 45 40 46
REMARK SMILES IDX 41 47 55 49 76 50 43 51 27 52 28 53 36 54 29 55 31 56 37 57
REMARK SMILES IDX 30 58 32 59 33 60 34 61 35 62 59 63 60 64 68 65 61 66 63 67
REMARK SMILES IDX 69 68 62 69 64 70 65 71 66 72 67 73 44 74 45 75 53 76 46 77
REMARK SMILES IDX 48 78 54 79 47 80 49 81 50 82 51 83 52 84
REMARK H PARENT 11 6 15 18 74 37 42 48
REMARK Flexibility Score: inf
ROOT
ATOM      1  C   UNL A   1      36.563  20.553  25.040  1.00  0.00     0.042 C 
ENDROOT
BRANCH   1   2
ATOM      2  C   UNL A   1      35.255  21.347  25.184  1.00  0.00     0.118 C 
BRANCH   2   3
ATOM      3  N   UNL A   1      34.856  22.153  24.040  1.00  0.00    -0.352 N 
ATOM      4  C   UNL A   1      34.823  23.504  23.863  1.00  0.00     0.245 C 
ATOM      5  O   UNL A   1      34.678  23.959  22.729  1.00  0.00    -0.270 OA
ATOM      6  H   UNL A   1      34.559  21.632  23.259  1.00  0.00     0.163 HD
BRANCH   4   7
ATOM      7  C   UNL A   1      35.064  24.431  24.984  1.00  0.00     0.088 C 
ATOM      8  C   UNL A   1      34.231  25.324  25.533  1.00  0.00     0.086 C 
BRANCH   8   9
ATOM      9  N   UNL A   1      32.925  25.711  25.275  1.00  0.00    -0.380 N 
ATOM     10  C   UNL A   1      32.668  26.820  24.346  1.00  0.00     0.143 C 
BRANCH   9  11
ATOM     11  C   UNL A   1      31.744  25.161  25.954  1.00  0.00     0.118 C 
BRANCH  11  12
ATOM     12  C   UNL A   1      31.482  23.661  25.797  1.00  0.00     0.002 C 
ATOM     13  C   UNL A   1      30.403  23.108  26.723  1.00  0.00     0.009 C 
ATOM     14  C   UNL A   1      31.061  23.430  24.335  1.00  0.00     0.009 C 
ENDBRANCH  11  12
ENDBRANCH   9  11
ENDBRANCH   8   9
ENDBRANCH   4   7
ENDBRANCH   2   3
ENDBRANCH   1   2
BRANCH   1  15
ATOM     15  C   UNL A   1      37.877  21.293  25.315  1.00  0.00     0.118 C 
BRANCH  15  16
ATOM     16  N   UNL A   1      38.886  20.405  25.858  1.00  0.00    -0.352 N 
ATOM     17  C   UNL A   1      40.110  20.702  26.405  1.00  0.00     0.251 C 
ATOM     18  H   UNL A   1      38.661  19.447  25.829  1.00  0.00     0.163 HD
ATOM     19  O   UNL A   1      40.949  19.805  26.483  1.00  0.00    -0.269 OA
BRANCH  17  20
ATOM     20  C   UNL A   1      40.448  22.057  26.919  1.00  0.00     0.039 A 
ATOM     21  C   UNL A   1      40.043  23.167  26.166  1.00  0.00     0.014 A 
ATOM     22  C   UNL A   1      41.277  22.252  28.028  1.00  0.00     0.014 A 
ATOM     23  C   UNL A   1      40.472  24.455  26.514  1.00  0.00     0.010 A 
ATOM     24  C   UNL A   1      41.674  23.548  28.396  1.00  0.00     0.010 A 
ATOM     25  C   UNL A   1      41.300  24.662  27.629  1.00  0.00    -0.014 A 
BRANCH  25  26
ATOM     26  C   UNL A   1      41.783  26.035  27.962  1.00  0.00     0.031 A 
ATOM     27  C   UNL A   1      43.187  26.470  27.620  1.00  0.00     0.074 A 
ATOM     28  C   UNL A   1      40.963  26.904  28.590  1.00  0.00     0.049 A 
ATOM     29  N   UNL A   1      43.760  27.634  27.803  1.00  0.00    -0.248 NA
ATOM     30  C   UNL A   1      44.066  25.466  27.001  1.00  0.00     0.031 C 
ATOM     31  C   UNL A   1      39.599  26.607  29.028  1.00  0.00     0.029 A 
ATOM     32  N   UNL A   1      41.163  28.206  28.982  1.00  0.00    -0.354 N 
ATOM     33  C   UNL A   1      45.068  27.497  27.348  1.00  0.00     0.074 A 
ATOM     34  C   UNL A   1      45.212  26.128  26.903  1.00  0.00     0.031 C 
ATOM     35  C   UNL A   1      39.085  27.693  29.628  1.00  0.00     0.029 A 
ATOM     36  C   UNL A   1      40.086  28.757  29.638  1.00  0.00     0.049 A 
ATOM     37  H   UNL A   1      41.998  28.698  28.811  1.00  0.00     0.167 HD
ATOM     38  C   UNL A   1      46.053  28.428  27.281  1.00  0.00     0.034 A 
ATOM     39  C   UNL A   1      39.918  29.978  30.188  1.00  0.00     0.034 A 
ATOM     40  C   UNL A   1      45.908  29.801  27.690  1.00  0.00     0.049 A 
ATOM     41  C   UNL A   1      41.018  31.000  30.079  1.00  0.00     0.074 A 
ATOM     42  C   UNL A   1      46.825  30.832  27.583  1.00  0.00     0.029 A 
ATOM     43  N   UNL A   1      44.779  30.336  28.291  1.00  0.00    -0.354 N 
ATOM     44  N   UNL A   1      42.189  30.894  29.499  1.00  0.00    -0.248 NA
ATOM     45  C   UNL A   1      40.760  32.324  30.667  1.00  0.00     0.031 C 
ATOM     46  C   UNL A   1      46.262  31.983  28.144  1.00  0.00     0.029 A 
ATOM     47  C   UNL A   1      44.983  31.677  28.574  1.00  0.00     0.049 A 
ATOM     48  H   UNL A   1      43.954  29.836  28.488  1.00  0.00     0.167 HD
ATOM     49  C   UNL A   1      42.790  32.143  29.622  1.00  0.00     0.074 A 
ATOM     50  C   UNL A   1      41.846  32.996  30.311  1.00  0.00     0.031 C 
ATOM     51  C   UNL A   1      44.020  32.540  29.212  1.00  0.00     0.034 A 
BRANCH  38  52
ATOM     52  C   UNL A   1      47.379  28.008  26.697  1.00  0.00     0.023 A 
ATOM     53  C   UNL A   1      48.433  27.645  27.559  1.00  0.00     0.012 A 
ATOM     54  C   UNL A   1      47.559  27.897  25.303  1.00  0.00     0.148 A 
ATOM     55  C   UNL A   1      49.656  27.211  27.045  1.00  0.00     0.002 A 
ATOM     56  C   UNL A   1      48.767  27.424  24.799  1.00  0.00     0.091 A 
ATOM     57  F   UNL A   1      46.551  28.260  24.496  1.00  0.00    -0.205 F 
ATOM     58  C   UNL A   1      49.819  27.092  25.669  1.00  0.00     0.022 A 
BRANCH  56  59
ATOM     59  S   UNL A   1      49.049  27.158  23.045  1.00  0.00     0.127 S 
ATOM     60  O   UNL A   1      48.291  25.931  22.807  1.00  0.00    -0.237 OA
ATOM     61  O   UNL A   1      48.464  28.361  22.452  1.00  0.00    -0.237 OA
ATOM     62  O   UNL A   1      50.492  27.043  22.884  1.00  0.00    -0.744 OA
ENDBRANCH  56  59
ENDBRANCH  38  52
BRANCH  39  63
ATOM     63  C   UNL A   1      38.623  30.324  30.841  1.00  0.00     0.023 A 
ATOM     64  C   UNL A   1      38.391  29.936  32.175  1.00  0.00     0.012 A 
ATOM     65  C   UNL A   1      37.632  31.056  30.158  1.00  0.00     0.148 A 
ATOM     66  C   UNL A   1      37.185  30.245  32.807  1.00  0.00     0.002 A 
ATOM     67  C   UNL A   1      36.458  31.411  30.812  1.00  0.00     0.091 A 
ATOM     68  F   UNL A   1      37.864  31.400  28.883  1.00  0.00    -0.205 F 
ATOM     69  C   UNL A   1      36.225  30.990  32.130  1.00  0.00     0.022 A 
BRANCH  67  70
ATOM     70  S   UNL A   1      35.232  32.487  30.061  1.00  0.00     0.127 S 
ATOM     71  O   UNL A   1      34.725  31.651  28.973  1.00  0.00    -0.237 OA
ATOM     72  O   UNL A   1      34.293  32.692  31.167  1.00  0.00    -0.237 OA
ATOM     73  O   UNL A   1      35.951  33.683  29.659  1.00  0.00    -0.744 OA
ENDBRANCH  67  70
ENDBRANCH  39  63
BRANCH  51  74
ATOM     74  C   UNL A   1      44.418  33.972  29.465  1.00  0.00     0.023 A 
ATOM     75  C   UNL A   1      45.033  34.325  30.682  1.00  0.00     0.012 A 
ATOM     76  C   UNL A   1      44.250  34.954  28.468  1.00  0.00     0.148 A 
ATOM     77  C   UNL A   1      45.445  35.637  30.917  1.00  0.00     0.002 A 
ATOM     78  C   UNL A   1      44.705  36.249  28.690  1.00  0.00     0.091 A 
ATOM     79  F   UNL A   1      43.645  34.606  27.323  1.00  0.00    -0.205 F 
ATOM     80  C   UNL A   1      45.292  36.595  29.918  1.00  0.00     0.022 A 
BRANCH  78  81
ATOM     81  S   UNL A   1      44.634  37.525  27.427  1.00  0.00     0.127 S 
ATOM     82  O   UNL A   1      45.658  37.073  26.487  1.00  0.00    -0.237 OA
ATOM     83  O   UNL A   1      43.261  37.402  26.937  1.00  0.00    -0.237 OA
ATOM     84  O   UNL A   1      44.921  38.781  28.109  1.00  0.00    -0.744 OA
ENDBRANCH  78  81
ENDBRANCH  51  74
ENDBRANCH  25  26
ENDBRANCH  17  20
ENDBRANCH  15  16
ENDBRANCH   1  15
TORSDOF 16
ENDMDL
MODEL 3
REMARK VINA RESULT:     -10.5      1.969      2.425
REMARK SMILES CC(C)CN(C)/C=C\C(=O)NCCCNC(=O)c1ccc(-c2c3nc(c(-c4cccc(S(=O)(=O)[O-])c4F)c4ccc([nH]4)c(-c4cccc(S(=O)(=O)[O-])c4F)c4nc(c(-c5cccc(S(=O)(=O)[O-])c5F)c5ccc2[nH]5)C=C4)C=C3)cc1
REMARK SMILES IDX 13 1 12 2 11 3 9 4 10 5 8 7 7 8 5 9 6 10 4 11 2 12 1 13 3 14
REMARK SMILES IDX 14 15 15 16 16 17 17 19 18 20 19 21 80 22 20 23 79 24 21 25
REMARK SMILES IDX 22 26 23 27 73 28 24 29 78 30 72 31 74 32 25 33 77 34 71 35
REMARK SMILES IDX 70 36 26 38 58 39 38 40 57 41 39 42 42 43 56 44 75 45 40 46
REMARK SMILES IDX 41 47 55 49 76 50 43 51 27 52 28 53 36 54 29 55 31 56 37 57
REMARK SMILES IDX 30 58 32 59 33 60 34 61 35 62 59 63 60 64 68 65 61 66 63 67
REMARK SMILES IDX 69 68 62 69 64 70 65 71 66 72 67 73 44 74 45 75 53 76 46 77
REMARK SMILES IDX 48 78 54 79 47 80 49 81 50 82 51 83 52 84
REMARK H PARENT 11 6 15 18 74 37 42 48
REMARK Flexibility Score: inf
ROOT
ATOM      1  C   UNL A   1      32.070  29.317  24.583  1.00  0.00     0.042 C 
ENDROOT
BRANCH   1   2
ATOM      2  C   UNL A   1      31.958  27.829  24.214  1.00  0.00     0.118 C 
BRANCH   2   3
ATOM      3  N   UNL A   1      30.924  27.067  24.897  1.00  0.00    -0.352 N 
ATOM      4  C   UNL A   1      31.001  26.165  25.915  1.00  0.00     0.245 C 
ATOM      5  O   UNL A   1      29.972  25.824  26.497  1.00  0.00    -0.270 OA
ATOM      6  H   UNL A   1      30.012  27.233  24.567  1.00  0.00     0.163 HD
BRANCH   4   7
ATOM      7  C   UNL A   1      32.301  25.670  26.407  1.00  0.00     0.088 C 
ATOM      8  C   UNL A   1      33.068  24.689  25.917  1.00  0.00     0.086 C 
BRANCH   8   9
ATOM      9  N   UNL A   1      32.948  23.810  24.852  1.00  0.00    -0.380 N 
ATOM     10  C   UNL A   1      33.145  24.300  23.482  1.00  0.00     0.143 C 
BRANCH   9  11
ATOM     11  C   UNL A   1      32.522  22.409  24.973  1.00  0.00     0.118 C 
BRANCH  11  12
ATOM     12  C   UNL A   1      33.334  21.361  24.208  1.00  0.00     0.002 C 
ATOM     13  C   UNL A   1      34.731  21.112  24.768  1.00  0.00     0.009 C 
ATOM     14  C   UNL A   1      32.530  20.050  24.252  1.00  0.00     0.009 C 
ENDBRANCH  11  12
ENDBRANCH   9  11
ENDBRANCH   8   9
ENDBRANCH   4   7
ENDBRANCH   2   3
ENDBRANCH   1   2
BRANCH   1  15
ATOM     15  C   UNL A   1      32.291  29.668  26.058  1.00  0.00     0.118 C 
BRANCH  15  16
ATOM     16  N   UNL A   1      32.211  31.098  26.284  1.00  0.00    -0.352 N 
ATOM     17  C   UNL A   1      32.949  31.892  27.127  1.00  0.00     0.251 C 
ATOM     18  H   UNL A   1      31.525  31.568  25.757  1.00  0.00     0.163 HD
ATOM     19  O   UNL A   1      32.502  32.999  27.428  1.00  0.00    -0.269 OA
BRANCH  17  20
ATOM     20  C   UNL A   1      34.269  31.472  27.670  1.00  0.00     0.039 A 
ATOM     21  C   UNL A   1      34.443  30.124  28.010  1.00  0.00     0.014 A 
ATOM     22  C   UNL A   1      35.272  32.391  27.993  1.00  0.00     0.014 A 
ATOM     23  C   UNL A   1      35.602  29.703  28.674  1.00  0.00     0.010 A 
ATOM     24  C   UNL A   1      36.450  31.960  28.626  1.00  0.00     0.010 A 
ATOM     25  C   UNL A   1      36.618  30.617  28.998  1.00  0.00    -0.014 A 
BRANCH  25  26
ATOM     26  C   UNL A   1      37.829  30.161  29.744  1.00  0.00     0.031 A 
ATOM     27  C   UNL A   1      38.102  30.639  31.150  1.00  0.00     0.074 A 
ATOM     28  C   UNL A   1      38.705  29.320  29.157  1.00  0.00     0.049 A 
ATOM     29  N   UNL A   1      39.084  30.317  31.956  1.00  0.00    -0.248 NA
ATOM     30  C   UNL A   1      37.158  31.610  31.721  1.00  0.00     0.031 C 
ATOM     31  C   UNL A   1      38.599  28.816  27.788  1.00  0.00     0.029 A 
ATOM     32  N   UNL A   1      39.864  28.753  29.631  1.00  0.00    -0.354 N 
ATOM     33  C   UNL A   1      38.892  31.062  33.115  1.00  0.00     0.074 A 
ATOM     34  C   UNL A   1      37.712  31.872  32.898  1.00  0.00     0.031 C 
ATOM     35  C   UNL A   1      39.647  28.017  27.531  1.00  0.00     0.029 A 
ATOM     36  C   UNL A   1      40.512  27.965  28.708  1.00  0.00     0.049 A 
ATOM     37  H   UNL A   1      40.199  28.896  30.545  1.00  0.00     0.167 HD
ATOM     38  C   UNL A   1      39.611  31.057  34.266  1.00  0.00     0.034 A 
ATOM     39  C   UNL A   1      41.671  27.279  28.791  1.00  0.00     0.034 A 
ATOM     40  C   UNL A   1      40.765  30.228  34.503  1.00  0.00     0.049 A 
ATOM     41  C   UNL A   1      42.439  27.271  30.086  1.00  0.00     0.074 A 
ATOM     42  C   UNL A   1      41.507  30.099  35.664  1.00  0.00     0.029 A 
ATOM     43  N   UNL A   1      41.353  29.397  33.563  1.00  0.00    -0.354 N 
ATOM     44  N   UNL A   1      42.147  27.857  31.222  1.00  0.00    -0.248 NA
ATOM     45  C   UNL A   1      43.675  26.475  30.124  1.00  0.00     0.031 C 
ATOM     46  C   UNL A   1      42.558  29.209  35.419  1.00  0.00     0.029 A 
ATOM     47  C   UNL A   1      42.456  28.763  34.113  1.00  0.00     0.049 A 
ATOM     48  H   UNL A   1      41.034  29.275  32.640  1.00  0.00     0.167 HD
ATOM     49  C   UNL A   1      43.142  27.474  32.116  1.00  0.00     0.074 A 
ATOM     50  C   UNL A   1      44.032  26.588  31.397  1.00  0.00     0.031 C 
ATOM     51  C   UNL A   1      43.310  27.838  33.411  1.00  0.00     0.034 A 
BRANCH  38  52
ATOM     52  C   UNL A   1      39.145  31.946  35.392  1.00  0.00     0.023 A 
ATOM     53  C   UNL A   1      38.226  31.445  36.336  1.00  0.00     0.012 A 
ATOM     54  C   UNL A   1      39.671  33.242  35.563  1.00  0.00     0.148 A 
ATOM     55  C   UNL A   1      37.811  32.230  37.412  1.00  0.00     0.002 A 
ATOM     56  C   UNL A   1      39.285  34.004  36.662  1.00  0.00     0.091 A 
ATOM     57  F   UNL A   1      40.534  33.709  34.648  1.00  0.00    -0.205 F 
ATOM     58  C   UNL A   1      38.347  33.503  37.580  1.00  0.00     0.022 A 
BRANCH  56  59
ATOM     59  S   UNL A   1      39.977  35.625  37.011  1.00  0.00     0.127 S 
ATOM     60  O   UNL A   1      39.286  35.980  38.250  1.00  0.00    -0.237 OA
ATOM     61  O   UNL A   1      41.400  35.325  37.171  1.00  0.00    -0.237 OA
ATOM     62  O   UNL A   1      39.658  36.455  35.857  1.00  0.00    -0.744 OA
ENDBRANCH  56  59
ENDBRANCH  38  52
BRANCH  39  63
ATOM     63  C   UNL A   1      42.148  26.486  27.622  1.00  0.00     0.023 A 
ATOM     64  C   UNL A   1      42.971  27.095  26.655  1.00  0.00     0.012 A 
ATOM     65  C   UNL A   1      41.811  25.125  27.476  1.00  0.00     0.148 A 
ATOM     66  C   UNL A   1      43.426  26.375  25.551  1.00  0.00     0.002 A 
ATOM     67  C   UNL A   1      42.317  24.398  26.405  1.00  0.00     0.091 A 
ATOM     68  F   UNL A   1      41.012  24.567  28.396  1.00  0.00    -0.205 F 
ATOM     69  C   UNL A   1      43.109  25.025  25.431  1.00  0.00     0.022 A 
BRANCH  67  70
ATOM     70  S   UNL A   1      42.072  22.625  26.251  1.00  0.00     0.127 S 
ATOM     71  O   UNL A   1      40.615  22.531  26.155  1.00  0.00    -0.237 OA
ATOM     72  O   UNL A   1      42.790  22.328  25.009  1.00  0.00    -0.237 OA
ATOM     73  O   UNL A   1      42.668  22.041  27.439  1.00  0.00    -0.744 OA
ENDBRANCH  67  70
ENDBRANCH  39  63
BRANCH  51  74
ATOM     74  C   UNL A   1      44.482  27.257  34.160  1.00  0.00     0.023 A 
ATOM     75  C   UNL A   1      45.724  27.922  34.144  1.00  0.00     0.012 A 
ATOM     76  C   UNL A   1      44.334  26.092  34.939  1.00  0.00     0.148 A 
ATOM     77  C   UNL A   1      46.809  27.421  34.863  1.00  0.00     0.002 A 
ATOM     78  C   UNL A   1      45.406  25.624  35.691  1.00  0.00     0.091 A 
ATOM     79  F   UNL A   1      43.152  25.460  34.929  1.00  0.00    -0.205 F 
ATOM     80  C   UNL A   1      46.646  26.280  35.645  1.00  0.00     0.022 A 
BRANCH  78  81
ATOM     81  S   UNL A   1      45.264  24.216  36.800  1.00  0.00     0.127 S 
ATOM     82  O   UNL A   1      44.890  23.146  35.878  1.00  0.00    -0.237 OA
ATOM     83  O   UNL A   1      46.620  24.108  37.341  1.00  0.00    -0.237 OA
ATOM     84  O   UNL A   1      44.250  24.579  37.782  1.00  0.00    -0.744 OA
ENDBRANCH  78  81
ENDBRANCH  51  74
ENDBRANCH  25  26
ENDBRANCH  17  20
ENDBRANCH  15  16
ENDBRANCH   1  15
TORSDOF 16
ENDMDL
