MODEL 1
REMARK VINA RESULT:     -12.3      0.000      0.000
REMARK SMILES O=C(CC[NH+]1CCC(n2nccc2NC(=O)c2ccccc2Cl)CC1)NCCCNC(=O)c1ccc(-c2c3nc(c(-c4cccc(S(=O)(=O)[O-])c4F)c4ccc([nH]4)c(-c4cccc(S(=O)(=O)[O-])c4F)c4nc(c(-c5cccc(S(=O)(=O)[O-])c5F)c5ccc2[nH]5)C=C4)C=C3)cc1
REMARK SMILES IDX 27 1 26 2 1 3 2 4 3 6 4 7 5 8 6 9 25 10 7 12 24 13 8 14 9 15
REMARK SMILES IDX 10 16 13 17 11 18 12 19 14 20 15 21 16 23 17 24 18 25 22 26
REMARK SMILES IDX 19 27 21 28 23 29 20 30 28 31 29 32 30 33 31 34 32 36 33 37
REMARK SMILES IDX 34 38 95 39 35 40 94 41 36 42 37 43 38 44 88 45 39 46 93 47
REMARK SMILES IDX 87 48 89 49 40 50 92 51 86 52 85 53 41 55 73 56 53 57 72 58
REMARK SMILES IDX 54 59 57 60 71 61 90 62 55 63 56 64 70 66 91 67 58 68 42 69
REMARK SMILES IDX 43 70 51 71 44 72 46 73 52 74 45 75 47 76 48 77 49 78 50 79
REMARK SMILES IDX 74 80 75 81 83 82 76 83 78 84 84 85 77 86 79 87 80 88 81 89
REMARK SMILES IDX 82 90 59 91 60 92 68 93 61 94 63 95 69 96 62 97 64 98 65 99
REMARK SMILES IDX 66 100 67 101
REMARK H PARENT 26 5 5 11 14 22 30 35 89 54 57 65
REMARK Flexibility Score: inf
ROOT
ATOM      1  C   UNL A   1      42.681  18.913  26.757  1.00  0.00     0.117 C 
ENDROOT
BRANCH   1   2
ATOM      2  N   UNL A   1      41.273  19.084  26.378  1.00  0.00    -0.356 N 
ATOM      3  O   UNL A   1      40.753  20.836  27.732  1.00  0.00    -0.275 OA
ATOM      4  C   UNL A   1      40.494  20.175  26.730  1.00  0.00     0.225 C 
ATOM      5  H   UNL A   1      40.854  18.376  25.836  1.00  0.00     0.163 HD
BRANCH   4   6
ATOM      6  C   UNL A   1      39.316  20.546  25.777  1.00  0.00     0.161 C 
BRANCH   6   7
ATOM      7  C   UNL A   1      38.708  22.019  25.888  1.00  0.00     0.272 C 
BRANCH   7   8
ATOM      8  N   UNL A   1      37.220  22.220  25.969  1.00  0.00    -0.334 N 
ATOM      9  C   UNL A   1      36.797  23.628  26.154  1.00  0.00     0.264 C 
ATOM     10  C   UNL A   1      36.719  21.769  24.716  1.00  0.00     0.264 C 
ATOM     11  H   UNL A   1      36.865  21.719  26.783  1.00  0.00     0.348 HD
ATOM     12  C   UNL A   1      35.283  23.852  25.902  1.00  0.00     0.089 C 
ATOM     13  C   UNL A   1      35.295  21.944  24.430  1.00  0.00     0.089 C 
ATOM     14  C   UNL A   1      34.879  23.398  24.504  1.00  0.00     0.121 C 
BRANCH  14  15
ATOM     15  N   UNL A   1      33.459  23.568  24.262  1.00  0.00    -0.246 N 
ATOM     16  N   UNL A   1      32.507  23.246  25.156  1.00  0.00    -0.179 NA
ATOM     17  C   UNL A   1      32.895  23.948  23.097  1.00  0.00     0.131 A 
ATOM     18  C   UNL A   1      31.405  23.186  24.391  1.00  0.00     0.137 A 
ATOM     19  C   UNL A   1      31.682  23.329  23.034  1.00  0.00     0.069 A 
BRANCH  17  20
ATOM     20  N   UNL A   1      33.415  24.758  22.182  1.00  0.00    -0.307 N 
ATOM     21  C   UNL A   1      32.770  25.851  21.686  1.00  0.00     0.258 C 
ATOM     22  H   UNL A   1      34.319  24.558  21.844  1.00  0.00     0.171 HD
ATOM     23  O   UNL A   1      32.960  25.766  20.524  1.00  0.00    -0.269 OA
BRANCH  21  24
ATOM     24  C   UNL A   1      32.111  26.885  22.586  1.00  0.00     0.058 A 
ATOM     25  C   UNL A   1      30.879  27.376  22.151  1.00  0.00     0.015 A 
ATOM     26  C   UNL A   1      32.628  27.420  23.789  1.00  0.00     0.053 A 
ATOM     27  C   UNL A   1      30.146  28.276  22.915  1.00  0.00     0.001 A 
ATOM     28  C   UNL A   1      31.877  28.304  24.553  1.00  0.00     0.021 A 
ATOM     29  Cl  UNL A   1      34.101  27.071  24.604  1.00  0.00    -0.083 Cl
ATOM     30  C   UNL A   1      30.624  28.696  24.140  1.00  0.00     0.002 A 
ENDBRANCH  21  24
ENDBRANCH  17  20
ENDBRANCH  14  15
ENDBRANCH   7   8
ENDBRANCH   6   7
ENDBRANCH   4   6
ENDBRANCH   1   2
BRANCH   1  31
ATOM     31  C   UNL A   1      43.583  19.140  25.564  1.00  0.00     0.042 C 
BRANCH  31  32
ATOM     32  C   UNL A   1      43.882  20.579  25.323  1.00  0.00     0.118 C 
BRANCH  32  33
ATOM     33  N   UNL A   1      45.061  21.117  25.990  1.00  0.00    -0.352 N 
ATOM     34  C   UNL A   1      45.220  22.471  26.294  1.00  0.00     0.251 C 
ATOM     35  H   UNL A   1      45.782  20.495  26.240  1.00  0.00     0.163 HD
ATOM     36  O   UNL A   1      46.359  22.908  26.406  1.00  0.00    -0.269 OA
BRANCH  34  37
ATOM     37  C   UNL A   1      43.937  23.234  26.635  1.00  0.00     0.039 A 
ATOM     38  C   UNL A   1      42.889  23.688  25.841  1.00  0.00     0.014 A 
ATOM     39  C   UNL A   1      43.984  23.903  27.842  1.00  0.00     0.014 A 
ATOM     40  C   UNL A   1      42.274  25.004  26.243  1.00  0.00     0.010 A 
ATOM     41  C   UNL A   1      42.987  24.682  28.314  1.00  0.00     0.010 A 
ATOM     42  C   UNL A   1      42.722  25.712  27.472  1.00  0.00    -0.014 A 
BRANCH  42  43
ATOM     43  C   UNL A   1      42.480  27.213  28.431  1.00  0.00     0.031 A 
ATOM     44  C   UNL A   1      43.982  27.632  27.682  1.00  0.00     0.074 A 
ATOM     45  C   UNL A   1      41.371  27.924  29.448  1.00  0.00     0.049 A 
ATOM     46  N   UNL A   1      45.138  27.191  28.146  1.00  0.00    -0.248 NA
ATOM     47  C   UNL A   1      44.334  27.808  26.148  1.00  0.00     0.031 C 
ATOM     48  C   UNL A   1      39.834  27.640  30.233  1.00  0.00     0.029 A 
ATOM     49  N   UNL A   1      41.297  29.189  30.193  1.00  0.00    -0.354 N 
ATOM     50  C   UNL A   1      46.059  27.972  27.433  1.00  0.00     0.074 A 
ATOM     51  C   UNL A   1      45.661  27.975  26.099  1.00  0.00     0.031 C 
ATOM     52  C   UNL A   1      39.129  28.770  30.675  1.00  0.00     0.029 A 
ATOM     53  C   UNL A   1      40.007  29.906  30.608  1.00  0.00     0.049 A 
ATOM     54  H   UNL A   1      42.149  29.614  30.447  1.00  0.00     0.167 HD
ATOM     55  C   UNL A   1      46.510  29.085  28.047  1.00  0.00     0.034 A 
ATOM     56  C   UNL A   1      39.822  31.213  31.165  1.00  0.00     0.034 A 
ATOM     57  C   UNL A   1      46.278  28.907  29.451  1.00  0.00     0.049 A 
ATOM     58  C   UNL A   1      41.231  31.655  31.308  1.00  0.00     0.074 A 
ATOM     59  C   UNL A   1      46.619  27.882  30.316  1.00  0.00     0.029 A 
ATOM     60  N   UNL A   1      45.054  29.368  29.846  1.00  0.00    -0.354 N 
ATOM     61  N   UNL A   1      42.011  31.105  32.204  1.00  0.00    -0.248 NA
ATOM     62  C   UNL A   1      41.808  32.017  30.011  1.00  0.00     0.031 C 
ATOM     63  C   UNL A   1      45.539  27.726  31.220  1.00  0.00     0.029 A 
ATOM     64  C   UNL A   1      44.654  28.768  30.996  1.00  0.00     0.049 A 
ATOM     65  H   UNL A   1      44.531  30.046  29.360  1.00  0.00     0.167 HD
ATOM     66  C   UNL A   1      43.036  30.561  31.441  1.00  0.00     0.074 A 
ATOM     67  C   UNL A   1      42.887  31.216  30.077  1.00  0.00     0.031 C 
ATOM     68  C   UNL A   1      43.571  29.315  31.751  1.00  0.00     0.034 A 
BRANCH  55  69
ATOM     69  C   UNL A   1      46.615  30.426  27.379  1.00  0.00     0.023 A 
ATOM     70  C   UNL A   1      47.925  30.901  27.377  1.00  0.00     0.012 A 
ATOM     71  C   UNL A   1      45.580  31.310  26.938  1.00  0.00     0.148 A 
ATOM     72  C   UNL A   1      48.209  32.203  26.993  1.00  0.00     0.002 A 
ATOM     73  C   UNL A   1      45.877  32.589  26.491  1.00  0.00     0.091 A 
ATOM     74  F   UNL A   1      44.292  30.962  27.006  1.00  0.00    -0.205 F 
ATOM     75  C   UNL A   1      47.197  33.042  26.535  1.00  0.00     0.022 A 
BRANCH  73  76
ATOM     76  S   UNL A   1      44.612  33.740  25.907  1.00  0.00     0.127 S 
ATOM     77  O   UNL A   1      43.968  32.960  24.855  1.00  0.00    -0.237 OA
ATOM     78  O   UNL A   1      43.810  33.935  27.115  1.00  0.00    -0.237 OA
ATOM     79  O   UNL A   1      45.321  34.932  25.459  1.00  0.00    -0.744 OA
ENDBRANCH  73  76
ENDBRANCH  55  69
BRANCH  56  80
ATOM     80  C   UNL A   1      38.708  32.328  30.922  1.00  0.00     0.023 A 
ATOM     81  C   UNL A   1      37.911  32.687  29.766  1.00  0.00     0.012 A 
ATOM     82  C   UNL A   1      38.236  32.878  32.121  1.00  0.00     0.148 A 
ATOM     83  C   UNL A   1      36.744  33.535  29.863  1.00  0.00     0.002 A 
ATOM     84  C   UNL A   1      37.084  33.669  32.224  1.00  0.00     0.091 A 
ATOM     85  F   UNL A   1      38.910  32.551  33.225  1.00  0.00    -0.205 F 
ATOM     86  C   UNL A   1      36.317  33.999  31.104  1.00  0.00     0.022 A 
BRANCH  84  87
ATOM     87  S   UNL A   1      36.559  34.281  33.832  1.00  0.00     0.127 S 
ATOM     88  O   UNL A   1      36.110  33.051  34.483  1.00  0.00    -0.237 OA
ATOM     89  O   UNL A   1      37.795  34.848  34.365  1.00  0.00    -0.237 OA
ATOM     90  O   UNL A   1      35.496  35.240  33.563  1.00  0.00    -0.744 OA
ENDBRANCH  84  87
ENDBRANCH  56  80
BRANCH  68  91
ATOM     91  C   UNL A   1      43.198  28.546  33.027  1.00  0.00     0.023 A 
ATOM     92  C   UNL A   1      42.335  27.423  33.213  1.00  0.00     0.012 A 
ATOM     93  C   UNL A   1      43.953  28.946  34.123  1.00  0.00     0.148 A 
ATOM     94  C   UNL A   1      42.119  26.858  34.489  1.00  0.00     0.002 A 
ATOM     95  C   UNL A   1      43.778  28.363  35.365  1.00  0.00     0.091 A 
ATOM     96  F   UNL A   1      44.901  29.866  33.907  1.00  0.00    -0.205 F 
ATOM     97  C   UNL A   1      42.837  27.345  35.572  1.00  0.00     0.022 A 
BRANCH  95  98
ATOM     98  S   UNL A   1      44.719  28.956  36.757  1.00  0.00     0.127 S 
ATOM     99  O   UNL A   1      44.148  28.161  37.840  1.00  0.00    -0.237 OA
ATOM    100  O   UNL A   1      46.082  28.597  36.368  1.00  0.00    -0.237 OA
ATOM    101  O   UNL A   1      44.468  30.388  36.838  1.00  0.00    -0.744 OA
ENDBRANCH  95  98
ENDBRANCH  68  91
ENDBRANCH  42  43
ENDBRANCH  34  37
ENDBRANCH  32  33
ENDBRANCH  31  32
ENDBRANCH   1  31
TORSDOF 18
ENDMDL
MODEL 2
REMARK VINA RESULT:     -12.3      2.079      2.553
REMARK SMILES O=C(CC[NH+]1CCC(n2nccc2NC(=O)c2ccccc2Cl)CC1)NCCCNC(=O)c1ccc(-c2c3nc(c(-c4cccc(S(=O)(=O)[O-])c4F)c4ccc([nH]4)c(-c4cccc(S(=O)(=O)[O-])c4F)c4nc(c(-c5cccc(S(=O)(=O)[O-])c5F)c5ccc2[nH]5)C=C4)C=C3)cc1
REMARK SMILES IDX 27 1 26 2 1 3 2 4 3 6 4 7 5 8 6 9 25 10 7 12 24 13 8 14 9 15
REMARK SMILES IDX 10 16 13 17 11 18 12 19 14 20 15 21 16 23 17 24 18 25 22 26
REMARK SMILES IDX 19 27 21 28 23 29 20 30 28 31 29 32 30 33 31 34 32 36 33 37
REMARK SMILES IDX 34 38 95 39 35 40 94 41 36 42 37 43 38 44 88 45 39 46 93 47
REMARK SMILES IDX 87 48 89 49 40 50 92 51 86 52 85 53 41 55 73 56 53 57 72 58
REMARK SMILES IDX 54 59 57 60 71 61 90 62 55 63 56 64 70 66 91 67 58 68 42 69
REMARK SMILES IDX 43 70 51 71 44 72 46 73 52 74 45 75 47 76 48 77 49 78 50 79
REMARK SMILES IDX 74 80 75 81 83 82 76 83 78 84 84 85 77 86 79 87 80 88 81 89
REMARK SMILES IDX 82 90 59 91 60 92 68 93 61 94 63 95 69 96 62 97 64 98 65 99
REMARK SMILES IDX 66 100 67 101
REMARK H PARENT 26 5 5 11 14 22 30 35 89 54 57 65
REMARK Flexibility Score: inf
ROOT
ATOM      1  C   UNL A   1      43.873  19.989  25.679  1.00  0.00     0.117 C 
ENDROOT
BRANCH   1   2
ATOM      2  N   UNL A   1      42.450  19.742  25.418  1.00  0.00    -0.356 N 
ATOM      3  O   UNL A   1      41.709  19.642  27.566  1.00  0.00    -0.275 OA
ATOM      4  C   UNL A   1      41.453  19.817  26.378  1.00  0.00     0.225 C 
ATOM      5  H   UNL A   1      42.186  19.508  24.499  1.00  0.00     0.163 HD
BRANCH   4   6
ATOM      6  C   UNL A   1      40.017  20.177  25.886  1.00  0.00     0.161 C 
BRANCH   6   7
ATOM      7  C   UNL A   1      39.483  21.655  26.177  1.00  0.00     0.272 C 
BRANCH   7   8
ATOM      8  N   UNL A   1      38.009  21.951  26.126  1.00  0.00    -0.334 N 
ATOM      9  C   UNL A   1      37.662  23.241  25.487  1.00  0.00     0.264 C 
ATOM     10  C   UNL A   1      37.451  20.904  25.338  1.00  0.00     0.264 C 
ATOM     11  H   UNL A   1      37.653  22.011  27.079  1.00  0.00     0.348 HD
ATOM     12  C   UNL A   1      36.154  23.371  25.146  1.00  0.00     0.089 C 
ATOM     13  C   UNL A   1      36.030  20.969  24.996  1.00  0.00     0.089 C 
ATOM     14  C   UNL A   1      35.689  22.237  24.242  1.00  0.00     0.121 C 
BRANCH  14  15
ATOM     15  N   UNL A   1      34.273  22.322  23.940  1.00  0.00    -0.246 N 
ATOM     16  N   UNL A   1      33.351  21.483  24.447  1.00  0.00    -0.179 NA
ATOM     17  C   UNL A   1      33.704  23.151  23.041  1.00  0.00     0.131 A 
ATOM     18  C   UNL A   1      32.310  21.668  23.619  1.00  0.00     0.137 A 
ATOM     19  C   UNL A   1      32.619  22.495  22.541  1.00  0.00     0.069 A 
BRANCH  17  20
ATOM     20  N   UNL A   1      34.118  24.365  22.697  1.00  0.00    -0.307 N 
ATOM     21  C   UNL A   1      33.287  25.436  22.559  1.00  0.00     0.258 C 
ATOM     22  H   UNL A   1      35.080  24.499  22.534  1.00  0.00     0.171 HD
ATOM     23  O   UNL A   1      33.652  25.926  21.549  1.00  0.00    -0.269 OA
BRANCH  21  24
ATOM     24  C   UNL A   1      32.264  25.814  23.619  1.00  0.00     0.058 A 
ATOM     25  C   UNL A   1      30.930  25.805  23.211  1.00  0.00     0.015 A 
ATOM     26  C   UNL A   1      32.525  26.204  24.954  1.00  0.00     0.053 A 
ATOM     27  C   UNL A   1      29.896  26.070  24.101  1.00  0.00     0.001 A 
ATOM     28  C   UNL A   1      31.483  26.446  25.839  1.00  0.00     0.021 A 
ATOM     29  Cl  UNL A   1      34.024  26.347  25.785  1.00  0.00    -0.083 Cl
ATOM     30  C   UNL A   1      30.174  26.337  25.427  1.00  0.00     0.002 A 
ENDBRANCH  21  24
ENDBRANCH  17  20
ENDBRANCH  14  15
ENDBRANCH   7   8
ENDBRANCH   6   7
ENDBRANCH   4   6
ENDBRANCH   1   2
BRANCH   1  31
ATOM     31  C   UNL A   1      44.324  21.264  25.002  1.00  0.00     0.042 C 
BRANCH  31  32
ATOM     32  C   UNL A   1      43.928  22.492  25.747  1.00  0.00     0.118 C 
BRANCH  32  33
ATOM     33  N   UNL A   1      44.869  23.605  25.709  1.00  0.00    -0.352 N 
ATOM     34  C   UNL A   1      44.476  24.938  25.578  1.00  0.00     0.251 C 
ATOM     35  H   UNL A   1      45.831  23.407  25.779  1.00  0.00     0.163 HD
ATOM     36  O   UNL A   1      45.275  25.732  25.096  1.00  0.00    -0.269 OA
BRANCH  34  37
ATOM     37  C   UNL A   1      43.138  25.307  26.226  1.00  0.00     0.039 A 
ATOM     38  C   UNL A   1      41.921  25.700  25.677  1.00  0.00     0.014 A 
ATOM     39  C   UNL A   1      43.235  25.666  27.554  1.00  0.00     0.014 A 
ATOM     40  C   UNL A   1      41.139  26.722  26.464  1.00  0.00     0.010 A 
ATOM     41  C   UNL A   1      42.190  26.081  28.304  1.00  0.00     0.010 A 
ATOM     42  C   UNL A   1      41.622  27.199  27.787  1.00  0.00    -0.014 A 
BRANCH  42  43
ATOM     43  C   UNL A   1      41.249  28.344  29.122  1.00  0.00     0.031 A 
ATOM     44  C   UNL A   1      42.575  29.202  28.415  1.00  0.00     0.074 A 
ATOM     45  C   UNL A   1      40.159  28.566  30.359  1.00  0.00     0.049 A 
ATOM     46  N   UNL A   1      43.830  28.878  28.673  1.00  0.00    -0.248 NA
ATOM     47  C   UNL A   1      42.726  29.815  26.963  1.00  0.00     0.031 C 
ATOM     48  C   UNL A   1      38.781  27.820  31.136  1.00  0.00     0.029 A 
ATOM     49  N   UNL A   1      39.965  29.570  31.414  1.00  0.00    -0.354 N 
ATOM     50  C   UNL A   1      44.533  29.966  28.134  1.00  0.00     0.074 A 
ATOM     51  C   UNL A   1      43.997  30.228  26.876  1.00  0.00     0.031 C 
ATOM     52  C   UNL A   1      37.957  28.658  31.905  1.00  0.00     0.029 A 
ATOM     53  C   UNL A   1      38.630  29.914  32.084  1.00  0.00     0.049 A 
ATOM     54  H   UNL A   1      40.761  30.066  31.716  1.00  0.00     0.167 HD
ATOM     55  C   UNL A   1      44.865  30.954  28.990  1.00  0.00     0.034 A 
ATOM     56  C   UNL A   1      38.301  30.985  32.977  1.00  0.00     0.034 A 
ATOM     57  C   UNL A   1      44.817  30.393  30.308  1.00  0.00     0.049 A 
ATOM     58  C   UNL A   1      39.629  31.627  33.142  1.00  0.00     0.074 A 
ATOM     59  C   UNL A   1      45.409  29.265  30.849  1.00  0.00     0.029 A 
ATOM     60  N   UNL A   1      43.585  30.510  30.889  1.00  0.00    -0.354 N 
ATOM     61  N   UNL A   1      40.579  31.023  33.810  1.00  0.00    -0.248 NA
ATOM     62  C   UNL A   1      39.997  32.398  31.953  1.00  0.00     0.031 C 
ATOM     63  C   UNL A   1      44.472  28.695  31.747  1.00  0.00     0.029 A 
ATOM     64  C   UNL A   1      43.413  29.581  31.863  1.00  0.00     0.049 A 
ATOM     65  H   UNL A   1      42.912  31.181  30.633  1.00  0.00     0.167 HD
ATOM     66  C   UNL A   1      41.588  30.881  32.867  1.00  0.00     0.074 A 
ATOM     67  C   UNL A   1      41.190  31.817  31.736  1.00  0.00     0.031 C 
ATOM     68  C   UNL A   1      42.345  29.717  32.802  1.00  0.00     0.034 A 
BRANCH  55  69
ATOM     69  C   UNL A   1      44.681  32.415  28.694  1.00  0.00     0.023 A 
ATOM     70  C   UNL A   1      45.902  33.062  28.512  1.00  0.00     0.012 A 
ATOM     71  C   UNL A   1      43.498  33.217  28.755  1.00  0.00     0.148 A 
ATOM     72  C   UNL A   1      45.969  34.445  28.430  1.00  0.00     0.002 A 
ATOM     73  C   UNL A   1      43.563  34.595  28.605  1.00  0.00     0.091 A 
ATOM     74  F   UNL A   1      42.306  32.680  29.027  1.00  0.00    -0.205 F 
ATOM     75  C   UNL A   1      44.807  35.211  28.458  1.00  0.00     0.022 A 
BRANCH  73  76
ATOM     76  S   UNL A   1      42.100  35.654  28.657  1.00  0.00     0.127 S 
ATOM     77  O   UNL A   1      42.656  36.899  29.180  1.00  0.00    -0.237 OA
ATOM     78  O   UNL A   1      41.711  35.691  27.248  1.00  0.00    -0.237 OA
ATOM     79  O   UNL A   1      41.141  34.983  29.527  1.00  0.00    -0.744 OA
ENDBRANCH  73  76
ENDBRANCH  55  69
BRANCH  56  80
ATOM     80  C   UNL A   1      37.004  31.904  33.109  1.00  0.00     0.023 A 
ATOM     81  C   UNL A   1      36.484  32.723  34.186  1.00  0.00     0.012 A 
ATOM     82  C   UNL A   1      36.413  32.171  31.866  1.00  0.00     0.148 A 
ATOM     83  C   UNL A   1      35.450  33.711  33.978  1.00  0.00     0.002 A 
ATOM     84  C   UNL A   1      35.438  33.155  31.655  1.00  0.00     0.091 A 
ATOM     85  F   UNL A   1      36.879  31.473  30.830  1.00  0.00    -0.205 F 
ATOM     86  C   UNL A   1      34.951  33.944  32.699  1.00  0.00     0.022 A 
BRANCH  84  87
ATOM     87  S   UNL A   1      34.786  33.426  30.000  1.00  0.00     0.127 S 
ATOM     88  O   UNL A   1      33.652  34.309  30.271  1.00  0.00    -0.237 OA
ATOM     89  O   UNL A   1      35.915  34.057  29.322  1.00  0.00    -0.237 OA
ATOM     90  O   UNL A   1      34.414  32.109  29.501  1.00  0.00    -0.744 OA
ENDBRANCH  84  87
ENDBRANCH  56  80
BRANCH  68  91
ATOM     91  C   UNL A   1      42.240  28.600  33.851  1.00  0.00     0.023 A 
ATOM     92  C   UNL A   1      41.492  27.383  33.837  1.00  0.00     0.012 A 
ATOM     93  C   UNL A   1      43.143  28.770  34.895  1.00  0.00     0.148 A 
ATOM     94  C   UNL A   1      41.529  26.478  34.921  1.00  0.00     0.002 A 
ATOM     95  C   UNL A   1      43.215  27.861  35.935  1.00  0.00     0.091 A 
ATOM     96  F   UNL A   1      43.982  29.809  34.811  1.00  0.00    -0.205 F 
ATOM     97  C   UNL A   1      42.388  26.731  35.982  1.00  0.00     0.022 A 
BRANCH  95  98
ATOM     98  S   UNL A   1      44.338  28.157  37.286  1.00  0.00     0.127 S 
ATOM     99  O   UNL A   1      45.626  28.080  36.601  1.00  0.00    -0.237 OA
ATOM    100  O   UNL A   1      43.937  29.495  37.718  1.00  0.00    -0.237 OA
ATOM    101  O   UNL A   1      44.089  27.103  38.260  1.00  0.00    -0.744 OA
ENDBRANCH  95  98
ENDBRANCH  68  91
ENDBRANCH  42  43
ENDBRANCH  34  37
ENDBRANCH  32  33
ENDBRANCH  31  32
ENDBRANCH   1  31
TORSDOF 18
ENDMDL
MODEL 3
REMARK VINA RESULT:     -12.1      1.419      2.644
REMARK SMILES O=C(CC[NH+]1CCC(n2nccc2NC(=O)c2ccccc2Cl)CC1)NCCCNC(=O)c1ccc(-c2c3nc(c(-c4cccc(S(=O)(=O)[O-])c4F)c4ccc([nH]4)c(-c4cccc(S(=O)(=O)[O-])c4F)c4nc(c(-c5cccc(S(=O)(=O)[O-])c5F)c5ccc2[nH]5)C=C4)C=C3)cc1
REMARK SMILES IDX 27 1 26 2 1 3 2 4 3 6 4 7 5 8 6 9 25 10 7 12 24 13 8 14 9 15
REMARK SMILES IDX 10 16 13 17 11 18 12 19 14 20 15 21 16 23 17 24 18 25 22 26
REMARK SMILES IDX 19 27 21 28 23 29 20 30 28 31 29 32 30 33 31 34 32 36 33 37
REMARK SMILES IDX 34 38 95 39 35 40 94 41 36 42 37 43 38 44 88 45 39 46 93 47
REMARK SMILES IDX 87 48 89 49 40 50 92 51 86 52 85 53 41 55 73 56 53 57 72 58
REMARK SMILES IDX 54 59 57 60 71 61 90 62 55 63 56 64 70 66 91 67 58 68 42 69
REMARK SMILES IDX 43 70 51 71 44 72 46 73 52 74 45 75 47 76 48 77 49 78 50 79
REMARK SMILES IDX 74 80 75 81 83 82 76 83 78 84 84 85 77 86 79 87 80 88 81 89
REMARK SMILES IDX 82 90 59 91 60 92 68 93 61 94 63 95 69 96 62 97 64 98 65 99
REMARK SMILES IDX 66 100 67 101
REMARK H PARENT 26 5 5 11 14 22 30 35 89 54 57 65
REMARK Flexibility Score: inf
ROOT
ATOM      1  C   UNL A   1      42.962  18.501  26.443  1.00  0.00     0.117 C 
ENDROOT
BRANCH   1   2
ATOM      2  N   UNL A   1      41.570  18.860  26.150  1.00  0.00    -0.356 N 
ATOM      3  O   UNL A   1      41.258  20.421  27.775  1.00  0.00    -0.275 OA
ATOM      4  C   UNL A   1      40.911  19.951  26.695  1.00  0.00     0.225 C 
ATOM      5  H   UNL A   1      41.070  18.287  25.524  1.00  0.00     0.163 HD
BRANCH   4   6
ATOM      6  C   UNL A   1      39.752  20.574  25.856  1.00  0.00     0.161 C 
BRANCH   6   7
ATOM      7  C   UNL A   1      39.174  21.987  26.327  1.00  0.00     0.272 C 
BRANCH   7   8
ATOM      8  N   UNL A   1      37.725  22.324  26.104  1.00  0.00    -0.334 N 
ATOM      9  C   UNL A   1      37.439  23.773  25.993  1.00  0.00     0.264 C 
ATOM     10  C   UNL A   1      37.391  21.711  24.863  1.00  0.00     0.264 C 
ATOM     11  H   UNL A   1      37.186  21.998  26.906  1.00  0.00     0.348 HD
ATOM     12  C   UNL A   1      36.023  24.078  25.438  1.00  0.00     0.089 C 
ATOM     13  C   UNL A   1      36.064  21.955  24.299  1.00  0.00     0.089 C 
ATOM     14  C   UNL A   1      35.808  23.430  24.075  1.00  0.00     0.121 C 
BRANCH  14  15
ATOM     15  N   UNL A   1      34.476  23.676  23.555  1.00  0.00    -0.246 N 
ATOM     16  N   UNL A   1      34.208  23.859  22.250  1.00  0.00    -0.179 NA
ATOM     17  C   UNL A   1      33.362  23.870  24.291  1.00  0.00     0.131 A 
ATOM     18  C   UNL A   1      32.994  24.429  22.284  1.00  0.00     0.137 A 
ATOM     19  C   UNL A   1      32.572  24.723  23.579  1.00  0.00     0.069 A 
BRANCH  17  20
ATOM     20  N   UNL A   1      33.087  23.346  25.480  1.00  0.00    -0.307 N 
ATOM     21  C   UNL A   1      32.341  22.220  25.654  1.00  0.00     0.258 C 
ATOM     22  H   UNL A   1      33.441  23.797  26.280  1.00  0.00     0.171 HD
ATOM     23  O   UNL A   1      31.614  22.516  26.535  1.00  0.00    -0.269 OA
BRANCH  21  24
ATOM     24  C   UNL A   1      32.605  20.940  24.875  1.00  0.00     0.058 A 
ATOM     25  C   UNL A   1      33.314  19.948  25.552  1.00  0.00     0.015 A 
ATOM     26  C   UNL A   1      32.239  20.668  23.535  1.00  0.00     0.053 A 
ATOM     27  C   UNL A   1      33.564  18.710  24.973  1.00  0.00     0.001 A 
ATOM     28  C   UNL A   1      32.477  19.420  22.974  1.00  0.00     0.021 A 
ATOM     29  Cl  UNL A   1      31.390  21.649  22.406  1.00  0.00    -0.083 Cl
ATOM     30  C   UNL A   1      33.097  18.431  23.703  1.00  0.00     0.002 A 
ENDBRANCH  21  24
ENDBRANCH  17  20
ENDBRANCH  14  15
ENDBRANCH   7   8
ENDBRANCH   6   7
ENDBRANCH   4   6
ENDBRANCH   1   2
BRANCH   1  31
ATOM     31  C   UNL A   1      43.879  18.991  25.345  1.00  0.00     0.042 C 
BRANCH  31  32
ATOM     32  C   UNL A   1      43.988  20.475  25.292  1.00  0.00     0.118 C 
BRANCH  32  33
ATOM     33  N   UNL A   1      45.174  21.061  25.902  1.00  0.00    -0.352 N 
ATOM     34  C   UNL A   1      45.303  22.425  26.174  1.00  0.00     0.251 C 
ATOM     35  H   UNL A   1      45.924  20.466  26.135  1.00  0.00     0.163 HD
ATOM     36  O   UNL A   1      46.432  22.897  26.234  1.00  0.00    -0.269 OA
BRANCH  34  37
ATOM     37  C   UNL A   1      44.012  23.156  26.551  1.00  0.00     0.039 A 
ATOM     38  C   UNL A   1      42.924  23.569  25.788  1.00  0.00     0.014 A 
ATOM     39  C   UNL A   1      44.082  23.843  27.746  1.00  0.00     0.014 A 
ATOM     40  C   UNL A   1      42.286  24.873  26.194  1.00  0.00     0.010 A 
ATOM     41  C   UNL A   1      43.080  24.601  28.243  1.00  0.00     0.010 A 
ATOM     42  C   UNL A   1      42.756  25.610  27.398  1.00  0.00    -0.014 A 
BRANCH  42  43
ATOM     43  C   UNL A   1      42.505  27.117  28.345  1.00  0.00     0.031 A 
ATOM     44  C   UNL A   1      44.030  27.517  27.634  1.00  0.00     0.074 A 
ATOM     45  C   UNL A   1      41.378  27.844  29.330  1.00  0.00     0.049 A 
ATOM     46  N   UNL A   1      45.169  27.067  28.131  1.00  0.00    -0.248 NA
ATOM     47  C   UNL A   1      44.425  27.684  26.109  1.00  0.00     0.031 C 
ATOM     48  C   UNL A   1      39.817  27.578  30.075  1.00  0.00     0.029 A 
ATOM     49  N   UNL A   1      41.297  29.112  30.069  1.00  0.00    -0.354 N 
ATOM     50  C   UNL A   1      46.117  27.835  27.439  1.00  0.00     0.074 A 
ATOM     51  C   UNL A   1      45.754  27.838  26.095  1.00  0.00     0.031 C 
ATOM     52  C   UNL A   1      39.113  28.718  30.494  1.00  0.00     0.029 A 
ATOM     53  C   UNL A   1      40.004  29.844  30.447  1.00  0.00     0.049 A 
ATOM     54  H   UNL A   1      42.147  29.528  30.343  1.00  0.00     0.167 HD
ATOM     55  C   UNL A   1      46.564  28.945  28.061  1.00  0.00     0.034 A 
ATOM     56  C   UNL A   1      39.819  31.155  30.994  1.00  0.00     0.034 A 
ATOM     57  C   UNL A   1      46.292  28.775  29.458  1.00  0.00     0.049 A 
ATOM     58  C   UNL A   1      41.228  31.583  31.173  1.00  0.00     0.074 A 
ATOM     59  C   UNL A   1      46.600  27.750  30.336  1.00  0.00     0.029 A 
ATOM     60  N   UNL A   1      45.063  29.250  29.820  1.00  0.00    -0.354 N 
ATOM     61  N   UNL A   1      41.978  31.028  32.091  1.00  0.00    -0.248 NA
ATOM     62  C   UNL A   1      41.843  31.933  29.891  1.00  0.00     0.031 C 
ATOM     63  C   UNL A   1      45.495  27.608  31.212  1.00  0.00     0.029 A 
ATOM     64  C   UNL A   1      44.627  28.659  30.961  1.00  0.00     0.049 A 
ATOM     65  H   UNL A   1      44.561  29.931  29.318  1.00  0.00     0.167 HD
ATOM     66  C   UNL A   1      43.017  30.470  31.358  1.00  0.00     0.074 A 
ATOM     67  C   UNL A   1      42.911  31.121  29.988  1.00  0.00     0.031 C 
ATOM     68  C   UNL A   1      43.530  29.220  31.685  1.00  0.00     0.034 A 
BRANCH  55  69
ATOM     69  C   UNL A   1      46.700  30.283  27.391  1.00  0.00     0.023 A 
ATOM     70  C   UNL A   1      48.017  30.739  27.413  1.00  0.00     0.012 A 
ATOM     71  C   UNL A   1      45.687  31.180  26.928  1.00  0.00     0.148 A 
ATOM     72  C   UNL A   1      48.327  32.035  27.031  1.00  0.00     0.002 A 
ATOM     73  C   UNL A   1      46.010  32.453  26.483  1.00  0.00     0.091 A 
ATOM     74  F   UNL A   1      44.393  30.851  26.973  1.00  0.00    -0.205 F 
ATOM     75  C   UNL A   1      47.335  32.887  26.551  1.00  0.00     0.022 A 
BRANCH  73  76
ATOM     76  S   UNL A   1      44.773  33.620  25.873  1.00  0.00     0.127 S 
ATOM     77  O   UNL A   1      43.830  33.658  26.986  1.00  0.00    -0.237 OA
ATOM     78  O   UNL A   1      45.572  34.832  25.693  1.00  0.00    -0.237 OA
ATOM     79  O   UNL A   1      44.255  33.053  24.632  1.00  0.00    -0.744 OA
ENDBRANCH  73  76
ENDBRANCH  55  69
BRANCH  56  80
ATOM     80  C   UNL A   1      38.724  32.281  30.718  1.00  0.00     0.023 A 
ATOM     81  C   UNL A   1      38.010  32.687  29.524  1.00  0.00     0.012 A 
ATOM     82  C   UNL A   1      38.166  32.782  31.902  1.00  0.00     0.148 A 
ATOM     83  C   UNL A   1      36.838  33.533  29.572  1.00  0.00     0.002 A 
ATOM     84  C   UNL A   1      37.009  33.570  31.955  1.00  0.00     0.091 A 
ATOM     85  F   UNL A   1      38.760  32.410  33.037  1.00  0.00    -0.205 F 
ATOM     86  C   UNL A   1      36.323  33.947  30.798  1.00  0.00     0.022 A 
BRANCH  84  87
ATOM     87  S   UNL A   1      36.371  34.117  33.545  1.00  0.00     0.127 S 
ATOM     88  O   UNL A   1      36.095  32.842  34.207  1.00  0.00    -0.237 OA
ATOM     89  O   UNL A   1      37.499  34.866  34.090  1.00  0.00    -0.237 OA
ATOM     90  O   UNL A   1      35.183  34.906  33.245  1.00  0.00    -0.744 OA
ENDBRANCH  84  87
ENDBRANCH  56  80
BRANCH  68  91
ATOM     91  C   UNL A   1      43.116  28.459  32.954  1.00  0.00     0.023 A 
ATOM     92  C   UNL A   1      42.121  27.454  33.147  1.00  0.00     0.012 A 
ATOM     93  C   UNL A   1      43.966  28.715  34.023  1.00  0.00     0.148 A 
ATOM     94  C   UNL A   1      41.888  26.875  34.414  1.00  0.00     0.002 A 
ATOM     95  C   UNL A   1      43.771  28.114  35.254  1.00  0.00     0.091 A 
ATOM     96  F   UNL A   1      45.018  29.510  33.789  1.00  0.00    -0.205 F 
ATOM     97  C   UNL A   1      42.713  27.221  35.475  1.00  0.00     0.022 A 
BRANCH  95  98
ATOM     98  S   UNL A   1      44.844  28.525  36.615  1.00  0.00     0.127 S 
ATOM     99  O   UNL A   1      44.760  29.983  36.608  1.00  0.00    -0.237 OA
ATOM    100  O   UNL A   1      44.173  27.864  37.732  1.00  0.00    -0.237 OA
ATOM    101  O   UNL A   1      46.152  27.977  36.281  1.00  0.00    -0.744 OA
ENDBRANCH  95  98
ENDBRANCH  68  91
ENDBRANCH  42  43
ENDBRANCH  34  37
ENDBRANCH  32  33
ENDBRANCH  31  32
ENDBRANCH   1  31
TORSDOF 18
ENDMDL
