MODEL 1
REMARK VINA RESULT:     -11.9      0.000      0.000
REMARK SMILES CC1(C)CCN(C(=O)CC(C)(C)C(=O)NCCCNC(=O)c2ccc(-c3c4nc(c(-c5cccc(S(=O)(=O)[O-])c5F)c5ccc([nH]5)c(-c5cccc(S(=O)(=O)[O-])c5F)c5nc(c(-c6cccc(S(=O)(=O)[O-])c6F)c6ccc3[nH]6)C=C5)C=C4)cc2)C1
REMARK SMILES IDX 17 1 16 2 15 3 13 4 14 5 10 7 11 8 12 9 9 10 7 11 8 12 6 13
REMARK SMILES IDX 1 14 2 15 3 16 4 17 85 18 5 19 18 20 19 21 20 22 21 24 22 25
REMARK SMILES IDX 23 26 84 27 24 28 83 29 25 30 26 31 27 32 77 33 28 34 82 35
REMARK SMILES IDX 76 36 78 37 29 38 81 39 75 40 74 41 30 43 62 44 42 45 61 46
REMARK SMILES IDX 43 47 46 48 60 49 79 50 44 51 45 52 59 54 80 55 47 56 31 57
REMARK SMILES IDX 32 58 40 59 33 60 35 61 41 62 34 63 36 64 37 65 38 66 39 67
REMARK SMILES IDX 63 68 64 69 72 70 65 71 67 72 73 73 66 74 68 75 69 76 70 77
REMARK SMILES IDX 71 78 48 79 49 80 57 81 50 82 52 83 58 84 51 85 53 86 54 87
REMARK SMILES IDX 55 88 56 89
REMARK H PARENT 15 6 19 23 78 42 46 53
REMARK Flexibility Score: inf
ROOT
ATOM      1  C   UNL A   1      34.753  21.829  27.001  1.00  0.00     0.042 C 
ENDROOT
BRANCH   1   2
ATOM      2  C   UNL A   1      33.475  21.492  26.255  1.00  0.00     0.117 C 
BRANCH   2   3
ATOM      3  N   UNL A   1      32.281  21.950  26.941  1.00  0.00    -0.356 N 
ATOM      4  C   UNL A   1      31.464  23.023  26.789  1.00  0.00     0.226 C 
ATOM      5  O   UNL A   1      30.550  23.093  27.614  1.00  0.00    -0.274 OA
ATOM      6  H   UNL A   1      32.005  21.355  27.675  1.00  0.00     0.163 HD
BRANCH   4   7
ATOM      7  C   UNL A   1      31.699  24.137  25.748  1.00  0.00     0.052 C 
ATOM      8  C   UNL A   1      31.741  23.637  24.300  1.00  0.00     0.022 C 
ATOM      9  C   UNL A   1      33.078  24.763  26.051  1.00  0.00     0.022 C 
BRANCH   7  10
ATOM     10  C   UNL A   1      30.617  25.268  25.881  1.00  0.00     0.116 C 
BRANCH  10  11
ATOM     11  C   UNL A   1      31.029  26.734  26.080  1.00  0.00     0.223 C 
ATOM     12  O   UNL A   1      31.036  27.224  27.214  1.00  0.00    -0.275 OA
BRANCH  11  13
ATOM     13  N   UNL A   1      31.483  27.482  25.017  1.00  0.00    -0.342 N 
ATOM     14  C   UNL A   1      33.211  26.517  22.797  1.00  0.00     0.013 C 
ATOM     15  C   UNL A   1      32.928  27.964  23.250  1.00  0.00    -0.016 C 
ATOM     16  C   UNL A   1      34.036  28.874  22.729  1.00  0.00     0.013 C 
ATOM     17  C   UNL A   1      31.513  28.391  22.820  1.00  0.00     0.030 C 
ATOM     18  C   UNL A   1      32.777  28.077  24.771  1.00  0.00     0.126 C 
ATOM     19  C   UNL A   1      30.606  27.745  23.879  1.00  0.00     0.120 C 
ENDBRANCH  11  13
ENDBRANCH  10  11
ENDBRANCH   7  10
ENDBRANCH   4   7
ENDBRANCH   2   3
ENDBRANCH   1   2
BRANCH   1  20
ATOM     20  C   UNL A   1      35.870  22.335  26.104  1.00  0.00     0.118 C 
BRANCH  20  21
ATOM     21  N   UNL A   1      36.821  21.287  25.745  1.00  0.00    -0.352 N 
ATOM     22  C   UNL A   1      38.200  21.298  25.754  1.00  0.00     0.251 C 
ATOM     23  H   UNL A   1      36.416  20.440  25.450  1.00  0.00     0.163 HD
ATOM     24  O   UNL A   1      38.822  20.388  25.225  1.00  0.00    -0.269 OA
BRANCH  22  25
ATOM     25  C   UNL A   1      38.918  22.427  26.385  1.00  0.00     0.039 A 
ATOM     26  C   UNL A   1      40.004  22.173  27.228  1.00  0.00     0.014 A 
ATOM     27  C   UNL A   1      38.525  23.740  26.127  1.00  0.00     0.014 A 
ATOM     28  C   UNL A   1      40.753  23.241  27.732  1.00  0.00     0.010 A 
ATOM     29  C   UNL A   1      39.335  24.791  26.533  1.00  0.00     0.010 A 
ATOM     30  C   UNL A   1      40.452  24.557  27.349  1.00  0.00    -0.014 A 
BRANCH  30  31
ATOM     31  C   UNL A   1      41.250  25.729  27.794  1.00  0.00     0.031 A 
ATOM     32  C   UNL A   1      40.571  26.815  28.590  1.00  0.00     0.074 A 
ATOM     33  C   UNL A   1      42.522  25.888  27.373  1.00  0.00     0.049 A 
ATOM     34  N   UNL A   1      40.998  28.015  28.884  1.00  0.00    -0.248 NA
ATOM     35  C   UNL A   1      39.211  26.527  29.079  1.00  0.00     0.031 C 
ATOM     36  C   UNL A   1      43.270  24.938  26.547  1.00  0.00     0.029 A 
ATOM     37  N   UNL A   1      43.397  26.931  27.550  1.00  0.00    -0.354 N 
ATOM     38  C   UNL A   1      39.943  28.639  29.540  1.00  0.00     0.074 A 
ATOM     39  C   UNL A   1      38.842  27.702  29.569  1.00  0.00     0.031 C 
ATOM     40  C   UNL A   1      44.487  25.444  26.283  1.00  0.00     0.029 A 
ATOM     41  C   UNL A   1      44.592  26.769  26.883  1.00  0.00     0.049 A 
ATOM     42  H   UNL A   1      43.191  27.721  28.099  1.00  0.00     0.167 HD
ATOM     43  C   UNL A   1      39.903  29.870  30.101  1.00  0.00     0.034 A 
ATOM     44  C   UNL A   1      45.642  27.605  26.756  1.00  0.00     0.034 A 
ATOM     45  C   UNL A   1      41.023  30.768  30.134  1.00  0.00     0.049 A 
ATOM     46  C   UNL A   1      45.589  28.948  27.438  1.00  0.00     0.074 A 
ATOM     47  C   UNL A   1      41.110  32.012  30.732  1.00  0.00     0.029 A 
ATOM     48  N   UNL A   1      42.258  30.507  29.564  1.00  0.00    -0.354 N 
ATOM     49  N   UNL A   1      44.623  29.474  28.149  1.00  0.00    -0.248 NA
ATOM     50  C   UNL A   1      46.784  29.799  27.330  1.00  0.00     0.031 C 
ATOM     51  C   UNL A   1      42.402  32.504  30.524  1.00  0.00     0.029 A 
ATOM     52  C   UNL A   1      43.121  31.557  29.812  1.00  0.00     0.049 A 
ATOM     53  H   UNL A   1      42.488  29.694  29.058  1.00  0.00     0.167 HD
ATOM     54  C   UNL A   1      45.112  30.687  28.619  1.00  0.00     0.074 A 
ATOM     55  C   UNL A   1      46.463  30.817  28.118  1.00  0.00     0.031 C 
ATOM     56  C   UNL A   1      44.494  31.619  29.385  1.00  0.00     0.034 A 
BRANCH  43  57
ATOM     57  C   UNL A   1      38.634  30.291  30.792  1.00  0.00     0.023 A 
ATOM     58  C   UNL A   1      38.472  30.008  32.164  1.00  0.00     0.012 A 
ATOM     59  C   UNL A   1      37.642  31.026  30.116  1.00  0.00     0.148 A 
ATOM     60  C   UNL A   1      37.330  30.425  32.845  1.00  0.00     0.002 A 
ATOM     61  C   UNL A   1      36.527  31.478  30.813  1.00  0.00     0.091 A 
ATOM     62  F   UNL A   1      37.806  31.270  28.808  1.00  0.00    -0.205 F 
ATOM     63  C   UNL A   1      36.365  31.169  32.174  1.00  0.00     0.022 A 
BRANCH  61  64
ATOM     64  S   UNL A   1      35.265  32.513  30.064  1.00  0.00     0.127 S 
ATOM     65  O   UNL A   1      36.053  33.659  29.612  1.00  0.00    -0.237 OA
ATOM     66  O   UNL A   1      34.763  31.656  28.990  1.00  0.00    -0.237 OA
ATOM     67  O   UNL A   1      34.301  32.799  31.117  1.00  0.00    -0.744 OA
ENDBRANCH  61  64
ENDBRANCH  43  57
BRANCH  44  68
ATOM     68  C   UNL A   1      46.861  27.180  26.008  1.00  0.00     0.023 A 
ATOM     69  C   UNL A   1      47.809  26.359  26.651  1.00  0.00     0.012 A 
ATOM     70  C   UNL A   1      47.094  27.580  24.679  1.00  0.00     0.148 A 
ATOM     71  C   UNL A   1      48.987  25.984  26.002  1.00  0.00     0.002 A 
ATOM     72  C   UNL A   1      48.244  27.157  24.018  1.00  0.00     0.091 A 
ATOM     73  F   UNL A   1      46.191  28.373  24.084  1.00  0.00    -0.205 F 
ATOM     74  C   UNL A   1      49.200  26.376  24.685  1.00  0.00     0.022 A 
BRANCH  72  75
ATOM     75  S   UNL A   1      48.528  27.508  22.280  1.00  0.00     0.127 S 
ATOM     76  O   UNL A   1      47.386  28.358  21.954  1.00  0.00    -0.237 OA
ATOM     77  O   UNL A   1      49.819  28.197  22.311  1.00  0.00    -0.237 OA
ATOM     78  O   UNL A   1      48.566  26.206  21.626  1.00  0.00    -0.744 OA
ENDBRANCH  72  75
ENDBRANCH  44  68
BRANCH  56  79
ATOM     79  C   UNL A   1      45.286  32.824  29.811  1.00  0.00     0.023 A 
ATOM     80  C   UNL A   1      46.117  32.755  30.945  1.00  0.00     0.012 A 
ATOM     81  C   UNL A   1      45.291  33.984  29.012  1.00  0.00     0.148 A 
ATOM     82  C   UNL A   1      46.930  33.834  31.288  1.00  0.00     0.002 A 
ATOM     83  C   UNL A   1      46.139  35.036  29.333  1.00  0.00     0.091 A 
ATOM     84  F   UNL A   1      44.477  34.030  27.946  1.00  0.00    -0.205 F 
ATOM     85  C   UNL A   1      46.953  34.966  30.475  1.00  0.00     0.022 A 
BRANCH  83  86
ATOM     86  S   UNL A   1      46.308  36.489  28.291  1.00  0.00     0.127 S 
ATOM     87  O   UNL A   1      44.979  37.089  28.400  1.00  0.00    -0.237 OA
ATOM     88  O   UNL A   1      47.371  37.233  28.967  1.00  0.00    -0.237 OA
ATOM     89  O   UNL A   1      46.662  35.997  26.966  1.00  0.00    -0.744 OA
ENDBRANCH  83  86
ENDBRANCH  56  79
ENDBRANCH  30  31
ENDBRANCH  22  25
ENDBRANCH  20  21
ENDBRANCH   1  20
TORSDOF 16
ENDMDL
MODEL 2
REMARK VINA RESULT:     -11.8      1.276      1.876
REMARK SMILES CC1(C)CCN(C(=O)CC(C)(C)C(=O)NCCCNC(=O)c2ccc(-c3c4nc(c(-c5cccc(S(=O)(=O)[O-])c5F)c5ccc([nH]5)c(-c5cccc(S(=O)(=O)[O-])c5F)c5nc(c(-c6cccc(S(=O)(=O)[O-])c6F)c6ccc3[nH]6)C=C5)C=C4)cc2)C1
REMARK SMILES IDX 17 1 16 2 15 3 13 4 14 5 10 7 11 8 12 9 9 10 7 11 8 12 6 13
REMARK SMILES IDX 1 14 2 15 3 16 4 17 85 18 5 19 18 20 19 21 20 22 21 24 22 25
REMARK SMILES IDX 23 26 84 27 24 28 83 29 25 30 26 31 27 32 77 33 28 34 82 35
REMARK SMILES IDX 76 36 78 37 29 38 81 39 75 40 74 41 30 43 62 44 42 45 61 46
REMARK SMILES IDX 43 47 46 48 60 49 79 50 44 51 45 52 59 54 80 55 47 56 31 57
REMARK SMILES IDX 32 58 40 59 33 60 35 61 41 62 34 63 36 64 37 65 38 66 39 67
REMARK SMILES IDX 63 68 64 69 72 70 65 71 67 72 73 73 66 74 68 75 69 76 70 77
REMARK SMILES IDX 71 78 48 79 49 80 57 81 50 82 52 83 58 84 51 85 53 86 54 87
REMARK SMILES IDX 55 88 56 89
REMARK H PARENT 15 6 19 23 78 42 46 53
REMARK Flexibility Score: inf
ROOT
ATOM      1  C   UNL A   1      35.057  22.564  26.732  1.00  0.00     0.042 C 
ENDROOT
BRANCH   1   2
ATOM      2  C   UNL A   1      33.588  22.646  26.359  1.00  0.00     0.117 C 
BRANCH   2   3
ATOM      3  N   UNL A   1      33.061  21.390  25.856  1.00  0.00    -0.356 N 
ATOM      4  C   UNL A   1      32.522  21.006  24.672  1.00  0.00     0.226 C 
ATOM      5  O   UNL A   1      32.142  19.833  24.639  1.00  0.00    -0.274 OA
ATOM      6  H   UNL A   1      33.105  20.662  26.516  1.00  0.00     0.163 HD
BRANCH   4   7
ATOM      7  C   UNL A   1      32.290  21.964  23.485  1.00  0.00     0.052 C 
ATOM      8  C   UNL A   1      31.182  22.995  23.726  1.00  0.00     0.022 C 
ATOM      9  C   UNL A   1      31.853  21.102  22.281  1.00  0.00     0.022 C 
BRANCH   7  10
ATOM     10  C   UNL A   1      33.618  22.704  23.092  1.00  0.00     0.116 C 
BRANCH  10  11
ATOM     11  C   UNL A   1      33.593  23.930  22.167  1.00  0.00     0.223 C 
ATOM     12  O   UNL A   1      33.456  23.781  20.949  1.00  0.00    -0.275 OA
BRANCH  11  13
ATOM     13  N   UNL A   1      33.626  25.202  22.694  1.00  0.00    -0.342 N 
ATOM     14  C   UNL A   1      31.312  26.709  23.799  1.00  0.00     0.013 C 
ATOM     15  C   UNL A   1      32.683  27.239  23.330  1.00  0.00    -0.016 C 
ATOM     16  C   UNL A   1      32.565  28.730  23.033  1.00  0.00     0.013 C 
ATOM     17  C   UNL A   1      33.771  26.889  24.362  1.00  0.00     0.030 C 
ATOM     18  C   UNL A   1      33.221  26.465  22.121  1.00  0.00     0.126 C 
ATOM     19  C   UNL A   1      34.092  25.418  24.061  1.00  0.00     0.120 C 
ENDBRANCH  11  13
ENDBRANCH  10  11
ENDBRANCH   7  10
ENDBRANCH   4   7
ENDBRANCH   2   3
ENDBRANCH   1   2
BRANCH   1  20
ATOM     20  C   UNL A   1      35.995  22.612  25.538  1.00  0.00     0.118 C 
BRANCH  20  21
ATOM     21  N   UNL A   1      36.870  21.445  25.463  1.00  0.00    -0.352 N 
ATOM     22  C   UNL A   1      38.220  21.330  25.714  1.00  0.00     0.251 C 
ATOM     23  H   UNL A   1      36.427  20.609  25.190  1.00  0.00     0.163 HD
ATOM     24  O   UNL A   1      38.816  20.309  25.400  1.00  0.00    -0.269 OA
BRANCH  22  25
ATOM     25  C   UNL A   1      38.946  22.457  26.341  1.00  0.00     0.039 A 
ATOM     26  C   UNL A   1      40.039  22.199  27.175  1.00  0.00     0.014 A 
ATOM     27  C   UNL A   1      38.555  23.771  26.088  1.00  0.00     0.014 A 
ATOM     28  C   UNL A   1      40.794  23.264  27.675  1.00  0.00     0.010 A 
ATOM     29  C   UNL A   1      39.370  24.819  26.490  1.00  0.00     0.010 A 
ATOM     30  C   UNL A   1      40.493  24.581  27.297  1.00  0.00    -0.014 A 
BRANCH  30  31
ATOM     31  C   UNL A   1      41.297  25.750  27.737  1.00  0.00     0.031 A 
ATOM     32  C   UNL A   1      40.629  26.833  28.548  1.00  0.00     0.074 A 
ATOM     33  C   UNL A   1      42.564  25.911  27.301  1.00  0.00     0.049 A 
ATOM     34  N   UNL A   1      41.060  28.030  28.843  1.00  0.00    -0.248 NA
ATOM     35  C   UNL A   1      39.275  26.543  29.053  1.00  0.00     0.031 C 
ATOM     36  C   UNL A   1      43.301  24.965  26.460  1.00  0.00     0.029 A 
ATOM     37  N   UNL A   1      43.442  26.952  27.472  1.00  0.00    -0.354 N 
ATOM     38  C   UNL A   1      40.014  28.652  29.515  1.00  0.00     0.074 A 
ATOM     39  C   UNL A   1      38.914  27.715  29.554  1.00  0.00     0.031 C 
ATOM     40  C   UNL A   1      44.514  25.472  26.183  1.00  0.00     0.029 A 
ATOM     41  C   UNL A   1      44.627  26.794  26.788  1.00  0.00     0.049 A 
ATOM     42  H   UNL A   1      43.243  27.740  28.028  1.00  0.00     0.167 HD
ATOM     43  C   UNL A   1      39.982  29.880  30.083  1.00  0.00     0.034 A 
ATOM     44  C   UNL A   1      45.676  27.630  26.652  1.00  0.00     0.034 A 
ATOM     45  C   UNL A   1      41.103  30.777  30.106  1.00  0.00     0.049 A 
ATOM     46  C   UNL A   1      45.633  28.969  27.342  1.00  0.00     0.074 A 
ATOM     47  C   UNL A   1      41.199  32.019  30.709  1.00  0.00     0.029 A 
ATOM     48  N   UNL A   1      42.331  30.519  29.519  1.00  0.00    -0.354 N 
ATOM     49  N   UNL A   1      44.676  29.493  28.068  1.00  0.00    -0.248 NA
ATOM     50  C   UNL A   1      46.827  29.820  27.223  1.00  0.00     0.031 C 
ATOM     51  C   UNL A   1      42.488  32.511  30.488  1.00  0.00     0.029 A 
ATOM     52  C   UNL A   1      43.197  31.567  29.762  1.00  0.00     0.049 A 
ATOM     53  H   UNL A   1      42.553  29.708  29.006  1.00  0.00     0.167 HD
ATOM     54  C   UNL A   1      45.172  30.702  28.538  1.00  0.00     0.074 A 
ATOM     55  C   UNL A   1      46.516  30.834  28.020  1.00  0.00     0.031 C 
ATOM     56  C   UNL A   1      44.564  31.630  29.317  1.00  0.00     0.034 A 
BRANCH  43  57
ATOM     57  C   UNL A   1      38.723  30.298  30.793  1.00  0.00     0.023 A 
ATOM     58  C   UNL A   1      38.583  30.019  32.168  1.00  0.00     0.012 A 
ATOM     59  C   UNL A   1      37.717  31.027  30.130  1.00  0.00     0.148 A 
ATOM     60  C   UNL A   1      37.451  30.433  32.866  1.00  0.00     0.002 A 
ATOM     61  C   UNL A   1      36.611  31.476  30.843  1.00  0.00     0.091 A 
ATOM     62  F   UNL A   1      37.859  31.267  28.819  1.00  0.00    -0.205 F 
ATOM     63  C   UNL A   1      36.472  31.171  32.207  1.00  0.00     0.022 A 
BRANCH  61  64
ATOM     64  S   UNL A   1      35.333  32.504  30.111  1.00  0.00     0.127 S 
ATOM     65  O   UNL A   1      34.409  32.668  31.233  1.00  0.00    -0.237 OA
ATOM     66  O   UNL A   1      36.078  33.711  29.754  1.00  0.00    -0.237 OA
ATOM     67  O   UNL A   1      34.809  31.753  28.980  1.00  0.00    -0.744 OA
ENDBRANCH  61  64
ENDBRANCH  43  57
BRANCH  44  68
ATOM     68  C   UNL A   1      46.886  27.209  25.887  1.00  0.00     0.023 A 
ATOM     69  C   UNL A   1      47.843  26.387  26.514  1.00  0.00     0.012 A 
ATOM     70  C   UNL A   1      47.100  27.613  24.556  1.00  0.00     0.148 A 
ATOM     71  C   UNL A   1      49.012  26.015  25.848  1.00  0.00     0.002 A 
ATOM     72  C   UNL A   1      48.240  27.192  23.878  1.00  0.00     0.091 A 
ATOM     73  F   UNL A   1      46.188  28.406  23.975  1.00  0.00    -0.205 F 
ATOM     74  C   UNL A   1      49.207  26.411  24.529  1.00  0.00     0.022 A 
BRANCH  72  75
ATOM     75  S   UNL A   1      48.500  27.549  22.137  1.00  0.00     0.127 S 
ATOM     76  O   UNL A   1      49.670  28.420  22.178  1.00  0.00    -0.237 OA
ATOM     77  O   UNL A   1      48.744  26.217  21.581  1.00  0.00    -0.237 OA
ATOM     78  O   UNL A   1      47.259  28.162  21.682  1.00  0.00    -0.744 OA
ENDBRANCH  72  75
ENDBRANCH  44  68
BRANCH  56  79
ATOM     79  C   UNL A   1      45.362  32.833  29.739  1.00  0.00     0.023 A 
ATOM     80  C   UNL A   1      46.142  32.785  30.910  1.00  0.00     0.012 A 
ATOM     81  C   UNL A   1      45.427  33.966  28.904  1.00  0.00     0.148 A 
ATOM     82  C   UNL A   1      46.961  33.858  31.254  1.00  0.00     0.002 A 
ATOM     83  C   UNL A   1      46.282  35.011  29.229  1.00  0.00     0.091 A 
ATOM     84  F   UNL A   1      44.662  33.993  27.802  1.00  0.00    -0.205 F 
ATOM     85  C   UNL A   1      47.043  34.962  30.407  1.00  0.00     0.022 A 
BRANCH  83  86
ATOM     86  S   UNL A   1      46.527  36.426  28.149  1.00  0.00     0.127 S 
ATOM     87  O   UNL A   1      47.435  37.251  28.944  1.00  0.00    -0.237 OA
ATOM     88  O   UNL A   1      47.136  35.812  26.969  1.00  0.00    -0.237 OA
ATOM     89  O   UNL A   1      45.206  36.994  27.922  1.00  0.00    -0.744 OA
ENDBRANCH  83  86
ENDBRANCH  56  79
ENDBRANCH  30  31
ENDBRANCH  22  25
ENDBRANCH  20  21
ENDBRANCH   1  20
TORSDOF 16
ENDMDL
MODEL 3
REMARK VINA RESULT:     -11.8      5.158     10.251
REMARK SMILES CC1(C)CCN(C(=O)CC(C)(C)C(=O)NCCCNC(=O)c2ccc(-c3c4nc(c(-c5cccc(S(=O)(=O)[O-])c5F)c5ccc([nH]5)c(-c5cccc(S(=O)(=O)[O-])c5F)c5nc(c(-c6cccc(S(=O)(=O)[O-])c6F)c6ccc3[nH]6)C=C5)C=C4)cc2)C1
REMARK SMILES IDX 17 1 16 2 15 3 13 4 14 5 10 7 11 8 12 9 9 10 7 11 8 12 6 13
REMARK SMILES IDX 1 14 2 15 3 16 4 17 85 18 5 19 18 20 19 21 20 22 21 24 22 25
REMARK SMILES IDX 23 26 84 27 24 28 83 29 25 30 26 31 27 32 77 33 28 34 82 35
REMARK SMILES IDX 76 36 78 37 29 38 81 39 75 40 74 41 30 43 62 44 42 45 61 46
REMARK SMILES IDX 43 47 46 48 60 49 79 50 44 51 45 52 59 54 80 55 47 56 31 57
REMARK SMILES IDX 32 58 40 59 33 60 35 61 41 62 34 63 36 64 37 65 38 66 39 67
REMARK SMILES IDX 63 68 64 69 72 70 65 71 67 72 73 73 66 74 68 75 69 76 70 77
REMARK SMILES IDX 71 78 48 79 49 80 57 81 50 82 52 83 58 84 51 85 53 86 54 87
REMARK SMILES IDX 55 88 56 89
REMARK H PARENT 15 6 19 23 78 42 46 53
REMARK Flexibility Score: inf
ROOT
ATOM      1  C   UNL A   1      31.781  27.825  26.506  1.00  0.00     0.042 C 
ENDROOT
BRANCH   1   2
ATOM      2  C   UNL A   1      31.551  26.587  25.658  1.00  0.00     0.117 C 
BRANCH   2   3
ATOM      3  N   UNL A   1      30.975  25.486  26.409  1.00  0.00    -0.356 N 
ATOM      4  C   UNL A   1      31.284  24.171  26.532  1.00  0.00     0.226 C 
ATOM      5  O   UNL A   1      30.514  23.529  27.250  1.00  0.00    -0.274 OA
ATOM      6  H   UNL A   1      30.192  25.751  26.943  1.00  0.00     0.163 HD
BRANCH   4   7
ATOM      7  C   UNL A   1      32.433  23.485  25.764  1.00  0.00     0.052 C 
ATOM      8  C   UNL A   1      33.778  24.210  25.880  1.00  0.00     0.022 C 
ATOM      9  C   UNL A   1      32.046  23.485  24.269  1.00  0.00     0.022 C 
BRANCH   7  10
ATOM     10  C   UNL A   1      32.601  21.991  26.219  1.00  0.00     0.116 C 
BRANCH  10  11
ATOM     11  C   UNL A   1      33.807  21.159  25.759  1.00  0.00     0.223 C 
ATOM     12  O   UNL A   1      34.916  21.348  26.269  1.00  0.00    -0.275 OA
BRANCH  11  13
ATOM     13  N   UNL A   1      33.645  20.138  24.850  1.00  0.00    -0.342 N 
ATOM     14  C   UNL A   1      32.528  17.440  25.415  1.00  0.00     0.013 C 
ATOM     15  C   UNL A   1      33.381  17.908  24.219  1.00  0.00    -0.016 C 
ATOM     16  C   UNL A   1      34.024  16.691  23.560  1.00  0.00     0.013 C 
ATOM     17  C   UNL A   1      32.534  18.764  23.260  1.00  0.00     0.030 C 
ATOM     18  C   UNL A   1      34.432  18.947  24.626  1.00  0.00     0.126 C 
ATOM     19  C   UNL A   1      32.502  20.140  23.941  1.00  0.00     0.120 C 
ENDBRANCH  11  13
ENDBRANCH  10  11
ENDBRANCH   7  10
ENDBRANCH   4   7
ENDBRANCH   2   3
ENDBRANCH   1   2
BRANCH   1  20
ATOM     20  C   UNL A   1      32.650  28.874  25.835  1.00  0.00     0.118 C 
BRANCH  20  21
ATOM     21  N   UNL A   1      32.203  30.237  26.111  1.00  0.00    -0.352 N 
ATOM     22  C   UNL A   1      32.751  31.203  26.926  1.00  0.00     0.251 C 
ATOM     23  H   UNL A   1      31.381  30.507  25.643  1.00  0.00     0.163 HD
ATOM     24  O   UNL A   1      32.118  32.217  27.185  1.00  0.00    -0.269 OA
BRANCH  22  25
ATOM     25  C   UNL A   1      34.097  30.994  27.505  1.00  0.00     0.039 A 
ATOM     26  C   UNL A   1      34.962  32.082  27.657  1.00  0.00     0.014 A 
ATOM     27  C   UNL A   1      34.495  29.722  27.914  1.00  0.00     0.014 A 
ATOM     28  C   UNL A   1      36.188  31.906  28.307  1.00  0.00     0.010 A 
ATOM     29  C   UNL A   1      35.656  29.573  28.659  1.00  0.00     0.010 A 
ATOM     30  C   UNL A   1      36.522  30.658  28.855  1.00  0.00    -0.014 A 
BRANCH  30  31
ATOM     31  C   UNL A   1      37.776  30.423  29.617  1.00  0.00     0.031 A 
ATOM     32  C   UNL A   1      38.822  29.504  29.037  1.00  0.00     0.074 A 
ATOM     33  C   UNL A   1      37.916  30.909  30.868  1.00  0.00     0.049 A 
ATOM     34  N   UNL A   1      39.872  28.979  29.611  1.00  0.00    -0.248 NA
ATOM     35  C   UNL A   1      38.633  29.085  27.637  1.00  0.00     0.031 C 
ATOM     36  C   UNL A   1      36.947  31.759  31.565  1.00  0.00     0.029 A 
ATOM     37  N   UNL A   1      38.914  30.721  31.793  1.00  0.00    -0.354 N 
ATOM     38  C   UNL A   1      40.432  28.129  28.665  1.00  0.00     0.074 A 
ATOM     39  C   UNL A   1      39.588  28.178  27.492  1.00  0.00     0.031 C 
ATOM     40  C   UNL A   1      37.394  32.012  32.807  1.00  0.00     0.029 A 
ATOM     41  C   UNL A   1      38.657  31.310  33.011  1.00  0.00     0.049 A 
ATOM     42  H   UNL A   1      39.734  30.211  31.605  1.00  0.00     0.167 HD
ATOM     43  C   UNL A   1      41.567  27.397  28.749  1.00  0.00     0.034 A 
ATOM     44  C   UNL A   1      39.352  31.272  34.165  1.00  0.00     0.034 A 
ATOM     45  C   UNL A   1      42.441  27.410  29.888  1.00  0.00     0.049 A 
ATOM     46  C   UNL A   1      40.642  30.493  34.211  1.00  0.00     0.074 A 
ATOM     47  C   UNL A   1      43.650  26.756  30.053  1.00  0.00     0.029 A 
ATOM     48  N   UNL A   1      42.212  28.129  31.049  1.00  0.00    -0.354 N 
ATOM     49  N   UNL A   1      41.212  29.785  33.267  1.00  0.00    -0.248 NA
ATOM     50  C   UNL A   1      41.404  30.535  35.469  1.00  0.00     0.031 C 
ATOM     51  C   UNL A   1      44.152  27.083  31.315  1.00  0.00     0.029 A 
ATOM     52  C   UNL A   1      43.263  27.953  31.927  1.00  0.00     0.049 A 
ATOM     53  H   UNL A   1      41.417  28.684  31.222  1.00  0.00     0.167 HD
ATOM     54  C   UNL A   1      42.421  29.348  33.795  1.00  0.00     0.074 A 
ATOM     55  C   UNL A   1      42.505  29.873  35.140  1.00  0.00     0.031 C 
ATOM     56  C   UNL A   1      43.370  28.567  33.224  1.00  0.00     0.034 A 
BRANCH  43  57
ATOM     57  C   UNL A   1      41.974  26.583  27.550  1.00  0.00     0.023 A 
ATOM     58  C   UNL A   1      42.683  27.206  26.503  1.00  0.00     0.012 A 
ATOM     59  C   UNL A   1      41.727  25.198  27.489  1.00  0.00     0.148 A 
ATOM     60  C   UNL A   1      43.115  26.471  25.401  1.00  0.00     0.002 A 
ATOM     61  C   UNL A   1      42.201  24.462  26.409  1.00  0.00     0.091 A 
ATOM     62  F   UNL A   1      41.036  24.627  28.486  1.00  0.00    -0.205 F 
ATOM     63  C   UNL A   1      42.885  25.099  25.360  1.00  0.00     0.022 A 
BRANCH  61  64
ATOM     64  S   UNL A   1      42.031  22.678  26.296  1.00  0.00     0.127 S 
ATOM     65  O   UNL A   1      42.654  22.404  25.001  1.00  0.00    -0.237 OA
ATOM     66  O   UNL A   1      42.802  22.223  27.452  1.00  0.00    -0.237 OA
ATOM     67  O   UNL A   1      40.603  22.403  26.368  1.00  0.00    -0.744 OA
ENDBRANCH  61  64
ENDBRANCH  43  57
BRANCH  44  68
ATOM     68  C   UNL A   1      38.887  32.041  35.356  1.00  0.00     0.023 A 
ATOM     69  C   UNL A   1      39.070  33.438  35.385  1.00  0.00     0.012 A 
ATOM     70  C   UNL A   1      38.274  31.410  36.454  1.00  0.00     0.148 A 
ATOM     71  C   UNL A   1      38.696  34.184  36.504  1.00  0.00     0.002 A 
ATOM     72  C   UNL A   1      37.851  32.167  37.543  1.00  0.00     0.091 A 
ATOM     73  F   UNL A   1      38.118  30.078  36.420  1.00  0.00    -0.205 F 
ATOM     74  C   UNL A   1      38.080  33.551  37.578  1.00  0.00     0.022 A 
BRANCH  72  75
ATOM     75  S   UNL A   1      36.932  31.445  38.906  1.00  0.00     0.127 S 
ATOM     76  O   UNL A   1      37.862  31.610  40.019  1.00  0.00    -0.237 OA
ATOM     77  O   UNL A   1      35.744  32.299  38.965  1.00  0.00    -0.237 OA
ATOM     78  O   UNL A   1      36.655  30.073  38.499  1.00  0.00    -0.744 OA
ENDBRANCH  72  75
ENDBRANCH  44  68
BRANCH  56  79
ATOM     79  C   UNL A   1      44.628  28.297  34.003  1.00  0.00     0.023 A 
ATOM     80  C   UNL A   1      45.700  29.208  33.947  1.00  0.00     0.012 A 
ATOM     81  C   UNL A   1      44.692  27.198  34.882  1.00  0.00     0.148 A 
ATOM     82  C   UNL A   1      46.827  29.017  34.743  1.00  0.00     0.002 A 
ATOM     83  C   UNL A   1      45.798  27.041  35.707  1.00  0.00     0.091 A 
ATOM     84  F   UNL A   1      43.663  26.336  34.904  1.00  0.00    -0.205 F 
ATOM     85  C   UNL A   1      46.870  27.944  35.633  1.00  0.00     0.022 A 
BRANCH  83  86
ATOM     86  S   UNL A   1      45.896  25.749  36.951  1.00  0.00     0.127 S 
ATOM     87  O   UNL A   1      45.858  26.527  38.189  1.00  0.00    -0.237 OA
ATOM     88  O   UNL A   1      44.687  24.970  36.683  1.00  0.00    -0.237 OA
ATOM     89  O   UNL A   1      47.142  25.039  36.699  1.00  0.00    -0.744 OA
ENDBRANCH  83  86
ENDBRANCH  56  79
ENDBRANCH  30  31
ENDBRANCH  22  25
ENDBRANCH  20  21
ENDBRANCH   1  20
TORSDOF 16
ENDMDL
