MODEL 1
REMARK VINA RESULT:     -11.9      0.000      0.000
REMARK SMILES C[C@H](NC(=O)OCc1ccccc1)C(=O)NCC(=O)N1CCC[C@H]1C(=O)NCCCNC(=O)c1ccc(-c2c3nc(c(-c4cccc(S(=O)(=O)[O-])c4F)c4ccc([nH]4)c(-c4cccc(S(=O)(=O)[O-])c4F)c4nc(c(-c5cccc(S(=O)(=O)[O-])c5F)c5ccc2[nH]5)C=C4)C=C3)cc1
REMARK SMILES IDX 20 1 21 2 22 3 23 4 24 5 18 6 19 7 17 8 16 9 14 10 15 11
REMARK SMILES IDX 2 13 1 14 3 15 4 16 5 18 6 19 7 20 8 21 9 22 13 23 10 24
REMARK SMILES IDX 12 25 11 26 25 27 26 28 27 29 28 31 29 32 30 33 31 34 32 35
REMARK SMILES IDX 33 37 34 38 35 39 96 40 36 41 95 42 37 43 38 44 39 45 89 46
REMARK SMILES IDX 40 47 94 48 88 49 90 50 41 51 93 52 87 53 86 54 42 56 74 57
REMARK SMILES IDX 54 58 73 59 55 60 58 61 72 62 91 63 56 64 57 65 71 67 92 68
REMARK SMILES IDX 59 69 43 70 44 71 52 72 45 73 47 74 53 75 46 76 48 77 49 78
REMARK SMILES IDX 50 79 51 80 75 81 76 82 84 83 77 84 79 85 85 86 78 87 80 88
REMARK SMILES IDX 81 89 82 90 83 91 60 92 61 93 69 94 62 95 64 96 70 97 63 98
REMARK SMILES IDX 65 99 66 100 67 101 68 102
REMARK H PARENT 16 12 3 17 27 30 31 36 90 55 58 66
REMARK Flexibility Score: inf
ROOT
ATOM      1  N   UNL A   1      32.912  24.085  26.357  1.00  0.00    -0.329 N 
ATOM      2  C   UNL A   1      33.290  25.483  26.453  1.00  0.00     0.120 C 
ATOM      3  C   UNL A   1      34.275  25.676  25.318  1.00  0.00     0.024 C 
ATOM      4  C   UNL A   1      34.993  24.340  25.219  1.00  0.00     0.037 C 
ATOM      5  C   UNL A   1      34.026  23.303  25.819  1.00  0.00     0.174 C 
ENDROOT
BRANCH   1   6
ATOM      6  C   UNL A   1      31.712  23.453  26.576  1.00  0.00     0.242 C 
ATOM      7  O   UNL A   1      31.485  22.956  27.687  1.00  0.00    -0.273 OA
BRANCH   6   8
ATOM      8  C   UNL A   1      30.579  23.383  25.535  1.00  0.00     0.216 C 
BRANCH   8   9
ATOM      9  N   UNL A   1      30.430  24.349  24.471  1.00  0.00    -0.345 N 
ATOM     10  C   UNL A   1      31.045  24.428  23.262  1.00  0.00     0.242 C 
ATOM     11  O   UNL A   1      30.607  25.277  22.477  1.00  0.00    -0.273 OA
ATOM     12  H   UNL A   1      29.777  25.063  24.651  1.00  0.00     0.164 HD
BRANCH  10  13
ATOM     13  C   UNL A   1      32.208  23.504  22.831  1.00  0.00     0.171 C 
ATOM     14  C   UNL A   1      33.264  24.245  22.028  1.00  0.00     0.042 C 
BRANCH  13  15
ATOM     15  N   UNL A   1      31.781  22.198  22.327  1.00  0.00    -0.310 N 
ATOM     16  C   UNL A   1      32.149  20.930  22.650  1.00  0.00     0.408 C 
ATOM     17  H   UNL A   1      31.099  22.247  21.619  1.00  0.00     0.167 HD
ATOM     18  O   UNL A   1      31.784  19.996  21.944  1.00  0.00    -0.225 OA
BRANCH  16  19
ATOM     19  O   UNL A   1      32.945  20.850  23.733  1.00  0.00    -0.445 OA
BRANCH  19  20
ATOM     20  C   UNL A   1      32.475  20.037  24.822  1.00  0.00     0.270 C 
BRANCH  20  21
ATOM     21  C   UNL A   1      33.015  18.634  24.816  1.00  0.00    -0.011 A 
ATOM     22  C   UNL A   1      33.988  18.238  23.894  1.00  0.00     0.007 A 
ATOM     23  C   UNL A   1      32.520  17.700  25.739  1.00  0.00     0.007 A 
ATOM     24  C   UNL A   1      34.473  16.932  23.909  1.00  0.00     0.000 A 
ATOM     25  C   UNL A   1      33.005  16.394  25.751  1.00  0.00     0.000 A 
ATOM     26  C   UNL A   1      33.983  16.012  24.836  1.00  0.00     0.000 A 
ENDBRANCH  20  21
ENDBRANCH  19  20
ENDBRANCH  16  19
ENDBRANCH  13  15
ENDBRANCH  10  13
ENDBRANCH   8   9
ENDBRANCH   6   8
ENDBRANCH   1   6
BRANCH   5  27
ATOM     27  C   UNL A   1      34.846  22.387  26.763  1.00  0.00     0.242 C 
ATOM     28  O   UNL A   1      34.741  22.525  27.990  1.00  0.00    -0.273 OA
ATOM     29  N   UNL A   1      35.593  21.327  26.352  1.00  0.00    -0.354 N 
ATOM     30  H   UNL A   1      35.880  20.736  27.086  1.00  0.00     0.163 HD
BRANCH  29  31
ATOM     31  C   UNL A   1      36.048  20.899  25.045  1.00  0.00     0.117 C 
BRANCH  31  32
ATOM     32  C   UNL A   1      37.125  19.824  25.141  1.00  0.00     0.042 C 
BRANCH  32  33
ATOM     33  C   UNL A   1      38.528  20.400  25.219  1.00  0.00     0.118 C 
BRANCH  33  34
ATOM     34  N   UNL A   1      39.482  19.418  25.719  1.00  0.00    -0.352 N 
ATOM     35  C   UNL A   1      40.779  19.581  26.131  1.00  0.00     0.251 C 
ATOM     36  H   UNL A   1      39.142  18.496  25.768  1.00  0.00     0.163 HD
ATOM     37  O   UNL A   1      41.501  18.594  26.241  1.00  0.00    -0.269 OA
BRANCH  35  38
ATOM     38  C   UNL A   1      41.302  20.929  26.439  1.00  0.00     0.039 A 
ATOM     39  C   UNL A   1      41.972  21.639  25.440  1.00  0.00     0.014 A 
ATOM     40  C   UNL A   1      41.168  21.477  27.717  1.00  0.00     0.014 A 
ATOM     41  C   UNL A   1      42.465  22.915  25.713  1.00  0.00     0.010 A 
ATOM     42  C   UNL A   1      41.566  22.785  27.956  1.00  0.00     0.010 A 
ATOM     43  C   UNL A   1      42.239  23.510  26.965  1.00  0.00    -0.014 A 
BRANCH  43  44
ATOM     44  C   UNL A   1      42.706  24.888  27.258  1.00  0.00     0.031 A 
ATOM     45  C   UNL A   1      41.785  25.875  27.923  1.00  0.00     0.074 A 
ATOM     46  C   UNL A   1      43.932  25.270  26.846  1.00  0.00     0.049 A 
ATOM     47  N   UNL A   1      41.998  27.132  28.211  1.00  0.00    -0.248 NA
ATOM     48  C   UNL A   1      40.439  25.400  28.286  1.00  0.00     0.031 C 
ATOM     49  C   UNL A   1      44.880  24.427  26.113  1.00  0.00     0.029 A 
ATOM     50  N   UNL A   1      44.580  26.474  26.960  1.00  0.00    -0.354 N 
ATOM     51  C   UNL A   1      40.806  27.607  28.745  1.00  0.00     0.074 A 
ATOM     52  C   UNL A   1      39.862  26.513  28.715  1.00  0.00     0.031 C 
ATOM     53  C   UNL A   1      45.985  25.138  25.845  1.00  0.00     0.029 A 
ATOM     54  C   UNL A   1      45.813  26.495  26.350  1.00  0.00     0.049 A 
ATOM     55  H   UNL A   1      44.199  27.249  27.432  1.00  0.00     0.167 HD
ATOM     56  C   UNL A   1      40.529  28.838  29.235  1.00  0.00     0.034 A 
ATOM     57  C   UNL A   1      46.696  27.500  26.199  1.00  0.00     0.034 A 
ATOM     58  C   UNL A   1      41.486  29.908  29.300  1.00  0.00     0.049 A 
ATOM     59  C   UNL A   1      46.380  28.842  26.799  1.00  0.00     0.074 A 
ATOM     60  C   UNL A   1      41.340  31.156  29.878  1.00  0.00     0.029 A 
ATOM     61  N   UNL A   1      42.760  29.865  28.755  1.00  0.00    -0.354 N 
ATOM     62  N   UNL A   1      45.312  29.221  27.456  1.00  0.00    -0.248 NA
ATOM     63  C   UNL A   1      47.406  29.887  26.671  1.00  0.00     0.031 C 
ATOM     64  C   UNL A   1      42.510  31.884  29.643  1.00  0.00     0.029 A 
ATOM     65  C   UNL A   1      43.403  31.072  28.963  1.00  0.00     0.049 A 
ATOM     66  H   UNL A   1      43.148  29.090  28.289  1.00  0.00     0.167 HD
ATOM     67  C   UNL A   1      45.550  30.533  27.849  1.00  0.00     0.074 A 
ATOM     68  C   UNL A   1      46.875  30.874  27.377  1.00  0.00     0.031 C 
ATOM     69  C   UNL A   1      44.740  31.381  28.529  1.00  0.00     0.034 A 
BRANCH  56  70
ATOM     70  C   UNL A   1      39.145  29.093  29.775  1.00  0.00     0.023 A 
ATOM     71  C   UNL A   1      38.831  28.734  31.101  1.00  0.00     0.012 A 
ATOM     72  C   UNL A   1      38.183  29.760  28.992  1.00  0.00     0.148 A 
ATOM     73  C   UNL A   1      37.571  29.010  31.631  1.00  0.00     0.002 A 
ATOM     74  C   UNL A   1      36.947  30.076  29.542  1.00  0.00     0.091 A 
ATOM     75  F   UNL A   1      38.495  30.073  27.727  1.00  0.00    -0.205 F 
ATOM     76  C   UNL A   1      36.635  29.692  30.857  1.00  0.00     0.022 A 
BRANCH  74  77
ATOM     77  S   UNL A   1      35.706  31.026  28.659  1.00  0.00     0.127 S 
ATOM     78  O   UNL A   1      35.187  31.889  29.719  1.00  0.00    -0.237 OA
ATOM     79  O   UNL A   1      36.512  31.716  27.651  1.00  0.00    -0.237 OA
ATOM     80  O   UNL A   1      34.760  30.059  28.124  1.00  0.00    -0.744 OA
ENDBRANCH  74  77
ENDBRANCH  56  70
BRANCH  57  81
ATOM     81  C   UNL A   1      47.980  27.265  25.479  1.00  0.00     0.023 A 
ATOM     82  C   UNL A   1      49.096  26.765  26.179  1.00  0.00     0.012 A 
ATOM     83  C   UNL A   1      48.094  27.521  24.098  1.00  0.00     0.148 A 
ATOM     84  C   UNL A   1      50.313  26.566  25.527  1.00  0.00     0.002 A 
ATOM     85  C   UNL A   1      49.292  27.261  23.443  1.00  0.00     0.091 A 
ATOM     86  F   UNL A   1      47.024  28.003  23.451  1.00  0.00    -0.205 F 
ATOM     87  C   UNL A   1      50.409  26.805  24.159  1.00  0.00     0.022 A 
BRANCH  85  88
ATOM     88  S   UNL A   1      49.463  27.406  21.661  1.00  0.00     0.127 S 
ATOM     89  O   UNL A   1      48.286  26.681  21.188  1.00  0.00    -0.237 OA
ATOM     90  O   UNL A   1      49.412  28.855  21.471  1.00  0.00    -0.237 OA
ATOM     91  O   UNL A   1      50.750  26.805  21.339  1.00  0.00    -0.744 OA
ENDBRANCH  85  88
ENDBRANCH  57  81
BRANCH  69  92
ATOM     92  C   UNL A   1      45.276  32.752  28.850  1.00  0.00     0.023 A 
ATOM     93  C   UNL A   1      45.994  32.969  30.043  1.00  0.00     0.012 A 
ATOM     94  C   UNL A   1      45.127  33.808  27.929  1.00  0.00     0.148 A 
ATOM     95  C   UNL A   1      46.524  34.226  30.331  1.00  0.00     0.002 A 
ATOM     96  C   UNL A   1      45.706  35.041  28.196  1.00  0.00     0.091 A 
ATOM     97  F   UNL A   1      44.427  33.584  26.807  1.00  0.00    -0.205 F 
ATOM     98  C   UNL A   1      46.390  35.257  29.403  1.00  0.00     0.022 A 
BRANCH  96  99
ATOM     99  S   UNL A   1      45.675  36.396  27.017  1.00  0.00     0.127 S 
ATOM    100  O   UNL A   1      46.329  35.794  25.857  1.00  0.00    -0.237 OA
ATOM    101  O   UNL A   1      44.241  36.631  26.855  1.00  0.00    -0.237 OA
ATOM    102  O   UNL A   1      46.402  37.492  27.643  1.00  0.00    -0.744 OA
ENDBRANCH  96  99
ENDBRANCH  69  92
ENDBRANCH  43  44
ENDBRANCH  35  38
ENDBRANCH  33  34
ENDBRANCH  32  33
ENDBRANCH  31  32
ENDBRANCH  29  31
ENDBRANCH   5  27
TORSDOF 21
ENDMDL
MODEL 2
REMARK VINA RESULT:     -11.8      6.098     10.974
REMARK SMILES C[C@H](NC(=O)OCc1ccccc1)C(=O)NCC(=O)N1CCC[C@H]1C(=O)NCCCNC(=O)c1ccc(-c2c3nc(c(-c4cccc(S(=O)(=O)[O-])c4F)c4ccc([nH]4)c(-c4cccc(S(=O)(=O)[O-])c4F)c4nc(c(-c5cccc(S(=O)(=O)[O-])c5F)c5ccc2[nH]5)C=C4)C=C3)cc1
REMARK SMILES IDX 20 1 21 2 22 3 23 4 24 5 18 6 19 7 17 8 16 9 14 10 15 11
REMARK SMILES IDX 2 13 1 14 3 15 4 16 5 18 6 19 7 20 8 21 9 22 13 23 10 24
REMARK SMILES IDX 12 25 11 26 25 27 26 28 27 29 28 31 29 32 30 33 31 34 32 35
REMARK SMILES IDX 33 37 34 38 35 39 96 40 36 41 95 42 37 43 38 44 39 45 89 46
REMARK SMILES IDX 40 47 94 48 88 49 90 50 41 51 93 52 87 53 86 54 42 56 74 57
REMARK SMILES IDX 54 58 73 59 55 60 58 61 72 62 91 63 56 64 57 65 71 67 92 68
REMARK SMILES IDX 59 69 43 70 44 71 52 72 45 73 47 74 53 75 46 76 48 77 49 78
REMARK SMILES IDX 50 79 51 80 75 81 76 82 84 83 77 84 79 85 85 86 78 87 80 88
REMARK SMILES IDX 81 89 82 90 83 91 60 92 61 93 69 94 62 95 64 96 70 97 63 98
REMARK SMILES IDX 65 99 66 100 67 101 68 102
REMARK H PARENT 16 12 3 17 27 30 31 36 90 55 58 66
REMARK Flexibility Score: inf
ROOT
ATOM      1  N   UNL A   1      31.938  27.208  24.525  1.00  0.00    -0.329 N 
ATOM      2  C   UNL A   1      30.698  27.146  23.774  1.00  0.00     0.120 C 
ATOM      3  C   UNL A   1      30.410  28.590  23.419  1.00  0.00     0.024 C 
ATOM      4  C   UNL A   1      30.948  29.376  24.604  1.00  0.00     0.037 C 
ATOM      5  C   UNL A   1      32.021  28.479  25.247  1.00  0.00     0.174 C 
ENDROOT
BRANCH   1   6
ATOM      6  C   UNL A   1      33.017  26.358  24.567  1.00  0.00     0.242 C 
ATOM      7  O   UNL A   1      33.811  26.343  23.616  1.00  0.00    -0.273 OA
BRANCH   6   8
ATOM      8  C   UNL A   1      33.353  25.461  25.772  1.00  0.00     0.216 C 
BRANCH   8   9
ATOM      9  N   UNL A   1      32.342  24.848  26.601  1.00  0.00    -0.345 N 
ATOM     10  C   UNL A   1      31.668  23.677  26.448  1.00  0.00     0.242 C 
ATOM     11  O   UNL A   1      30.965  23.319  27.399  1.00  0.00    -0.273 OA
ATOM     12  H   UNL A   1      32.102  25.360  27.406  1.00  0.00     0.164 HD
BRANCH  10  13
ATOM     13  C   UNL A   1      31.775  22.788  25.186  1.00  0.00     0.171 C 
ATOM     14  C   UNL A   1      30.931  23.316  24.039  1.00  0.00     0.042 C 
BRANCH  13  15
ATOM     15  N   UNL A   1      31.709  21.352  25.458  1.00  0.00    -0.310 N 
ATOM     16  C   UNL A   1      32.479  20.310  25.047  1.00  0.00     0.408 C 
ATOM     17  H   UNL A   1      30.967  21.091  26.049  1.00  0.00     0.167 HD
ATOM     18  O   UNL A   1      32.103  19.161  25.257  1.00  0.00    -0.225 OA
BRANCH  16  19
ATOM     19  O   UNL A   1      33.593  20.677  24.386  1.00  0.00    -0.445 OA
BRANCH  19  20
ATOM     20  C   UNL A   1      34.834  20.123  24.855  1.00  0.00     0.270 C 
BRANCH  20  21
ATOM     21  C   UNL A   1      35.900  21.149  25.123  1.00  0.00    -0.011 A 
ATOM     22  C   UNL A   1      37.248  20.788  25.195  1.00  0.00     0.007 A 
ATOM     23  C   UNL A   1      35.533  22.489  25.323  1.00  0.00     0.007 A 
ATOM     24  C   UNL A   1      38.217  21.757  25.445  1.00  0.00     0.000 A 
ATOM     25  C   UNL A   1      36.504  23.456  25.574  1.00  0.00     0.000 A 
ATOM     26  C   UNL A   1      37.846  23.089  25.632  1.00  0.00     0.000 A 
ENDBRANCH  20  21
ENDBRANCH  19  20
ENDBRANCH  16  19
ENDBRANCH  13  15
ENDBRANCH  10  13
ENDBRANCH   8   9
ENDBRANCH   6   8
ENDBRANCH   1   6
BRANCH   5  27
ATOM     27  C   UNL A   1      31.799  28.506  26.780  1.00  0.00     0.242 C 
ATOM     28  O   UNL A   1      31.106  27.627  27.312  1.00  0.00    -0.273 OA
ATOM     29  N   UNL A   1      32.425  29.359  27.635  1.00  0.00    -0.354 N 
ATOM     30  H   UNL A   1      32.328  29.112  28.584  1.00  0.00     0.163 HD
BRANCH  29  31
ATOM     31  C   UNL A   1      33.204  30.561  27.421  1.00  0.00     0.117 C 
BRANCH  31  32
ATOM     32  C   UNL A   1      32.332  31.811  27.404  1.00  0.00     0.042 C 
BRANCH  32  33
ATOM     33  C   UNL A   1      33.054  33.028  26.853  1.00  0.00     0.118 C 
BRANCH  33  34
ATOM     34  N   UNL A   1      32.751  34.225  27.627  1.00  0.00    -0.352 N 
ATOM     35  C   UNL A   1      33.191  34.607  28.867  1.00  0.00     0.251 C 
ATOM     36  H   UNL A   1      32.136  34.858  27.190  1.00  0.00     0.163 HD
ATOM     37  O   UNL A   1      32.600  35.503  29.464  1.00  0.00    -0.269 OA
BRANCH  35  38
ATOM     38  C   UNL A   1      34.364  33.947  29.480  1.00  0.00     0.039 A 
ATOM     39  C   UNL A   1      35.645  34.362  29.107  1.00  0.00     0.014 A 
ATOM     40  C   UNL A   1      34.204  32.898  30.388  1.00  0.00     0.014 A 
ATOM     41  C   UNL A   1      36.761  33.754  29.682  1.00  0.00     0.010 A 
ATOM     42  C   UNL A   1      35.312  32.366  31.035  1.00  0.00     0.010 A 
ATOM     43  C   UNL A   1      36.603  32.771  30.673  1.00  0.00    -0.014 A 
BRANCH  43  44
ATOM     44  C   UNL A   1      37.776  32.151  31.337  1.00  0.00     0.031 A 
ATOM     45  C   UNL A   1      38.514  31.021  30.670  1.00  0.00     0.074 A 
ATOM     46  C   UNL A   1      38.121  32.552  32.577  1.00  0.00     0.049 A 
ATOM     47  N   UNL A   1      39.526  30.325  31.117  1.00  0.00    -0.248 NA
ATOM     48  C   UNL A   1      38.038  30.597  29.343  1.00  0.00     0.031 C 
ATOM     49  C   UNL A   1      37.424  33.577  33.359  1.00  0.00     0.029 A 
ATOM     50  N   UNL A   1      39.125  32.127  33.410  1.00  0.00    -0.354 N 
ATOM     51  C   UNL A   1      39.777  29.357  30.152  1.00  0.00     0.074 A 
ATOM     52  C   UNL A   1      38.795  29.535  29.107  1.00  0.00     0.031 C 
ATOM     53  C   UNL A   1      38.022  33.702  34.553  1.00  0.00     0.029 A 
ATOM     54  C   UNL A   1      39.118  32.743  34.640  1.00  0.00     0.049 A 
ATOM     55  H   UNL A   1      39.787  31.446  33.152  1.00  0.00     0.167 HD
ATOM     56  C   UNL A   1      40.752  28.419  30.128  1.00  0.00     0.034 A 
ATOM     57  C   UNL A   1      39.894  32.544  35.722  1.00  0.00     0.034 A 
ATOM     58  C   UNL A   1      41.752  28.275  31.151  1.00  0.00     0.049 A 
ATOM     59  C   UNL A   1      41.000  31.528  35.646  1.00  0.00     0.074 A 
ATOM     60  C   UNL A   1      42.847  27.430  31.169  1.00  0.00     0.029 A 
ATOM     61  N   UNL A   1      41.769  28.980  32.344  1.00  0.00    -0.354 N 
ATOM     62  N   UNL A   1      41.330  30.741  34.651  1.00  0.00    -0.248 NA
ATOM     63  C   UNL A   1      41.866  31.397  36.826  1.00  0.00     0.031 C 
ATOM     64  C   UNL A   1      43.502  27.593  32.393  1.00  0.00     0.029 A 
ATOM     65  C   UNL A   1      42.844  28.574  33.116  1.00  0.00     0.049 A 
ATOM     66  H   UNL A   1      41.114  29.667  32.604  1.00  0.00     0.167 HD
ATOM     67  C   UNL A   1      42.460  30.048  35.071  1.00  0.00     0.074 A 
ATOM     68  C   UNL A   1      42.771  30.527  36.401  1.00  0.00     0.031 C 
ATOM     69  C   UNL A   1      43.168  29.093  34.419  1.00  0.00     0.034 A 
BRANCH  56  70
ATOM     70  C   UNL A   1      40.815  27.489  28.944  1.00  0.00     0.023 A 
ATOM     71  C   UNL A   1      39.871  26.450  28.815  1.00  0.00     0.012 A 
ATOM     72  C   UNL A   1      41.759  27.696  27.920  1.00  0.00     0.148 A 
ATOM     73  C   UNL A   1      39.884  25.614  27.699  1.00  0.00     0.002 A 
ATOM     74  C   UNL A   1      41.735  26.890  26.788  1.00  0.00     0.091 A 
ATOM     75  F   UNL A   1      42.661  28.676  28.071  1.00  0.00    -0.205 F 
ATOM     76  C   UNL A   1      40.807  25.842  26.681  1.00  0.00     0.022 A 
BRANCH  74  77
ATOM     77  S   UNL A   1      42.823  27.157  25.384  1.00  0.00     0.127 S 
ATOM     78  O   UNL A   1      44.111  27.363  26.046  1.00  0.00    -0.237 OA
ATOM     79  O   UNL A   1      42.704  25.891  24.662  1.00  0.00    -0.237 OA
ATOM     80  O   UNL A   1      42.295  28.315  24.677  1.00  0.00    -0.744 OA
ENDBRANCH  74  77
ENDBRANCH  56  70
BRANCH  57  81
ATOM     81  C   UNL A   1      39.674  33.348  36.958  1.00  0.00     0.023 A 
ATOM     82  C   UNL A   1      40.225  34.640  37.060  1.00  0.00     0.012 A 
ATOM     83  C   UNL A   1      38.909  32.841  38.026  1.00  0.00     0.148 A 
ATOM     84  C   UNL A   1      40.055  35.396  38.221  1.00  0.00     0.002 A 
ATOM     85  C   UNL A   1      38.691  33.624  39.154  1.00  0.00     0.091 A 
ATOM     86  F   UNL A   1      38.399  31.607  37.913  1.00  0.00    -0.205 F 
ATOM     87  C   UNL A   1      39.280  34.892  39.263  1.00  0.00     0.022 A 
BRANCH  85  88
ATOM     88  S   UNL A   1      37.593  33.113  40.480  1.00  0.00     0.127 S 
ATOM     89  O   UNL A   1      36.292  33.130  39.816  1.00  0.00    -0.237 OA
ATOM     90  O   UNL A   1      38.106  31.780  40.797  1.00  0.00    -0.237 OA
ATOM     91  O   UNL A   1      37.777  34.092  41.542  1.00  0.00    -0.744 OA
ENDBRANCH  85  88
ENDBRANCH  57  81
BRANCH  69  92
ATOM     92  C   UNL A   1      44.382  28.531  35.110  1.00  0.00     0.023 A 
ATOM     93  C   UNL A   1      45.670  28.973  34.748  1.00  0.00     0.012 A 
ATOM     94  C   UNL A   1      44.237  27.614  36.169  1.00  0.00     0.148 A 
ATOM     95  C   UNL A   1      46.797  28.482  35.406  1.00  0.00     0.002 A 
ATOM     96  C   UNL A   1      45.359  27.173  36.858  1.00  0.00     0.091 A 
ATOM     97  F   UNL A   1      43.003  27.194  36.487  1.00  0.00    -0.205 F 
ATOM     98  C   UNL A   1      46.641  27.594  36.467  1.00  0.00     0.022 A 
BRANCH  96  99
ATOM     99  S   UNL A   1      45.248  26.110  38.301  1.00  0.00     0.127 S 
ATOM    100  O   UNL A   1      46.364  26.593  39.112  1.00  0.00    -0.237 OA
ATOM    101  O   UNL A   1      43.924  26.439  38.826  1.00  0.00    -0.237 OA
ATOM    102  O   UNL A   1      45.382  24.745  37.808  1.00  0.00    -0.744 OA
ENDBRANCH  96  99
ENDBRANCH  69  92
ENDBRANCH  43  44
ENDBRANCH  35  38
ENDBRANCH  33  34
ENDBRANCH  32  33
ENDBRANCH  31  32
ENDBRANCH  29  31
ENDBRANCH   5  27
TORSDOF 21
ENDMDL
MODEL 3
REMARK VINA RESULT:     -11.6      5.141      8.224
REMARK SMILES C[C@H](NC(=O)OCc1ccccc1)C(=O)NCC(=O)N1CCC[C@H]1C(=O)NCCCNC(=O)c1ccc(-c2c3nc(c(-c4cccc(S(=O)(=O)[O-])c4F)c4ccc([nH]4)c(-c4cccc(S(=O)(=O)[O-])c4F)c4nc(c(-c5cccc(S(=O)(=O)[O-])c5F)c5ccc2[nH]5)C=C4)C=C3)cc1
REMARK SMILES IDX 20 1 21 2 22 3 23 4 24 5 18 6 19 7 17 8 16 9 14 10 15 11
REMARK SMILES IDX 2 13 1 14 3 15 4 16 5 18 6 19 7 20 8 21 9 22 13 23 10 24
REMARK SMILES IDX 12 25 11 26 25 27 26 28 27 29 28 31 29 32 30 33 31 34 32 35
REMARK SMILES IDX 33 37 34 38 35 39 96 40 36 41 95 42 37 43 38 44 39 45 89 46
REMARK SMILES IDX 40 47 94 48 88 49 90 50 41 51 93 52 87 53 86 54 42 56 74 57
REMARK SMILES IDX 54 58 73 59 55 60 58 61 72 62 91 63 56 64 57 65 71 67 92 68
REMARK SMILES IDX 59 69 43 70 44 71 52 72 45 73 47 74 53 75 46 76 48 77 49 78
REMARK SMILES IDX 50 79 51 80 75 81 76 82 84 83 77 84 79 85 85 86 78 87 80 88
REMARK SMILES IDX 81 89 82 90 83 91 60 92 61 93 69 94 62 95 64 96 70 97 63 98
REMARK SMILES IDX 65 99 66 100 67 101 68 102
REMARK H PARENT 16 12 3 17 27 30 31 36 90 55 58 66
REMARK Flexibility Score: inf
ROOT
ATOM      1  N   UNL A   1      30.645  27.239  23.849  1.00  0.00    -0.329 N 
ATOM      2  C   UNL A   1      30.068  28.508  24.252  1.00  0.00     0.120 C 
ATOM      3  C   UNL A   1      29.787  29.217  22.943  1.00  0.00     0.024 C 
ATOM      4  C   UNL A   1      30.904  28.752  22.024  1.00  0.00     0.037 C 
ATOM      5  C   UNL A   1      31.376  27.401  22.591  1.00  0.00     0.174 C 
ENDROOT
BRANCH   1   6
ATOM      6  C   UNL A   1      30.522  25.977  24.378  1.00  0.00     0.242 C 
ATOM      7  O   UNL A   1      30.385  25.012  23.614  1.00  0.00    -0.273 OA
BRANCH   6   8
ATOM      8  C   UNL A   1      30.620  25.667  25.883  1.00  0.00     0.216 C 
BRANCH   8   9
ATOM      9  N   UNL A   1      29.866  24.611  26.518  1.00  0.00    -0.345 N 
ATOM     10  C   UNL A   1      30.224  23.336  26.825  1.00  0.00     0.242 C 
ATOM     11  O   UNL A   1      29.426  22.692  27.515  1.00  0.00    -0.273 OA
ATOM     12  H   UNL A   1      28.946  24.853  26.768  1.00  0.00     0.164 HD
BRANCH  10  13
ATOM     13  C   UNL A   1      31.563  22.695  26.391  1.00  0.00     0.171 C 
ATOM     14  C   UNL A   1      32.764  23.478  26.895  1.00  0.00     0.042 C 
BRANCH  13  15
ATOM     15  N   UNL A   1      31.592  22.251  24.998  1.00  0.00    -0.310 N 
ATOM     16  C   UNL A   1      32.352  21.328  24.350  1.00  0.00     0.408 C 
ATOM     17  H   UNL A   1      30.939  22.706  24.420  1.00  0.00     0.167 HD
ATOM     18  O   UNL A   1      32.320  21.272  23.125  1.00  0.00    -0.225 OA
BRANCH  16  19
ATOM     19  O   UNL A   1      33.120  20.581  25.164  1.00  0.00    -0.445 OA
BRANCH  19  20
ATOM     20  C   UNL A   1      34.356  20.091  24.616  1.00  0.00     0.270 C 
BRANCH  20  21
ATOM     21  C   UNL A   1      35.542  20.969  24.900  1.00  0.00    -0.011 A 
ATOM     22  C   UNL A   1      35.389  22.341  25.118  1.00  0.00     0.007 A 
ATOM     23  C   UNL A   1      36.827  20.406  24.929  1.00  0.00     0.007 A 
ATOM     24  C   UNL A   1      36.504  23.135  25.380  1.00  0.00     0.000 A 
ATOM     25  C   UNL A   1      37.941  21.202  25.189  1.00  0.00     0.000 A 
ATOM     26  C   UNL A   1      37.777  22.566  25.416  1.00  0.00     0.000 A 
ENDBRANCH  20  21
ENDBRANCH  19  20
ENDBRANCH  16  19
ENDBRANCH  13  15
ENDBRANCH  10  13
ENDBRANCH   8   9
ENDBRANCH   6   8
ENDBRANCH   1   6
BRANCH   5  27
ATOM     27  C   UNL A   1      32.926  27.412  22.600  1.00  0.00     0.242 C 
ATOM     28  O   UNL A   1      33.545  26.877  21.669  1.00  0.00    -0.273 OA
ATOM     29  N   UNL A   1      33.688  28.091  23.499  1.00  0.00    -0.354 N 
ATOM     30  H   UNL A   1      34.637  28.158  23.244  1.00  0.00     0.163 HD
BRANCH  29  31
ATOM     31  C   UNL A   1      33.375  28.735  24.758  1.00  0.00     0.117 C 
BRANCH  31  32
ATOM     32  C   UNL A   1      33.613  27.809  25.946  1.00  0.00     0.042 C 
BRANCH  32  33
ATOM     33  C   UNL A   1      33.392  28.495  27.283  1.00  0.00     0.118 C 
BRANCH  33  34
ATOM     34  N   UNL A   1      33.565  29.939  27.178  1.00  0.00    -0.352 N 
ATOM     35  C   UNL A   1      34.542  30.748  27.694  1.00  0.00     0.251 C 
ATOM     36  H   UNL A   1      32.873  30.403  26.655  1.00  0.00     0.163 HD
ATOM     37  O   UNL A   1      34.355  31.961  27.739  1.00  0.00    -0.269 OA
BRANCH  35  38
ATOM     38  C   UNL A   1      35.808  30.168  28.192  1.00  0.00     0.039 A 
ATOM     39  C   UNL A   1      36.924  30.158  27.352  1.00  0.00     0.014 A 
ATOM     40  C   UNL A   1      35.885  29.599  29.466  1.00  0.00     0.014 A 
ATOM     41  C   UNL A   1      38.128  29.620  27.811  1.00  0.00     0.010 A 
ATOM     42  C   UNL A   1      37.107  29.160  29.956  1.00  0.00     0.010 A 
ATOM     43  C   UNL A   1      38.236  29.144  29.127  1.00  0.00    -0.014 A 
BRANCH  43  44
ATOM     44  C   UNL A   1      39.521  28.619  29.652  1.00  0.00     0.031 A 
ATOM     45  C   UNL A   1      40.231  29.334  30.770  1.00  0.00     0.074 A 
ATOM     46  C   UNL A   1      40.086  27.547  29.062  1.00  0.00     0.049 A 
ATOM     47  N   UNL A   1      41.382  29.055  31.323  1.00  0.00    -0.248 NA
ATOM     48  C   UNL A   1      39.581  30.536  31.321  1.00  0.00     0.031 C 
ATOM     49  C   UNL A   1      39.534  26.825  27.913  1.00  0.00     0.029 A 
ATOM     50  N   UNL A   1      41.263  26.894  29.327  1.00  0.00    -0.354 N 
ATOM     51  C   UNL A   1      41.614  30.065  32.249  1.00  0.00     0.074 A 
ATOM     52  C   UNL A   1      40.500  30.981  32.166  1.00  0.00     0.031 C 
ATOM     53  C   UNL A   1      40.369  25.831  27.575  1.00  0.00     0.029 A 
ATOM     54  C   UNL A   1      41.533  25.866  28.454  1.00  0.00     0.049 A 
ATOM     55  H   UNL A   1      41.860  27.139  30.072  1.00  0.00     0.167 HD
ATOM     56  C   UNL A   1      42.652  30.205  33.107  1.00  0.00     0.034 A 
ATOM     57  C   UNL A   1      42.604  25.056  28.360  1.00  0.00     0.034 A 
ATOM     58  C   UNL A   1      43.736  29.268  33.213  1.00  0.00     0.049 A 
ATOM     59  C   UNL A   1      43.718  25.206  29.360  1.00  0.00     0.074 A 
ATOM     60  C   UNL A   1      44.777  29.259  34.123  1.00  0.00     0.029 A 
ATOM     61  N   UNL A   1      43.929  28.183  32.372  1.00  0.00    -0.354 N 
ATOM     62  N   UNL A   1      43.833  26.064  30.344  1.00  0.00    -0.248 NA
ATOM     63  C   UNL A   1      44.832  24.253  29.262  1.00  0.00     0.031 C 
ATOM     64  C   UNL A   1      45.625  28.194  33.805  1.00  0.00     0.029 A 
ATOM     65  C   UNL A   1      45.085  27.510  32.727  1.00  0.00     0.049 A 
ATOM     66  H   UNL A   1      43.332  27.930  31.631  1.00  0.00     0.167 HD
ATOM     67  C   UNL A   1      45.012  25.733  31.002  1.00  0.00     0.074 A 
ATOM     68  C   UNL A   1      45.561  24.580  30.319  1.00  0.00     0.031 C 
ATOM     69  C   UNL A   1      45.593  26.337  32.067  1.00  0.00     0.034 A 
BRANCH  56  70
ATOM     70  C   UNL A   1      42.656  31.398  34.028  1.00  0.00     0.023 A 
ATOM     71  C   UNL A   1      43.307  32.586  33.638  1.00  0.00     0.012 A 
ATOM     72  C   UNL A   1      41.946  31.365  35.244  1.00  0.00     0.148 A 
ATOM     73  C   UNL A   1      43.275  33.714  34.458  1.00  0.00     0.002 A 
ATOM     74  C   UNL A   1      41.878  32.508  36.032  1.00  0.00     0.091 A 
ATOM     75  F   UNL A   1      41.352  30.220  35.606  1.00  0.00    -0.205 F 
ATOM     76  C   UNL A   1      42.551  33.679  35.647  1.00  0.00     0.022 A 
BRANCH  74  77
ATOM     77  S   UNL A   1      40.901  32.591  37.536  1.00  0.00     0.127 S 
ATOM     78  O   UNL A   1      39.684  31.885  37.136  1.00  0.00    -0.237 OA
ATOM     79  O   UNL A   1      41.742  31.864  38.487  1.00  0.00    -0.237 OA
ATOM     80  O   UNL A   1      40.730  34.006  37.831  1.00  0.00    -0.744 OA
ENDBRANCH  74  77
ENDBRANCH  56  70
BRANCH  57  81
ATOM     81  C   UNL A   1      42.658  24.008  27.302  1.00  0.00     0.023 A 
ATOM     82  C   UNL A   1      43.278  24.289  26.069  1.00  0.00     0.012 A 
ATOM     83  C   UNL A   1      42.110  22.729  27.519  1.00  0.00     0.148 A 
ATOM     84  C   UNL A   1      43.313  23.330  25.056  1.00  0.00     0.002 A 
ATOM     85  C   UNL A   1      42.204  21.758  26.529  1.00  0.00     0.091 A 
ATOM     86  F   UNL A   1      41.518  22.483  28.696  1.00  0.00    -0.205 F 
ATOM     87  C   UNL A   1      42.785  22.063  25.288  1.00  0.00     0.022 A 
BRANCH  85  88
ATOM     88  S   UNL A   1      41.677  20.062  26.794  1.00  0.00     0.127 S 
ATOM     89  O   UNL A   1      41.743  19.513  25.442  1.00  0.00    -0.237 OA
ATOM     90  O   UNL A   1      42.705  19.568  27.711  1.00  0.00    -0.237 OA
ATOM     91  O   UNL A   1      40.347  20.150  27.379  1.00  0.00    -0.744 OA
ENDBRANCH  85  88
ENDBRANCH  57  81
BRANCH  69  92
ATOM     92  C   UNL A   1      46.869  25.738  32.599  1.00  0.00     0.023 A 
ATOM     93  C   UNL A   1      48.116  26.204  32.137  1.00  0.00     0.012 A 
ATOM     94  C   UNL A   1      46.827  24.759  33.612  1.00  0.00     0.148 A 
ATOM     95  C   UNL A   1      49.302  25.678  32.650  1.00  0.00     0.002 A 
ATOM     96  C   UNL A   1      48.011  24.282  34.158  1.00  0.00     0.091 A 
ATOM     97  F   UNL A   1      45.630  24.318  34.026  1.00  0.00    -0.205 F 
ATOM     98  C   UNL A   1      49.249  24.728  33.667  1.00  0.00     0.022 A 
BRANCH  96  99
ATOM     99  S   UNL A   1      48.042  23.135  35.539  1.00  0.00     0.127 S 
ATOM    100  O   UNL A   1      47.275  23.864  36.548  1.00  0.00    -0.237 OA
ATOM    101  O   UNL A   1      47.363  21.965  34.985  1.00  0.00    -0.237 OA
ATOM    102  O   UNL A   1      49.448  22.925  35.859  1.00  0.00    -0.744 OA
ENDBRANCH  96  99
ENDBRANCH  69  92
ENDBRANCH  43  44
ENDBRANCH  35  38
ENDBRANCH  33  34
ENDBRANCH  32  33
ENDBRANCH  31  32
ENDBRANCH  29  31
ENDBRANCH   5  27
TORSDOF 21
ENDMDL
