MODEL 1
REMARK VINA RESULT:     -11.4      0.000      0.000
REMARK SMILES COc1ccc(F)cc1[C@@H](C(=O)NCCCNC(=O)c1ccc(-c2c3nc(c(-c4cccc(S(=O)(=O)[O-])c4F)c4ccc([nH]4)c(-c4cccc(S(=O)(=O)[O-])c4F)c4nc(c(-c5cccc(S(=O)(=O)[O-])c5F)c5ccc2[nH]5)C=C4)C=C3)cc1)[N@@H+](C)CCn1ccnc1C
REMARK SMILES IDX 14 1 13 2 11 3 12 4 10 6 9 7 3 8 4 9 5 10 8 11 6 12 7 13
REMARK SMILES IDX 2 14 1 15 83 16 84 17 85 19 86 20 87 21 88 22 91 23 89 24
REMARK SMILES IDX 90 25 92 26 15 27 16 28 17 29 18 30 19 32 20 33 21 34 82 35
REMARK SMILES IDX 22 36 81 37 23 38 24 39 25 40 75 41 26 42 80 43 74 44 76 45
REMARK SMILES IDX 27 46 79 47 73 48 72 49 28 51 60 52 40 53 59 54 41 55 44 56
REMARK SMILES IDX 58 57 77 58 42 59 43 60 57 62 78 63 45 64 29 65 30 66 38 67
REMARK SMILES IDX 31 68 33 69 39 70 32 71 34 72 35 73 36 74 37 75 61 76 62 77
REMARK SMILES IDX 70 78 63 79 65 80 71 81 64 82 66 83 67 84 68 85 69 86 46 87
REMARK SMILES IDX 47 88 55 89 48 90 50 91 56 92 49 93 51 94 52 95 53 96 54 97
REMARK H PARENT 13 5 83 18 17 31 76 50 44 61
REMARK Flexibility Score: inf
ROOT
ATOM      1  C   UNL A   1      32.126  27.861  27.475  1.00  0.00     0.118 C 
ENDROOT
BRANCH   1   2
ATOM      2  N   UNL A   1      31.234  26.769  27.184  1.00  0.00    -0.351 N 
ATOM      3  C   UNL A   1      31.333  25.807  26.233  1.00  0.00     0.283 C 
ATOM      4  O   UNL A   1      31.036  24.669  26.635  1.00  0.00    -0.268 OA
ATOM      5  H   UNL A   1      30.437  26.713  27.758  1.00  0.00     0.163 HD
BRANCH   3   6
ATOM      6  C   UNL A   1      31.802  26.034  24.762  1.00  0.00     0.309 C 
BRANCH   6   7
ATOM      7  C   UNL A   1      31.137  27.158  23.936  1.00  0.00     0.064 A 
ATOM      8  C   UNL A   1      31.890  28.134  23.234  1.00  0.00     0.128 A 
ATOM      9  C   UNL A   1      31.250  29.155  22.498  1.00  0.00     0.050 A 
ATOM     10  C   UNL A   1      29.863  29.229  22.432  1.00  0.00     0.043 A 
ATOM     11  C   UNL A   1      29.743  27.284  23.843  1.00  0.00     0.053 A 
ATOM     12  C   UNL A   1      29.120  28.281  23.099  1.00  0.00     0.124 A 
ATOM     13  F   UNL A   1      27.783  28.306  23.033  1.00  0.00    -0.207 F 
BRANCH   8  14
ATOM     14  O   UNL A   1      33.261  28.039  23.290  1.00  0.00    -0.496 OA
ATOM     15  C   UNL A   1      33.956  28.445  22.108  1.00  0.00     0.278 C 
ENDBRANCH   8  14
ENDBRANCH   6   7
BRANCH   6  16
ATOM     16  N   UNL A   1      31.967  24.712  24.030  1.00  0.00    -0.322 N 
ATOM     17  C   UNL A   1      30.750  24.311  23.308  1.00  0.00     0.333 C 
ATOM     18  H   UNL A   1      32.149  24.129  24.847  1.00  0.00     0.348 HD
BRANCH  16  19
ATOM     19  C   UNL A   1      33.166  24.423  23.215  1.00  0.00     0.285 C 
BRANCH  19  20
ATOM     20  C   UNL A   1      33.706  22.999  22.892  1.00  0.00     0.184 C 
BRANCH  20  21
ATOM     21  N   UNL A   1      34.316  22.201  23.935  1.00  0.00    -0.330 N 
ATOM     22  C   UNL A   1      33.683  21.213  24.647  1.00  0.00     0.107 A 
ATOM     23  C   UNL A   1      35.654  22.130  24.276  1.00  0.00     0.105 A 
ATOM     24  C   UNL A   1      34.606  20.765  25.557  1.00  0.00     0.131 A 
ATOM     25  N   UNL A   1      35.821  21.342  25.323  1.00  0.00    -0.242 NA
ATOM     26  C   UNL A   1      36.771  22.849  23.606  1.00  0.00     0.087 C 
ENDBRANCH  20  21
ENDBRANCH  19  20
ENDBRANCH  16  19
ENDBRANCH   6  16
ENDBRANCH   3   6
ENDBRANCH   1   2
BRANCH   1  27
ATOM     27  C   UNL A   1      31.600  29.210  27.018  1.00  0.00     0.042 C 
BRANCH  27  28
ATOM     28  C   UNL A   1      32.634  30.063  26.289  1.00  0.00     0.118 C 
BRANCH  28  29
ATOM     29  N   UNL A   1      32.550  31.479  26.623  1.00  0.00    -0.352 N 
ATOM     30  C   UNL A   1      33.371  32.267  27.391  1.00  0.00     0.251 C 
ATOM     31  H   UNL A   1      31.777  31.949  26.233  1.00  0.00     0.163 HD
ATOM     32  O   UNL A   1      33.039  33.423  27.633  1.00  0.00    -0.269 OA
BRANCH  30  33
ATOM     33  C   UNL A   1      34.629  31.728  27.955  1.00  0.00     0.039 A 
ATOM     34  C   UNL A   1      35.738  32.575  28.024  1.00  0.00     0.014 A 
ATOM     35  C   UNL A   1      34.736  30.404  28.389  1.00  0.00     0.014 A 
ATOM     36  C   UNL A   1      36.930  32.115  28.585  1.00  0.00     0.010 A 
ATOM     37  C   UNL A   1      35.901  29.970  29.021  1.00  0.00     0.010 A 
ATOM     38  C   UNL A   1      37.013  30.819  29.124  1.00  0.00    -0.014 A 
BRANCH  38  39
ATOM     39  C   UNL A   1      38.249  30.362  29.812  1.00  0.00     0.031 A 
ATOM     40  C   UNL A   1      39.177  29.378  29.153  1.00  0.00     0.074 A 
ATOM     41  C   UNL A   1      38.514  30.805  31.058  1.00  0.00     0.049 A 
ATOM     42  N   UNL A   1      40.298  28.879  29.607  1.00  0.00    -0.248 NA
ATOM     43  C   UNL A   1      38.794  28.876  27.823  1.00  0.00     0.031 C 
ATOM     44  C   UNL A   1      37.658  31.708  31.831  1.00  0.00     0.029 A 
ATOM     45  N   UNL A   1      39.569  30.549  31.900  1.00  0.00    -0.354 N 
ATOM     46  C   UNL A   1      40.741  27.990  28.635  1.00  0.00     0.074 A 
ATOM     47  C   UNL A   1      39.753  27.991  27.579  1.00  0.00     0.031 C 
ATOM     48  C   UNL A   1      38.229  31.946  33.021  1.00  0.00     0.029 A 
ATOM     49  C   UNL A   1      39.473  31.187  33.115  1.00  0.00     0.049 A 
ATOM     50  H   UNL A   1      40.322  29.965  31.657  1.00  0.00     0.167 HD
ATOM     51  C   UNL A   1      41.883  27.264  28.609  1.00  0.00     0.034 A 
ATOM     52  C   UNL A   1      40.289  31.163  34.189  1.00  0.00     0.034 A 
ATOM     53  C   UNL A   1      42.883  27.296  29.643  1.00  0.00     0.049 A 
ATOM     54  C   UNL A   1      41.561  30.361  34.126  1.00  0.00     0.074 A 
ATOM     55  C   UNL A   1      44.109  26.654  29.666  1.00  0.00     0.029 A 
ATOM     56  N   UNL A   1      42.774  27.994  30.834  1.00  0.00    -0.354 N 
ATOM     57  N   UNL A   1      42.030  29.643  33.136  1.00  0.00    -0.248 NA
ATOM     58  C   UNL A   1      42.432  30.391  35.311  1.00  0.00     0.031 C 
ATOM     59  C   UNL A   1      44.726  26.935  30.887  1.00  0.00     0.029 A 
ATOM     60  C   UNL A   1      43.904  27.787  31.606  1.00  0.00     0.049 A 
ATOM     61  H   UNL A   1      42.007  28.554  31.093  1.00  0.00     0.167 HD
ATOM     62  C   UNL A   1      43.264  29.164  33.563  1.00  0.00     0.074 A 
ATOM     63  C   UNL A   1      43.477  29.687  34.896  1.00  0.00     0.031 C 
ATOM     64  C   UNL A   1      44.134  28.355  32.911  1.00  0.00     0.034 A 
BRANCH  51  65
ATOM     65  C   UNL A   1      42.159  26.411  27.399  1.00  0.00     0.023 A 
ATOM     66  C   UNL A   1      42.826  26.973  26.291  1.00  0.00     0.012 A 
ATOM     67  C   UNL A   1      41.870  25.031  27.404  1.00  0.00     0.148 A 
ATOM     68  C   UNL A   1      43.184  26.182  25.201  1.00  0.00     0.002 A 
ATOM     69  C   UNL A   1      42.273  24.240  26.335  1.00  0.00     0.091 A 
ATOM     70  F   UNL A   1      41.223  24.519  28.461  1.00  0.00    -0.205 F 
ATOM     71  C   UNL A   1      42.921  24.815  25.230  1.00  0.00     0.022 A 
BRANCH  69  72
ATOM     72  S   UNL A   1      42.068  22.456  26.314  1.00  0.00     0.127 S 
ATOM     73  O   UNL A   1      40.612  22.327  26.267  1.00  0.00    -0.237 OA
ATOM     74  O   UNL A   1      42.753  22.084  25.075  1.00  0.00    -0.237 OA
ATOM     75  O   UNL A   1      42.694  21.960  27.531  1.00  0.00    -0.744 OA
ENDBRANCH  69  72
ENDBRANCH  51  65
BRANCH  52  76
ATOM     76  C   UNL A   1      39.952  31.983  35.389  1.00  0.00     0.023 A 
ATOM     77  C   UNL A   1      40.504  33.272  35.524  1.00  0.00     0.012 A 
ATOM     78  C   UNL A   1      39.046  31.520  36.362  1.00  0.00     0.148 A 
ATOM     79  C   UNL A   1      40.177  34.074  36.618  1.00  0.00     0.002 A 
ATOM     80  C   UNL A   1      38.676  32.347  37.416  1.00  0.00     0.091 A 
ATOM     81  F   UNL A   1      38.539  30.285  36.221  1.00  0.00    -0.205 F 
ATOM     82  C   UNL A   1      39.255  33.619  37.556  1.00  0.00     0.022 A 
BRANCH  80  83
ATOM     83  S   UNL A   1      37.388  31.904  38.586  1.00  0.00     0.127 S 
ATOM     84  O   UNL A   1      38.010  32.247  39.863  1.00  0.00    -0.237 OA
ATOM     85  O   UNL A   1      36.295  32.787  38.177  1.00  0.00    -0.237 OA
ATOM     86  O   UNL A   1      37.127  30.487  38.372  1.00  0.00    -0.744 OA
ENDBRANCH  80  83
ENDBRANCH  52  76
BRANCH  64  87
ATOM     87  C   UNL A   1      45.426  27.990  33.595  1.00  0.00     0.023 A 
ATOM     88  C   UNL A   1      46.533  28.854  33.505  1.00  0.00     0.012 A 
ATOM     89  C   UNL A   1      45.492  26.862  34.439  1.00  0.00     0.148 A 
ATOM     90  C   UNL A   1      47.693  28.596  34.235  1.00  0.00     0.002 A 
ATOM     91  C   UNL A   1      46.631  26.640  35.203  1.00  0.00     0.091 A 
ATOM     92  F   UNL A   1      44.430  26.045  34.497  1.00  0.00    -0.205 F 
ATOM     93  C   UNL A   1      47.736  27.500  35.096  1.00  0.00     0.022 A 
BRANCH  91  94
ATOM     94  S   UNL A   1      46.739  25.321  36.417  1.00  0.00     0.127 S 
ATOM     95  O   UNL A   1      48.102  25.487  36.917  1.00  0.00    -0.237 OA
ATOM     96  O   UNL A   1      45.691  25.692  37.370  1.00  0.00    -0.237 OA
ATOM     97  O   UNL A   1      46.491  24.081  35.694  1.00  0.00    -0.744 OA
ENDBRANCH  91  94
ENDBRANCH  64  87
ENDBRANCH  38  39
ENDBRANCH  30  33
ENDBRANCH  28  29
ENDBRANCH  27  28
ENDBRANCH   1  27
TORSDOF 19
ENDMDL
MODEL 2
REMARK VINA RESULT:     -11.3      2.852      8.410
REMARK SMILES COc1ccc(F)cc1[C@@H](C(=O)NCCCNC(=O)c1ccc(-c2c3nc(c(-c4cccc(S(=O)(=O)[O-])c4F)c4ccc([nH]4)c(-c4cccc(S(=O)(=O)[O-])c4F)c4nc(c(-c5cccc(S(=O)(=O)[O-])c5F)c5ccc2[nH]5)C=C4)C=C3)cc1)[N@@H+](C)CCn1ccnc1C
REMARK SMILES IDX 14 1 13 2 11 3 12 4 10 6 9 7 3 8 4 9 5 10 8 11 6 12 7 13
REMARK SMILES IDX 2 14 1 15 83 16 84 17 85 19 86 20 87 21 88 22 91 23 89 24
REMARK SMILES IDX 90 25 92 26 15 27 16 28 17 29 18 30 19 32 20 33 21 34 82 35
REMARK SMILES IDX 22 36 81 37 23 38 24 39 25 40 75 41 26 42 80 43 74 44 76 45
REMARK SMILES IDX 27 46 79 47 73 48 72 49 28 51 60 52 40 53 59 54 41 55 44 56
REMARK SMILES IDX 58 57 77 58 42 59 43 60 57 62 78 63 45 64 29 65 30 66 38 67
REMARK SMILES IDX 31 68 33 69 39 70 32 71 34 72 35 73 36 74 37 75 61 76 62 77
REMARK SMILES IDX 70 78 63 79 65 80 71 81 64 82 66 83 67 84 68 85 69 86 46 87
REMARK SMILES IDX 47 88 55 89 48 90 50 91 56 92 49 93 51 94 52 95 53 96 54 97
REMARK H PARENT 13 5 83 18 17 31 76 50 44 61
REMARK Flexibility Score: inf
ROOT
ATOM      1  C   UNL A   1      33.449  26.359  25.786  1.00  0.00     0.118 C 
ENDROOT
BRANCH   1   2
ATOM      2  N   UNL A   1      32.381  25.412  25.973  1.00  0.00    -0.351 N 
ATOM      3  C   UNL A   1      32.387  24.065  25.817  1.00  0.00     0.283 C 
ATOM      4  O   UNL A   1      31.788  23.451  26.716  1.00  0.00    -0.268 OA
ATOM      5  H   UNL A   1      31.521  25.799  26.255  1.00  0.00     0.163 HD
BRANCH   3   6
ATOM      6  C   UNL A   1      33.092  23.292  24.659  1.00  0.00     0.309 C 
BRANCH   6   7
ATOM      7  C   UNL A   1      34.527  22.765  24.884  1.00  0.00     0.064 A 
ATOM      8  C   UNL A   1      34.848  21.384  24.826  1.00  0.00     0.128 A 
ATOM      9  C   UNL A   1      36.168  20.935  25.048  1.00  0.00     0.050 A 
ATOM     10  C   UNL A   1      37.194  21.833  25.323  1.00  0.00     0.043 A 
ATOM     11  C   UNL A   1      35.596  23.625  25.174  1.00  0.00     0.053 A 
ATOM     12  C   UNL A   1      36.897  23.176  25.371  1.00  0.00     0.124 A 
ATOM     13  F   UNL A   1      37.867  24.070  25.605  1.00  0.00    -0.207 F 
BRANCH   8  14
ATOM     14  O   UNL A   1      33.829  20.507  24.533  1.00  0.00    -0.496 OA
ATOM     15  C   UNL A   1      33.195  19.900  25.662  1.00  0.00     0.278 C 
ENDBRANCH   8  14
ENDBRANCH   6   7
BRANCH   6  16
ATOM     16  N   UNL A   1      32.865  23.982  23.324  1.00  0.00    -0.322 N 
ATOM     17  C   UNL A   1      33.277  23.151  22.182  1.00  0.00     0.333 C 
ATOM     18  H   UNL A   1      33.486  24.776  23.475  1.00  0.00     0.348 HD
BRANCH  16  19
ATOM     19  C   UNL A   1      31.598  24.681  23.018  1.00  0.00     0.285 C 
BRANCH  19  20
ATOM     20  C   UNL A   1      31.472  25.960  22.140  1.00  0.00     0.184 C 
BRANCH  20  21
ATOM     21  N   UNL A   1      31.326  27.258  22.767  1.00  0.00    -0.330 N 
ATOM     22  C   UNL A   1      30.268  27.644  23.551  1.00  0.00     0.107 A 
ATOM     23  C   UNL A   1      32.272  28.261  22.869  1.00  0.00     0.105 A 
ATOM     24  C   UNL A   1      30.512  28.952  23.883  1.00  0.00     0.131 A 
ATOM     25  N   UNL A   1      31.752  29.326  23.452  1.00  0.00    -0.242 NA
ATOM     26  C   UNL A   1      33.675  28.200  22.376  1.00  0.00     0.087 C 
ENDBRANCH  20  21
ENDBRANCH  19  20
ENDBRANCH  16  19
ENDBRANCH   6  16
ENDBRANCH   3   6
ENDBRANCH   1   2
BRANCH   1  27
ATOM     27  C   UNL A   1      33.195  27.698  26.456  1.00  0.00     0.042 C 
BRANCH  27  28
ATOM     28  C   UNL A   1      34.224  28.769  26.109  1.00  0.00     0.118 C 
BRANCH  28  29
ATOM     29  N   UNL A   1      33.906  30.075  26.671  1.00  0.00    -0.352 N 
ATOM     30  C   UNL A   1      34.553  30.822  27.625  1.00  0.00     0.251 C 
ATOM     31  H   UNL A   1      33.092  30.493  26.306  1.00  0.00     0.163 HD
ATOM     32  O   UNL A   1      34.035  31.856  28.031  1.00  0.00    -0.269 OA
BRANCH  30  33
ATOM     33  C   UNL A   1      35.847  30.375  28.186  1.00  0.00     0.039 A 
ATOM     34  C   UNL A   1      35.839  29.703  29.412  1.00  0.00     0.014 A 
ATOM     35  C   UNL A   1      37.060  30.629  27.541  1.00  0.00     0.014 A 
ATOM     36  C   UNL A   1      37.035  29.232  29.955  1.00  0.00     0.010 A 
ATOM     37  C   UNL A   1      38.244  30.090  28.044  1.00  0.00     0.010 A 
ATOM     38  C   UNL A   1      38.246  29.387  29.258  1.00  0.00    -0.014 A 
BRANCH  38  39
ATOM     39  C   UNL A   1      39.505  28.797  29.786  1.00  0.00     0.031 A 
ATOM     40  C   UNL A   1      40.162  29.363  31.015  1.00  0.00     0.074 A 
ATOM     41  C   UNL A   1      40.082  27.772  29.126  1.00  0.00     0.049 A 
ATOM     42  N   UNL A   1      41.257  28.968  31.614  1.00  0.00    -0.248 NA
ATOM     43  C   UNL A   1      39.523  30.529  31.647  1.00  0.00     0.031 C 
ATOM     44  C   UNL A   1      39.578  27.179  27.885  1.00  0.00     0.029 A 
ATOM     45  N   UNL A   1      41.221  27.054  29.397  1.00  0.00    -0.354 N 
ATOM     46  C   UNL A   1      41.451  29.847  32.673  1.00  0.00     0.074 A 
ATOM     47  C   UNL A   1      40.380  30.817  32.618  1.00  0.00     0.031 C 
ATOM     48  C   UNL A   1      40.391  26.178  27.514  1.00  0.00     0.029 A 
ATOM     49  C   UNL A   1      41.493  26.078  28.466  1.00  0.00     0.049 A 
ATOM     50  H   UNL A   1      41.790  27.222  30.183  1.00  0.00     0.167 HD
ATOM     51  C   UNL A   1      42.414  29.827  33.623  1.00  0.00     0.034 A 
ATOM     52  C   UNL A   1      42.516  25.202  28.382  1.00  0.00     0.034 A 
ATOM     53  C   UNL A   1      43.455  28.837  33.697  1.00  0.00     0.049 A 
ATOM     54  C   UNL A   1      43.563  25.191  29.462  1.00  0.00     0.074 A 
ATOM     55  C   UNL A   1      44.428  28.691  34.670  1.00  0.00     0.029 A 
ATOM     56  N   UNL A   1      43.666  27.834  32.766  1.00  0.00    -0.354 N 
ATOM     57  N   UNL A   1      43.643  25.938  30.535  1.00  0.00    -0.248 NA
ATOM     58  C   UNL A   1      44.641  24.197  29.341  1.00  0.00     0.031 C 
ATOM     59  C   UNL A   1      45.250  27.622  34.308  1.00  0.00     0.029 A 
ATOM     60  C   UNL A   1      44.764  27.074  33.133  1.00  0.00     0.049 A 
ATOM     61  H   UNL A   1      43.118  27.684  31.962  1.00  0.00     0.167 HD
ATOM     62  C   UNL A   1      44.758  25.485  31.233  1.00  0.00     0.074 A 
ATOM     63  C   UNL A   1      45.311  24.387  30.470  1.00  0.00     0.031 C 
ATOM     64  C   UNL A   1      45.278  25.947  32.397  1.00  0.00     0.034 A 
BRANCH  51  65
ATOM     65  C   UNL A   1      42.367  30.871  34.708  1.00  0.00     0.023 A 
ATOM     66  C   UNL A   1      41.760  30.561  35.943  1.00  0.00     0.012 A 
ATOM     67  C   UNL A   1      43.026  32.108  34.553  1.00  0.00     0.148 A 
ATOM     68  C   UNL A   1      41.792  31.471  36.998  1.00  0.00     0.002 A 
ATOM     69  C   UNL A   1      43.095  32.989  35.625  1.00  0.00     0.091 A 
ATOM     70  F   UNL A   1      43.584  32.389  33.368  1.00  0.00    -0.205 F 
ATOM     71  C   UNL A   1      42.471  32.677  36.844  1.00  0.00     0.022 A 
BRANCH  69  72
ATOM     72  S   UNL A   1      44.024  34.526  35.563  1.00  0.00     0.127 S 
ATOM     73  O   UNL A   1      45.293  34.080  34.989  1.00  0.00    -0.237 OA
ATOM     74  O   UNL A   1      43.204  35.342  34.667  1.00  0.00    -0.237 OA
ATOM     75  O   UNL A   1      44.099  35.010  36.934  1.00  0.00    -0.744 OA
ENDBRANCH  69  72
ENDBRANCH  51  65
BRANCH  52  76
ATOM     76  C   UNL A   1      42.551  24.218  27.261  1.00  0.00     0.023 A 
ATOM     77  C   UNL A   1      43.219  24.554  26.066  1.00  0.00     0.012 A 
ATOM     78  C   UNL A   1      41.982  22.937  27.392  1.00  0.00     0.148 A 
ATOM     79  C   UNL A   1      43.298  23.639  25.016  1.00  0.00     0.002 A 
ATOM     80  C   UNL A   1      42.119  22.009  26.366  1.00  0.00     0.091 A 
ATOM     81  F   UNL A   1      41.341  22.641  28.533  1.00  0.00    -0.205 F 
ATOM     82  C   UNL A   1      42.761  22.364  25.169  1.00  0.00     0.022 A 
BRANCH  80  83
ATOM     83  S   UNL A   1      41.589  20.301  26.532  1.00  0.00     0.127 S 
ATOM     84  O   UNL A   1      42.222  19.676  25.373  1.00  0.00    -0.237 OA
ATOM     85  O   UNL A   1      42.170  19.932  27.824  1.00  0.00    -0.237 OA
ATOM     86  O   UNL A   1      40.133  20.333  26.516  1.00  0.00    -0.744 OA
ENDBRANCH  80  83
ENDBRANCH  52  76
BRANCH  64  87
ATOM     87  C   UNL A   1      46.496  25.263  32.959  1.00  0.00     0.023 A 
ATOM     88  C   UNL A   1      47.778  25.771  32.675  1.00  0.00     0.012 A 
ATOM     89  C   UNL A   1      46.358  24.203  33.878  1.00  0.00     0.148 A 
ATOM     90  C   UNL A   1      48.906  25.228  33.289  1.00  0.00     0.002 A 
ATOM     91  C   UNL A   1      47.481  23.702  34.525  1.00  0.00     0.091 A 
ATOM     92  F   UNL A   1      45.130  23.725  34.122  1.00  0.00    -0.205 F 
ATOM     93  C   UNL A   1      48.757  24.206  34.225  1.00  0.00     0.022 A 
BRANCH  91  94
ATOM     94  S   UNL A   1      47.379  22.464  35.823  1.00  0.00     0.127 S 
ATOM     95  O   UNL A   1      48.713  22.541  36.413  1.00  0.00    -0.237 OA
ATOM     96  O   UNL A   1      46.307  22.992  36.668  1.00  0.00    -0.237 OA
ATOM     97  O   UNL A   1      47.066  21.205  35.160  1.00  0.00    -0.744 OA
ENDBRANCH  91  94
ENDBRANCH  64  87
ENDBRANCH  38  39
ENDBRANCH  30  33
ENDBRANCH  28  29
ENDBRANCH  27  28
ENDBRANCH   1  27
TORSDOF 19
ENDMDL
MODEL 3
REMARK VINA RESULT:     -11.3      2.419      8.358
REMARK SMILES COc1ccc(F)cc1[C@@H](C(=O)NCCCNC(=O)c1ccc(-c2c3nc(c(-c4cccc(S(=O)(=O)[O-])c4F)c4ccc([nH]4)c(-c4cccc(S(=O)(=O)[O-])c4F)c4nc(c(-c5cccc(S(=O)(=O)[O-])c5F)c5ccc2[nH]5)C=C4)C=C3)cc1)[N@@H+](C)CCn1ccnc1C
REMARK SMILES IDX 14 1 13 2 11 3 12 4 10 6 9 7 3 8 4 9 5 10 8 11 6 12 7 13
REMARK SMILES IDX 2 14 1 15 83 16 84 17 85 19 86 20 87 21 88 22 91 23 89 24
REMARK SMILES IDX 90 25 92 26 15 27 16 28 17 29 18 30 19 32 20 33 21 34 82 35
REMARK SMILES IDX 22 36 81 37 23 38 24 39 25 40 75 41 26 42 80 43 74 44 76 45
REMARK SMILES IDX 27 46 79 47 73 48 72 49 28 51 60 52 40 53 59 54 41 55 44 56
REMARK SMILES IDX 58 57 77 58 42 59 43 60 57 62 78 63 45 64 29 65 30 66 38 67
REMARK SMILES IDX 31 68 33 69 39 70 32 71 34 72 35 73 36 74 37 75 61 76 62 77
REMARK SMILES IDX 70 78 63 79 65 80 71 81 64 82 66 83 67 84 68 85 69 86 46 87
REMARK SMILES IDX 47 88 55 89 48 90 50 91 56 92 49 93 51 94 52 95 53 96 54 97
REMARK H PARENT 13 5 83 18 17 31 76 50 44 61
REMARK Flexibility Score: inf
ROOT
ATOM      1  C   UNL A   1      31.810  27.955  26.932  1.00  0.00     0.118 C 
ENDROOT
BRANCH   1   2
ATOM      2  N   UNL A   1      31.253  26.633  27.051  1.00  0.00    -0.351 N 
ATOM      3  C   UNL A   1      31.634  25.481  26.445  1.00  0.00     0.283 C 
ATOM      4  O   UNL A   1      31.644  24.494  27.200  1.00  0.00    -0.268 OA
ATOM      5  H   UNL A   1      30.485  26.554  27.661  1.00  0.00     0.163 HD
BRANCH   3   6
ATOM      6  C   UNL A   1      32.066  25.345  24.952  1.00  0.00     0.309 C 
BRANCH   6   7
ATOM      7  C   UNL A   1      33.408  24.651  24.627  1.00  0.00     0.064 A 
ATOM      8  C   UNL A   1      33.596  23.867  23.460  1.00  0.00     0.128 A 
ATOM      9  C   UNL A   1      34.832  23.236  23.200  1.00  0.00     0.050 A 
ATOM     10  C   UNL A   1      35.905  23.370  24.076  1.00  0.00     0.043 A 
ATOM     11  C   UNL A   1      34.517  24.745  25.480  1.00  0.00     0.053 A 
ATOM     12  C   UNL A   1      35.738  24.138  25.207  1.00  0.00     0.124 A 
ATOM     13  F   UNL A   1      36.758  24.311  26.057  1.00  0.00    -0.207 F 
BRANCH   8  14
ATOM     14  O   UNL A   1      32.536  23.758  22.590  1.00  0.00    -0.496 OA
ATOM     15  C   UNL A   1      31.483  22.885  23.009  1.00  0.00     0.278 C 
ENDBRANCH   8  14
ENDBRANCH   6   7
BRANCH   6  16
ATOM     16  N   UNL A   1      31.811  26.635  24.188  1.00  0.00    -0.322 N 
ATOM     17  C   UNL A   1      32.983  27.075  23.417  1.00  0.00     0.333 C 
ATOM     18  H   UNL A   1      31.625  27.232  24.994  1.00  0.00     0.348 HD
BRANCH  16  19
ATOM     19  C   UNL A   1      30.575  26.840  23.405  1.00  0.00     0.285 C 
BRANCH  19  20
ATOM     20  C   UNL A   1      30.346  27.986  22.377  1.00  0.00     0.184 C 
BRANCH  20  21
ATOM     21  N   UNL A   1      29.469  29.091  22.707  1.00  0.00    -0.330 N 
ATOM     22  C   UNL A   1      28.177  29.234  22.270  1.00  0.00     0.107 A 
ATOM     23  C   UNL A   1      29.673  30.084  23.649  1.00  0.00     0.105 A 
ATOM     24  C   UNL A   1      27.748  30.436  22.771  1.00  0.00     0.131 A 
ATOM     25  N   UNL A   1      28.682  30.956  23.619  1.00  0.00    -0.242 NA
ATOM     26  C   UNL A   1      30.843  30.203  24.560  1.00  0.00     0.087 C 
ENDBRANCH  20  21
ENDBRANCH  19  20
ENDBRANCH  16  19
ENDBRANCH   6  16
ENDBRANCH   3   6
ENDBRANCH   1   2
BRANCH   1  27
ATOM     27  C   UNL A   1      33.325  27.985  27.040  1.00  0.00     0.042 C 
BRANCH  27  28
ATOM     28  C   UNL A   1      33.981  29.109  26.244  1.00  0.00     0.118 C 
BRANCH  28  29
ATOM     29  N   UNL A   1      33.876  30.410  26.893  1.00  0.00    -0.352 N 
ATOM     30  C   UNL A   1      34.688  31.016  27.820  1.00  0.00     0.251 C 
ATOM     31  H   UNL A   1      33.094  30.943  26.621  1.00  0.00     0.163 HD
ATOM     32  O   UNL A   1      34.339  32.081  28.319  1.00  0.00    -0.269 OA
BRANCH  30  33
ATOM     33  C   UNL A   1      35.958  30.384  28.243  1.00  0.00     0.039 A 
ATOM     34  C   UNL A   1      37.077  30.534  27.420  1.00  0.00     0.014 A 
ATOM     35  C   UNL A   1      36.052  29.633  29.417  1.00  0.00     0.014 A 
ATOM     36  C   UNL A   1      38.301  29.986  27.805  1.00  0.00     0.010 A 
ATOM     37  C   UNL A   1      37.293  29.153  29.840  1.00  0.00     0.010 A 
ATOM     38  C   UNL A   1      38.431  29.322  29.037  1.00  0.00    -0.014 A 
BRANCH  38  39
ATOM     39  C   UNL A   1      39.756  28.827  29.495  1.00  0.00     0.031 A 
ATOM     40  C   UNL A   1      40.494  29.521  30.606  1.00  0.00     0.074 A 
ATOM     41  C   UNL A   1      40.316  27.768  28.875  1.00  0.00     0.049 A 
ATOM     42  N   UNL A   1      41.654  29.220  31.134  1.00  0.00    -0.248 NA
ATOM     43  C   UNL A   1      39.863  30.715  31.194  1.00  0.00     0.031 C 
ATOM     44  C   UNL A   1      39.731  27.050  27.740  1.00  0.00     0.029 A 
ATOM     45  N   UNL A   1      41.505  27.118  29.099  1.00  0.00    -0.354 N 
ATOM     46  C   UNL A   1      41.902  30.195  32.093  1.00  0.00     0.074 A 
ATOM     47  C   UNL A   1      40.789  31.118  32.054  1.00  0.00     0.031 C 
ATOM     48  C   UNL A   1      40.551  26.050  27.381  1.00  0.00     0.029 A 
ATOM     49  C   UNL A   1      41.736  26.074  28.233  1.00  0.00     0.049 A 
ATOM     50  H   UNL A   1      42.133  27.375  29.813  1.00  0.00     0.167 HD
ATOM     51  C   UNL A   1      42.945  30.294  32.949  1.00  0.00     0.034 A 
ATOM     52  C   UNL A   1      42.784  25.231  28.130  1.00  0.00     0.034 A 
ATOM     53  C   UNL A   1      44.031  29.351  33.010  1.00  0.00     0.049 A 
ATOM     54  C   UNL A   1      43.922  25.353  29.107  1.00  0.00     0.074 A 
ATOM     55  C   UNL A   1      45.091  29.327  33.898  1.00  0.00     0.029 A 
ATOM     56  N   UNL A   1      44.202  28.278  32.152  1.00  0.00    -0.354 N 
ATOM     57  N   UNL A   1      44.065  26.194  30.101  1.00  0.00    -0.248 NA
ATOM     58  C   UNL A   1      45.027  24.391  28.972  1.00  0.00     0.031 C 
ATOM     59  C   UNL A   1      45.924  28.260  33.555  1.00  0.00     0.029 A 
ATOM     60  C   UNL A   1      45.359  27.594  32.480  1.00  0.00     0.049 A 
ATOM     61  H   UNL A   1      43.592  28.038  31.418  1.00  0.00     0.167 HD
ATOM     62  C   UNL A   1      45.255  25.844  30.730  1.00  0.00     0.074 A 
ATOM     63  C   UNL A   1      45.786  24.703  30.015  1.00  0.00     0.031 C 
ATOM     64  C   UNL A   1      45.855  26.425  31.798  1.00  0.00     0.034 A 
BRANCH  51  65
ATOM     65  C   UNL A   1      42.949  31.427  33.941  1.00  0.00     0.023 A 
ATOM     66  C   UNL A   1      43.509  32.668  33.574  1.00  0.00     0.012 A 
ATOM     67  C   UNL A   1      42.295  31.304  35.184  1.00  0.00     0.148 A 
ATOM     68  C   UNL A   1      43.434  33.763  34.434  1.00  0.00     0.002 A 
ATOM     69  C   UNL A   1      42.183  32.412  36.015  1.00  0.00     0.091 A 
ATOM     70  F   UNL A   1      41.783  30.112  35.520  1.00  0.00    -0.205 F 
ATOM     71  C   UNL A   1      42.760  33.639  35.646  1.00  0.00     0.022 A 
BRANCH  69  72
ATOM     72  S   UNL A   1      41.256  32.385  37.552  1.00  0.00     0.127 S 
ATOM     73  O   UNL A   1      39.975  31.832  37.115  1.00  0.00    -0.237 OA
ATOM     74  O   UNL A   1      42.059  31.484  38.379  1.00  0.00    -0.237 OA
ATOM     75  O   UNL A   1      41.207  33.764  38.021  1.00  0.00    -0.744 OA
ENDBRANCH  69  72
ENDBRANCH  51  65
BRANCH  52  76
ATOM     76  C   UNL A   1      42.764  24.154  27.098  1.00  0.00     0.023 A 
ATOM     77  C   UNL A   1      43.438  24.352  25.877  1.00  0.00     0.012 A 
ATOM     78  C   UNL A   1      42.133  22.918  27.341  1.00  0.00     0.148 A 
ATOM     79  C   UNL A   1      43.465  23.348  24.909  1.00  0.00     0.002 A 
ATOM     80  C   UNL A   1      42.216  21.900  26.398  1.00  0.00     0.091 A 
ATOM     81  F   UNL A   1      41.487  22.754  28.504  1.00  0.00    -0.205 F 
ATOM     82  C   UNL A   1      42.866  22.119  25.173  1.00  0.00     0.022 A 
BRANCH  80  83
ATOM     83  S   UNL A   1      41.605  20.241  26.712  1.00  0.00     0.127 S 
ATOM     84  O   UNL A   1      40.185  20.485  26.955  1.00  0.00    -0.237 OA
ATOM     85  O   UNL A   1      41.907  19.566  25.449  1.00  0.00    -0.237 OA
ATOM     86  O   UNL A   1      42.364  19.748  27.853  1.00  0.00    -0.744 OA
ENDBRANCH  80  83
ENDBRANCH  52  76
BRANCH  64  87
ATOM     87  C   UNL A   1      47.147  25.837  32.301  1.00  0.00     0.023 A 
ATOM     88  C   UNL A   1      48.374  26.316  31.806  1.00  0.00     0.012 A 
ATOM     89  C   UNL A   1      47.142  24.911  33.364  1.00  0.00     0.148 A 
ATOM     90  C   UNL A   1      49.579  25.873  32.352  1.00  0.00     0.002 A 
ATOM     91  C   UNL A   1      48.344  24.514  33.938  1.00  0.00     0.091 A 
ATOM     92  F   UNL A   1      45.962  24.457  33.811  1.00  0.00    -0.205 F 
ATOM     93  C   UNL A   1      49.564  24.986  33.428  1.00  0.00     0.022 A 
BRANCH  91  94
ATOM     94  S   UNL A   1      48.421  23.463  35.394  1.00  0.00     0.127 S 
ATOM     95  O   UNL A   1      47.836  22.221  34.894  1.00  0.00    -0.237 OA
ATOM     96  O   UNL A   1      49.861  23.400  35.651  1.00  0.00    -0.237 OA
ATOM     97  O   UNL A   1      47.648  24.141  36.426  1.00  0.00    -0.744 OA
ENDBRANCH  91  94
ENDBRANCH  64  87
ENDBRANCH  38  39
ENDBRANCH  30  33
ENDBRANCH  28  29
ENDBRANCH  27  28
ENDBRANCH   1  27
TORSDOF 19
ENDMDL
