MODEL 1
REMARK VINA RESULT:     -11.7      0.000      0.000
REMARK SMILES C[C@@H]1[NH2+]CC[C@H]1C(=O)NCc1cccc(C(=O)NCCCNC(=O)c2ccc(-c3c4nc(c(-c5cccc(S(=O)(=O)[O-])c5F)c5ccc([nH]5)c(-c5cccc(S(=O)(=O)[O-])c5F)c5nc(c(-c6cccc(S(=O)(=O)[O-])c6F)c6ccc3[nH]6)C=C5)C=C4)cc2)c1
REMARK SMILES IDX 20 1 19 2 18 3 16 4 17 5 15 7 11 8 12 9 88 10 13 11 14 12
REMARK SMILES IDX 10 13 9 14 7 15 8 16 6 18 1 19 2 20 3 21 4 22 5 25 21 26
REMARK SMILES IDX 22 27 23 28 24 30 25 31 26 32 87 33 27 34 86 35 28 36 29 37
REMARK SMILES IDX 30 38 80 39 31 40 85 41 79 42 81 43 32 44 84 45 78 46 77 47
REMARK SMILES IDX 33 49 65 50 45 51 64 52 46 53 49 54 63 55 82 56 47 57 48 58
REMARK SMILES IDX 62 60 83 61 50 62 34 63 35 64 43 65 36 66 38 67 44 68 37 69
REMARK SMILES IDX 39 70 40 71 41 72 42 73 66 74 67 75 75 76 68 77 70 78 76 79
REMARK SMILES IDX 69 80 71 81 72 82 73 83 74 84 51 85 52 86 60 87 53 88 55 89
REMARK SMILES IDX 61 90 54 91 56 92 57 93 58 94 59 95
REMARK H PARENT 18 6 9 17 3 23 3 24 22 29 81 48 49 59
REMARK Flexibility Score: inf
ROOT
ATOM      1  C   UNL A   1      37.745  19.615  24.987  1.00  0.00     0.042 C 
ENDROOT
BRANCH   1   2
ATOM      2  C   UNL A   1      36.487  20.467  24.970  1.00  0.00     0.118 C 
BRANCH   2   3
ATOM      3  N   UNL A   1      36.701  21.888  25.224  1.00  0.00    -0.352 N 
ATOM      4  C   UNL A   1      35.879  22.934  25.587  1.00  0.00     0.251 C 
ATOM      5  O   UNL A   1      36.406  24.031  25.787  1.00  0.00    -0.269 OA
ATOM      6  H   UNL A   1      37.640  22.160  25.109  1.00  0.00     0.163 HD
BRANCH   4   7
ATOM      7  C   UNL A   1      34.394  22.833  25.661  1.00  0.00     0.040 A 
ATOM      8  C   UNL A   1      32.226  23.117  24.610  1.00  0.00    -0.028 A 
ATOM      9  C   UNL A   1      31.622  23.164  25.869  1.00  0.00     0.005 A 
ATOM     10  C   UNL A   1      33.579  22.773  24.538  1.00  0.00     0.019 A 
ATOM     11  C   UNL A   1      32.389  22.986  27.021  1.00  0.00     0.001 A 
ATOM     12  C   UNL A   1      33.779  22.882  26.918  1.00  0.00     0.014 A 
BRANCH   8  13
ATOM     13  C   UNL A   1      31.474  23.601  23.389  1.00  0.00     0.151 C 
BRANCH  13  14
ATOM     14  N   UNL A   1      32.329  24.193  22.374  1.00  0.00    -0.352 N 
ATOM     15  C   UNL A   1      32.764  25.466  22.195  1.00  0.00     0.229 C 
ATOM     16  O   UNL A   1      33.345  25.728  21.140  1.00  0.00    -0.275 OA
ATOM     17  H   UNL A   1      32.651  23.556  21.696  1.00  0.00     0.163 HD
BRANCH  15  18
ATOM     18  C   UNL A   1      32.552  26.543  23.243  1.00  0.00     0.142 C 
ATOM     19  C   UNL A   1      33.584  26.422  25.553  1.00  0.00     0.076 C 
ATOM     20  C   UNL A   1      33.793  26.810  24.092  1.00  0.00     0.192 C 
ATOM     21  N   UNL A   1      34.082  28.253  24.016  1.00  0.00    -0.343 N 
ATOM     22  C   UNL A   1      32.922  28.916  23.417  1.00  0.00     0.261 C 
ATOM     23  H   UNL A   1      34.907  28.411  23.437  1.00  0.00     0.346 HD
ATOM     24  H   UNL A   1      34.263  28.627  24.947  1.00  0.00     0.346 HD
ATOM     25  C   UNL A   1      32.131  27.876  22.650  1.00  0.00     0.081 C 
ENDBRANCH  15  18
ENDBRANCH  13  14
ENDBRANCH   8  13
ENDBRANCH   4   7
ENDBRANCH   2   3
ENDBRANCH   1   2
BRANCH   1  26
ATOM     26  C   UNL A   1      38.907  20.226  25.745  1.00  0.00     0.118 C 
BRANCH  26  27
ATOM     27  N   UNL A   1      40.002  19.284  25.960  1.00  0.00    -0.352 N 
ATOM     28  C   UNL A   1      41.343  19.485  26.187  1.00  0.00     0.251 C 
ATOM     29  H   UNL A   1      39.732  18.338  25.937  1.00  0.00     0.163 HD
ATOM     30  O   UNL A   1      42.104  18.523  26.149  1.00  0.00    -0.269 OA
BRANCH  28  31
ATOM     31  C   UNL A   1      41.876  20.837  26.465  1.00  0.00     0.039 A 
ATOM     32  C   UNL A   1      42.045  21.732  25.404  1.00  0.00     0.014 A 
ATOM     33  C   UNL A   1      42.244  21.219  27.755  1.00  0.00     0.014 A 
ATOM     34  C   UNL A   1      42.516  23.025  25.652  1.00  0.00     0.010 A 
ATOM     35  C   UNL A   1      42.600  22.537  28.017  1.00  0.00     0.010 A 
ATOM     36  C   UNL A   1      42.758  23.452  26.968  1.00  0.00    -0.014 A 
BRANCH  36  37
ATOM     37  C   UNL A   1      43.172  24.846  27.269  1.00  0.00     0.031 A 
ATOM     38  C   UNL A   1      42.203  25.809  27.906  1.00  0.00     0.074 A 
ATOM     39  C   UNL A   1      44.387  25.275  26.879  1.00  0.00     0.049 A 
ATOM     40  N   UNL A   1      42.370  27.074  28.195  1.00  0.00    -0.248 NA
ATOM     41  C   UNL A   1      40.860  25.296  28.225  1.00  0.00     0.031 C 
ATOM     42  C   UNL A   1      45.378  24.469  26.162  1.00  0.00     0.029 A 
ATOM     43  N   UNL A   1      44.987  26.504  27.002  1.00  0.00    -0.354 N 
ATOM     44  C   UNL A   1      41.146  27.516  28.685  1.00  0.00     0.074 A 
ATOM     45  C   UNL A   1      40.234  26.396  28.616  1.00  0.00     0.031 C 
ATOM     46  C   UNL A   1      46.463  25.218  25.919  1.00  0.00     0.029 A 
ATOM     47  C   UNL A   1      46.235  26.566  26.429  1.00  0.00     0.049 A 
ATOM     48  H   UNL A   1      44.564  27.267  27.458  1.00  0.00     0.167 HD
ATOM     49  C   UNL A   1      40.817  28.734  29.175  1.00  0.00     0.034 A 
ATOM     50  C   UNL A   1      47.099  27.595  26.318  1.00  0.00     0.034 A 
ATOM     51  C   UNL A   1      41.739  29.832  29.283  1.00  0.00     0.049 A 
ATOM     52  C   UNL A   1      46.736  28.920  26.926  1.00  0.00     0.074 A 
ATOM     53  C   UNL A   1      41.542  31.069  29.870  1.00  0.00     0.029 A 
ATOM     54  N   UNL A   1      43.032  29.830  28.777  1.00  0.00    -0.354 N 
ATOM     55  N   UNL A   1      45.637  29.267  27.549  1.00  0.00    -0.248 NA
ATOM     56  C   UNL A   1      47.747  29.984  26.850  1.00  0.00     0.031 C 
ATOM     57  C   UNL A   1      42.702  31.829  29.685  1.00  0.00     0.029 A 
ATOM     58  C   UNL A   1      43.637  31.052  29.019  1.00  0.00     0.049 A 
ATOM     59  H   UNL A   1      43.455  29.072  28.315  1.00  0.00     0.167 HD
ATOM     60  C   UNL A   1      45.831  30.580  27.964  1.00  0.00     0.074 A 
ATOM     61  C   UNL A   1      47.165  30.955  27.543  1.00  0.00     0.031 C 
ATOM     62  C   UNL A   1      44.977  31.403  28.624  1.00  0.00     0.034 A 
BRANCH  49  63
ATOM     63  C   UNL A   1      39.405  28.931  29.670  1.00  0.00     0.023 A 
ATOM     64  C   UNL A   1      39.045  28.490  30.961  1.00  0.00     0.012 A 
ATOM     65  C   UNL A   1      38.443  29.582  28.872  1.00  0.00     0.148 A 
ATOM     66  C   UNL A   1      37.742  28.650  31.430  1.00  0.00     0.002 A 
ATOM     67  C   UNL A   1      37.160  29.784  29.368  1.00  0.00     0.091 A 
ATOM     68  F   UNL A   1      38.794  29.975  27.639  1.00  0.00    -0.205 F 
ATOM     69  C   UNL A   1      36.804  29.305  30.639  1.00  0.00     0.022 A 
BRANCH  67  70
ATOM     70  S   UNL A   1      35.905  30.691  28.459  1.00  0.00     0.127 S 
ATOM     71  O   UNL A   1      34.995  31.092  29.532  1.00  0.00    -0.237 OA
ATOM     72  O   UNL A   1      36.679  31.786  27.875  1.00  0.00    -0.237 OA
ATOM     73  O   UNL A   1      35.355  29.754  27.489  1.00  0.00    -0.744 OA
ENDBRANCH  67  70
ENDBRANCH  49  63
BRANCH  50  74
ATOM     74  C   UNL A   1      48.416  27.379  25.655  1.00  0.00     0.023 A 
ATOM     75  C   UNL A   1      49.516  26.945  26.420  1.00  0.00     0.012 A 
ATOM     76  C   UNL A   1      48.567  27.541  24.264  1.00  0.00     0.148 A 
ATOM     77  C   UNL A   1      50.749  26.701  25.816  1.00  0.00     0.002 A 
ATOM     78  C   UNL A   1      49.781  27.240  23.660  1.00  0.00     0.091 A 
ATOM     79  F   UNL A   1      47.508  27.959  23.557  1.00  0.00    -0.205 F 
ATOM     80  C   UNL A   1      50.879  26.836  24.436  1.00  0.00     0.022 A 
BRANCH  78  81
ATOM     81  S   UNL A   1      50.002  27.249  21.877  1.00  0.00     0.127 S 
ATOM     82  O   UNL A   1      48.938  26.349  21.439  1.00  0.00    -0.237 OA
ATOM     83  O   UNL A   1      49.786  28.661  21.556  1.00  0.00    -0.237 OA
ATOM     84  O   UNL A   1      51.361  26.781  21.642  1.00  0.00    -0.744 OA
ENDBRANCH  78  81
ENDBRANCH  50  74
BRANCH  62  85
ATOM     85  C   UNL A   1      45.465  32.790  28.954  1.00  0.00     0.023 A 
ATOM     86  C   UNL A   1      46.148  33.025  30.164  1.00  0.00     0.012 A 
ATOM     87  C   UNL A   1      45.303  33.845  28.035  1.00  0.00     0.148 A 
ATOM     88  C   UNL A   1      46.630  34.298  30.470  1.00  0.00     0.002 A 
ATOM     89  C   UNL A   1      45.832  35.098  28.323  1.00  0.00     0.091 A 
ATOM     90  F   UNL A   1      44.633  33.607  26.898  1.00  0.00    -0.205 F 
ATOM     91  C   UNL A   1      46.482  35.329  29.546  1.00  0.00     0.022 A 
BRANCH  89  92
ATOM     92  S   UNL A   1      45.776  36.459  27.153  1.00  0.00     0.127 S 
ATOM     93  O   UNL A   1      44.338  36.687  27.030  1.00  0.00    -0.237 OA
ATOM     94  O   UNL A   1      46.501  37.511  27.866  1.00  0.00    -0.237 OA
ATOM     95  O   UNL A   1      46.439  35.980  25.948  1.00  0.00    -0.744 OA
ENDBRANCH  89  92
ENDBRANCH  62  85
ENDBRANCH  36  37
ENDBRANCH  28  31
ENDBRANCH  26  27
ENDBRANCH   1  26
TORSDOF 16
ENDMDL
MODEL 2
REMARK VINA RESULT:     -11.6      1.117      1.821
REMARK SMILES C[C@@H]1[NH2+]CC[C@H]1C(=O)NCc1cccc(C(=O)NCCCNC(=O)c2ccc(-c3c4nc(c(-c5cccc(S(=O)(=O)[O-])c5F)c5ccc([nH]5)c(-c5cccc(S(=O)(=O)[O-])c5F)c5nc(c(-c6cccc(S(=O)(=O)[O-])c6F)c6ccc3[nH]6)C=C5)C=C4)cc2)c1
REMARK SMILES IDX 20 1 19 2 18 3 16 4 17 5 15 7 11 8 12 9 88 10 13 11 14 12
REMARK SMILES IDX 10 13 9 14 7 15 8 16 6 18 1 19 2 20 3 21 4 22 5 25 21 26
REMARK SMILES IDX 22 27 23 28 24 30 25 31 26 32 87 33 27 34 86 35 28 36 29 37
REMARK SMILES IDX 30 38 80 39 31 40 85 41 79 42 81 43 32 44 84 45 78 46 77 47
REMARK SMILES IDX 33 49 65 50 45 51 64 52 46 53 49 54 63 55 82 56 47 57 48 58
REMARK SMILES IDX 62 60 83 61 50 62 34 63 35 64 43 65 36 66 38 67 44 68 37 69
REMARK SMILES IDX 39 70 40 71 41 72 42 73 66 74 67 75 75 76 68 77 70 78 76 79
REMARK SMILES IDX 69 80 71 81 72 82 73 83 74 84 51 85 52 86 60 87 53 88 55 89
REMARK SMILES IDX 61 90 54 91 56 92 57 93 58 94 59 95
REMARK H PARENT 18 6 9 17 3 23 3 24 22 29 81 48 49 59
REMARK Flexibility Score: inf
ROOT
ATOM      1  C   UNL A   1      38.338  19.649  24.875  1.00  0.00     0.042 C 
ENDROOT
BRANCH   1   2
ATOM      2  C   UNL A   1      37.467  20.872  24.644  1.00  0.00     0.118 C 
BRANCH   2   3
ATOM      3  N   UNL A   1      37.999  22.120  25.182  1.00  0.00    -0.352 N 
ATOM      4  C   UNL A   1      37.428  23.274  25.677  1.00  0.00     0.251 C 
ATOM      5  O   UNL A   1      38.185  24.138  26.124  1.00  0.00    -0.269 OA
ATOM      6  H   UNL A   1      38.983  22.143  25.196  1.00  0.00     0.163 HD
BRANCH   4   7
ATOM      7  C   UNL A   1      35.968  23.568  25.614  1.00  0.00     0.040 A 
ATOM      8  C   UNL A   1      34.151  24.976  24.838  1.00  0.00    -0.028 A 
ATOM      9  C   UNL A   1      33.334  24.485  25.860  1.00  0.00     0.005 A 
ATOM     10  C   UNL A   1      35.395  24.369  24.636  1.00  0.00     0.019 A 
ATOM     11  C   UNL A   1      33.808  23.495  26.721  1.00  0.00     0.001 A 
ATOM     12  C   UNL A   1      35.141  23.082  26.634  1.00  0.00     0.014 A 
BRANCH   8  13
ATOM     13  C   UNL A   1      33.768  26.242  24.102  1.00  0.00     0.151 C 
BRANCH  13  14
ATOM     14  N   UNL A   1      33.055  27.203  24.926  1.00  0.00    -0.352 N 
ATOM     15  C   UNL A   1      31.804  27.719  24.827  1.00  0.00     0.229 C 
ATOM     16  O   UNL A   1      31.513  28.659  25.570  1.00  0.00    -0.275 OA
ATOM     17  H   UNL A   1      33.572  27.538  25.693  1.00  0.00     0.163 HD
BRANCH  15  18
ATOM     18  C   UNL A   1      30.785  27.175  23.842  1.00  0.00     0.142 C 
ATOM     19  C   UNL A   1      30.424  24.693  23.484  1.00  0.00     0.076 C 
ATOM     20  C   UNL A   1      30.084  25.912  24.338  1.00  0.00     0.192 C 
ATOM     21  N   UNL A   1      28.632  26.153  24.272  1.00  0.00    -0.343 N 
ATOM     22  C   UNL A   1      28.411  27.371  23.490  1.00  0.00     0.261 C 
ATOM     23  H   UNL A   1      28.259  26.275  25.214  1.00  0.00     0.346 HD
ATOM     24  H   UNL A   1      28.161  25.362  23.837  1.00  0.00     0.346 HD
ATOM     25  C   UNL A   1      29.696  28.175  23.500  1.00  0.00     0.081 C 
ENDBRANCH  15  18
ENDBRANCH  13  14
ENDBRANCH   8  13
ENDBRANCH   4   7
ENDBRANCH   2   3
ENDBRANCH   1   2
BRANCH   1  26
ATOM     26  C   UNL A   1      39.146  19.688  26.158  1.00  0.00     0.118 C 
BRANCH  26  27
ATOM     27  N   UNL A   1      40.432  19.008  26.039  1.00  0.00    -0.352 N 
ATOM     28  C   UNL A   1      41.719  19.490  26.030  1.00  0.00     0.251 C 
ATOM     29  H   UNL A   1      40.366  18.030  25.949  1.00  0.00     0.163 HD
ATOM     30  O   UNL A   1      42.637  18.734  25.727  1.00  0.00    -0.269 OA
BRANCH  28  31
ATOM     31  C   UNL A   1      42.008  20.901  26.372  1.00  0.00     0.039 A 
ATOM     32  C   UNL A   1      42.374  21.221  27.683  1.00  0.00     0.014 A 
ATOM     33  C   UNL A   1      41.888  21.915  25.421  1.00  0.00     0.014 A 
ATOM     34  C   UNL A   1      42.683  22.543  28.016  1.00  0.00     0.010 A 
ATOM     35  C   UNL A   1      42.307  23.206  25.723  1.00  0.00     0.010 A 
ATOM     36  C   UNL A   1      42.692  23.541  27.028  1.00  0.00    -0.014 A 
BRANCH  36  37
ATOM     37  C   UNL A   1      43.105  24.935  27.333  1.00  0.00     0.031 A 
ATOM     38  C   UNL A   1      42.141  25.890  27.987  1.00  0.00     0.074 A 
ATOM     39  C   UNL A   1      44.314  25.370  26.931  1.00  0.00     0.049 A 
ATOM     40  N   UNL A   1      42.307  27.154  28.282  1.00  0.00    -0.248 NA
ATOM     41  C   UNL A   1      40.804  25.371  28.318  1.00  0.00     0.031 C 
ATOM     42  C   UNL A   1      45.299  24.571  26.198  1.00  0.00     0.029 A 
ATOM     43  N   UNL A   1      44.912  26.599  27.055  1.00  0.00    -0.354 N 
ATOM     44  C   UNL A   1      41.088  27.590  28.788  1.00  0.00     0.074 A 
ATOM     45  C   UNL A   1      40.179  26.467  28.723  1.00  0.00     0.031 C 
ATOM     46  C   UNL A   1      46.379  25.325  25.946  1.00  0.00     0.029 A 
ATOM     47  C   UNL A   1      46.153  26.669  26.467  1.00  0.00     0.049 A 
ATOM     48  H   UNL A   1      44.492  27.359  27.520  1.00  0.00     0.167 HD
ATOM     49  C   UNL A   1      40.760  28.804  29.290  1.00  0.00     0.034 A 
ATOM     50  C   UNL A   1      47.012  27.701  26.352  1.00  0.00     0.034 A 
ATOM     51  C   UNL A   1      41.681  29.904  29.393  1.00  0.00     0.049 A 
ATOM     52  C   UNL A   1      46.653  29.022  26.972  1.00  0.00     0.074 A 
ATOM     53  C   UNL A   1      41.487  31.136  29.989  1.00  0.00     0.029 A 
ATOM     54  N   UNL A   1      42.967  29.909  28.872  1.00  0.00    -0.354 N 
ATOM     55  N   UNL A   1      45.559  29.362  27.610  1.00  0.00    -0.248 NA
ATOM     56  C   UNL A   1      47.659  30.090  26.891  1.00  0.00     0.031 C 
ATOM     57  C   UNL A   1      42.642  31.902  29.795  1.00  0.00     0.029 A 
ATOM     58  C   UNL A   1      43.571  31.131  29.114  1.00  0.00     0.049 A 
ATOM     59  H   UNL A   1      43.387  29.155  28.400  1.00  0.00     0.167 HD
ATOM     60  C   UNL A   1      45.754  30.672  28.031  1.00  0.00     0.074 A 
ATOM     61  C   UNL A   1      47.082  31.054  27.596  1.00  0.00     0.031 C 
ATOM     62  C   UNL A   1      44.906  31.489  28.705  1.00  0.00     0.034 A 
BRANCH  49  63
ATOM     63  C   UNL A   1      39.354  28.993  29.801  1.00  0.00     0.023 A 
ATOM     64  C   UNL A   1      39.034  28.632  31.128  1.00  0.00     0.012 A 
ATOM     65  C   UNL A   1      38.357  29.560  28.984  1.00  0.00     0.148 A 
ATOM     66  C   UNL A   1      37.738  28.786  31.615  1.00  0.00     0.002 A 
ATOM     67  C   UNL A   1      37.078  29.758  29.494  1.00  0.00     0.091 A 
ATOM     68  F   UNL A   1      38.669  29.878  27.719  1.00  0.00    -0.205 F 
ATOM     69  C   UNL A   1      36.763  29.358  30.803  1.00  0.00     0.022 A 
BRANCH  67  70
ATOM     70  S   UNL A   1      35.777  30.564  28.554  1.00  0.00     0.127 S 
ATOM     71  O   UNL A   1      36.531  31.140  27.441  1.00  0.00    -0.237 OA
ATOM     72  O   UNL A   1      34.917  29.438  28.190  1.00  0.00    -0.237 OA
ATOM     73  O   UNL A   1      35.166  31.527  29.460  1.00  0.00    -0.744 OA
ENDBRANCH  67  70
ENDBRANCH  49  63
BRANCH  50  74
ATOM     74  C   UNL A   1      48.322  27.494  25.673  1.00  0.00     0.023 A 
ATOM     75  C   UNL A   1      49.436  27.075  26.425  1.00  0.00     0.012 A 
ATOM     76  C   UNL A   1      48.453  27.648  24.278  1.00  0.00     0.148 A 
ATOM     77  C   UNL A   1      50.664  26.839  25.806  1.00  0.00     0.002 A 
ATOM     78  C   UNL A   1      49.661  27.354  23.660  1.00  0.00     0.091 A 
ATOM     79  F   UNL A   1      47.380  28.052  23.583  1.00  0.00    -0.205 F 
ATOM     80  C   UNL A   1      50.773  26.966  24.423  1.00  0.00     0.022 A 
BRANCH  78  81
ATOM     81  S   UNL A   1      49.857  27.355  21.874  1.00  0.00     0.127 S 
ATOM     82  O   UNL A   1      51.242  26.916  21.724  1.00  0.00    -0.237 OA
ATOM     83  O   UNL A   1      48.852  26.374  21.462  1.00  0.00    -0.237 OA
ATOM     84  O   UNL A   1      49.578  28.718  21.443  1.00  0.00    -0.744 OA
ENDBRANCH  78  81
ENDBRANCH  50  74
BRANCH  62  85
ATOM     85  C   UNL A   1      45.393  32.876  29.038  1.00  0.00     0.023 A 
ATOM     86  C   UNL A   1      46.040  33.117  30.266  1.00  0.00     0.012 A 
ATOM     87  C   UNL A   1      45.268  33.923  28.104  1.00  0.00     0.148 A 
ATOM     88  C   UNL A   1      46.521  34.389  30.576  1.00  0.00     0.002 A 
ATOM     89  C   UNL A   1      45.797  35.175  28.398  1.00  0.00     0.091 A 
ATOM     90  F   UNL A   1      44.633  33.679  26.950  1.00  0.00    -0.205 F 
ATOM     91  C   UNL A   1      46.410  35.413  29.639  1.00  0.00     0.022 A 
BRANCH  89  92
ATOM     92  S   UNL A   1      45.787  36.525  27.214  1.00  0.00     0.127 S 
ATOM     93  O   UNL A   1      46.388  35.896  26.040  1.00  0.00    -0.237 OA
ATOM     94  O   UNL A   1      44.359  36.816  27.087  1.00  0.00    -0.237 OA
ATOM     95  O   UNL A   1      46.570  37.595  27.819  1.00  0.00    -0.744 OA
ENDBRANCH  89  92
ENDBRANCH  62  85
ENDBRANCH  36  37
ENDBRANCH  28  31
ENDBRANCH  26  27
ENDBRANCH   1  26
TORSDOF 16
ENDMDL
MODEL 3
REMARK VINA RESULT:     -11.5      1.889      7.879
REMARK SMILES C[C@@H]1[NH2+]CC[C@H]1C(=O)NCc1cccc(C(=O)NCCCNC(=O)c2ccc(-c3c4nc(c(-c5cccc(S(=O)(=O)[O-])c5F)c5ccc([nH]5)c(-c5cccc(S(=O)(=O)[O-])c5F)c5nc(c(-c6cccc(S(=O)(=O)[O-])c6F)c6ccc3[nH]6)C=C5)C=C4)cc2)c1
REMARK SMILES IDX 20 1 19 2 18 3 16 4 17 5 15 7 11 8 12 9 88 10 13 11 14 12
REMARK SMILES IDX 10 13 9 14 7 15 8 16 6 18 1 19 2 20 3 21 4 22 5 25 21 26
REMARK SMILES IDX 22 27 23 28 24 30 25 31 26 32 87 33 27 34 86 35 28 36 29 37
REMARK SMILES IDX 30 38 80 39 31 40 85 41 79 42 81 43 32 44 84 45 78 46 77 47
REMARK SMILES IDX 33 49 65 50 45 51 64 52 46 53 49 54 63 55 82 56 47 57 48 58
REMARK SMILES IDX 62 60 83 61 50 62 34 63 35 64 43 65 36 66 38 67 44 68 37 69
REMARK SMILES IDX 39 70 40 71 41 72 42 73 66 74 67 75 75 76 68 77 70 78 76 79
REMARK SMILES IDX 69 80 71 81 72 82 73 83 74 84 51 85 52 86 60 87 53 88 55 89
REMARK SMILES IDX 61 90 54 91 56 92 57 93 58 94 59 95
REMARK H PARENT 18 6 9 17 3 23 3 24 22 29 81 48 49 59
REMARK Flexibility Score: inf
ROOT
ATOM      1  C   UNL A   1      36.222  21.783  25.514  1.00  0.00     0.042 C 
ENDROOT
BRANCH   1   2
ATOM      2  C   UNL A   1      35.881  22.915  26.467  1.00  0.00     0.118 C 
BRANCH   2   3
ATOM      3  N   UNL A   1      34.807  22.625  27.412  1.00  0.00    -0.352 N 
ATOM      4  C   UNL A   1      33.431  22.620  27.332  1.00  0.00     0.251 C 
ATOM      5  O   UNL A   1      32.802  22.255  28.327  1.00  0.00    -0.269 OA
ATOM      6  H   UNL A   1      35.140  22.378  28.305  1.00  0.00     0.163 HD
BRANCH   4   7
ATOM      7  C   UNL A   1      32.669  23.116  26.150  1.00  0.00     0.040 A 
ATOM      8  C   UNL A   1      30.926  24.533  25.232  1.00  0.00    -0.028 A 
ATOM      9  C   UNL A   1      30.863  23.719  24.097  1.00  0.00     0.005 A 
ATOM     10  C   UNL A   1      31.957  24.308  26.150  1.00  0.00     0.019 A 
ATOM     11  C   UNL A   1      31.739  22.642  23.958  1.00  0.00     0.001 A 
ATOM     12  C   UNL A   1      32.598  22.308  25.009  1.00  0.00     0.014 A 
BRANCH   8  13
ATOM     13  C   UNL A   1      29.804  25.501  25.535  1.00  0.00     0.151 C 
BRANCH  13  14
ATOM     14  N   UNL A   1      29.689  26.582  24.571  1.00  0.00    -0.352 N 
ATOM     15  C   UNL A   1      30.425  27.707  24.389  1.00  0.00     0.229 C 
ATOM     16  O   UNL A   1      29.996  28.549  23.597  1.00  0.00    -0.275 OA
ATOM     17  H   UNL A   1      28.945  26.478  23.935  1.00  0.00     0.163 HD
BRANCH  15  18
ATOM     18  C   UNL A   1      31.731  27.941  25.126  1.00  0.00     0.142 C 
ATOM     19  C   UNL A   1      33.928  26.935  24.364  1.00  0.00     0.076 C 
ATOM     20  C   UNL A   1      32.933  28.080  24.193  1.00  0.00     0.192 C 
ATOM     21  N   UNL A   1      33.604  29.351  24.518  1.00  0.00    -0.343 N 
ATOM     22  C   UNL A   1      33.055  29.841  25.784  1.00  0.00     0.261 C 
ATOM     23  H   UNL A   1      33.429  30.033  23.779  1.00  0.00     0.346 HD
ATOM     24  H   UNL A   1      34.610  29.210  24.598  1.00  0.00     0.346 HD
ATOM     25  C   UNL A   1      31.707  29.183  25.999  1.00  0.00     0.081 C 
ENDBRANCH  15  18
ENDBRANCH  13  14
ENDBRANCH   8  13
ENDBRANCH   4   7
ENDBRANCH   2   3
ENDBRANCH   1   2
BRANCH   1  26
ATOM     26  C   UNL A   1      37.637  21.825  24.970  1.00  0.00     0.118 C 
BRANCH  26  27
ATOM     27  N   UNL A   1      38.531  20.886  25.642  1.00  0.00    -0.352 N 
ATOM     28  C   UNL A   1      39.677  21.086  26.373  1.00  0.00     0.251 C 
ATOM     29  H   UNL A   1      38.266  19.942  25.554  1.00  0.00     0.163 HD
ATOM     30  O   UNL A   1      40.364  20.118  26.681  1.00  0.00    -0.269 OA
BRANCH  28  31
ATOM     31  C   UNL A   1      40.093  22.446  26.783  1.00  0.00     0.039 A 
ATOM     32  C   UNL A   1      41.061  22.587  27.783  1.00  0.00     0.014 A 
ATOM     33  C   UNL A   1      39.515  23.582  26.217  1.00  0.00     0.014 A 
ATOM     34  C   UNL A   1      41.491  23.863  28.159  1.00  0.00     0.010 A 
ATOM     35  C   UNL A   1      40.025  24.843  26.507  1.00  0.00     0.010 A 
ATOM     36  C   UNL A   1      41.007  25.001  27.494  1.00  0.00    -0.014 A 
BRANCH  36  37
ATOM     37  C   UNL A   1      41.513  26.361  27.810  1.00  0.00     0.031 A 
ATOM     38  C   UNL A   1      42.928  26.748  27.469  1.00  0.00     0.074 A 
ATOM     39  C   UNL A   1      40.729  27.216  28.494  1.00  0.00     0.049 A 
ATOM     40  N   UNL A   1      43.558  27.868  27.714  1.00  0.00    -0.248 NA
ATOM     41  C   UNL A   1      43.758  25.731  26.801  1.00  0.00     0.031 C 
ATOM     42  C   UNL A   1      39.375  26.924  28.971  1.00  0.00     0.029 A 
ATOM     43  N   UNL A   1      40.966  28.495  28.934  1.00  0.00    -0.354 N 
ATOM     44  C   UNL A   1      44.862  27.676  27.273  1.00  0.00     0.074 A 
ATOM     45  C   UNL A   1      44.945  26.318  26.783  1.00  0.00     0.031 C 
ATOM     46  C   UNL A   1      38.899  27.993  29.627  1.00  0.00     0.029 A 
ATOM     47  C   UNL A   1      39.922  29.033  29.649  1.00  0.00     0.049 A 
ATOM     48  H   UNL A   1      41.804  28.980  28.755  1.00  0.00     0.167 HD
ATOM     49  C   UNL A   1      45.890  28.556  27.249  1.00  0.00     0.034 A 
ATOM     50  C   UNL A   1      39.803  30.228  30.262  1.00  0.00     0.034 A 
ATOM     51  C   UNL A   1      45.789  29.919  27.697  1.00  0.00     0.049 A 
ATOM     52  C   UNL A   1      40.934  31.212  30.168  1.00  0.00     0.074 A 
ATOM     53  C   UNL A   1      46.733  30.926  27.610  1.00  0.00     0.029 A 
ATOM     54  N   UNL A   1      44.681  30.463  28.331  1.00  0.00    -0.354 N 
ATOM     55  N   UNL A   1      42.100  31.074  29.584  1.00  0.00    -0.248 NA
ATOM     56  C   UNL A   1      40.720  32.530  30.781  1.00  0.00     0.031 C 
ATOM     57  C   UNL A   1      46.211  32.068  28.226  1.00  0.00     0.029 A 
ATOM     58  C   UNL A   1      44.926  31.785  28.661  1.00  0.00     0.049 A 
ATOM     59  H   UNL A   1      43.845  29.979  28.518  1.00  0.00     0.167 HD
ATOM     60  C   UNL A   1      42.750  32.293  29.736  1.00  0.00     0.074 A 
ATOM     61  C   UNL A   1      41.835  33.166  30.444  1.00  0.00     0.031 C 
ATOM     62  C   UNL A   1      43.995  32.654  29.336  1.00  0.00     0.034 A 
BRANCH  49  63
ATOM     63  C   UNL A   1      47.205  28.080  26.684  1.00  0.00     0.023 A 
ATOM     64  C   UNL A   1      48.256  27.722  27.556  1.00  0.00     0.012 A 
ATOM     65  C   UNL A   1      47.392  27.953  25.294  1.00  0.00     0.148 A 
ATOM     66  C   UNL A   1      49.483  27.294  27.053  1.00  0.00     0.002 A 
ATOM     67  C   UNL A   1      48.602  27.475  24.802  1.00  0.00     0.091 A 
ATOM     68  F   UNL A   1      46.393  28.317  24.477  1.00  0.00    -0.205 F 
ATOM     69  C   UNL A   1      49.653  27.160  25.679  1.00  0.00     0.022 A 
BRANCH  67  70
ATOM     70  S   UNL A   1      48.888  27.188  23.053  1.00  0.00     0.127 S 
ATOM     71  O   UNL A   1      50.348  27.139  22.996  1.00  0.00    -0.237 OA
ATOM     72  O   UNL A   1      48.226  25.901  22.840  1.00  0.00    -0.237 OA
ATOM     73  O   UNL A   1      48.272  28.309  22.356  1.00  0.00    -0.744 OA
ENDBRANCH  67  70
ENDBRANCH  49  63
BRANCH  50  74
ATOM     74  C   UNL A   1      38.532  30.570  30.961  1.00  0.00     0.023 A 
ATOM     75  C   UNL A   1      38.371  30.226  32.317  1.00  0.00     0.012 A 
ATOM     76  C   UNL A   1      37.510  31.287  30.307  1.00  0.00     0.148 A 
ATOM     77  C   UNL A   1      37.205  30.568  33.003  1.00  0.00     0.002 A 
ATOM     78  C   UNL A   1      36.378  31.675  31.012  1.00  0.00     0.091 A 
ATOM     79  F   UNL A   1      37.683  31.599  29.015  1.00  0.00    -0.205 F 
ATOM     80  C   UNL A   1      36.216  31.303  32.355  1.00  0.00     0.022 A 
BRANCH  78  81
ATOM     81  S   UNL A   1      35.117  32.741  30.302  1.00  0.00     0.127 S 
ATOM     82  O   UNL A   1      34.568  31.893  29.247  1.00  0.00    -0.237 OA
ATOM     83  O   UNL A   1      34.228  32.956  31.445  1.00  0.00    -0.237 OA
ATOM     84  O   UNL A   1      35.815  33.937  29.850  1.00  0.00    -0.744 OA
ENDBRANCH  78  81
ENDBRANCH  50  74
BRANCH  62  85
ATOM     85  C   UNL A   1      44.441  34.063  29.633  1.00  0.00     0.023 A 
ATOM     86  C   UNL A   1      45.031  34.366  30.876  1.00  0.00     0.012 A 
ATOM     87  C   UNL A   1      44.335  35.069  28.653  1.00  0.00     0.148 A 
ATOM     88  C   UNL A   1      45.475  35.659  31.153  1.00  0.00     0.002 A 
ATOM     89  C   UNL A   1      44.827  36.342  28.917  1.00  0.00     0.091 A 
ATOM     90  F   UNL A   1      43.754  34.766  27.484  1.00  0.00    -0.205 F 
ATOM     91  C   UNL A   1      45.383  36.642  30.171  1.00  0.00     0.022 A 
BRANCH  89  92
ATOM     92  S   UNL A   1      44.842  37.643  27.680  1.00  0.00     0.127 S 
ATOM     93  O   UNL A   1      43.422  37.764  27.357  1.00  0.00    -0.237 OA
ATOM     94  O   UNL A   1      45.396  38.774  28.426  1.00  0.00    -0.237 OA
ATOM     95  O   UNL A   1      45.690  37.160  26.598  1.00  0.00    -0.744 OA
ENDBRANCH  89  92
ENDBRANCH  62  85
ENDBRANCH  36  37
ENDBRANCH  28  31
ENDBRANCH  26  27
ENDBRANCH   1  26
TORSDOF 16
ENDMDL
