MODEL 1
REMARK VINA RESULT:     -11.7      0.000      0.000
REMARK SMILES O=C(NCCCNC(=O)[C@H]1[NH2+][C@@H]2CC[C@H]1CC2(F)F)c1ccc(-c2c3nc(c(-c4cccc(S(=O)(=O)[O-])c4F)c4ccc([nH]4)c(-c4cccc(S(=O)(=O)[O-])c4F)c4nc(c(-c5cccc(S(=O)(=O)[O-])c5F)c5ccc2[nH]5)C=C4)C=C3)cc1
REMARK SMILES IDX 1 1 2 2 3 3 20 5 21 6 82 7 22 8 81 9 23 10 24 11 25 12 75 13
REMARK SMILES IDX 26 14 80 15 74 16 76 17 27 18 79 19 73 20 72 21 28 23 60 24
REMARK SMILES IDX 40 25 59 26 41 27 44 28 58 29 77 30 42 31 43 32 57 34 78 35
REMARK SMILES IDX 45 36 29 37 30 38 38 39 31 40 33 41 39 42 32 43 34 44 35 45
REMARK SMILES IDX 36 46 37 47 61 48 62 49 70 50 63 51 65 52 71 53 64 54 66 55
REMARK SMILES IDX 67 56 68 57 69 58 46 59 47 60 55 61 48 62 50 63 56 64 49 65
REMARK SMILES IDX 51 66 52 67 53 68 54 69 4 70 5 71 6 72 7 73 8 74 9 76 10 77
REMARK SMILES IDX 11 78 15 79 12 80 14 83 16 84 13 85 17 86 18 87 19 88
REMARK H PARENT 3 4 76 22 44 33 7 75 11 81 11 82
REMARK Flexibility Score: inf
ROOT
ATOM      1  O   UNL A   1      32.911  32.112  27.123  1.00  0.00    -0.269 OA
ATOM      2  C   UNL A   1      33.719  32.798  27.747  1.00  0.00     0.251 C 
ATOM      3  N   UNL A   1      33.461  34.138  27.918  1.00  0.00    -0.352 N 
ATOM      4  H   UNL A   1      32.556  34.423  27.653  1.00  0.00     0.163 HD
ENDROOT
BRANCH   2   5
ATOM      5  C   UNL A   1      34.962  32.189  28.276  1.00  0.00     0.039 A 
ATOM      6  C   UNL A   1      34.978  30.884  28.770  1.00  0.00     0.014 A 
ATOM      7  C   UNL A   1      36.145  32.934  28.252  1.00  0.00     0.014 A 
ATOM      8  C   UNL A   1      36.122  30.390  29.392  1.00  0.00     0.010 A 
ATOM      9  C   UNL A   1      37.320  32.400  28.792  1.00  0.00     0.010 A 
ATOM     10  C   UNL A   1      37.308  31.141  29.411  1.00  0.00    -0.014 A 
BRANCH  10  11
ATOM     11  C   UNL A   1      38.526  30.572  30.049  1.00  0.00     0.031 A 
ATOM     12  C   UNL A   1      38.927  30.960  31.448  1.00  0.00     0.074 A 
ATOM     13  C   UNL A   1      39.274  29.687  29.359  1.00  0.00     0.049 A 
ATOM     14  N   UNL A   1      39.923  30.513  32.172  1.00  0.00    -0.248 NA
ATOM     15  C   UNL A   1      38.117  31.988  32.122  1.00  0.00     0.031 C 
ATOM     16  C   UNL A   1      39.018  29.266  27.980  1.00  0.00     0.029 A 
ATOM     17  N   UNL A   1      40.389  28.976  29.722  1.00  0.00    -0.354 N 
ATOM     18  C   UNL A   1      39.889  31.233  33.360  1.00  0.00     0.074 A 
ATOM     19  C   UNL A   1      38.776  32.153  33.260  1.00  0.00     0.031 C 
ATOM     20  C   UNL A   1      39.926  28.345  27.626  1.00  0.00     0.029 A 
ATOM     21  C   UNL A   1      40.853  28.141  28.732  1.00  0.00     0.049 A 
ATOM     22  H   UNL A   1      40.817  29.057  30.604  1.00  0.00     0.167 HD
ATOM     23  C   UNL A   1      40.697  31.126  34.443  1.00  0.00     0.034 A 
ATOM     24  C   UNL A   1      41.906  27.301  28.716  1.00  0.00     0.034 A 
ATOM     25  C   UNL A   1      41.771  30.175  34.560  1.00  0.00     0.049 A 
ATOM     26  C   UNL A   1      42.756  27.169  29.949  1.00  0.00     0.074 A 
ATOM     27  C   UNL A   1      42.594  29.937  35.648  1.00  0.00     0.029 A 
ATOM     28  N   UNL A   1      42.176  29.309  33.557  1.00  0.00    -0.354 N 
ATOM     29  N   UNL A   1      42.616  27.756  31.112  1.00  0.00    -0.248 NA
ATOM     30  C   UNL A   1      43.888  26.235  29.877  1.00  0.00     0.031 C 
ATOM     31  C   UNL A   1      43.508  28.938  35.296  1.00  0.00     0.029 A 
ATOM     32  C   UNL A   1      43.241  28.540  33.996  1.00  0.00     0.049 A 
ATOM     33  H   UNL A   1      41.767  29.249  32.664  1.00  0.00     0.167 HD
ATOM     34  C   UNL A   1      43.618  27.236  31.923  1.00  0.00     0.074 A 
ATOM     35  C   UNL A   1      44.345  26.273  31.121  1.00  0.00     0.031 C 
ATOM     36  C   UNL A   1      43.918  27.541  33.209  1.00  0.00     0.034 A 
BRANCH  23  37
ATOM     37  C   UNL A   1      40.427  32.038  35.613  1.00  0.00     0.023 A 
ATOM     38  C   UNL A   1      41.261  33.151  35.838  1.00  0.00     0.012 A 
ATOM     39  C   UNL A   1      39.314  31.829  36.451  1.00  0.00     0.148 A 
ATOM     40  C   UNL A   1      41.012  34.024  36.897  1.00  0.00     0.002 A 
ATOM     41  C   UNL A   1      39.048  32.726  37.481  1.00  0.00     0.091 A 
ATOM     42  F   UNL A   1      38.543  30.752  36.239  1.00  0.00    -0.205 F 
ATOM     43  C   UNL A   1      39.902  33.818  37.711  1.00  0.00     0.022 A 
BRANCH  41  44
ATOM     44  S   UNL A   1      37.599  32.582  38.532  1.00  0.00     0.127 S 
ATOM     45  O   UNL A   1      37.691  31.191  38.972  1.00  0.00    -0.237 OA
ATOM     46  O   UNL A   1      37.871  33.570  39.577  1.00  0.00    -0.237 OA
ATOM     47  O   UNL A   1      36.460  32.901  37.683  1.00  0.00    -0.744 OA
ENDBRANCH  41  44
ENDBRANCH  23  37
BRANCH  24  48
ATOM     48  C   UNL A   1      42.162  26.461  27.512  1.00  0.00     0.023 A 
ATOM     49  C   UNL A   1      42.840  27.021  26.413  1.00  0.00     0.012 A 
ATOM     50  C   UNL A   1      41.783  25.105  27.469  1.00  0.00     0.148 A 
ATOM     51  C   UNL A   1      43.118  26.252  25.282  1.00  0.00     0.002 A 
ATOM     52  C   UNL A   1      42.114  24.330  26.364  1.00  0.00     0.091 A 
ATOM     53  F   UNL A   1      41.126  24.595  28.520  1.00  0.00    -0.205 F 
ATOM     54  C   UNL A   1      42.767  24.906  25.263  1.00  0.00     0.022 A 
BRANCH  52  55
ATOM     55  S   UNL A   1      41.823  22.559  26.313  1.00  0.00     0.127 S 
ATOM     56  O   UNL A   1      42.476  22.185  25.062  1.00  0.00    -0.237 OA
ATOM     57  O   UNL A   1      42.506  22.104  27.525  1.00  0.00    -0.237 OA
ATOM     58  O   UNL A   1      40.376  22.399  26.347  1.00  0.00    -0.744 OA
ENDBRANCH  52  55
ENDBRANCH  24  48
BRANCH  36  59
ATOM     59  C   UNL A   1      45.060  26.798  33.851  1.00  0.00     0.023 A 
ATOM     60  C   UNL A   1      46.371  27.302  33.747  1.00  0.00     0.012 A 
ATOM     61  C   UNL A   1      44.823  25.636  34.611  1.00  0.00     0.148 A 
ATOM     62  C   UNL A   1      47.434  26.641  34.361  1.00  0.00     0.002 A 
ATOM     63  C   UNL A   1      45.881  25.009  35.259  1.00  0.00     0.091 A 
ATOM     64  F   UNL A   1      43.572  25.157  34.679  1.00  0.00    -0.205 F 
ATOM     65  C   UNL A   1      47.189  25.503  35.126  1.00  0.00     0.022 A 
BRANCH  63  66
ATOM     66  S   UNL A   1      45.633  23.595  36.339  1.00  0.00     0.127 S 
ATOM     67  O   UNL A   1      44.782  24.162  37.384  1.00  0.00    -0.237 OA
ATOM     68  O   UNL A   1      44.961  22.639  35.458  1.00  0.00    -0.237 OA
ATOM     69  O   UNL A   1      46.965  23.183  36.762  1.00  0.00    -0.744 OA
ENDBRANCH  63  66
ENDBRANCH  36  59
ENDBRANCH  10  11
ENDBRANCH   2   5
BRANCH   3  70
ATOM     70  C   UNL A   1      34.313  35.201  28.426  1.00  0.00     0.118 C 
BRANCH  70  71
ATOM     71  C   UNL A   1      33.662  36.576  28.335  1.00  0.00     0.042 C 
BRANCH  71  72
ATOM     72  C   UNL A   1      33.487  37.278  29.678  1.00  0.00     0.118 C 
BRANCH  72  73
ATOM     73  N   UNL A   1      32.575  36.563  30.553  1.00  0.00    -0.351 N 
ATOM     74  C   UNL A   1      32.813  35.929  31.734  1.00  0.00     0.278 C 
ATOM     75  H   UNL A   1      31.640  36.533  30.245  1.00  0.00     0.163 HD
ATOM     76  O   UNL A   1      31.863  35.384  32.304  1.00  0.00    -0.268 OA
BRANCH  74  77
ATOM     77  C   UNL A   1      34.232  35.910  32.349  1.00  0.00     0.276 C 
ATOM     78  N   UNL A   1      34.125  35.623  33.816  1.00  0.00    -0.328 N 
ATOM     79  C   UNL A   1      35.184  34.897  31.667  1.00  0.00     0.064 C 
ATOM     80  C   UNL A   1      34.956  34.440  34.175  1.00  0.00     0.253 C 
ATOM     81  H   UNL A   1      33.151  35.435  34.052  1.00  0.00     0.347 HD
ATOM     82  H   UNL A   1      34.461  36.434  34.338  1.00  0.00     0.347 HD
ATOM     83  C   UNL A   1      36.564  35.024  32.339  1.00  0.00     0.017 C 
ATOM     84  C   UNL A   1      34.669  33.455  31.875  1.00  0.00     0.094 C 
ATOM     85  C   UNL A   1      36.417  34.789  33.848  1.00  0.00     0.072 C 
ATOM     86  C   UNL A   1      34.552  33.179  33.372  1.00  0.00     0.298 C 
ATOM     87  F   UNL A   1      35.350  32.135  33.712  1.00  0.00    -0.200 F 
ATOM     88  F   UNL A   1      33.285  32.813  33.681  1.00  0.00    -0.200 F 
ENDBRANCH  74  77
ENDBRANCH  72  73
ENDBRANCH  71  72
ENDBRANCH  70  71
ENDBRANCH   3  70
TORSDOF 13
ENDMDL
MODEL 2
REMARK VINA RESULT:     -11.2      5.827     13.191
REMARK SMILES O=C(NCCCNC(=O)[C@H]1[NH2+][C@@H]2CC[C@H]1CC2(F)F)c1ccc(-c2c3nc(c(-c4cccc(S(=O)(=O)[O-])c4F)c4ccc([nH]4)c(-c4cccc(S(=O)(=O)[O-])c4F)c4nc(c(-c5cccc(S(=O)(=O)[O-])c5F)c5ccc2[nH]5)C=C4)C=C3)cc1
REMARK SMILES IDX 1 1 2 2 3 3 20 5 21 6 82 7 22 8 81 9 23 10 24 11 25 12 75 13
REMARK SMILES IDX 26 14 80 15 74 16 76 17 27 18 79 19 73 20 72 21 28 23 60 24
REMARK SMILES IDX 40 25 59 26 41 27 44 28 58 29 77 30 42 31 43 32 57 34 78 35
REMARK SMILES IDX 45 36 29 37 30 38 38 39 31 40 33 41 39 42 32 43 34 44 35 45
REMARK SMILES IDX 36 46 37 47 61 48 62 49 70 50 63 51 65 52 71 53 64 54 66 55
REMARK SMILES IDX 67 56 68 57 69 58 46 59 47 60 55 61 48 62 50 63 56 64 49 65
REMARK SMILES IDX 51 66 52 67 53 68 54 69 4 70 5 71 6 72 7 73 8 74 9 76 10 77
REMARK SMILES IDX 11 78 15 79 12 80 14 83 16 84 13 85 17 86 18 87 19 88
REMARK H PARENT 3 4 76 22 44 33 7 75 11 81 11 82
REMARK Flexibility Score: inf
ROOT
ATOM      1  O   UNL A   1      37.799  21.409  25.785  1.00  0.00    -0.269 OA
ATOM      2  C   UNL A   1      38.974  21.494  26.141  1.00  0.00     0.251 C 
ATOM      3  N   UNL A   1      39.766  20.371  26.093  1.00  0.00    -0.352 N 
ATOM      4  H   UNL A   1      39.367  19.602  25.624  1.00  0.00     0.163 HD
ENDROOT
BRANCH   2   5
ATOM      5  C   UNL A   1      39.508  22.781  26.643  1.00  0.00     0.039 A 
ATOM      6  C   UNL A   1      39.040  24.002  26.155  1.00  0.00     0.014 A 
ATOM      7  C   UNL A   1      40.484  22.766  27.645  1.00  0.00     0.014 A 
ATOM      8  C   UNL A   1      39.661  25.189  26.537  1.00  0.00     0.010 A 
ATOM      9  C   UNL A   1      41.041  23.967  28.098  1.00  0.00     0.010 A 
ATOM     10  C   UNL A   1      40.669  25.187  27.514  1.00  0.00    -0.014 A 
BRANCH  10  11
ATOM     11  C   UNL A   1      41.288  26.474  27.931  1.00  0.00     0.031 A 
ATOM     12  C   UNL A   1      42.703  26.820  27.547  1.00  0.00     0.074 A 
ATOM     13  C   UNL A   1      40.559  27.346  28.657  1.00  0.00     0.049 A 
ATOM     14  N   UNL A   1      43.371  27.922  27.777  1.00  0.00    -0.248 NA
ATOM     15  C   UNL A   1      43.473  25.798  26.820  1.00  0.00     0.031 C 
ATOM     16  C   UNL A   1      39.195  27.108  29.134  1.00  0.00     0.029 A 
ATOM     17  N   UNL A   1      40.855  28.605  29.114  1.00  0.00    -0.354 N 
ATOM     18  C   UNL A   1      44.648  27.711  27.269  1.00  0.00     0.074 A 
ATOM     19  C   UNL A   1      44.665  26.371  26.723  1.00  0.00     0.031 C 
ATOM     20  C   UNL A   1      38.759  28.198  29.782  1.00  0.00     0.029 A 
ATOM     21  C   UNL A   1      39.824  29.194  29.808  1.00  0.00     0.049 A 
ATOM     22  H   UNL A   1      41.723  29.044  28.961  1.00  0.00     0.167 HD
ATOM     23  C   UNL A   1      45.704  28.561  27.244  1.00  0.00     0.034 A 
ATOM     24  C   UNL A   1      39.741  30.402  30.397  1.00  0.00     0.034 A 
ATOM     25  C   UNL A   1      45.669  29.910  27.741  1.00  0.00     0.049 A 
ATOM     26  C   UNL A   1      40.912  31.341  30.310  1.00  0.00     0.074 A 
ATOM     27  C   UNL A   1      46.663  30.872  27.688  1.00  0.00     0.029 A 
ATOM     28  N   UNL A   1      44.589  30.489  28.389  1.00  0.00    -0.354 N 
ATOM     29  N   UNL A   1      42.058  31.172  29.698  1.00  0.00    -0.248 NA
ATOM     30  C   UNL A   1      40.765  32.647  30.966  1.00  0.00     0.031 C 
ATOM     31  C   UNL A   1      46.189  32.029  28.318  1.00  0.00     0.029 A 
ATOM     32  C   UNL A   1      44.893  31.792  28.746  1.00  0.00     0.049 A 
ATOM     33  H   UNL A   1      43.732  30.040  28.568  1.00  0.00     0.167 HD
ATOM     34  C   UNL A   1      42.756  32.363  29.864  1.00  0.00     0.074 A 
ATOM     35  C   UNL A   1      41.893  33.250  30.617  1.00  0.00     0.031 C 
ATOM     36  C   UNL A   1      44.003  32.686  29.444  1.00  0.00     0.034 A 
BRANCH  23  37
ATOM     37  C   UNL A   1      46.984  28.069  26.617  1.00  0.00     0.023 A 
ATOM     38  C   UNL A   1      48.001  27.535  27.434  1.00  0.00     0.012 A 
ATOM     39  C   UNL A   1      47.156  28.079  25.219  1.00  0.00     0.148 A 
ATOM     40  C   UNL A   1      49.181  27.047  26.873  1.00  0.00     0.002 A 
ATOM     41  C   UNL A   1      48.319  27.555  24.663  1.00  0.00     0.091 A 
ATOM     42  F   UNL A   1      46.190  28.612  24.457  1.00  0.00    -0.205 F 
ATOM     43  C   UNL A   1      49.336  27.048  25.490  1.00  0.00     0.022 A 
BRANCH  41  44
ATOM     44  S   UNL A   1      48.573  27.444  22.889  1.00  0.00     0.127 S 
ATOM     45  O   UNL A   1      49.902  28.034  22.744  1.00  0.00    -0.237 OA
ATOM     46  O   UNL A   1      48.519  26.001  22.654  1.00  0.00    -0.237 OA
ATOM     47  O   UNL A   1      47.480  28.194  22.285  1.00  0.00    -0.744 OA
ENDBRANCH  41  44
ENDBRANCH  23  37
BRANCH  24  48
ATOM     48  C   UNL A   1      38.468  30.818  31.051  1.00  0.00     0.023 A 
ATOM     49  C   UNL A   1      38.296  30.591  32.429  1.00  0.00     0.012 A 
ATOM     50  C   UNL A   1      37.454  31.479  30.330  1.00  0.00     0.148 A 
ATOM     51  C   UNL A   1      37.127  30.993  33.076  1.00  0.00     0.002 A 
ATOM     52  C   UNL A   1      36.318  31.928  30.992  1.00  0.00     0.091 A 
ATOM     53  F   UNL A   1      37.632  31.672  29.016  1.00  0.00    -0.205 F 
ATOM     54  C   UNL A   1      36.145  31.673  32.361  1.00  0.00     0.022 A 
BRANCH  52  55
ATOM     55  S   UNL A   1      35.069  32.930  30.179  1.00  0.00     0.127 S 
ATOM     56  O   UNL A   1      35.864  34.041  29.666  1.00  0.00    -0.237 OA
ATOM     57  O   UNL A   1      34.560  32.013  29.158  1.00  0.00    -0.237 OA
ATOM     58  O   UNL A   1      34.102  33.266  31.215  1.00  0.00    -0.744 OA
ENDBRANCH  52  55
ENDBRANCH  24  48
BRANCH  36  59
ATOM     59  C   UNL A   1      44.502  34.073  29.751  1.00  0.00     0.023 A 
ATOM     60  C   UNL A   1      45.207  34.316  30.946  1.00  0.00     0.012 A 
ATOM     61  C   UNL A   1      44.329  35.120  28.825  1.00  0.00     0.148 A 
ATOM     62  C   UNL A   1      45.701  35.588  31.232  1.00  0.00     0.002 A 
ATOM     63  C   UNL A   1      44.865  36.374  29.094  1.00  0.00     0.091 A 
ATOM     64  F   UNL A   1      43.635  34.877  27.703  1.00  0.00    -0.205 F 
ATOM     65  C   UNL A   1      45.542  36.613  30.302  1.00  0.00     0.022 A 
BRANCH  63  66
ATOM     66  S   UNL A   1      44.784  37.719  27.907  1.00  0.00     0.127 S 
ATOM     67  O   UNL A   1      45.455  38.799  28.631  1.00  0.00    -0.237 OA
ATOM     68  O   UNL A   1      45.538  37.185  26.773  1.00  0.00    -0.237 OA
ATOM     69  O   UNL A   1      43.366  37.924  27.639  1.00  0.00    -0.744 OA
ENDBRANCH  63  66
ENDBRANCH  36  59
ENDBRANCH  10  11
ENDBRANCH   2   5
BRANCH   3  70
ATOM     70  C   UNL A   1      41.099  20.138  26.627  1.00  0.00     0.118 C 
BRANCH  70  71
ATOM     71  C   UNL A   1      41.686  18.802  26.189  1.00  0.00     0.042 C 
BRANCH  71  72
ATOM     72  C   UNL A   1      43.206  18.718  26.301  1.00  0.00     0.118 C 
BRANCH  72  73
ATOM     73  N   UNL A   1      43.844  18.615  25.002  1.00  0.00    -0.351 N 
ATOM     74  C   UNL A   1      44.861  19.345  24.466  1.00  0.00     0.278 C 
ATOM     75  H   UNL A   1      43.487  17.908  24.417  1.00  0.00     0.163 HD
ATOM     76  O   UNL A   1      45.240  19.066  23.324  1.00  0.00    -0.268 OA
BRANCH  74  77
ATOM     77  C   UNL A   1      45.532  20.479  25.277  1.00  0.00     0.276 C 
ATOM     78  N   UNL A   1      46.444  21.252  24.374  1.00  0.00    -0.328 N 
ATOM     79  C   UNL A   1      44.518  21.426  25.963  1.00  0.00     0.064 C 
ATOM     80  C   UNL A   1      46.092  22.699  24.396  1.00  0.00     0.253 C 
ATOM     81  H   UNL A   1      46.354  20.898  23.421  1.00  0.00     0.347 HD
ATOM     82  H   UNL A   1      47.406  21.140  24.699  1.00  0.00     0.347 HD
ATOM     83  C   UNL A   1      45.320  22.464  26.773  1.00  0.00     0.017 C 
ATOM     84  C   UNL A   1      43.682  22.174  24.902  1.00  0.00     0.094 C 
ATOM     85  C   UNL A   1      46.290  23.197  25.838  1.00  0.00     0.072 C 
ATOM     86  C   UNL A   1      44.622  22.948  23.980  1.00  0.00     0.298 C 
ATOM     87  F   UNL A   1      44.339  24.273  24.040  1.00  0.00    -0.200 F 
ATOM     88  F   UNL A   1      44.429  22.570  22.694  1.00  0.00    -0.200 F 
ENDBRANCH  74  77
ENDBRANCH  72  73
ENDBRANCH  71  72
ENDBRANCH  70  71
ENDBRANCH   3  70
TORSDOF 13
ENDMDL
MODEL 3
REMARK VINA RESULT:     -11.0      3.950      6.149
REMARK SMILES O=C(NCCCNC(=O)[C@H]1[NH2+][C@@H]2CC[C@H]1CC2(F)F)c1ccc(-c2c3nc(c(-c4cccc(S(=O)(=O)[O-])c4F)c4ccc([nH]4)c(-c4cccc(S(=O)(=O)[O-])c4F)c4nc(c(-c5cccc(S(=O)(=O)[O-])c5F)c5ccc2[nH]5)C=C4)C=C3)cc1
REMARK SMILES IDX 1 1 2 2 3 3 20 5 21 6 82 7 22 8 81 9 23 10 24 11 25 12 75 13
REMARK SMILES IDX 26 14 80 15 74 16 76 17 27 18 79 19 73 20 72 21 28 23 60 24
REMARK SMILES IDX 40 25 59 26 41 27 44 28 58 29 77 30 42 31 43 32 57 34 78 35
REMARK SMILES IDX 45 36 29 37 30 38 38 39 31 40 33 41 39 42 32 43 34 44 35 45
REMARK SMILES IDX 36 46 37 47 61 48 62 49 70 50 63 51 65 52 71 53 64 54 66 55
REMARK SMILES IDX 67 56 68 57 69 58 46 59 47 60 55 61 48 62 50 63 56 64 49 65
REMARK SMILES IDX 51 66 52 67 53 68 54 69 4 70 5 71 6 72 7 73 8 74 9 76 10 77
REMARK SMILES IDX 11 78 15 79 12 80 14 83 16 84 13 85 17 86 18 87 19 88
REMARK H PARENT 3 4 76 22 44 33 7 75 11 81 11 82
REMARK Flexibility Score: inf
ROOT
ATOM      1  O   UNL A   1      32.520  32.406  27.276  1.00  0.00    -0.269 OA
ATOM      2  C   UNL A   1      33.087  31.368  26.937  1.00  0.00     0.251 C 
ATOM      3  N   UNL A   1      32.493  30.566  25.991  1.00  0.00    -0.352 N 
ATOM      4  H   UNL A   1      31.717  30.966  25.536  1.00  0.00     0.163 HD
ENDROOT
BRANCH   2   5
ATOM      5  C   UNL A   1      34.372  30.982  27.564  1.00  0.00     0.039 A 
ATOM      6  C   UNL A   1      34.633  29.662  27.932  1.00  0.00     0.014 A 
ATOM      7  C   UNL A   1      35.349  31.962  27.766  1.00  0.00     0.014 A 
ATOM      8  C   UNL A   1      35.786  29.354  28.650  1.00  0.00     0.010 A 
ATOM      9  C   UNL A   1      36.550  31.632  28.404  1.00  0.00     0.010 A 
ATOM     10  C   UNL A   1      36.760  30.335  28.895  1.00  0.00    -0.014 A 
BRANCH  10  11
ATOM     11  C   UNL A   1      38.000  29.969  29.632  1.00  0.00     0.031 A 
ATOM     12  C   UNL A   1      38.238  30.441  31.042  1.00  0.00     0.074 A 
ATOM     13  C   UNL A   1      38.919  29.193  29.022  1.00  0.00     0.049 A 
ATOM     14  N   UNL A   1      39.234  30.163  31.845  1.00  0.00    -0.248 NA
ATOM     15  C   UNL A   1      37.237  31.348  31.627  1.00  0.00     0.031 C 
ATOM     16  C   UNL A   1      38.829  28.710  27.641  1.00  0.00     0.029 A 
ATOM     17  N   UNL A   1      40.099  28.665  29.481  1.00  0.00    -0.354 N 
ATOM     18  C   UNL A   1      39.008  30.894  33.006  1.00  0.00     0.074 A 
ATOM     19  C   UNL A   1      37.781  31.634  32.802  1.00  0.00     0.031 C 
ATOM     20  C   UNL A   1      39.887  27.930  27.378  1.00  0.00     0.029 A 
ATOM     21  C   UNL A   1      40.752  27.890  28.551  1.00  0.00     0.049 A 
ATOM     22  H   UNL A   1      40.445  28.827  30.388  1.00  0.00     0.167 HD
ATOM     23  C   UNL A   1      39.743  30.932  34.144  1.00  0.00     0.034 A 
ATOM     24  C   UNL A   1      41.917  27.218  28.632  1.00  0.00     0.034 A 
ATOM     25  C   UNL A   1      40.935  30.156  34.363  1.00  0.00     0.049 A 
ATOM     26  C   UNL A   1      42.685  27.240  29.924  1.00  0.00     0.074 A 
ATOM     27  C   UNL A   1      41.704  30.067  35.511  1.00  0.00     0.029 A 
ATOM     28  N   UNL A   1      41.536  29.341  33.417  1.00  0.00    -0.354 N 
ATOM     29  N   UNL A   1      42.376  27.823  31.056  1.00  0.00    -0.248 NA
ATOM     30  C   UNL A   1      43.946  26.487  29.958  1.00  0.00     0.031 C 
ATOM     31  C   UNL A   1      42.780  29.209  35.253  1.00  0.00     0.029 A 
ATOM     32  C   UNL A   1      42.669  28.750  33.951  1.00  0.00     0.049 A 
ATOM     33  H   UNL A   1      41.206  29.202  32.500  1.00  0.00     0.167 HD
ATOM     34  C   UNL A   1      43.384  27.476  31.949  1.00  0.00     0.074 A 
ATOM     35  C   UNL A   1      44.302  26.618  31.228  1.00  0.00     0.031 C 
ATOM     36  C   UNL A   1      43.542  27.849  33.242  1.00  0.00     0.034 A 
BRANCH  23  37
ATOM     37  C   UNL A   1      39.257  31.816  35.265  1.00  0.00     0.023 A 
ATOM     38  C   UNL A   1      38.350  31.303  36.214  1.00  0.00     0.012 A 
ATOM     39  C   UNL A   1      39.744  33.129  35.415  1.00  0.00     0.148 A 
ATOM     40  C   UNL A   1      37.909  32.093  37.275  1.00  0.00     0.002 A 
ATOM     41  C   UNL A   1      39.331  33.898  36.498  1.00  0.00     0.091 A 
ATOM     42  F   UNL A   1      40.588  33.610  34.490  1.00  0.00    -0.205 F 
ATOM     43  C   UNL A   1      38.406  33.385  37.423  1.00  0.00     0.022 A 
BRANCH  41  44
ATOM     44  S   UNL A   1      39.977  35.544  36.811  1.00  0.00     0.127 S 
ATOM     45  O   UNL A   1      39.477  36.282  35.653  1.00  0.00    -0.237 OA
ATOM     46  O   UNL A   1      39.337  35.896  38.079  1.00  0.00    -0.237 OA
ATOM     47  O   UNL A   1      41.423  35.394  36.888  1.00  0.00    -0.744 OA
ENDBRANCH  41  44
ENDBRANCH  23  37
BRANCH  24  48
ATOM     48  C   UNL A   1      42.380  26.402  27.475  1.00  0.00     0.023 A 
ATOM     49  C   UNL A   1      43.204  26.996  26.500  1.00  0.00     0.012 A 
ATOM     50  C   UNL A   1      42.053  25.037  27.361  1.00  0.00     0.148 A 
ATOM     51  C   UNL A   1      43.675  26.251  25.419  1.00  0.00     0.002 A 
ATOM     52  C   UNL A   1      42.573  24.287  26.313  1.00  0.00     0.091 A 
ATOM     53  F   UNL A   1      41.256  24.495  28.292  1.00  0.00    -0.205 F 
ATOM     54  C   UNL A   1      43.372  24.896  25.333  1.00  0.00     0.022 A 
BRANCH  52  55
ATOM     55  S   UNL A   1      42.347  22.509  26.202  1.00  0.00     0.127 S 
ATOM     56  O   UNL A   1      40.892  22.396  26.145  1.00  0.00    -0.237 OA
ATOM     57  O   UNL A   1      43.039  22.193  24.951  1.00  0.00    -0.237 OA
ATOM     58  O   UNL A   1      42.981  21.959  27.391  1.00  0.00    -0.744 OA
ENDBRANCH  52  55
ENDBRANCH  24  48
BRANCH  36  59
ATOM     59  C   UNL A   1      44.733  27.299  33.983  1.00  0.00     0.023 A 
ATOM     60  C   UNL A   1      45.948  28.010  33.982  1.00  0.00     0.012 A 
ATOM     61  C   UNL A   1      44.626  26.111  34.732  1.00  0.00     0.148 A 
ATOM     62  C   UNL A   1      47.051  27.529  34.687  1.00  0.00     0.002 A 
ATOM     63  C   UNL A   1      45.715  25.662  35.471  1.00  0.00     0.091 A 
ATOM     64  F   UNL A   1      43.468  25.434  34.702  1.00  0.00    -0.205 F 
ATOM     65  C   UNL A   1      46.931  26.364  35.441  1.00  0.00     0.022 A 
BRANCH  63  66
ATOM     66  S   UNL A   1      45.612  24.223  36.540  1.00  0.00     0.127 S 
ATOM     67  O   UNL A   1      47.008  24.038  36.930  1.00  0.00    -0.237 OA
ATOM     68  O   UNL A   1      44.735  24.690  37.614  1.00  0.00    -0.237 OA
ATOM     69  O   UNL A   1      45.039  23.162  35.720  1.00  0.00    -0.744 OA
ENDBRANCH  63  66
ENDBRANCH  36  59
ENDBRANCH  10  11
ENDBRANCH   2   5
BRANCH   3  70
ATOM     70  C   UNL A   1      32.830  29.218  25.557  1.00  0.00     0.118 C 
BRANCH  70  71
ATOM     71  C   UNL A   1      33.330  29.167  24.119  1.00  0.00     0.042 C 
BRANCH  71  72
ATOM     72  C   UNL A   1      32.282  28.712  23.106  1.00  0.00     0.118 C 
BRANCH  72  73
ATOM     73  N   UNL A   1      32.841  27.823  22.104  1.00  0.00    -0.351 N 
ATOM     74  C   UNL A   1      32.776  26.467  22.003  1.00  0.00     0.278 C 
ATOM     75  H   UNL A   1      33.345  28.270  21.385  1.00  0.00     0.163 HD
ATOM     76  O   UNL A   1      33.338  25.927  21.046  1.00  0.00    -0.268 OA
BRANCH  74  77
ATOM     77  C   UNL A   1      32.002  25.634  23.052  1.00  0.00     0.276 C 
ATOM     78  N   UNL A   1      31.502  24.378  22.405  1.00  0.00    -0.328 N 
ATOM     79  C   UNL A   1      32.840  25.299  24.310  1.00  0.00     0.064 C 
ATOM     80  C   UNL A   1      31.974  23.182  23.159  1.00  0.00     0.253 C 
ATOM     81  H   UNL A   1      31.850  24.330  21.447  1.00  0.00     0.347 HD
ATOM     82  H   UNL A   1      30.481  24.388  22.406  1.00  0.00     0.347 HD
ATOM     83  C   UNL A   1      31.934  24.520  25.283  1.00  0.00     0.017 C 
ATOM     84  C   UNL A   1      34.038  24.400  23.931  1.00  0.00     0.094 C 
ATOM     85  C   UNL A   1      31.385  23.273  24.577  1.00  0.00     0.072 C 
ATOM     86  C   UNL A   1      33.517  23.130  23.263  1.00  0.00     0.298 C 
ATOM     87  F   UNL A   1      33.900  22.042  23.977  1.00  0.00    -0.200 F 
ATOM     88  F   UNL A   1      34.065  22.994  22.031  1.00  0.00    -0.200 F 
ENDBRANCH  74  77
ENDBRANCH  72  73
ENDBRANCH  71  72
ENDBRANCH  70  71
ENDBRANCH   3  70
TORSDOF 13
ENDMDL
