MODEL 1
REMARK VINA RESULT:     -12.0      0.000      0.000
REMARK SMILES O=C(Cc1ccc(=O)n(C(F)F)c1)NCCCNC(=O)c1ccc(-c2c3nc(c(-c4cccc(S(=O)(=O)[O-])c4F)c4ccc([nH]4)c(-c4cccc(S(=O)(=O)[O-])c4F)c4nc(c(-c5cccc(S(=O)(=O)[O-])c5F)c5ccc2[nH]5)C=C4)C=C3)cc1
REMARK SMILES IDX 16 1 15 2 14 3 1 4 2 5 3 7 4 8 5 9 13 10 6 11 9 12 7 13 8 14
REMARK SMILES IDX 10 15 11 16 12 17 17 18 18 19 19 20 20 22 21 23 22 24 83 25
REMARK SMILES IDX 23 26 82 27 24 28 25 29 26 30 76 31 27 32 81 33 75 34 77 35
REMARK SMILES IDX 28 36 80 37 74 38 73 39 29 41 61 42 41 43 60 44 42 45 45 46
REMARK SMILES IDX 59 47 78 48 43 49 44 50 58 52 79 53 46 54 30 55 31 56 39 57
REMARK SMILES IDX 32 58 34 59 40 60 33 61 35 62 36 63 37 64 38 65 62 66 63 67
REMARK SMILES IDX 71 68 64 69 66 70 72 71 65 72 67 73 68 74 69 75 70 76 47 77
REMARK SMILES IDX 48 78 56 79 49 80 51 81 57 82 50 83 52 84 53 85 54 86 55 87
REMARK H PARENT 14 6 18 21 77 40 45 51
REMARK Flexibility Score: inf
ROOT
ATOM      1  C   UNL A   1      31.826  28.447  26.858  1.00  0.00     0.042 C 
ENDROOT
BRANCH   1   2
ATOM      2  C   UNL A   1      31.204  27.430  25.910  1.00  0.00     0.117 C 
BRANCH   2   3
ATOM      3  N   UNL A   1      31.022  27.965  24.573  1.00  0.00    -0.356 N 
ATOM      4  O   UNL A   1      29.030  26.901  24.143  1.00  0.00    -0.275 OA
ATOM      5  C   UNL A   1      29.932  27.655  23.790  1.00  0.00     0.224 C 
ATOM      6  H   UNL A   1      31.706  28.574  24.211  1.00  0.00     0.163 HD
BRANCH   5   7
ATOM      7  C   UNL A   1      29.937  28.306  22.411  1.00  0.00     0.137 C 
BRANCH   7   8
ATOM      8  C   UNL A   1      29.474  29.741  22.439  1.00  0.00    -0.022 A 
ATOM      9  C   UNL A   1      29.640  30.498  23.663  1.00  0.00     0.011 A 
ATOM     10  C   UNL A   1      28.896  30.339  21.382  1.00  0.00     0.099 A 
ATOM     11  C   UNL A   1      29.226  31.768  23.746  1.00  0.00     0.072 A 
ATOM     12  N   UNL A   1      28.455  31.651  21.442  1.00  0.00    -0.258 N 
ATOM     13  C   UNL A   1      28.566  32.427  22.586  1.00  0.00     0.254 A 
ATOM     14  O   UNL A   1      28.169  33.580  22.715  1.00  0.00    -0.269 OA
BRANCH  12  15
ATOM     15  C   UNL A   1      27.797  32.254  20.310  1.00  0.00     0.451 C 
ATOM     16  F   UNL A   1      28.645  33.073  19.643  1.00  0.00    -0.185 F 
ATOM     17  F   UNL A   1      27.350  31.315  19.442  1.00  0.00    -0.185 F 
ENDBRANCH  12  15
ENDBRANCH   7   8
ENDBRANCH   5   7
ENDBRANCH   2   3
ENDBRANCH   1   2
BRANCH   1  18
ATOM     18  C   UNL A   1      32.766  29.446  26.190  1.00  0.00     0.118 C 
BRANCH  18  19
ATOM     19  N   UNL A   1      32.552  30.824  26.613  1.00  0.00    -0.352 N 
ATOM     20  C   UNL A   1      33.358  31.658  27.355  1.00  0.00     0.251 C 
ATOM     21  H   UNL A   1      31.699  31.220  26.324  1.00  0.00     0.163 HD
ATOM     22  O   UNL A   1      32.930  32.758  27.696  1.00  0.00    -0.269 OA
BRANCH  20  23
ATOM     23  C   UNL A   1      34.708  31.219  27.774  1.00  0.00     0.039 A 
ATOM     24  C   UNL A   1      34.983  29.876  28.032  1.00  0.00     0.014 A 
ATOM     25  C   UNL A   1      35.714  32.178  27.932  1.00  0.00     0.014 A 
ATOM     26  C   UNL A   1      36.188  29.520  28.630  1.00  0.00     0.010 A 
ATOM     27  C   UNL A   1      36.958  31.804  28.450  1.00  0.00     0.010 A 
ATOM     28  C   UNL A   1      37.185  30.482  28.864  1.00  0.00    -0.014 A 
BRANCH  28  29
ATOM     29  C   UNL A   1      38.441  30.085  29.555  1.00  0.00     0.031 A 
ATOM     30  C   UNL A   1      38.747  30.581  30.947  1.00  0.00     0.074 A 
ATOM     31  C   UNL A   1      39.292  29.233  28.949  1.00  0.00     0.049 A 
ATOM     32  N   UNL A   1      39.772  30.297  31.710  1.00  0.00    -0.248 NA
ATOM     33  C   UNL A   1      37.787  31.512  31.562  1.00  0.00     0.031 C 
ATOM     34  C   UNL A   1      39.124  28.696  27.597  1.00  0.00     0.029 A 
ATOM     35  N   UNL A   1      40.456  28.658  29.393  1.00  0.00    -0.354 N 
ATOM     36  C   UNL A   1      39.603  31.041  32.872  1.00  0.00     0.074 A 
ATOM     37  C   UNL A   1      38.379  31.795  32.717  1.00  0.00     0.031 C 
ATOM     38  C   UNL A   1      40.124  27.841  27.337  1.00  0.00     0.029 A 
ATOM     39  C   UNL A   1      41.029  27.801  28.482  1.00  0.00     0.049 A 
ATOM     40  H   UNL A   1      40.844  28.841  30.279  1.00  0.00     0.167 HD
ATOM     41  C   UNL A   1      40.380  31.075  33.979  1.00  0.00     0.034 A 
ATOM     42  C   UNL A   1      42.156  27.068  28.551  1.00  0.00     0.034 A 
ATOM     43  C   UNL A   1      41.565  30.283  34.165  1.00  0.00     0.049 A 
ATOM     44  C   UNL A   1      42.992  27.112  29.797  1.00  0.00     0.074 A 
ATOM     45  C   UNL A   1      42.382  30.215  35.281  1.00  0.00     0.029 A 
ATOM     46  N   UNL A   1      42.101  29.422  33.223  1.00  0.00    -0.354 N 
ATOM     47  N   UNL A   1      42.765  27.757  30.914  1.00  0.00    -0.248 NA
ATOM     48  C   UNL A   1      44.229  26.317  29.801  1.00  0.00     0.031 C 
ATOM     49  C   UNL A   1      43.417  29.316  35.011  1.00  0.00     0.029 A 
ATOM     50  C   UNL A   1      43.238  28.819  33.730  1.00  0.00     0.049 A 
ATOM     51  H   UNL A   1      41.728  29.263  32.326  1.00  0.00     0.167 HD
ATOM     52  C   UNL A   1      43.820  27.438  31.759  1.00  0.00     0.074 A 
ATOM     53  C   UNL A   1      44.680  26.526  31.033  1.00  0.00     0.031 C 
ATOM     54  C   UNL A   1      44.059  27.876  33.018  1.00  0.00     0.034 A 
BRANCH  41  55
ATOM     55  C   UNL A   1      39.954  31.956  35.122  1.00  0.00     0.023 A 
ATOM     56  C   UNL A   1      40.319  33.316  35.112  1.00  0.00     0.012 A 
ATOM     57  C   UNL A   1      39.101  31.470  36.132  1.00  0.00     0.148 A 
ATOM     58  C   UNL A   1      39.847  34.182  36.099  1.00  0.00     0.002 A 
ATOM     59  C   UNL A   1      38.612  32.344  37.096  1.00  0.00     0.091 A 
ATOM     60  F   UNL A   1      38.778  30.169  36.122  1.00  0.00    -0.205 F 
ATOM     61  C   UNL A   1      38.987  33.698  37.082  1.00  0.00     0.022 A 
BRANCH  59  62
ATOM     62  S   UNL A   1      37.453  31.839  38.372  1.00  0.00     0.127 S 
ATOM     63  O   UNL A   1      36.374  32.810  38.189  1.00  0.00    -0.237 OA
ATOM     64  O   UNL A   1      37.122  30.475  37.961  1.00  0.00    -0.237 OA
ATOM     65  O   UNL A   1      38.171  31.942  39.634  1.00  0.00    -0.744 OA
ENDBRANCH  59  62
ENDBRANCH  41  55
BRANCH  42  66
ATOM     66  C   UNL A   1      42.518  26.186  27.410  1.00  0.00     0.023 A 
ATOM     67  C   UNL A   1      43.361  26.680  26.397  1.00  0.00     0.012 A 
ATOM     68  C   UNL A   1      42.100  24.842  27.369  1.00  0.00     0.148 A 
ATOM     69  C   UNL A   1      43.780  25.851  25.358  1.00  0.00     0.002 A 
ATOM     70  C   UNL A   1      42.557  24.010  26.356  1.00  0.00     0.091 A 
ATOM     71  F   UNL A   1      41.294  24.400  28.344  1.00  0.00    -0.205 F 
ATOM     72  C   UNL A   1      43.389  24.514  25.343  1.00  0.00     0.022 A 
BRANCH  70  73
ATOM     73  S   UNL A   1      42.202  22.250  26.314  1.00  0.00     0.127 S 
ATOM     74  O   UNL A   1      40.752  22.241  26.137  1.00  0.00    -0.237 OA
ATOM     75  O   UNL A   1      42.969  21.820  25.145  1.00  0.00    -0.237 OA
ATOM     76  O   UNL A   1      42.680  21.718  27.583  1.00  0.00    -0.744 OA
ENDBRANCH  70  73
ENDBRANCH  42  66
BRANCH  54  77
ATOM     77  C   UNL A   1      45.293  27.381  33.720  1.00  0.00     0.023 A 
ATOM     78  C   UNL A   1      46.469  28.154  33.672  1.00  0.00     0.012 A 
ATOM     79  C   UNL A   1      45.245  26.231  34.532  1.00  0.00     0.148 A 
ATOM     80  C   UNL A   1      47.585  27.786  34.422  1.00  0.00     0.002 A 
ATOM     81  C   UNL A   1      46.349  25.890  35.302  1.00  0.00     0.091 A 
ATOM     82  F   UNL A   1      44.114  25.512  34.552  1.00  0.00    -0.205 F 
ATOM     83  C   UNL A   1      47.521  26.664  35.245  1.00  0.00     0.022 A 
BRANCH  81  84
ATOM     84  S   UNL A   1      46.341  24.508  36.449  1.00  0.00     0.127 S 
ATOM     85  O   UNL A   1      47.467  24.839  37.321  1.00  0.00    -0.237 OA
ATOM     86  O   UNL A   1      45.026  24.635  37.076  1.00  0.00    -0.237 OA
ATOM     87  O   UNL A   1      46.517  23.309  35.641  1.00  0.00    -0.744 OA
ENDBRANCH  81  84
ENDBRANCH  54  77
ENDBRANCH  28  29
ENDBRANCH  20  23
ENDBRANCH  18  19
ENDBRANCH   1  18
TORSDOF 15
ENDMDL
MODEL 2
REMARK VINA RESULT:     -11.9      2.533      3.392
REMARK SMILES O=C(Cc1ccc(=O)n(C(F)F)c1)NCCCNC(=O)c1ccc(-c2c3nc(c(-c4cccc(S(=O)(=O)[O-])c4F)c4ccc([nH]4)c(-c4cccc(S(=O)(=O)[O-])c4F)c4nc(c(-c5cccc(S(=O)(=O)[O-])c5F)c5ccc2[nH]5)C=C4)C=C3)cc1
REMARK SMILES IDX 16 1 15 2 14 3 1 4 2 5 3 7 4 8 5 9 13 10 6 11 9 12 7 13 8 14
REMARK SMILES IDX 10 15 11 16 12 17 17 18 18 19 19 20 20 22 21 23 22 24 83 25
REMARK SMILES IDX 23 26 82 27 24 28 25 29 26 30 76 31 27 32 81 33 75 34 77 35
REMARK SMILES IDX 28 36 80 37 74 38 73 39 29 41 61 42 41 43 60 44 42 45 45 46
REMARK SMILES IDX 59 47 78 48 43 49 44 50 58 52 79 53 46 54 30 55 31 56 39 57
REMARK SMILES IDX 32 58 34 59 40 60 33 61 35 62 36 63 37 64 38 65 62 66 63 67
REMARK SMILES IDX 71 68 64 69 66 70 72 71 65 72 67 73 68 74 69 75 70 76 47 77
REMARK SMILES IDX 48 78 56 79 49 80 51 81 57 82 50 83 52 84 53 85 54 86 55 87
REMARK H PARENT 14 6 18 21 77 40 45 51
REMARK Flexibility Score: inf
ROOT
ATOM      1  C   UNL A   1      31.984  31.596  27.033  1.00  0.00     0.042 C 
ENDROOT
BRANCH   1   2
ATOM      2  C   UNL A   1      32.456  30.220  26.582  1.00  0.00     0.117 C 
BRANCH   2   3
ATOM      3  N   UNL A   1      31.986  29.887  25.250  1.00  0.00    -0.356 N 
ATOM      4  O   UNL A   1      33.716  28.469  24.718  1.00  0.00    -0.275 OA
ATOM      5  C   UNL A   1      32.662  29.023  24.418  1.00  0.00     0.224 C 
ATOM      6  H   UNL A   1      31.150  30.295  24.929  1.00  0.00     0.163 HD
BRANCH   5   7
ATOM      7  C   UNL A   1      32.013  28.818  23.053  1.00  0.00     0.137 C 
BRANCH   7   8
ATOM      8  C   UNL A   1      30.506  28.822  23.114  1.00  0.00    -0.022 A 
ATOM      9  C   UNL A   1      29.821  27.573  23.381  1.00  0.00     0.011 A 
ATOM     10  C   UNL A   1      29.773  29.931  22.911  1.00  0.00     0.099 A 
ATOM     11  C   UNL A   1      28.484  27.520  23.424  1.00  0.00     0.072 A 
ATOM     12  N   UNL A   1      28.388  29.902  22.946  1.00  0.00    -0.258 N 
ATOM     13  C   UNL A   1      27.669  28.740  23.178  1.00  0.00     0.254 A 
ATOM     14  O   UNL A   1      26.447  28.640  23.191  1.00  0.00    -0.269 OA
BRANCH  12  15
ATOM     15  C   UNL A   1      27.625  31.095  22.679  1.00  0.00     0.451 C 
ATOM     16  F   UNL A   1      27.544  31.871  23.788  1.00  0.00    -0.185 F 
ATOM     17  F   UNL A   1      28.190  31.832  21.692  1.00  0.00    -0.185 F 
ENDBRANCH  12  15
ENDBRANCH   7   8
ENDBRANCH   5   7
ENDBRANCH   2   3
ENDBRANCH   1   2
BRANCH   1  18
ATOM     18  C   UNL A   1      33.106  32.601  27.282  1.00  0.00     0.118 C 
BRANCH  18  19
ATOM     19  N   UNL A   1      32.637  33.895  27.759  1.00  0.00    -0.352 N 
ATOM     20  C   UNL A   1      33.105  34.683  28.787  1.00  0.00     0.251 C 
ATOM     21  H   UNL A   1      31.866  34.264  27.270  1.00  0.00     0.163 HD
ATOM     22  O   UNL A   1      32.485  35.698  29.095  1.00  0.00    -0.269 OA
BRANCH  20  23
ATOM     23  C   UNL A   1      34.316  34.290  29.542  1.00  0.00     0.039 A 
ATOM     24  C   UNL A   1      35.593  34.522  29.031  1.00  0.00     0.014 A 
ATOM     25  C   UNL A   1      34.167  33.656  30.780  1.00  0.00     0.014 A 
ATOM     26  C   UNL A   1      36.700  33.953  29.653  1.00  0.00     0.010 A 
ATOM     27  C   UNL A   1      35.291  33.162  31.450  1.00  0.00     0.010 A 
ATOM     28  C   UNL A   1      36.562  33.250  30.861  1.00  0.00    -0.014 A 
BRANCH  28  29
ATOM     29  C   UNL A   1      37.753  32.604  31.475  1.00  0.00     0.031 A 
ATOM     30  C   UNL A   1      38.257  33.038  32.829  1.00  0.00     0.074 A 
ATOM     31  C   UNL A   1      38.358  31.583  30.835  1.00  0.00     0.049 A 
ATOM     32  N   UNL A   1      39.252  32.553  33.527  1.00  0.00    -0.248 NA
ATOM     33  C   UNL A   1      37.562  34.159  33.484  1.00  0.00     0.031 C 
ATOM     34  C   UNL A   1      37.982  31.079  29.512  1.00  0.00     0.029 A 
ATOM     35  N   UNL A   1      39.404  30.779  31.213  1.00  0.00    -0.354 N 
ATOM     36  C   UNL A   1      39.328  33.328  34.678  1.00  0.00     0.074 A 
ATOM     37  C   UNL A   1      38.283  34.323  34.587  1.00  0.00     0.031 C 
ATOM     38  C   UNL A   1      38.758  30.028  29.207  1.00  0.00     0.029 A 
ATOM     39  C   UNL A   1      39.715  29.810  30.288  1.00  0.00     0.049 A 
ATOM     40  H   UNL A   1      39.885  30.885  32.064  1.00  0.00     0.167 HD
ATOM     41  C   UNL A   1      40.174  33.209  35.727  1.00  0.00     0.034 A 
ATOM     42  C   UNL A   1      40.664  28.855  30.298  1.00  0.00     0.034 A 
ATOM     43  C   UNL A   1      41.176  32.186  35.852  1.00  0.00     0.049 A 
ATOM     44  C   UNL A   1      41.579  28.735  31.482  1.00  0.00     0.074 A 
ATOM     45  C   UNL A   1      42.039  31.959  36.911  1.00  0.00     0.029 A 
ATOM     46  N   UNL A   1      41.448  31.220  34.898  1.00  0.00    -0.354 N 
ATOM     47  N   UNL A   1      41.575  29.427  32.595  1.00  0.00    -0.248 NA
ATOM     48  C   UNL A   1      42.618  27.696  31.422  1.00  0.00     0.031 C 
ATOM     49  C   UNL A   1      42.839  30.858  36.594  1.00  0.00     0.029 A 
ATOM     50  C   UNL A   1      42.466  30.395  35.342  1.00  0.00     0.049 A 
ATOM     51  H   UNL A   1      40.985  31.133  34.034  1.00  0.00     0.167 HD
ATOM     52  C   UNL A   1      42.598  28.900  33.374  1.00  0.00     0.074 A 
ATOM     53  C   UNL A   1      43.191  27.818  32.614  1.00  0.00     0.031 C 
ATOM     54  C   UNL A   1      43.016  29.292  34.601  1.00  0.00     0.034 A 
BRANCH  41  55
ATOM     55  C   UNL A   1      40.027  34.174  36.873  1.00  0.00     0.023 A 
ATOM     56  C   UNL A   1      40.341  35.532  36.670  1.00  0.00     0.012 A 
ATOM     57  C   UNL A   1      39.473  33.762  38.100  1.00  0.00     0.148 A 
ATOM     58  C   UNL A   1      40.112  36.468  37.678  1.00  0.00     0.002 A 
ATOM     59  C   UNL A   1      39.220  34.705  39.089  1.00  0.00     0.091 A 
ATOM     60  F   UNL A   1      39.193  32.461  38.269  1.00  0.00    -0.205 F 
ATOM     61  C   UNL A   1      39.542  36.057  38.880  1.00  0.00     0.022 A 
BRANCH  59  62
ATOM     62  S   UNL A   1      38.437  34.293  40.652  1.00  0.00     0.127 S 
ATOM     63  O   UNL A   1      38.182  35.620  41.212  1.00  0.00    -0.237 OA
ATOM     64  O   UNL A   1      37.240  33.575  40.215  1.00  0.00    -0.237 OA
ATOM     65  O   UNL A   1      39.401  33.486  41.387  1.00  0.00    -0.744 OA
ENDBRANCH  59  62
ENDBRANCH  41  55
BRANCH  42  66
ATOM     66  C   UNL A   1      40.748  27.904  29.158  1.00  0.00     0.023 A 
ATOM     67  C   UNL A   1      39.859  26.814  29.104  1.00  0.00     0.012 A 
ATOM     68  C   UNL A   1      41.643  28.122  28.094  1.00  0.00     0.148 A 
ATOM     69  C   UNL A   1      39.862  25.953  28.008  1.00  0.00     0.002 A 
ATOM     70  C   UNL A   1      41.610  27.286  26.985  1.00  0.00     0.091 A 
ATOM     71  F   UNL A   1      42.480  29.165  28.175  1.00  0.00    -0.205 F 
ATOM     72  C   UNL A   1      40.728  26.195  26.944  1.00  0.00     0.022 A 
BRANCH  70  73
ATOM     73  S   UNL A   1      42.603  27.584  25.519  1.00  0.00     0.127 S 
ATOM     74  O   UNL A   1      42.025  28.828  25.014  1.00  0.00    -0.237 OA
ATOM     75  O   UNL A   1      43.944  27.713  26.089  1.00  0.00    -0.237 OA
ATOM     76  O   UNL A   1      42.415  26.417  24.668  1.00  0.00    -0.744 OA
ENDBRANCH  70  73
ENDBRANCH  42  66
BRANCH  54  77
ATOM     77  C   UNL A   1      44.165  28.554  35.229  1.00  0.00     0.023 A 
ATOM     78  C   UNL A   1      45.482  28.965  34.948  1.00  0.00     0.012 A 
ATOM     79  C   UNL A   1      43.935  27.555  36.194  1.00  0.00     0.148 A 
ATOM     80  C   UNL A   1      46.559  28.387  35.618  1.00  0.00     0.002 A 
ATOM     81  C   UNL A   1      45.011  27.007  36.882  1.00  0.00     0.091 A 
ATOM     82  F   UNL A   1      42.671  27.179  36.435  1.00  0.00    -0.205 F 
ATOM     83  C   UNL A   1      46.323  27.418  36.592  1.00  0.00     0.022 A 
BRANCH  81  84
ATOM     84  S   UNL A   1      44.806  25.810  38.205  1.00  0.00     0.127 S 
ATOM     85  O   UNL A   1      43.946  26.538  39.135  1.00  0.00    -0.237 OA
ATOM     86  O   UNL A   1      44.155  24.696  37.515  1.00  0.00    -0.237 OA
ATOM     87  O   UNL A   1      46.146  25.520  38.700  1.00  0.00    -0.744 OA
ENDBRANCH  81  84
ENDBRANCH  54  77
ENDBRANCH  28  29
ENDBRANCH  20  23
ENDBRANCH  18  19
ENDBRANCH   1  18
TORSDOF 15
ENDMDL
MODEL 3
REMARK VINA RESULT:     -11.8      5.561     10.226
REMARK SMILES O=C(Cc1ccc(=O)n(C(F)F)c1)NCCCNC(=O)c1ccc(-c2c3nc(c(-c4cccc(S(=O)(=O)[O-])c4F)c4ccc([nH]4)c(-c4cccc(S(=O)(=O)[O-])c4F)c4nc(c(-c5cccc(S(=O)(=O)[O-])c5F)c5ccc2[nH]5)C=C4)C=C3)cc1
REMARK SMILES IDX 16 1 15 2 14 3 1 4 2 5 3 7 4 8 5 9 13 10 6 11 9 12 7 13 8 14
REMARK SMILES IDX 10 15 11 16 12 17 17 18 18 19 19 20 20 22 21 23 22 24 83 25
REMARK SMILES IDX 23 26 82 27 24 28 25 29 26 30 76 31 27 32 81 33 75 34 77 35
REMARK SMILES IDX 28 36 80 37 74 38 73 39 29 41 61 42 41 43 60 44 42 45 45 46
REMARK SMILES IDX 59 47 78 48 43 49 44 50 58 52 79 53 46 54 30 55 31 56 39 57
REMARK SMILES IDX 32 58 34 59 40 60 33 61 35 62 36 63 37 64 38 65 62 66 63 67
REMARK SMILES IDX 71 68 64 69 66 70 72 71 65 72 67 73 68 74 69 75 70 76 47 77
REMARK SMILES IDX 48 78 56 79 49 80 51 81 57 82 50 83 52 84 53 85 54 86 55 87
REMARK H PARENT 14 6 18 21 77 40 45 51
REMARK Flexibility Score: inf
ROOT
ATOM      1  C   UNL A   1      35.595  20.407  24.918  1.00  0.00     0.042 C 
ENDROOT
BRANCH   1   2
ATOM      2  C   UNL A   1      34.380  21.307  25.100  1.00  0.00     0.117 C 
BRANCH   2   3
ATOM      3  N   UNL A   1      34.602  22.643  24.580  1.00  0.00    -0.356 N 
ATOM      4  O   UNL A   1      32.403  23.091  24.082  1.00  0.00    -0.275 OA
ATOM      5  C   UNL A   1      33.580  23.438  24.110  1.00  0.00     0.224 C 
ATOM      6  H   UNL A   1      35.521  22.995  24.560  1.00  0.00     0.163 HD
BRANCH   5   7
ATOM      7  C   UNL A   1      34.024  24.801  23.590  1.00  0.00     0.137 C 
BRANCH   7   8
ATOM      8  C   UNL A   1      33.358  25.948  24.308  1.00  0.00    -0.022 A 
ATOM      9  C   UNL A   1      33.865  26.338  25.607  1.00  0.00     0.011 A 
ATOM     10  C   UNL A   1      32.302  26.607  23.801  1.00  0.00     0.099 A 
ATOM     11  C   UNL A   1      33.295  27.336  26.295  1.00  0.00     0.072 A 
ATOM     12  N   UNL A   1      31.691  27.640  24.493  1.00  0.00    -0.258 N 
ATOM     13  C   UNL A   1      32.113  28.054  25.747  1.00  0.00     0.254 A 
ATOM     14  O   UNL A   1      31.598  28.937  26.425  1.00  0.00    -0.269 OA
BRANCH  12  15
ATOM     15  C   UNL A   1      30.531  28.301  23.948  1.00  0.00     0.451 C 
ATOM     16  F   UNL A   1      30.863  29.514  23.443  1.00  0.00    -0.185 F 
ATOM     17  F   UNL A   1      29.971  27.572  22.953  1.00  0.00    -0.185 F 
ENDBRANCH  12  15
ENDBRANCH   7   8
ENDBRANCH   5   7
ENDBRANCH   2   3
ENDBRANCH   1   2
BRANCH   1  18
ATOM     18  C   UNL A   1      36.923  21.044  25.316  1.00  0.00     0.118 C 
BRANCH  18  19
ATOM     19  N   UNL A   1      38.021  20.092  25.421  1.00  0.00    -0.352 N 
ATOM     20  C   UNL A   1      39.307  20.271  25.881  1.00  0.00     0.251 C 
ATOM     21  H   UNL A   1      37.811  19.181  25.116  1.00  0.00     0.163 HD
ATOM     22  O   UNL A   1      40.114  19.351  25.776  1.00  0.00    -0.269 OA
BRANCH  20  23
ATOM     23  C   UNL A   1      39.725  21.570  26.455  1.00  0.00     0.039 A 
ATOM     24  C   UNL A   1      39.143  22.766  26.035  1.00  0.00     0.014 A 
ATOM     25  C   UNL A   1      40.738  21.590  27.419  1.00  0.00     0.014 A 
ATOM     26  C   UNL A   1      39.699  23.980  26.426  1.00  0.00     0.010 A 
ATOM     27  C   UNL A   1      41.237  22.813  27.880  1.00  0.00     0.010 A 
ATOM     28  C   UNL A   1      40.765  24.020  27.340  1.00  0.00    -0.014 A 
BRANCH  28  29
ATOM     29  C   UNL A   1      41.378  25.327  27.697  1.00  0.00     0.031 A 
ATOM     30  C   UNL A   1      42.777  25.673  27.251  1.00  0.00     0.074 A 
ATOM     31  C   UNL A   1      40.655  26.233  28.387  1.00  0.00     0.049 A 
ATOM     32  N   UNL A   1      43.445  26.783  27.436  1.00  0.00    -0.248 NA
ATOM     33  C   UNL A   1      43.524  24.648  26.503  1.00  0.00     0.031 C 
ATOM     34  C   UNL A   1      39.299  26.015  28.895  1.00  0.00     0.029 A 
ATOM     35  N   UNL A   1      40.951  27.518  28.766  1.00  0.00    -0.354 N 
ATOM     36  C   UNL A   1      44.697  26.578  26.868  1.00  0.00     0.074 A 
ATOM     37  C   UNL A   1      44.703  25.235  26.333  1.00  0.00     0.031 C 
ATOM     38  C   UNL A   1      38.866  27.140  29.484  1.00  0.00     0.029 A 
ATOM     39  C   UNL A   1      39.926  28.143  29.436  1.00  0.00     0.049 A 
ATOM     40  H   UNL A   1      41.814  27.951  28.576  1.00  0.00     0.167 HD
ATOM     41  C   UNL A   1      45.738  27.437  26.777  1.00  0.00     0.034 A 
ATOM     42  C   UNL A   1      39.843  29.381  29.960  1.00  0.00     0.034 A 
ATOM     43  C   UNL A   1      45.719  28.793  27.253  1.00  0.00     0.049 A 
ATOM     44  C   UNL A   1      41.007  30.319  29.831  1.00  0.00     0.074 A 
ATOM     45  C   UNL A   1      46.714  29.750  27.150  1.00  0.00     0.029 A 
ATOM     46  N   UNL A   1      44.657  29.388  27.914  1.00  0.00    -0.354 N 
ATOM     47  N   UNL A   1      42.148  30.129  29.214  1.00  0.00    -0.248 NA
ATOM     48  C   UNL A   1      40.871  31.645  30.452  1.00  0.00     0.031 C 
ATOM     49  C   UNL A   1      46.256  30.924  27.754  1.00  0.00     0.029 A 
ATOM     50  C   UNL A   1      44.972  30.698  28.226  1.00  0.00     0.049 A 
ATOM     51  H   UNL A   1      43.805  28.944  28.129  1.00  0.00     0.167 HD
ATOM     52  C   UNL A   1      42.860  31.313  29.361  1.00  0.00     0.074 A 
ATOM     53  C   UNL A   1      42.017  32.222  30.109  1.00  0.00     0.031 C 
ATOM     54  C   UNL A   1      44.108  31.610  28.926  1.00  0.00     0.034 A 
BRANCH  41  55
ATOM     55  C   UNL A   1      46.988  26.968  26.082  1.00  0.00     0.023 A 
ATOM     56  C   UNL A   1      47.143  27.221  24.705  1.00  0.00     0.012 A 
ATOM     57  C   UNL A   1      48.048  26.390  26.808  1.00  0.00     0.148 A 
ATOM     58  C   UNL A   1      48.334  26.898  24.056  1.00  0.00     0.002 A 
ATOM     59  C   UNL A   1      49.242  26.098  26.160  1.00  0.00     0.091 A 
ATOM     60  F   UNL A   1      47.869  26.152  28.115  1.00  0.00    -0.205 F 
ATOM     61  C   UNL A   1      49.385  26.348  24.785  1.00  0.00     0.022 A 
BRANCH  59  62
ATOM     62  S   UNL A   1      50.679  25.441  27.016  1.00  0.00     0.127 S 
ATOM     63  O   UNL A   1      50.113  24.266  27.680  1.00  0.00    -0.237 OA
ATOM     64  O   UNL A   1      51.583  25.137  25.906  1.00  0.00    -0.237 OA
ATOM     65  O   UNL A   1      51.136  26.496  27.909  1.00  0.00    -0.744 OA
ENDBRANCH  59  62
ENDBRANCH  41  55
BRANCH  42  66
ATOM     66  C   UNL A   1      38.574  29.810  30.608  1.00  0.00     0.023 A 
ATOM     67  C   UNL A   1      38.348  29.488  31.958  1.00  0.00     0.012 A 
ATOM     68  C   UNL A   1      37.638  30.602  29.917  1.00  0.00     0.148 A 
ATOM     69  C   UNL A   1      37.205  29.946  32.612  1.00  0.00     0.002 A 
ATOM     70  C   UNL A   1      36.523  31.091  30.586  1.00  0.00     0.091 A 
ATOM     71  F   UNL A   1      37.878  30.888  28.630  1.00  0.00    -0.205 F 
ATOM     72  C   UNL A   1      36.299  30.756  31.931  1.00  0.00     0.022 A 
BRANCH  70  73
ATOM     73  S   UNL A   1      35.363  32.234  29.829  1.00  0.00     0.127 S 
ATOM     74  O   UNL A   1      34.425  32.475  30.923  1.00  0.00    -0.237 OA
ATOM     75  O   UNL A   1      36.232  33.364  29.501  1.00  0.00    -0.237 OA
ATOM     76  O   UNL A   1      34.813  31.535  28.675  1.00  0.00    -0.744 OA
ENDBRANCH  70  73
ENDBRANCH  42  66
BRANCH  54  77
ATOM     77  C   UNL A   1      44.659  32.975  29.228  1.00  0.00     0.023 A 
ATOM     78  C   UNL A   1      45.391  33.175  30.414  1.00  0.00     0.012 A 
ATOM     79  C   UNL A   1      44.569  34.012  28.279  1.00  0.00     0.148 A 
ATOM     80  C   UNL A   1      46.026  34.393  30.654  1.00  0.00     0.002 A 
ATOM     81  C   UNL A   1      45.232  35.211  28.510  1.00  0.00     0.091 A 
ATOM     82  F   UNL A   1      43.860  33.795  27.163  1.00  0.00    -0.205 F 
ATOM     83  C   UNL A   1      45.956  35.405  29.698  1.00  0.00     0.022 A 
BRANCH  81  84
ATOM     84  S   UNL A   1      45.266  36.546  27.309  1.00  0.00     0.127 S 
ATOM     85  O   UNL A   1      46.018  37.573  28.027  1.00  0.00    -0.237 OA
ATOM     86  O   UNL A   1      45.981  35.935  26.189  1.00  0.00    -0.237 OA
ATOM     87  O   UNL A   1      43.874  36.879  27.033  1.00  0.00    -0.744 OA
ENDBRANCH  81  84
ENDBRANCH  54  77
ENDBRANCH  28  29
ENDBRANCH  20  23
ENDBRANCH  18  19
ENDBRANCH   1  18
TORSDOF 15
ENDMDL
