MODEL 1
REMARK VINA RESULT:     -11.8      0.000      0.000
REMARK SMILES CC(C)(C)c1ccc(C(=O)C[C@H](C(=O)NCCCNC(=O)c2ccc(-c3c4nc(c(-c5cccc(S(=O)(=O)[O-])c5F)c5ccc([nH]5)c(-c5cccc(S(=O)(=O)[O-])c5F)c5nc(c(-c6cccc(S(=O)(=O)[O-])c6F)c6ccc3[nH]6)C=C5)C=C4)cc2)[NH+]2CCCC2)cc1
REMARK SMILES IDX 16 1 15 2 13 3 14 4 12 6 11 7 9 8 10 9 8 10 5 11 6 12 91 13
REMARK SMILES IDX 7 14 90 15 2 16 1 17 3 18 4 19 85 20 86 21 89 22 87 24 88 25
REMARK SMILES IDX 17 26 18 27 19 28 20 29 21 31 22 32 23 33 84 34 24 35 83 36
REMARK SMILES IDX 25 37 26 38 27 39 77 40 28 41 82 42 76 43 78 44 29 45 81 46
REMARK SMILES IDX 75 47 74 48 30 50 62 51 42 52 61 53 43 54 46 55 60 56 79 57
REMARK SMILES IDX 44 58 45 59 59 61 80 62 47 63 31 64 32 65 40 66 33 67 35 68
REMARK SMILES IDX 41 69 34 70 36 71 37 72 38 73 39 74 63 75 64 76 72 77 65 78
REMARK SMILES IDX 67 79 73 80 66 81 68 82 69 83 70 84 71 85 48 86 49 87 57 88
REMARK SMILES IDX 50 89 52 90 58 91 51 92 53 93 54 94 55 95 56 96
REMARK H PARENT 15 5 85 23 19 30 78 49 46 60
REMARK Flexibility Score: inf
ROOT
ATOM      1  C   UNL A   1      31.576  28.098  26.340  1.00  0.00     0.118 C 
ENDROOT
BRANCH   1   2
ATOM      2  N   UNL A   1      31.290  26.677  26.367  1.00  0.00    -0.351 N 
ATOM      3  C   UNL A   1      31.745  25.648  25.600  1.00  0.00     0.278 C 
ATOM      4  O   UNL A   1      31.183  24.568  25.784  1.00  0.00    -0.268 OA
ATOM      5  H   UNL A   1      30.653  26.407  27.066  1.00  0.00     0.163 HD
BRANCH   3   6
ATOM      6  C   UNL A   1      32.947  25.858  24.655  1.00  0.00     0.281 C 
BRANCH   6   7
ATOM      7  C   UNL A   1      34.060  24.809  24.885  1.00  0.00     0.156 C 
BRANCH   7   8
ATOM      8  C   UNL A   1      34.260  23.724  23.836  1.00  0.00     0.169 C 
ATOM      9  O   UNL A   1      34.753  23.965  22.734  1.00  0.00    -0.294 OA
BRANCH   8  10
ATOM     10  C   UNL A   1      33.878  22.325  24.150  1.00  0.00     0.018 A 
ATOM     11  C   UNL A   1      33.506  19.534  24.321  1.00  0.00    -0.043 A 
ATOM     12  C   UNL A   1      34.607  20.160  24.932  1.00  0.00     0.005 A 
ATOM     13  C   UNL A   1      32.543  20.365  23.715  1.00  0.00     0.005 A 
ATOM     14  C   UNL A   1      34.786  21.543  24.862  1.00  0.00     0.012 A 
ATOM     15  C   UNL A   1      32.713  21.752  23.650  1.00  0.00     0.012 A 
BRANCH  11  16
ATOM     16  C   UNL A   1      33.400  18.002  24.217  1.00  0.00    -0.013 C 
ATOM     17  C   UNL A   1      32.735  17.530  22.905  1.00  0.00     0.016 C 
ATOM     18  C   UNL A   1      32.543  17.494  25.396  1.00  0.00     0.016 C 
ATOM     19  C   UNL A   1      34.788  17.328  24.286  1.00  0.00     0.016 C 
ENDBRANCH  11  16
ENDBRANCH   8  10
ENDBRANCH   7   8
ENDBRANCH   6   7
BRANCH   6  20
ATOM     20  N   UNL A   1      32.620  26.082  23.220  1.00  0.00    -0.324 N 
ATOM     21  C   UNL A   1      33.283  27.260  22.642  1.00  0.00     0.263 C 
ATOM     22  C   UNL A   1      31.199  26.232  22.879  1.00  0.00     0.263 C 
ATOM     23  H   UNL A   1      32.964  25.206  22.827  1.00  0.00     0.348 HD
ATOM     24  C   UNL A   1      32.284  28.395  22.744  1.00  0.00     0.067 C 
ATOM     25  C   UNL A   1      30.943  27.708  22.570  1.00  0.00     0.067 C 
ENDBRANCH   6  20
ENDBRANCH   3   6
ENDBRANCH   1   2
BRANCH   1  26
ATOM     26  C   UNL A   1      32.756  28.432  27.244  1.00  0.00     0.042 C 
BRANCH  26  27
ATOM     27  C   UNL A   1      33.815  29.322  26.600  1.00  0.00     0.118 C 
BRANCH  27  28
ATOM     28  N   UNL A   1      33.790  30.693  27.091  1.00  0.00    -0.352 N 
ATOM     29  C   UNL A   1      34.678  31.316  27.941  1.00  0.00     0.251 C 
ATOM     30  H   UNL A   1      33.040  31.246  26.775  1.00  0.00     0.163 HD
ATOM     31  O   UNL A   1      34.436  32.436  28.365  1.00  0.00    -0.269 OA
BRANCH  29  32
ATOM     32  C   UNL A   1      35.908  30.603  28.353  1.00  0.00     0.039 A 
ATOM     33  C   UNL A   1      37.082  30.812  27.630  1.00  0.00     0.014 A 
ATOM     34  C   UNL A   1      35.903  29.755  29.464  1.00  0.00     0.014 A 
ATOM     35  C   UNL A   1      38.272  30.216  28.058  1.00  0.00     0.010 A 
ATOM     36  C   UNL A   1      37.103  29.224  29.931  1.00  0.00     0.010 A 
ATOM     37  C   UNL A   1      38.300  29.443  29.231  1.00  0.00    -0.014 A 
BRANCH  37  38
ATOM     38  C   UNL A   1      39.572  28.864  29.742  1.00  0.00     0.031 A 
ATOM     39  C   UNL A   1      40.299  29.520  30.885  1.00  0.00     0.074 A 
ATOM     40  C   UNL A   1      40.115  27.796  29.121  1.00  0.00     0.049 A 
ATOM     41  N   UNL A   1      41.437  29.184  31.437  1.00  0.00    -0.248 NA
ATOM     42  C   UNL A   1      39.689  30.728  31.469  1.00  0.00     0.031 C 
ATOM     43  C   UNL A   1      39.559  27.126  27.943  1.00  0.00     0.029 A 
ATOM     44  N   UNL A   1      41.275  27.107  29.375  1.00  0.00    -0.354 N 
ATOM     45  C   UNL A   1      41.699  30.157  32.395  1.00  0.00     0.074 A 
ATOM     46  C   UNL A   1      40.614  31.110  32.337  1.00  0.00     0.031 C 
ATOM     47  C   UNL A   1      40.377  26.127  27.576  1.00  0.00     0.029 A 
ATOM     48  C   UNL A   1      41.530  26.099  28.472  1.00  0.00     0.049 A 
ATOM     49  H   UNL A   1      41.870  27.313  30.133  1.00  0.00     0.167 HD
ATOM     50  C   UNL A   1      42.738  30.236  33.259  1.00  0.00     0.034 A 
ATOM     51  C   UNL A   1      42.577  25.257  28.369  1.00  0.00     0.034 A 
ATOM     52  C   UNL A   1      43.783  29.254  33.358  1.00  0.00     0.049 A 
ATOM     53  C   UNL A   1      43.676  25.326  29.395  1.00  0.00     0.074 A 
ATOM     54  C   UNL A   1      44.810  29.185  34.283  1.00  0.00     0.029 A 
ATOM     55  N   UNL A   1      43.945  28.179  32.499  1.00  0.00    -0.354 N 
ATOM     56  N   UNL A   1      43.804  26.140  30.415  1.00  0.00    -0.248 NA
ATOM     57  C   UNL A   1      44.755  24.333  29.285  1.00  0.00     0.031 C 
ATOM     58  C   UNL A   1      45.611  28.085  33.966  1.00  0.00     0.029 A 
ATOM     59  C   UNL A   1      45.062  27.449  32.865  1.00  0.00     0.049 A 
ATOM     60  H   UNL A   1      43.353  27.967  31.742  1.00  0.00     0.167 HD
ATOM     61  C   UNL A   1      44.949  25.732  31.088  1.00  0.00     0.074 A 
ATOM     62  C   UNL A   1      45.466  24.582  30.377  1.00  0.00     0.031 C 
ATOM     63  C   UNL A   1      45.529  26.267  32.189  1.00  0.00     0.034 A 
BRANCH  50  64
ATOM     64  C   UNL A   1      42.784  31.399  34.214  1.00  0.00     0.023 A 
ATOM     65  C   UNL A   1      43.431  32.591  33.833  1.00  0.00     0.012 A 
ATOM     66  C   UNL A   1      42.092  31.346  35.440  1.00  0.00     0.148 A 
ATOM     67  C   UNL A   1      43.404  33.709  34.667  1.00  0.00     0.002 A 
ATOM     68  C   UNL A   1      42.031  32.478  36.244  1.00  0.00     0.091 A 
ATOM     69  F   UNL A   1      41.501  30.195  35.791  1.00  0.00    -0.205 F 
ATOM     70  C   UNL A   1      42.694  33.656  35.864  1.00  0.00     0.022 A 
BRANCH  68  71
ATOM     71  S   UNL A   1      41.073  32.541  37.761  1.00  0.00     0.127 S 
ATOM     72  O   UNL A   1      41.902  31.747  38.668  1.00  0.00    -0.237 OA
ATOM     73  O   UNL A   1      41.055  33.975  38.051  1.00  0.00    -0.237 OA
ATOM     74  O   UNL A   1      39.774  31.964  37.444  1.00  0.00    -0.744 OA
ENDBRANCH  68  71
ENDBRANCH  50  64
BRANCH  51  75
ATOM     75  C   UNL A   1      42.621  24.237  27.281  1.00  0.00     0.023 A 
ATOM     76  C   UNL A   1      43.274  24.539  26.069  1.00  0.00     0.012 A 
ATOM     77  C   UNL A   1      42.010  22.978  27.435  1.00  0.00     0.148 A 
ATOM     78  C   UNL A   1      43.272  23.625  25.014  1.00  0.00     0.002 A 
ATOM     79  C   UNL A   1      42.065  22.050  26.401  1.00  0.00     0.091 A 
ATOM     80  F   UNL A   1      41.381  22.712  28.588  1.00  0.00    -0.205 F 
ATOM     81  C   UNL A   1      42.676  22.379  25.182  1.00  0.00     0.022 A 
BRANCH  79  82
ATOM     82  S   UNL A   1      41.443  20.376  26.591  1.00  0.00     0.127 S 
ATOM     83  O   UNL A   1      40.006  20.568  26.422  1.00  0.00    -0.237 OA
ATOM     84  O   UNL A   1      42.107  19.677  25.490  1.00  0.00    -0.237 OA
ATOM     85  O   UNL A   1      41.880  19.949  27.914  1.00  0.00    -0.744 OA
ENDBRANCH  79  82
ENDBRANCH  51  75
BRANCH  63  86
ATOM     86  C   UNL A   1      46.759  25.591  32.736  1.00  0.00     0.023 A 
ATOM     87  C   UNL A   1      48.040  26.027  32.342  1.00  0.00     0.012 A 
ATOM     88  C   UNL A   1      46.642  24.568  33.697  1.00  0.00     0.148 A 
ATOM     89  C   UNL A   1      49.184  25.427  32.867  1.00  0.00     0.002 A 
ATOM     90  C   UNL A   1      47.786  24.013  34.256  1.00  0.00     0.091 A 
ATOM     91  F   UNL A   1      45.415  24.154  34.047  1.00  0.00    -0.205 F 
ATOM     92  C   UNL A   1      49.057  24.429  33.832  1.00  0.00     0.022 A 
BRANCH  90  93
ATOM     93  S   UNL A   1      47.714  22.797  35.577  1.00  0.00     0.127 S 
ATOM     94  O   UNL A   1      47.010  21.693  34.928  1.00  0.00    -0.237 OA
ATOM     95  O   UNL A   1      49.131  22.544  35.844  1.00  0.00    -0.237 OA
ATOM     96  O   UNL A   1      47.001  23.438  36.672  1.00  0.00    -0.744 OA
ENDBRANCH  90  93
ENDBRANCH  63  86
ENDBRANCH  37  38
ENDBRANCH  29  32
ENDBRANCH  27  28
ENDBRANCH  26  27
ENDBRANCH   1  26
TORSDOF 18
ENDMDL
MODEL 2
REMARK VINA RESULT:     -11.6      1.981      2.687
REMARK SMILES CC(C)(C)c1ccc(C(=O)C[C@H](C(=O)NCCCNC(=O)c2ccc(-c3c4nc(c(-c5cccc(S(=O)(=O)[O-])c5F)c5ccc([nH]5)c(-c5cccc(S(=O)(=O)[O-])c5F)c5nc(c(-c6cccc(S(=O)(=O)[O-])c6F)c6ccc3[nH]6)C=C5)C=C4)cc2)[NH+]2CCCC2)cc1
REMARK SMILES IDX 16 1 15 2 13 3 14 4 12 6 11 7 9 8 10 9 8 10 5 11 6 12 91 13
REMARK SMILES IDX 7 14 90 15 2 16 1 17 3 18 4 19 85 20 86 21 89 22 87 24 88 25
REMARK SMILES IDX 17 26 18 27 19 28 20 29 21 31 22 32 23 33 84 34 24 35 83 36
REMARK SMILES IDX 25 37 26 38 27 39 77 40 28 41 82 42 76 43 78 44 29 45 81 46
REMARK SMILES IDX 75 47 74 48 30 50 62 51 42 52 61 53 43 54 46 55 60 56 79 57
REMARK SMILES IDX 44 58 45 59 59 61 80 62 47 63 31 64 32 65 40 66 33 67 35 68
REMARK SMILES IDX 41 69 34 70 36 71 37 72 38 73 39 74 63 75 64 76 72 77 65 78
REMARK SMILES IDX 67 79 73 80 66 81 68 82 69 83 70 84 71 85 48 86 49 87 57 88
REMARK SMILES IDX 50 89 52 90 58 91 51 92 53 93 54 94 55 95 56 96
REMARK H PARENT 15 5 85 23 19 30 78 49 46 60
REMARK Flexibility Score: inf
ROOT
ATOM      1  C   UNL A   1      33.417  27.868  24.934  1.00  0.00     0.118 C 
ENDROOT
BRANCH   1   2
ATOM      2  N   UNL A   1      31.977  27.803  25.090  1.00  0.00    -0.351 N 
ATOM      3  C   UNL A   1      31.084  26.806  24.837  1.00  0.00     0.278 C 
ATOM      4  O   UNL A   1      29.899  27.127  24.933  1.00  0.00    -0.268 OA
ATOM      5  H   UNL A   1      31.572  28.627  25.441  1.00  0.00     0.163 HD
BRANCH   3   6
ATOM      6  C   UNL A   1      31.582  25.374  24.551  1.00  0.00     0.281 C 
BRANCH   6   7
ATOM      7  C   UNL A   1      30.793  24.312  25.354  1.00  0.00     0.156 C 
BRANCH   7   8
ATOM      8  C   UNL A   1      31.488  23.624  26.520  1.00  0.00     0.169 C 
ATOM      9  O   UNL A   1      30.894  23.344  27.561  1.00  0.00    -0.294 OA
BRANCH   8  10
ATOM     10  C   UNL A   1      32.918  23.248  26.398  1.00  0.00     0.018 A 
ATOM     11  C   UNL A   1      35.556  22.633  25.610  1.00  0.00    -0.043 A 
ATOM     12  C   UNL A   1      35.152  23.963  25.823  1.00  0.00     0.005 A 
ATOM     13  C   UNL A   1      34.626  21.618  25.910  1.00  0.00     0.005 A 
ATOM     14  C   UNL A   1      33.851  24.270  26.227  1.00  0.00     0.012 A 
ATOM     15  C   UNL A   1      33.325  21.919  26.325  1.00  0.00     0.012 A 
BRANCH  11  16
ATOM     16  C   UNL A   1      36.916  22.291  24.976  1.00  0.00    -0.013 C 
ATOM     17  C   UNL A   1      38.110  22.898  25.745  1.00  0.00     0.016 C 
ATOM     18  C   UNL A   1      36.937  22.854  23.539  1.00  0.00     0.016 C 
ATOM     19  C   UNL A   1      37.149  20.765  24.914  1.00  0.00     0.016 C 
ENDBRANCH  11  16
ENDBRANCH   8  10
ENDBRANCH   7   8
ENDBRANCH   6   7
BRANCH   6  20
ATOM     20  N   UNL A   1      31.775  25.022  23.118  1.00  0.00    -0.324 N 
ATOM     21  C   UNL A   1      31.305  23.671  22.775  1.00  0.00     0.263 C 
ATOM     22  C   UNL A   1      33.145  25.099  22.594  1.00  0.00     0.263 C 
ATOM     23  H   UNL A   1      31.212  25.754  22.684  1.00  0.00     0.348 HD
ATOM     24  C   UNL A   1      32.521  22.771  22.857  1.00  0.00     0.067 C 
ATOM     25  C   UNL A   1      33.661  23.670  22.417  1.00  0.00     0.067 C 
ENDBRANCH   6  20
ENDBRANCH   3   6
ENDBRANCH   1   2
BRANCH   1  26
ATOM     26  C   UNL A   1      34.104  27.983  26.290  1.00  0.00     0.042 C 
BRANCH  26  27
ATOM     27  C   UNL A   1      33.265  28.661  27.369  1.00  0.00     0.118 C 
BRANCH  27  28
ATOM     28  N   UNL A   1      33.390  30.112  27.368  1.00  0.00    -0.352 N 
ATOM     29  C   UNL A   1      34.441  30.884  27.811  1.00  0.00     0.251 C 
ATOM     30  H   UNL A   1      32.621  30.607  27.003  1.00  0.00     0.163 HD
ATOM     31  O   UNL A   1      34.330  32.099  27.865  1.00  0.00    -0.269 OA
BRANCH  29  32
ATOM     32  C   UNL A   1      35.692  30.221  28.247  1.00  0.00     0.039 A 
ATOM     33  C   UNL A   1      36.791  30.225  27.387  1.00  0.00     0.014 A 
ATOM     34  C   UNL A   1      35.783  29.624  29.507  1.00  0.00     0.014 A 
ATOM     35  C   UNL A   1      38.005  29.682  27.817  1.00  0.00     0.010 A 
ATOM     36  C   UNL A   1      37.013  29.153  29.960  1.00  0.00     0.010 A 
ATOM     37  C   UNL A   1      38.136  29.170  29.119  1.00  0.00    -0.014 A 
BRANCH  37  38
ATOM     38  C   UNL A   1      39.441  28.657  29.617  1.00  0.00     0.031 A 
ATOM     39  C   UNL A   1      40.169  29.379  30.719  1.00  0.00     0.074 A 
ATOM     40  C   UNL A   1      40.010  27.590  29.019  1.00  0.00     0.049 A 
ATOM     41  N   UNL A   1      41.331  29.105  31.254  1.00  0.00    -0.248 NA
ATOM     42  C   UNL A   1      39.527  30.582  31.277  1.00  0.00     0.031 C 
ATOM     43  C   UNL A   1      39.453  26.859  27.878  1.00  0.00     0.029 A 
ATOM     44  N   UNL A   1      41.202  26.954  29.267  1.00  0.00    -0.354 N 
ATOM     45  C   UNL A   1      41.578  30.120  32.172  1.00  0.00     0.074 A 
ATOM     46  C   UNL A   1      40.457  31.028  32.109  1.00  0.00     0.031 C 
ATOM     47  C   UNL A   1      40.301  25.880  27.525  1.00  0.00     0.029 A 
ATOM     48  C   UNL A   1      41.474  25.927  28.392  1.00  0.00     0.049 A 
ATOM     49  H   UNL A   1      41.806  27.208  30.002  1.00  0.00     0.167 HD
ATOM     50  C   UNL A   1      42.633  30.268  33.007  1.00  0.00     0.034 A 
ATOM     51  C   UNL A   1      42.550  25.121  28.292  1.00  0.00     0.034 A 
ATOM     52  C   UNL A   1      43.717  29.330  33.113  1.00  0.00     0.049 A 
ATOM     53  C   UNL A   1      43.670  25.268  29.288  1.00  0.00     0.074 A 
ATOM     54  C   UNL A   1      44.767  29.331  34.014  1.00  0.00     0.029 A 
ATOM     55  N   UNL A   1      43.901  28.233  32.287  1.00  0.00    -0.354 N 
ATOM     56  N   UNL A   1      43.789  26.120  30.276  1.00  0.00    -0.248 NA
ATOM     57  C   UNL A   1      44.783  24.313  29.184  1.00  0.00     0.031 C 
ATOM     58  C   UNL A   1      45.603  28.253  33.715  1.00  0.00     0.029 A 
ATOM     59  C   UNL A   1      45.053  27.558  32.649  1.00  0.00     0.049 A 
ATOM     60  H   UNL A   1      43.300  27.973  31.552  1.00  0.00     0.167 HD
ATOM     61  C   UNL A   1      44.965  25.778  30.934  1.00  0.00     0.074 A 
ATOM     62  C   UNL A   1      45.510  24.625  30.249  1.00  0.00     0.031 C 
ATOM     63  C   UNL A   1      45.550  26.373  32.002  1.00  0.00     0.034 A 
BRANCH  50  64
ATOM     64  C   UNL A   1      42.656  31.464  33.922  1.00  0.00     0.023 A 
ATOM     65  C   UNL A   1      43.145  32.697  33.447  1.00  0.00     0.012 A 
ATOM     66  C   UNL A   1      42.093  31.390  35.211  1.00  0.00     0.148 A 
ATOM     67  C   UNL A   1      43.090  33.837  34.249  1.00  0.00     0.002 A 
ATOM     68  C   UNL A   1      41.999  32.540  35.986  1.00  0.00     0.091 A 
ATOM     69  F   UNL A   1      41.652  30.202  35.648  1.00  0.00    -0.205 F 
ATOM     70  C   UNL A   1      42.505  33.761  35.511  1.00  0.00     0.022 A 
BRANCH  68  71
ATOM     71  S   UNL A   1      41.188  32.567  37.588  1.00  0.00     0.127 S 
ATOM     72  O   UNL A   1      41.319  33.975  37.961  1.00  0.00    -0.237 OA
ATOM     73  O   UNL A   1      39.827  32.152  37.247  1.00  0.00    -0.237 OA
ATOM     74  O   UNL A   1      41.920  31.631  38.429  1.00  0.00    -0.744 OA
ENDBRANCH  68  71
ENDBRANCH  50  64
BRANCH  51  75
ATOM     75  C   UNL A   1      42.608  24.067  27.237  1.00  0.00     0.023 A 
ATOM     76  C   UNL A   1      43.238  24.345  26.007  1.00  0.00     0.012 A 
ATOM     77  C   UNL A   1      42.034  22.799  27.441  1.00  0.00     0.148 A 
ATOM     78  C   UNL A   1      43.248  23.397  24.983  1.00  0.00     0.002 A 
ATOM     79  C   UNL A   1      42.100  21.838  26.438  1.00  0.00     0.091 A 
ATOM     80  F   UNL A   1      41.426  22.555  28.611  1.00  0.00    -0.205 F 
ATOM     81  C   UNL A   1      42.687  22.142  25.200  1.00  0.00     0.022 A 
BRANCH  79  82
ATOM     82  S   UNL A   1      41.527  20.155  26.692  1.00  0.00     0.127 S 
ATOM     83  O   UNL A   1      41.877  19.524  25.423  1.00  0.00    -0.237 OA
ATOM     84  O   UNL A   1      42.332  19.727  27.837  1.00  0.00    -0.237 OA
ATOM     85  O   UNL A   1      40.103  20.271  26.977  1.00  0.00    -0.744 OA
ENDBRANCH  79  82
ENDBRANCH  51  75
BRANCH  63  86
ATOM     86  C   UNL A   1      46.817  25.763  32.541  1.00  0.00     0.023 A 
ATOM     87  C   UNL A   1      46.770  24.910  33.662  1.00  0.00     0.012 A 
ATOM     88  C   UNL A   1      48.046  25.979  31.889  1.00  0.00     0.148 A 
ATOM     89  C   UNL A   1      47.934  24.317  34.149  1.00  0.00     0.002 A 
ATOM     90  C   UNL A   1      49.192  25.341  32.346  1.00  0.00     0.091 A 
ATOM     91  F   UNL A   1      48.075  26.808  30.834  1.00  0.00    -0.205 F 
ATOM     92  C   UNL A   1      49.141  24.522  33.485  1.00  0.00     0.022 A 
BRANCH  90  93
ATOM     93  S   UNL A   1      50.766  25.468  31.491  1.00  0.00     0.127 S 
ATOM     94  O   UNL A   1      51.103  26.877  31.693  1.00  0.00    -0.237 OA
ATOM     95  O   UNL A   1      51.603  24.528  32.238  1.00  0.00    -0.237 OA
ATOM     96  O   UNL A   1      50.506  25.078  30.113  1.00  0.00    -0.744 OA
ENDBRANCH  90  93
ENDBRANCH  63  86
ENDBRANCH  37  38
ENDBRANCH  29  32
ENDBRANCH  27  28
ENDBRANCH  26  27
ENDBRANCH   1  26
TORSDOF 18
ENDMDL
MODEL 3
REMARK VINA RESULT:     -11.2      2.023      2.643
REMARK SMILES CC(C)(C)c1ccc(C(=O)C[C@H](C(=O)NCCCNC(=O)c2ccc(-c3c4nc(c(-c5cccc(S(=O)(=O)[O-])c5F)c5ccc([nH]5)c(-c5cccc(S(=O)(=O)[O-])c5F)c5nc(c(-c6cccc(S(=O)(=O)[O-])c6F)c6ccc3[nH]6)C=C5)C=C4)cc2)[NH+]2CCCC2)cc1
REMARK SMILES IDX 16 1 15 2 13 3 14 4 12 6 11 7 9 8 10 9 8 10 5 11 6 12 91 13
REMARK SMILES IDX 7 14 90 15 2 16 1 17 3 18 4 19 85 20 86 21 89 22 87 24 88 25
REMARK SMILES IDX 17 26 18 27 19 28 20 29 21 31 22 32 23 33 84 34 24 35 83 36
REMARK SMILES IDX 25 37 26 38 27 39 77 40 28 41 82 42 76 43 78 44 29 45 81 46
REMARK SMILES IDX 75 47 74 48 30 50 62 51 42 52 61 53 43 54 46 55 60 56 79 57
REMARK SMILES IDX 44 58 45 59 59 61 80 62 47 63 31 64 32 65 40 66 33 67 35 68
REMARK SMILES IDX 41 69 34 70 36 71 37 72 38 73 39 74 63 75 64 76 72 77 65 78
REMARK SMILES IDX 67 79 73 80 66 81 68 82 69 83 70 84 71 85 48 86 49 87 57 88
REMARK SMILES IDX 50 89 52 90 58 91 51 92 53 93 54 94 55 95 56 96
REMARK H PARENT 15 5 85 23 19 30 78 49 46 60
REMARK Flexibility Score: inf
ROOT
ATOM      1  C   UNL A   1      32.234  27.508  26.531  1.00  0.00     0.118 C 
ENDROOT
BRANCH   1   2
ATOM      2  N   UNL A   1      31.045  26.980  25.891  1.00  0.00    -0.351 N 
ATOM      3  C   UNL A   1      30.566  27.111  24.623  1.00  0.00     0.278 C 
ATOM      4  O   UNL A   1      29.435  26.659  24.440  1.00  0.00    -0.268 OA
ATOM      5  H   UNL A   1      30.482  26.428  26.479  1.00  0.00     0.163 HD
BRANCH   3   6
ATOM      6  C   UNL A   1      31.460  27.705  23.514  1.00  0.00     0.281 C 
BRANCH   6   7
ATOM      7  C   UNL A   1      31.460  26.832  22.237  1.00  0.00     0.156 C 
BRANCH   7   8
ATOM      8  C   UNL A   1      32.701  26.007  21.924  1.00  0.00     0.169 C 
ATOM      9  O   UNL A   1      33.283  26.088  20.843  1.00  0.00    -0.294 OA
BRANCH   8  10
ATOM     10  C   UNL A   1      33.250  25.096  22.958  1.00  0.00     0.018 A 
ATOM     11  C   UNL A   1      34.788  23.441  24.647  1.00  0.00    -0.043 A 
ATOM     12  C   UNL A   1      34.763  24.836  24.822  1.00  0.00     0.005 A 
ATOM     13  C   UNL A   1      33.934  22.896  23.668  1.00  0.00     0.005 A 
ATOM     14  C   UNL A   1      33.991  25.657  23.997  1.00  0.00     0.012 A 
ATOM     15  C   UNL A   1      33.152  23.713  22.845  1.00  0.00     0.012 A 
BRANCH  11  16
ATOM     16  C   UNL A   1      35.780  22.546  25.412  1.00  0.00    -0.013 C 
ATOM     17  C   UNL A   1      36.175  21.275  24.627  1.00  0.00     0.016 C 
ATOM     18  C   UNL A   1      35.117  22.105  26.733  1.00  0.00     0.016 C 
ATOM     19  C   UNL A   1      37.090  23.297  25.740  1.00  0.00     0.016 C 
ENDBRANCH  11  16
ENDBRANCH   8  10
ENDBRANCH   7   8
ENDBRANCH   6   7
BRANCH   6  20
ATOM     20  N   UNL A   1      31.293  29.159  23.248  1.00  0.00    -0.324 N 
ATOM     21  C   UNL A   1      30.211  29.780  24.027  1.00  0.00     0.263 C 
ATOM     22  C   UNL A   1      31.042  29.555  21.856  1.00  0.00     0.263 C 
ATOM     23  H   UNL A   1      32.216  29.492  23.527  1.00  0.00     0.348 HD
ATOM     24  C   UNL A   1      28.991  29.774  23.128  1.00  0.00     0.067 C 
ATOM     25  C   UNL A   1      29.571  29.953  21.738  1.00  0.00     0.067 C 
ENDBRANCH   6  20
ENDBRANCH   3   6
ENDBRANCH   1   2
BRANCH   1  26
ATOM     26  C   UNL A   1      32.049  28.976  26.894  1.00  0.00     0.042 C 
BRANCH  26  27
ATOM     27  C   UNL A   1      33.115  29.908  26.325  1.00  0.00     0.118 C 
BRANCH  27  28
ATOM     28  N   UNL A   1      32.964  31.289  26.761  1.00  0.00    -0.352 N 
ATOM     29  C   UNL A   1      33.747  32.003  27.641  1.00  0.00     0.251 C 
ATOM     30  H   UNL A   1      32.201  31.777  26.375  1.00  0.00     0.163 HD
ATOM     31  O   UNL A   1      33.401  33.116  28.005  1.00  0.00    -0.269 OA
BRANCH  29  32
ATOM     32  C   UNL A   1      34.992  31.392  28.160  1.00  0.00     0.039 A 
ATOM     33  C   UNL A   1      36.168  32.143  28.143  1.00  0.00     0.014 A 
ATOM     34  C   UNL A   1      34.988  30.097  28.685  1.00  0.00     0.014 A 
ATOM     35  C   UNL A   1      37.331  31.616  28.710  1.00  0.00     0.010 A 
ATOM     36  C   UNL A   1      36.128  29.605  29.315  1.00  0.00     0.010 A 
ATOM     37  C   UNL A   1      37.314  30.355  29.330  1.00  0.00    -0.014 A 
BRANCH  37  38
ATOM     38  C   UNL A   1      38.525  29.811  30.003  1.00  0.00     0.031 A 
ATOM     39  C   UNL A   1      38.943  30.335  31.351  1.00  0.00     0.074 A 
ATOM     40  C   UNL A   1      39.294  28.906  29.363  1.00  0.00     0.049 A 
ATOM     41  N   UNL A   1      39.987  30.012  32.071  1.00  0.00    -0.248 NA
ATOM     42  C   UNL A   1      38.100  31.378  31.961  1.00  0.00     0.031 C 
ATOM     43  C   UNL A   1      39.050  28.387  28.015  1.00  0.00     0.029 A 
ATOM     44  N   UNL A   1      40.457  28.285  29.750  1.00  0.00    -0.354 N 
ATOM     45  C   UNL A   1      39.951  30.839  33.188  1.00  0.00     0.074 A 
ATOM     46  C   UNL A   1      38.795  31.694  33.045  1.00  0.00     0.031 C 
ATOM     47  C   UNL A   1      40.033  27.532  27.687  1.00  0.00     0.029 A 
ATOM     48  C   UNL A   1      40.991  27.460  28.786  1.00  0.00     0.049 A 
ATOM     49  H   UNL A   1      40.870  28.417  30.634  1.00  0.00     0.167 HD
ATOM     50  C   UNL A   1      40.792  30.866  34.249  1.00  0.00     0.034 A 
ATOM     51  C   UNL A   1      42.127  26.736  28.782  1.00  0.00     0.034 A 
ATOM     52  C   UNL A   1      41.905  29.973  34.420  1.00  0.00     0.049 A 
ATOM     53  C   UNL A   1      42.998  26.734  30.010  1.00  0.00     0.074 A 
ATOM     54  C   UNL A   1      42.739  29.844  35.517  1.00  0.00     0.029 A 
ATOM     55  N   UNL A   1      42.348  29.067  33.472  1.00  0.00    -0.354 N 
ATOM     56  N   UNL A   1      42.837  27.382  31.138  1.00  0.00    -0.248 NA
ATOM     57  C   UNL A   1      44.185  25.865  29.985  1.00  0.00     0.031 C 
ATOM     58  C   UNL A   1      43.706  28.881  35.219  1.00  0.00     0.029 A 
ATOM     59  C   UNL A   1      43.451  28.385  33.951  1.00  0.00     0.049 A 
ATOM     60  H   UNL A   1      41.937  28.929  32.587  1.00  0.00     0.167 HD
ATOM     61  C   UNL A   1      43.873  26.969  31.967  1.00  0.00     0.074 A 
ATOM     62  C   UNL A   1      44.644  25.996  31.223  1.00  0.00     0.031 C 
ATOM     63  C   UNL A   1      44.170  27.370  33.227  1.00  0.00     0.034 A 
BRANCH  50  64
ATOM     64  C   UNL A   1      40.523  31.862  35.346  1.00  0.00     0.023 A 
ATOM     65  C   UNL A   1      41.309  33.027  35.441  1.00  0.00     0.012 A 
ATOM     66  C   UNL A   1      39.423  31.695  36.211  1.00  0.00     0.148 A 
ATOM     67  C   UNL A   1      41.017  34.003  36.393  1.00  0.00     0.002 A 
ATOM     68  C   UNL A   1      39.111  32.693  37.126  1.00  0.00     0.091 A 
ATOM     69  F   UNL A   1      38.701  30.569  36.115  1.00  0.00    -0.205 F 
ATOM     70  C   UNL A   1      39.911  33.843  37.225  1.00  0.00     0.022 A 
BRANCH  68  71
ATOM     71  S   UNL A   1      37.660  32.622  38.182  1.00  0.00     0.127 S 
ATOM     72  O   UNL A   1      37.639  31.210  38.561  1.00  0.00    -0.237 OA
ATOM     73  O   UNL A   1      38.026  33.538  39.263  1.00  0.00    -0.237 OA
ATOM     74  O   UNL A   1      36.540  33.061  37.361  1.00  0.00    -0.744 OA
ENDBRANCH  68  71
ENDBRANCH  50  64
BRANCH  51  75
ATOM     75  C   UNL A   1      42.493  25.910  27.594  1.00  0.00     0.023 A 
ATOM     76  C   UNL A   1      43.218  26.494  26.536  1.00  0.00     0.012 A 
ATOM     77  C   UNL A   1      42.115  24.558  27.502  1.00  0.00     0.148 A 
ATOM     78  C   UNL A   1      43.515  25.759  25.387  1.00  0.00     0.002 A 
ATOM     79  C   UNL A   1      42.467  23.815  26.380  1.00  0.00     0.091 A 
ATOM     80  F   UNL A   1      41.414  24.021  28.510  1.00  0.00    -0.205 F 
ATOM     81  C   UNL A   1      43.147  24.419  25.312  1.00  0.00     0.022 A 
BRANCH  79  82
ATOM     82  S   UNL A   1      42.153  22.050  26.270  1.00  0.00     0.127 S 
ATOM     83  O   UNL A   1      40.701  22.012  26.124  1.00  0.00    -0.237 OA
ATOM     84  O   UNL A   1      42.905  21.680  25.070  1.00  0.00    -0.237 OA
ATOM     85  O   UNL A   1      42.686  21.485  27.502  1.00  0.00    -0.744 OA
ENDBRANCH  79  82
ENDBRANCH  51  75
BRANCH  63  86
ATOM     86  C   UNL A   1      45.343  26.721  33.913  1.00  0.00     0.023 A 
ATOM     87  C   UNL A   1      46.628  27.291  33.808  1.00  0.00     0.012 A 
ATOM     88  C   UNL A   1      45.156  25.584  34.723  1.00  0.00     0.148 A 
ATOM     89  C   UNL A   1      47.714  26.715  34.465  1.00  0.00     0.002 A 
ATOM     90  C   UNL A   1      46.233  25.047  35.418  1.00  0.00     0.091 A 
ATOM     91  F   UNL A   1      43.930  25.044  34.797  1.00  0.00    -0.205 F 
ATOM     92  C   UNL A   1      47.515  25.601  35.279  1.00  0.00     0.022 A 
BRANCH  90  93
ATOM     93  S   UNL A   1      46.046  23.678  36.566  1.00  0.00     0.127 S 
ATOM     94  O   UNL A   1      45.551  22.618  35.689  1.00  0.00    -0.237 OA
ATOM     95  O   UNL A   1      47.415  23.484  37.045  1.00  0.00    -0.237 OA
ATOM     96  O   UNL A   1      45.112  24.136  37.585  1.00  0.00    -0.744 OA
ENDBRANCH  90  93
ENDBRANCH  63  86
ENDBRANCH  37  38
ENDBRANCH  29  32
ENDBRANCH  27  28
ENDBRANCH  26  27
ENDBRANCH   1  26
TORSDOF 18
ENDMDL
