MODEL 1
REMARK VINA RESULT:     -11.5      0.000      0.000
REMARK SMILES C/C=C/C=C/C(=O)N[C@@](C)(C(=O)NCCCNC(=O)c1ccc(-c2c3nc(c(-c4cccc(S(=O)(=O)[O-])c4F)c4ccc([nH]4)c(-c4cccc(S(=O)(=O)[O-])c4F)c4nc(c(-c5cccc(S(=O)(=O)[O-])c5F)c5ccc2[nH]5)C=C4)C=C3)cc1)C(F)(F)F
REMARK SMILES IDX 15 1 14 2 13 3 11 4 12 5 9 7 10 8 8 9 6 10 7 11 5 13 4 14
REMARK SMILES IDX 3 15 1 16 2 17 83 18 84 19 85 20 86 21 16 22 17 23 18 24
REMARK SMILES IDX 19 26 20 27 21 28 82 29 22 30 81 31 23 32 24 33 25 34 75 35
REMARK SMILES IDX 26 36 80 37 74 38 76 39 27 40 79 41 73 42 72 43 28 45 60 46
REMARK SMILES IDX 40 47 59 48 41 49 44 50 58 51 77 52 42 53 43 54 57 56 78 57
REMARK SMILES IDX 45 58 29 59 30 60 38 61 31 62 33 63 39 64 32 65 34 66 35 67
REMARK SMILES IDX 36 68 37 69 61 70 62 71 70 72 63 73 65 74 71 75 64 76 66 77
REMARK SMILES IDX 67 78 68 79 69 80 46 81 47 82 55 83 48 84 50 85 56 86 49 87
REMARK SMILES IDX 51 88 52 89 53 90 54 91
REMARK H PARENT 13 6 8 12 17 25 76 44 44 55
REMARK Flexibility Score: inf
ROOT
ATOM      1  C   UNL A   1      37.673  19.933  24.881  1.00  0.00     0.042 C 
ENDROOT
BRANCH   1   2
ATOM      2  C   UNL A   1      36.428  20.789  25.053  1.00  0.00     0.117 C 
BRANCH   2   3
ATOM      3  N   UNL A   1      35.224  19.979  25.037  1.00  0.00    -0.354 N 
ATOM      4  C   UNL A   1      33.913  20.238  25.266  1.00  0.00     0.254 C 
ATOM      5  O   UNL A   1      33.224  19.224  25.422  1.00  0.00    -0.272 OA
ATOM      6  H   UNL A   1      35.397  19.038  24.810  1.00  0.00     0.163 HD
BRANCH   4   7
ATOM      7  C   UNL A   1      33.331  21.660  25.394  1.00  0.00     0.212 C 
ATOM      8  C   UNL A   1      31.792  21.703  25.285  1.00  0.00     0.056 C 
BRANCH   7   9
ATOM      9  N   UNL A   1      33.873  22.461  24.236  1.00  0.00    -0.331 N 
ATOM     10  C   UNL A   1      34.028  23.735  23.815  1.00  0.00     0.245 C 
ATOM     11  O   UNL A   1      34.723  23.909  22.813  1.00  0.00    -0.270 OA
ATOM     12  H   UNL A   1      34.238  21.848  23.558  1.00  0.00     0.165 HD
BRANCH  10  13
ATOM     13  C   UNL A   1      33.467  24.919  24.480  1.00  0.00     0.071 C 
ATOM     14  C   UNL A   1      34.176  25.702  25.294  1.00  0.00     0.005 C 
BRANCH  14  15
ATOM     15  C   UNL A   1      33.702  26.943  25.860  1.00  0.00    -0.004 C 
ATOM     16  C   UNL A   1      31.871  28.153  27.117  1.00  0.00     0.035 C 
ATOM     17  C   UNL A   1      32.514  26.967  26.489  1.00  0.00    -0.030 C 
ENDBRANCH  14  15
ENDBRANCH  10  13
ENDBRANCH   7   9
BRANCH   7  18
ATOM     18  C   UNL A   1      33.631  21.995  26.880  1.00  0.00     0.420 C 
ATOM     19  F   UNL A   1      33.668  20.931  27.701  1.00  0.00    -0.168 F 
ATOM     20  F   UNL A   1      34.810  22.661  27.002  1.00  0.00    -0.168 F 
ATOM     21  F   UNL A   1      32.713  22.869  27.382  1.00  0.00    -0.168 F 
ENDBRANCH   7  18
ENDBRANCH   4   7
ENDBRANCH   2   3
ENDBRANCH   1   2
BRANCH   1  22
ATOM     22  C   UNL A   1      38.853  20.348  25.748  1.00  0.00     0.118 C 
BRANCH  22  23
ATOM     23  N   UNL A   1      39.829  19.283  25.928  1.00  0.00    -0.352 N 
ATOM     24  C   UNL A   1      41.186  19.369  26.151  1.00  0.00     0.251 C 
ATOM     25  H   UNL A   1      39.468  18.369  25.885  1.00  0.00     0.163 HD
ATOM     26  O   UNL A   1      41.877  18.363  26.099  1.00  0.00    -0.269 OA
BRANCH  24  27
ATOM     27  C   UNL A   1      41.795  20.689  26.425  1.00  0.00     0.039 A 
ATOM     28  C   UNL A   1      42.049  21.552  25.357  1.00  0.00     0.014 A 
ATOM     29  C   UNL A   1      42.089  21.081  27.733  1.00  0.00     0.014 A 
ATOM     30  C   UNL A   1      42.527  22.839  25.613  1.00  0.00     0.010 A 
ATOM     31  C   UNL A   1      42.461  22.395  27.991  1.00  0.00     0.010 A 
ATOM     32  C   UNL A   1      42.697  23.286  26.934  1.00  0.00    -0.014 A 
BRANCH  32  33
ATOM     33  C   UNL A   1      43.115  24.681  27.233  1.00  0.00     0.031 A 
ATOM     34  C   UNL A   1      42.155  25.632  27.899  1.00  0.00     0.074 A 
ATOM     35  C   UNL A   1      44.322  25.119  26.820  1.00  0.00     0.049 A 
ATOM     36  N   UNL A   1      42.319  26.897  28.186  1.00  0.00    -0.248 NA
ATOM     37  C   UNL A   1      40.828  25.106  28.262  1.00  0.00     0.031 C 
ATOM     38  C   UNL A   1      45.305  24.324  26.077  1.00  0.00     0.029 A 
ATOM     39  N   UNL A   1      44.917  26.351  26.935  1.00  0.00    -0.354 N 
ATOM     40  C   UNL A   1      41.106  27.327  28.713  1.00  0.00     0.074 A 
ATOM     41  C   UNL A   1      40.206  26.197  28.686  1.00  0.00     0.031 C 
ATOM     42  C   UNL A   1      46.375  25.086  25.804  1.00  0.00     0.029 A 
ATOM     43  C   UNL A   1      46.146  26.432  26.319  1.00  0.00     0.049 A 
ATOM     44  H   UNL A   1      44.504  27.106  27.413  1.00  0.00     0.167 HD
ATOM     45  C   UNL A   1      40.778  28.548  29.197  1.00  0.00     0.034 A 
ATOM     46  C   UNL A   1      46.985  27.476  26.170  1.00  0.00     0.034 A 
ATOM     47  C   UNL A   1      41.693  29.652  29.278  1.00  0.00     0.049 A 
ATOM     48  C   UNL A   1      46.616  28.803  26.779  1.00  0.00     0.074 A 
ATOM     49  C   UNL A   1      41.494  30.887  29.868  1.00  0.00     0.029 A 
ATOM     50  N   UNL A   1      42.969  29.665  28.740  1.00  0.00    -0.354 N 
ATOM     51  N   UNL A   1      45.538  29.132  27.446  1.00  0.00    -0.248 NA
ATOM     52  C   UNL A   1      47.596  29.891  26.649  1.00  0.00     0.031 C 
ATOM     53  C   UNL A   1      42.636  31.662  29.651  1.00  0.00     0.029 A 
ATOM     54  C   UNL A   1      43.562  30.894  28.965  1.00  0.00     0.049 A 
ATOM     55  H   UNL A   1      43.391  28.912  28.267  1.00  0.00     0.167 HD
ATOM     56  C   UNL A   1      45.725  30.450  27.847  1.00  0.00     0.074 A 
ATOM     57  C   UNL A   1      47.032  30.850  27.370  1.00  0.00     0.031 C 
ATOM     58  C   UNL A   1      44.885  31.262  28.534  1.00  0.00     0.034 A 
BRANCH  45  59
ATOM     59  C   UNL A   1      39.382  28.755  29.721  1.00  0.00     0.023 A 
ATOM     60  C   UNL A   1      39.077  28.431  31.058  1.00  0.00     0.012 A 
ATOM     61  C   UNL A   1      38.402  29.369  28.915  1.00  0.00     0.148 A 
ATOM     62  C   UNL A   1      37.811  28.694  31.579  1.00  0.00     0.002 A 
ATOM     63  C   UNL A   1      37.160  29.673  29.457  1.00  0.00     0.091 A 
ATOM     64  F   UNL A   1      38.708  29.651  27.641  1.00  0.00    -0.205 F 
ATOM     65  C   UNL A   1      36.858  29.327  30.784  1.00  0.00     0.022 A 
BRANCH  63  66
ATOM     66  S   UNL A   1      35.896  30.566  28.545  1.00  0.00     0.127 S 
ATOM     67  O   UNL A   1      35.166  29.472  27.906  1.00  0.00    -0.237 OA
ATOM     68  O   UNL A   1      35.166  31.241  29.619  1.00  0.00    -0.237 OA
ATOM     69  O   UNL A   1      36.604  31.453  27.634  1.00  0.00    -0.744 OA
ENDBRANCH  63  66
ENDBRANCH  45  59
BRANCH  46  70
ATOM     70  C   UNL A   1      48.275  27.308  25.440  1.00  0.00     0.023 A 
ATOM     71  C   UNL A   1      49.431  26.915  26.143  1.00  0.00     0.012 A 
ATOM     72  C   UNL A   1      48.364  27.546  24.055  1.00  0.00     0.148 A 
ATOM     73  C   UNL A   1      50.660  26.810  25.491  1.00  0.00     0.002 A 
ATOM     74  C   UNL A   1      49.578  27.379  23.400  1.00  0.00     0.091 A 
ATOM     75  F   UNL A   1      47.257  27.932  23.404  1.00  0.00    -0.205 F 
ATOM     76  C   UNL A   1      50.732  27.033  24.118  1.00  0.00     0.022 A 
BRANCH  74  77
ATOM     77  S   UNL A   1      49.728  27.513  21.615  1.00  0.00     0.127 S 
ATOM     78  O   UNL A   1      51.067  26.976  21.387  1.00  0.00    -0.237 OA
ATOM     79  O   UNL A   1      48.634  26.657  21.155  1.00  0.00    -0.237 OA
ATOM     80  O   UNL A   1      49.547  28.926  21.315  1.00  0.00    -0.744 OA
ENDBRANCH  74  77
ENDBRANCH  46  70
BRANCH  58  81
ATOM     81  C   UNL A   1      45.365  32.650  28.863  1.00  0.00     0.023 A 
ATOM     82  C   UNL A   1      46.080  32.888  30.054  1.00  0.00     0.012 A 
ATOM     83  C   UNL A   1      45.171  33.706  27.949  1.00  0.00     0.148 A 
ATOM     84  C   UNL A   1      46.560  34.164  30.347  1.00  0.00     0.002 A 
ATOM     85  C   UNL A   1      45.701  34.960  28.223  1.00  0.00     0.091 A 
ATOM     86  F   UNL A   1      44.474  33.462  26.829  1.00  0.00    -0.205 F 
ATOM     87  C   UNL A   1      46.382  35.195  29.428  1.00  0.00     0.022 A 
BRANCH  85  88
ATOM     88  S   UNL A   1      45.609  36.318  27.052  1.00  0.00     0.127 S 
ATOM     89  O   UNL A   1      46.217  35.726  25.861  1.00  0.00    -0.237 OA
ATOM     90  O   UNL A   1      44.167  36.545  26.953  1.00  0.00    -0.237 OA
ATOM     91  O   UNL A   1      46.353  37.418  27.651  1.00  0.00    -0.744 OA
ENDBRANCH  85  88
ENDBRANCH  58  81
ENDBRANCH  32  33
ENDBRANCH  24  27
ENDBRANCH  22  23
ENDBRANCH   1  22
TORSDOF 17
ENDMDL
MODEL 2
REMARK VINA RESULT:     -11.2      5.686      8.888
REMARK SMILES C/C=C/C=C/C(=O)N[C@@](C)(C(=O)NCCCNC(=O)c1ccc(-c2c3nc(c(-c4cccc(S(=O)(=O)[O-])c4F)c4ccc([nH]4)c(-c4cccc(S(=O)(=O)[O-])c4F)c4nc(c(-c5cccc(S(=O)(=O)[O-])c5F)c5ccc2[nH]5)C=C4)C=C3)cc1)C(F)(F)F
REMARK SMILES IDX 15 1 14 2 13 3 11 4 12 5 9 7 10 8 8 9 6 10 7 11 5 13 4 14
REMARK SMILES IDX 3 15 1 16 2 17 83 18 84 19 85 20 86 21 16 22 17 23 18 24
REMARK SMILES IDX 19 26 20 27 21 28 82 29 22 30 81 31 23 32 24 33 25 34 75 35
REMARK SMILES IDX 26 36 80 37 74 38 76 39 27 40 79 41 73 42 72 43 28 45 60 46
REMARK SMILES IDX 40 47 59 48 41 49 44 50 58 51 77 52 42 53 43 54 57 56 78 57
REMARK SMILES IDX 45 58 29 59 30 60 38 61 31 62 33 63 39 64 32 65 34 66 35 67
REMARK SMILES IDX 36 68 37 69 61 70 62 71 70 72 63 73 65 74 71 75 64 76 66 77
REMARK SMILES IDX 67 78 68 79 69 80 46 81 47 82 55 83 48 84 50 85 56 86 49 87
REMARK SMILES IDX 51 88 52 89 53 90 54 91
REMARK H PARENT 13 6 8 12 17 25 76 44 44 55
REMARK Flexibility Score: inf
ROOT
ATOM      1  C   UNL A   1      31.849  29.440  24.755  1.00  0.00     0.042 C 
ENDROOT
BRANCH   1   2
ATOM      2  C   UNL A   1      30.978  28.194  24.780  1.00  0.00     0.117 C 
BRANCH   2   3
ATOM      3  N   UNL A   1      30.757  27.677  23.443  1.00  0.00    -0.354 N 
ATOM      4  C   UNL A   1      31.271  26.639  22.739  1.00  0.00     0.254 C 
ATOM      5  O   UNL A   1      31.027  26.687  21.528  1.00  0.00    -0.272 OA
ATOM      6  H   UNL A   1      30.089  28.193  22.937  1.00  0.00     0.163 HD
BRANCH   4   7
ATOM      7  C   UNL A   1      32.140  25.528  23.363  1.00  0.00     0.212 C 
ATOM      8  C   UNL A   1      32.167  24.230  22.527  1.00  0.00     0.056 C 
BRANCH   7   9
ATOM      9  N   UNL A   1      31.517  25.178  24.692  1.00  0.00    -0.331 N 
ATOM     10  C   UNL A   1      31.847  24.797  25.944  1.00  0.00     0.245 C 
ATOM     11  O   UNL A   1      30.944  24.795  26.782  1.00  0.00    -0.270 OA
ATOM     12  H   UNL A   1      30.538  25.255  24.623  1.00  0.00     0.165 HD
BRANCH  10  13
ATOM     13  C   UNL A   1      33.199  24.425  26.386  1.00  0.00     0.071 C 
ATOM     14  C   UNL A   1      33.870  23.387  25.885  1.00  0.00     0.005 C 
BRANCH  14  15
ATOM     15  C   UNL A   1      35.244  23.070  26.196  1.00  0.00    -0.004 C 
ATOM     16  C   UNL A   1      37.681  23.717  26.001  1.00  0.00     0.035 C 
ATOM     17  C   UNL A   1      36.220  23.894  25.780  1.00  0.00    -0.030 C 
ENDBRANCH  14  15
ENDBRANCH  10  13
ENDBRANCH   7   9
BRANCH   7  18
ATOM     18  C   UNL A   1      33.567  26.121  23.217  1.00  0.00     0.420 C 
ATOM     19  F   UNL A   1      33.950  26.923  24.226  1.00  0.00    -0.168 F 
ATOM     20  F   UNL A   1      34.495  25.134  23.092  1.00  0.00    -0.168 F 
ATOM     21  F   UNL A   1      33.690  26.830  22.060  1.00  0.00    -0.168 F 
ENDBRANCH   7  18
ENDBRANCH   4   7
ENDBRANCH   2   3
ENDBRANCH   1   2
BRANCH   1  22
ATOM     22  C   UNL A   1      32.432  29.833  26.105  1.00  0.00     0.118 C 
BRANCH  22  23
ATOM     23  N   UNL A   1      32.298  31.255  26.390  1.00  0.00    -0.352 N 
ATOM     24  C   UNL A   1      33.070  32.062  27.196  1.00  0.00     0.251 C 
ATOM     25  H   UNL A   1      31.547  31.706  25.940  1.00  0.00     0.163 HD
ATOM     26  O   UNL A   1      32.700  33.197  27.456  1.00  0.00    -0.269 OA
BRANCH  24  27
ATOM     27  C   UNL A   1      34.330  31.532  27.761  1.00  0.00     0.039 A 
ATOM     28  C   UNL A   1      35.378  32.417  28.026  1.00  0.00     0.014 A 
ATOM     29  C   UNL A   1      34.465  30.173  28.053  1.00  0.00     0.014 A 
ATOM     30  C   UNL A   1      36.533  31.945  28.656  1.00  0.00     0.010 A 
ATOM     31  C   UNL A   1      35.567  29.729  28.774  1.00  0.00     0.010 A 
ATOM     32  C   UNL A   1      36.620  30.606  29.073  1.00  0.00    -0.014 A 
BRANCH  32  33
ATOM     33  C   UNL A   1      37.799  30.105  29.827  1.00  0.00     0.031 A 
ATOM     34  C   UNL A   1      38.045  30.567  31.240  1.00  0.00     0.074 A 
ATOM     35  C   UNL A   1      38.697  29.310  29.209  1.00  0.00     0.049 A 
ATOM     36  N   UNL A   1      39.045  30.285  32.033  1.00  0.00    -0.248 NA
ATOM     37  C   UNL A   1      37.059  31.489  31.830  1.00  0.00     0.031 C 
ATOM     38  C   UNL A   1      38.624  28.872  27.813  1.00  0.00     0.029 A 
ATOM     39  N   UNL A   1      39.868  28.756  29.666  1.00  0.00    -0.354 N 
ATOM     40  C   UNL A   1      38.836  31.031  33.188  1.00  0.00     0.074 A 
ATOM     41  C   UNL A   1      37.627  31.795  32.986  1.00  0.00     0.031 C 
ATOM     42  C   UNL A   1      39.698  28.120  27.528  1.00  0.00     0.029 A 
ATOM     43  C   UNL A   1      40.556  28.049  28.706  1.00  0.00     0.049 A 
ATOM     44  H   UNL A   1      40.185  28.855  30.593  1.00  0.00     0.167 HD
ATOM     45  C   UNL A   1      39.573  31.058  34.323  1.00  0.00     0.034 A 
ATOM     46  C   UNL A   1      41.751  27.429  28.763  1.00  0.00     0.034 A 
ATOM     47  C   UNL A   1      40.741  30.251  34.543  1.00  0.00     0.049 A 
ATOM     48  C   UNL A   1      42.512  27.425  30.062  1.00  0.00     0.074 A 
ATOM     49  C   UNL A   1      41.479  30.113  35.704  1.00  0.00     0.029 A 
ATOM     50  N   UNL A   1      41.350  29.461  33.582  1.00  0.00    -0.354 N 
ATOM     51  N   UNL A   1      42.194  27.981  31.205  1.00  0.00    -0.248 NA
ATOM     52  C   UNL A   1      43.777  26.676  30.092  1.00  0.00     0.031 C 
ATOM     53  C   UNL A   1      42.561  29.271  35.434  1.00  0.00     0.029 A 
ATOM     54  C   UNL A   1      42.470  28.850  34.118  1.00  0.00     0.049 A 
ATOM     55  H   UNL A   1      41.034  29.353  32.657  1.00  0.00     0.167 HD
ATOM     56  C   UNL A   1      43.196  27.619  32.097  1.00  0.00     0.074 A 
ATOM     57  C   UNL A   1      44.119  26.774  31.369  1.00  0.00     0.031 C 
ATOM     58  C   UNL A   1      43.349  27.967  33.399  1.00  0.00     0.034 A 
BRANCH  45  59
ATOM     59  C   UNL A   1      39.122  31.958  35.443  1.00  0.00     0.023 A 
ATOM     60  C   UNL A   1      38.266  31.460  36.445  1.00  0.00     0.012 A 
ATOM     61  C   UNL A   1      39.634  33.266  35.555  1.00  0.00     0.148 A 
ATOM     62  C   UNL A   1      37.907  32.257  37.531  1.00  0.00     0.002 A 
ATOM     63  C   UNL A   1      39.311  34.037  36.665  1.00  0.00     0.091 A 
ATOM     64  F   UNL A   1      40.430  33.726  34.581  1.00  0.00    -0.205 F 
ATOM     65  C   UNL A   1      38.440  33.539  37.648  1.00  0.00     0.022 A 
BRANCH  63  66
ATOM     66  S   UNL A   1      40.015  35.664  36.954  1.00  0.00     0.127 S 
ATOM     67  O   UNL A   1      41.446  35.362  36.990  1.00  0.00    -0.237 OA
ATOM     68  O   UNL A   1      39.576  36.401  35.769  1.00  0.00    -0.237 OA
ATOM     69  O   UNL A   1      39.449  36.132  38.211  1.00  0.00    -0.744 OA
ENDBRANCH  63  66
ENDBRANCH  45  59
BRANCH  46  70
ATOM     70  C   UNL A   1      42.295  26.729  27.563  1.00  0.00     0.023 A 
ATOM     71  C   UNL A   1      43.020  27.456  26.598  1.00  0.00     0.012 A 
ATOM     72  C   UNL A   1      42.089  25.350  27.368  1.00  0.00     0.148 A 
ATOM     73  C   UNL A   1      43.486  26.834  25.439  1.00  0.00     0.002 A 
ATOM     74  C   UNL A   1      42.610  24.723  26.242  1.00  0.00     0.091 A 
ATOM     75  F   UNL A   1      41.387  24.676  28.290  1.00  0.00    -0.205 F 
ATOM     76  C   UNL A   1      43.289  25.466  25.266  1.00  0.00     0.022 A 
BRANCH  74  77
ATOM     77  S   UNL A   1      42.520  22.945  26.010  1.00  0.00     0.127 S 
ATOM     78  O   UNL A   1      43.328  22.457  27.125  1.00  0.00    -0.237 OA
ATOM     79  O   UNL A   1      41.083  22.696  26.133  1.00  0.00    -0.237 OA
ATOM     80  O   UNL A   1      43.057  22.699  24.678  1.00  0.00    -0.744 OA
ENDBRANCH  74  77
ENDBRANCH  46  70
BRANCH  58  81
ATOM     81  C   UNL A   1      44.527  27.397  34.143  1.00  0.00     0.023 A 
ATOM     82  C   UNL A   1      45.754  28.088  34.160  1.00  0.00     0.012 A 
ATOM     83  C   UNL A   1      44.390  26.209  34.890  1.00  0.00     0.148 A 
ATOM     84  C   UNL A   1      46.839  27.586  34.879  1.00  0.00     0.002 A 
ATOM     85  C   UNL A   1      45.458  25.745  35.647  1.00  0.00     0.091 A 
ATOM     86  F   UNL A   1      43.218  25.558  34.847  1.00  0.00    -0.205 F 
ATOM     87  C   UNL A   1      46.687  26.423  35.630  1.00  0.00     0.022 A 
BRANCH  85  88
ATOM     88  S   UNL A   1      45.322  24.316  36.725  1.00  0.00     0.127 S 
ATOM     89  O   UNL A   1      46.669  24.238  37.288  1.00  0.00    -0.237 OA
ATOM     90  O   UNL A   1      44.288  24.739  37.671  1.00  0.00    -0.237 OA
ATOM     91  O   UNL A   1      44.938  23.200  35.870  1.00  0.00    -0.744 OA
ENDBRANCH  85  88
ENDBRANCH  58  81
ENDBRANCH  32  33
ENDBRANCH  24  27
ENDBRANCH  22  23
ENDBRANCH   1  22
TORSDOF 17
ENDMDL
MODEL 3
REMARK VINA RESULT:     -11.2      6.681     11.856
REMARK SMILES C/C=C/C=C/C(=O)N[C@@](C)(C(=O)NCCCNC(=O)c1ccc(-c2c3nc(c(-c4cccc(S(=O)(=O)[O-])c4F)c4ccc([nH]4)c(-c4cccc(S(=O)(=O)[O-])c4F)c4nc(c(-c5cccc(S(=O)(=O)[O-])c5F)c5ccc2[nH]5)C=C4)C=C3)cc1)C(F)(F)F
REMARK SMILES IDX 15 1 14 2 13 3 11 4 12 5 9 7 10 8 8 9 6 10 7 11 5 13 4 14
REMARK SMILES IDX 3 15 1 16 2 17 83 18 84 19 85 20 86 21 16 22 17 23 18 24
REMARK SMILES IDX 19 26 20 27 21 28 82 29 22 30 81 31 23 32 24 33 25 34 75 35
REMARK SMILES IDX 26 36 80 37 74 38 76 39 27 40 79 41 73 42 72 43 28 45 60 46
REMARK SMILES IDX 40 47 59 48 41 49 44 50 58 51 77 52 42 53 43 54 57 56 78 57
REMARK SMILES IDX 45 58 29 59 30 60 38 61 31 62 33 63 39 64 32 65 34 66 35 67
REMARK SMILES IDX 36 68 37 69 61 70 62 71 70 72 63 73 65 74 71 75 64 76 66 77
REMARK SMILES IDX 67 78 68 79 69 80 46 81 47 82 55 83 48 84 50 85 56 86 49 87
REMARK SMILES IDX 51 88 52 89 53 90 54 91
REMARK H PARENT 13 6 8 12 17 25 76 44 44 55
REMARK Flexibility Score: inf
ROOT
ATOM      1  C   UNL A   1      31.718  31.472  26.697  1.00  0.00     0.042 C 
ENDROOT
BRANCH   1   2
ATOM      2  C   UNL A   1      32.100  30.244  25.886  1.00  0.00     0.117 C 
BRANCH   2   3
ATOM      3  N   UNL A   1      31.234  30.081  24.734  1.00  0.00    -0.354 N 
ATOM      4  C   UNL A   1      31.162  29.171  23.732  1.00  0.00     0.254 C 
ATOM      5  O   UNL A   1      30.455  29.527  22.784  1.00  0.00    -0.272 OA
ATOM      6  H   UNL A   1      30.550  30.785  24.665  1.00  0.00     0.163 HD
BRANCH   4   7
ATOM      7  C   UNL A   1      31.938  27.839  23.730  1.00  0.00     0.212 C 
ATOM      8  C   UNL A   1      31.513  26.884  22.593  1.00  0.00     0.056 C 
BRANCH   7   9
ATOM      9  N   UNL A   1      31.617  27.141  25.028  1.00  0.00    -0.331 N 
ATOM     10  C   UNL A   1      32.175  26.341  25.962  1.00  0.00     0.245 C 
ATOM     11  O   UNL A   1      31.530  26.159  26.996  1.00  0.00    -0.270 OA
ATOM     12  H   UNL A   1      30.685  27.334  25.280  1.00  0.00     0.165 HD
BRANCH  10  13
ATOM     13  C   UNL A   1      33.499  25.712  25.855  1.00  0.00     0.071 C 
ATOM     14  C   UNL A   1      33.853  24.928  24.836  1.00  0.00     0.005 C 
BRANCH  14  15
ATOM     15  C   UNL A   1      35.181  24.401  24.628  1.00  0.00    -0.004 C 
ATOM     16  C   UNL A   1      36.697  22.377  24.623  1.00  0.00     0.035 C 
ATOM     17  C   UNL A   1      35.398  23.084  24.786  1.00  0.00    -0.030 C 
ENDBRANCH  14  15
ENDBRANCH  10  13
ENDBRANCH   7   9
BRANCH   7  18
ATOM     18  C   UNL A   1      33.367  28.303  23.339  1.00  0.00     0.420 C 
ATOM     19  F   UNL A   1      34.204  28.483  24.376  1.00  0.00    -0.168 F 
ATOM     20  F   UNL A   1      33.948  27.426  22.478  1.00  0.00    -0.168 F 
ATOM     21  F   UNL A   1      33.330  29.470  22.636  1.00  0.00    -0.168 F 
ENDBRANCH   7  18
ENDBRANCH   4   7
ENDBRANCH   2   3
ENDBRANCH   1   2
BRANCH   1  22
ATOM     22  C   UNL A   1      32.895  32.226  27.299  1.00  0.00     0.118 C 
BRANCH  22  23
ATOM     23  N   UNL A   1      32.613  33.637  27.524  1.00  0.00    -0.352 N 
ATOM     24  C   UNL A   1      33.146  34.497  28.458  1.00  0.00     0.251 C 
ATOM     25  H   UNL A   1      31.944  34.033  26.921  1.00  0.00     0.163 HD
ATOM     26  O   UNL A   1      32.656  35.605  28.616  1.00  0.00    -0.269 OA
BRANCH  24  27
ATOM     27  C   UNL A   1      34.293  34.056  29.282  1.00  0.00     0.039 A 
ATOM     28  C   UNL A   1      34.055  33.247  30.395  1.00  0.00     0.014 A 
ATOM     29  C   UNL A   1      35.598  34.417  28.940  1.00  0.00     0.014 A 
ATOM     30  C   UNL A   1      35.137  32.739  31.119  1.00  0.00     0.010 A 
ATOM     31  C   UNL A   1      36.671  33.826  29.595  1.00  0.00     0.010 A 
ATOM     32  C   UNL A   1      36.454  32.989  30.700  1.00  0.00    -0.014 A 
BRANCH  32  33
ATOM     33  C   UNL A   1      37.618  32.383  31.399  1.00  0.00     0.031 A 
ATOM     34  C   UNL A   1      38.383  31.256  30.756  1.00  0.00     0.074 A 
ATOM     35  C   UNL A   1      37.926  32.782  32.650  1.00  0.00     0.049 A 
ATOM     36  N   UNL A   1      39.385  30.567  31.234  1.00  0.00    -0.248 NA
ATOM     37  C   UNL A   1      37.949  30.824  29.416  1.00  0.00     0.031 C 
ATOM     38  C   UNL A   1      37.201  33.796  33.421  1.00  0.00     0.029 A 
ATOM     39  N   UNL A   1      38.911  32.359  33.509  1.00  0.00    -0.354 N 
ATOM     40  C   UNL A   1      39.665  29.593  30.281  1.00  0.00     0.074 A 
ATOM     41  C   UNL A   1      38.715  29.764  29.207  1.00  0.00     0.031 C 
ATOM     42  C   UNL A   1      37.763  33.916  34.634  1.00  0.00     0.029 A 
ATOM     43  C   UNL A   1      38.866  32.967  34.744  1.00  0.00     0.049 A 
ATOM     44  H   UNL A   1      39.586  31.686  33.265  1.00  0.00     0.167 HD
ATOM     45  C   UNL A   1      40.642  28.656  30.291  1.00  0.00     0.034 A 
ATOM     46  C   UNL A   1      39.615  32.768  35.847  1.00  0.00     0.034 A 
ATOM     47  C   UNL A   1      41.623  28.527  31.332  1.00  0.00     0.049 A 
ATOM     48  C   UNL A   1      40.735  31.763  35.798  1.00  0.00     0.074 A 
ATOM     49  C   UNL A   1      42.727  27.695  31.370  1.00  0.00     0.029 A 
ATOM     50  N   UNL A   1      41.611  29.234  32.523  1.00  0.00    -0.354 N 
ATOM     51  N   UNL A   1      41.103  30.987  34.809  1.00  0.00    -0.248 NA
ATOM     52  C   UNL A   1      41.567  31.634  37.003  1.00  0.00     0.031 C 
ATOM     53  C   UNL A   1      43.361  27.869  32.604  1.00  0.00     0.029 A 
ATOM     54  C   UNL A   1      42.677  28.841  33.313  1.00  0.00     0.049 A 
ATOM     55  H   UNL A   1      40.944  29.914  32.770  1.00  0.00     0.167 HD
ATOM     56  C   UNL A   1      42.229  30.306  35.257  1.00  0.00     0.074 A 
ATOM     57  C   UNL A   1      42.498  30.782  36.598  1.00  0.00     0.031 C 
ATOM     58  C   UNL A   1      42.966  29.362  34.623  1.00  0.00     0.034 A 
BRANCH  45  59
ATOM     59  C   UNL A   1      40.735  27.713  29.121  1.00  0.00     0.023 A 
ATOM     60  C   UNL A   1      39.852  26.619  29.026  1.00  0.00     0.012 A 
ATOM     61  C   UNL A   1      41.630  27.975  28.063  1.00  0.00     0.148 A 
ATOM     62  C   UNL A   1      39.873  25.786  27.908  1.00  0.00     0.002 A 
ATOM     63  C   UNL A   1      41.610  27.170  26.932  1.00  0.00     0.091 A 
ATOM     64  F   UNL A   1      42.474  29.009  28.183  1.00  0.00    -0.205 F 
ATOM     65  C   UNL A   1      40.741  26.070  26.856  1.00  0.00     0.022 A 
BRANCH  63  66
ATOM     66  S   UNL A   1      42.624  27.503  25.486  1.00  0.00     0.127 S 
ATOM     67  O   UNL A   1      42.029  28.744  24.991  1.00  0.00    -0.237 OA
ATOM     68  O   UNL A   1      43.954  27.657  26.076  1.00  0.00    -0.237 OA
ATOM     69  O   UNL A   1      42.471  26.351  24.611  1.00  0.00    -0.744 OA
ENDBRANCH  63  66
ENDBRANCH  45  59
BRANCH  46  70
ATOM     70  C   UNL A   1      39.357  33.558  37.085  1.00  0.00     0.023 A 
ATOM     71  C   UNL A   1      39.867  34.867  37.199  1.00  0.00     0.012 A 
ATOM     72  C   UNL A   1      38.619  33.016  38.154  1.00  0.00     0.148 A 
ATOM     73  C   UNL A   1      39.688  35.601  38.373  1.00  0.00     0.002 A 
ATOM     74  C   UNL A   1      38.391  33.776  39.296  1.00  0.00     0.091 A 
ATOM     75  F   UNL A   1      38.151  31.765  38.034  1.00  0.00    -0.205 F 
ATOM     76  C   UNL A   1      38.943  35.059  39.417  1.00  0.00     0.022 A 
BRANCH  74  77
ATOM     77  S   UNL A   1      37.328  33.207  40.627  1.00  0.00     0.127 S 
ATOM     78  O   UNL A   1      37.238  34.399  41.467  1.00  0.00    -0.237 OA
ATOM     79  O   UNL A   1      36.101  32.863  39.908  1.00  0.00    -0.237 OA
ATOM     80  O   UNL A   1      38.017  32.065  41.212  1.00  0.00    -0.744 OA
ENDBRANCH  74  77
ENDBRANCH  46  70
BRANCH  58  81
ATOM     81  C   UNL A   1      44.168  28.810  35.343  1.00  0.00     0.023 A 
ATOM     82  C   UNL A   1      45.432  29.407  35.169  1.00  0.00     0.012 A 
ATOM     83  C   UNL A   1      44.024  27.744  36.254  1.00  0.00     0.148 A 
ATOM     84  C   UNL A   1      46.543  28.925  35.861  1.00  0.00     0.002 A 
ATOM     85  C   UNL A   1      45.125  27.306  36.981  1.00  0.00     0.091 A 
ATOM     86  F   UNL A   1      42.816  27.179  36.393  1.00  0.00    -0.205 F 
ATOM     87  C   UNL A   1      46.387  27.885  36.775  1.00  0.00     0.022 A 
BRANCH  85  88
ATOM     88  S   UNL A   1      44.996  26.044  38.252  1.00  0.00     0.127 S 
ATOM     89  O   UNL A   1      44.062  26.662  39.191  1.00  0.00    -0.237 OA
ATOM     90  O   UNL A   1      44.451  24.909  37.506  1.00  0.00    -0.237 OA
ATOM     91  O   UNL A   1      46.347  25.842  38.758  1.00  0.00    -0.744 OA
ENDBRANCH  85  88
ENDBRANCH  58  81
ENDBRANCH  32  33
ENDBRANCH  24  27
ENDBRANCH  22  23
ENDBRANCH   1  22
TORSDOF 17
ENDMDL
