MODEL 1
REMARK VINA RESULT:     -12.7      0.000      0.000
REMARK SMILES Cc1cc(=O)cc(C)n1-c1ccc(Cl)cc1C(=O)NCCCNC(=O)c1ccc(-c2c3nc(c(-c4cccc(S(=O)(=O)[O-])c4F)c4ccc([nH]4)c(-c4cccc(S(=O)(=O)[O-])c4F)c4nc(c(-c5cccc(S(=O)(=O)[O-])c5F)c5ccc2[nH]5)C=C4)C=C3)cc1
REMARK SMILES IDX 22 1 21 2 20 3 19 4 17 5 18 6 16 8 10 9 11 10 12 11 15 12
REMARK SMILES IDX 13 13 14 14 9 15 1 16 2 17 3 18 4 19 7 20 5 21 6 22 8 23
REMARK SMILES IDX 23 24 24 25 25 27 26 28 27 29 88 30 28 31 87 32 29 33 30 34
REMARK SMILES IDX 31 35 81 36 32 37 86 38 80 39 82 40 33 41 85 42 79 43 78 44
REMARK SMILES IDX 34 46 66 47 46 48 65 49 47 50 50 51 64 52 83 53 48 54 49 55
REMARK SMILES IDX 63 57 84 58 51 59 35 60 36 61 44 62 37 63 39 64 45 65 38 66
REMARK SMILES IDX 40 67 41 68 42 69 43 70 67 71 68 72 76 73 69 74 71 75 77 76
REMARK SMILES IDX 70 77 72 78 73 79 74 80 75 81 52 82 53 83 61 84 54 85 56 86
REMARK SMILES IDX 62 87 55 88 57 89 58 90 59 91 60 92
REMARK H PARENT 19 7 23 26 82 45 50 56
REMARK Flexibility Score: inf
ROOT
ATOM      1  C   UNL A   1      35.806  22.193  25.642  1.00  0.00     0.118 C 
ENDROOT
BRANCH   1   2
ATOM      2  C   UNL A   1      35.211  22.125  27.041  1.00  0.00     0.042 C 
BRANCH   2   3
ATOM      3  C   UNL A   1      33.875  21.422  27.129  1.00  0.00     0.118 C 
BRANCH   3   4
ATOM      4  N   UNL A   1      32.746  22.186  27.585  1.00  0.00    -0.352 N 
ATOM      5  C   UNL A   1      31.827  22.880  26.837  1.00  0.00     0.253 C 
ATOM      6  O   UNL A   1      30.849  23.333  27.440  1.00  0.00    -0.269 OA
ATOM      7  H   UNL A   1      32.612  22.212  28.561  1.00  0.00     0.163 HD
BRANCH   5   8
ATOM      8  C   UNL A   1      31.954  23.198  25.375  1.00  0.00     0.065 A 
ATOM      9  C   UNL A   1      32.184  24.444  24.739  1.00  0.00     0.058 A 
ATOM     10  C   UNL A   1      32.358  24.459  23.328  1.00  0.00     0.029 A 
ATOM     11  C   UNL A   1      32.287  23.301  22.557  1.00  0.00     0.023 A 
ATOM     12  C   UNL A   1      31.898  22.033  24.568  1.00  0.00     0.036 A 
ATOM     13  C   UNL A   1      32.055  22.089  23.185  1.00  0.00     0.041 A 
ATOM     14  Cl  UNL A   1      31.978  20.647  22.250  1.00  0.00    -0.084 Cl
BRANCH   9  15
ATOM     15  N   UNL A   1      32.269  25.723  25.383  1.00  0.00    -0.317 N 
ATOM     16  C   UNL A   1      29.735  25.950  25.314  1.00  0.00     0.065 C 
ATOM     17  C   UNL A   1      31.102  26.466  25.693  1.00  0.00     0.024 A 
ATOM     18  C   UNL A   1      31.165  27.655  26.326  1.00  0.00     0.073 A 
ATOM     19  C   UNL A   1      32.471  28.216  26.721  1.00  0.00     0.182 A 
ATOM     20  C   UNL A   1      33.541  26.231  25.790  1.00  0.00     0.024 A 
ATOM     21  O   UNL A   1      32.555  29.297  27.287  1.00  0.00    -0.290 OA
ATOM     22  C   UNL A   1      33.669  27.418  26.413  1.00  0.00     0.073 A 
ATOM     23  C   UNL A   1      34.841  25.537  25.426  1.00  0.00     0.065 C 
ENDBRANCH   9  15
ENDBRANCH   5   8
ENDBRANCH   3   4
ENDBRANCH   2   3
ENDBRANCH   1   2
BRANCH   1  24
ATOM     24  N   UNL A   1      36.883  21.240  25.373  1.00  0.00    -0.352 N 
ATOM     25  C   UNL A   1      38.235  21.245  25.642  1.00  0.00     0.251 C 
ATOM     26  H   UNL A   1      36.580  20.428  24.905  1.00  0.00     0.163 HD
ATOM     27  O   UNL A   1      38.913  20.280  25.289  1.00  0.00    -0.269 OA
BRANCH  25  28
ATOM     28  C   UNL A   1      38.891  22.394  26.306  1.00  0.00     0.039 A 
ATOM     29  C   UNL A   1      39.987  22.173  27.151  1.00  0.00     0.014 A 
ATOM     30  C   UNL A   1      38.443  23.694  26.106  1.00  0.00     0.014 A 
ATOM     31  C   UNL A   1      40.692  23.260  27.685  1.00  0.00     0.010 A 
ATOM     32  C   UNL A   1      39.224  24.767  26.508  1.00  0.00     0.010 A 
ATOM     33  C   UNL A   1      40.357  24.570  27.308  1.00  0.00    -0.014 A 
BRANCH  33  34
ATOM     34  C   UNL A   1      41.146  25.766  27.718  1.00  0.00     0.031 A 
ATOM     35  C   UNL A   1      40.481  26.867  28.506  1.00  0.00     0.074 A 
ATOM     36  C   UNL A   1      42.403  25.934  27.262  1.00  0.00     0.049 A 
ATOM     37  N   UNL A   1      40.910  28.073  28.771  1.00  0.00    -0.248 NA
ATOM     38  C   UNL A   1      39.128  26.590  29.020  1.00  0.00     0.031 C 
ATOM     39  C   UNL A   1      43.143  24.978  26.435  1.00  0.00     0.029 A 
ATOM     40  N   UNL A   1      43.274  26.986  27.405  1.00  0.00    -0.354 N 
ATOM     41  C   UNL A   1      39.864  28.712  29.428  1.00  0.00     0.074 A 
ATOM     42  C   UNL A   1      38.759  27.780  29.469  1.00  0.00     0.031 C 
ATOM     43  C   UNL A   1      44.361  25.473  26.169  1.00  0.00     0.029 A 
ATOM     44  C   UNL A   1      44.475  26.802  26.759  1.00  0.00     0.049 A 
ATOM     45  H   UNL A   1      43.059  27.798  27.920  1.00  0.00     0.167 HD
ATOM     46  C   UNL A   1      39.835  29.945  29.989  1.00  0.00     0.034 A 
ATOM     47  C   UNL A   1      45.549  27.610  26.653  1.00  0.00     0.034 A 
ATOM     48  C   UNL A   1      40.960  30.839  30.008  1.00  0.00     0.049 A 
ATOM     49  C   UNL A   1      45.517  28.955  27.327  1.00  0.00     0.074 A 
ATOM     50  C   UNL A   1      41.060  32.086  30.598  1.00  0.00     0.029 A 
ATOM     51  N   UNL A   1      42.192  30.571  29.429  1.00  0.00    -0.354 N 
ATOM     52  N   UNL A   1      44.550  29.507  28.019  1.00  0.00    -0.248 NA
ATOM     53  C   UNL A   1      46.735  29.774  27.236  1.00  0.00     0.031 C 
ATOM     54  C   UNL A   1      42.351  32.573  30.373  1.00  0.00     0.029 A 
ATOM     55  C   UNL A   1      43.063  31.621  29.660  1.00  0.00     0.049 A 
ATOM     56  H   UNL A   1      42.414  29.753  28.927  1.00  0.00     0.167 HD
ATOM     57  C   UNL A   1      45.052  30.720  28.479  1.00  0.00     0.074 A 
ATOM     58  C   UNL A   1      46.415  30.814  27.997  1.00  0.00     0.031 C 
ATOM     59  C   UNL A   1      44.435  31.673  29.221  1.00  0.00     0.034 A 
BRANCH  46  60
ATOM     60  C   UNL A   1      38.569  30.358  30.700  1.00  0.00     0.023 A 
ATOM     61  C   UNL A   1      38.397  30.015  32.058  1.00  0.00     0.012 A 
ATOM     62  C   UNL A   1      37.569  31.108  30.051  1.00  0.00     0.148 A 
ATOM     63  C   UNL A   1      37.236  30.365  32.743  1.00  0.00     0.002 A 
ATOM     64  C   UNL A   1      36.436  31.501  30.757  1.00  0.00     0.091 A 
ATOM     65  F   UNL A   1      37.732  31.410  28.755  1.00  0.00    -0.205 F 
ATOM     66  C   UNL A   1      36.261  31.117  32.097  1.00  0.00     0.022 A 
BRANCH  64  67
ATOM     67  S   UNL A   1      35.163  32.548  30.041  1.00  0.00     0.127 S 
ATOM     68  O   UNL A   1      34.276  32.758  31.185  1.00  0.00    -0.237 OA
ATOM     69  O   UNL A   1      35.926  33.730  29.638  1.00  0.00    -0.237 OA
ATOM     70  O   UNL A   1      34.595  31.789  28.937  1.00  0.00    -0.744 OA
ENDBRANCH  64  67
ENDBRANCH  46  60
BRANCH  47  71
ATOM     71  C   UNL A   1      46.782  27.105  25.983  1.00  0.00     0.023 A 
ATOM     72  C   UNL A   1      46.951  27.353  24.606  1.00  0.00     0.012 A 
ATOM     73  C   UNL A   1      47.818  26.475  26.699  1.00  0.00     0.148 A 
ATOM     74  C   UNL A   1      48.122  26.973  23.951  1.00  0.00     0.002 A 
ATOM     75  C   UNL A   1      49.006  26.148  26.051  1.00  0.00     0.091 A 
ATOM     76  F   UNL A   1      47.637  26.245  28.007  1.00  0.00    -0.205 F 
ATOM     77  C   UNL A   1      49.154  26.383  24.675  1.00  0.00     0.022 A 
BRANCH  75  78
ATOM     78  S   UNL A   1      50.447  25.520  26.923  1.00  0.00     0.127 S 
ATOM     79  O   UNL A   1      51.397  25.325  25.829  1.00  0.00    -0.237 OA
ATOM     80  O   UNL A   1      50.761  26.630  27.822  1.00  0.00    -0.237 OA
ATOM     81  O   UNL A   1      50.008  24.305  27.595  1.00  0.00    -0.744 OA
ENDBRANCH  75  78
ENDBRANCH  47  71
BRANCH  59  82
ATOM     82  C   UNL A   1      45.232  32.895  29.598  1.00  0.00     0.023 A 
ATOM     83  C   UNL A   1      46.001  32.894  30.778  1.00  0.00     0.012 A 
ATOM     84  C   UNL A   1      45.299  34.004  28.729  1.00  0.00     0.148 A 
ATOM     85  C   UNL A   1      46.804  33.987  31.101  1.00  0.00     0.002 A 
ATOM     86  C   UNL A   1      46.140  35.067  29.032  1.00  0.00     0.091 A 
ATOM     87  F   UNL A   1      44.544  33.995  27.621  1.00  0.00    -0.205 F 
ATOM     88  C   UNL A   1      46.885  35.066  30.224  1.00  0.00     0.022 A 
BRANCH  86  89
ATOM     89  S   UNL A   1      46.386  36.448  27.910  1.00  0.00     0.127 S 
ATOM     90  O   UNL A   1      46.818  35.769  26.690  1.00  0.00    -0.237 OA
ATOM     91  O   UNL A   1      45.047  37.035  27.840  1.00  0.00    -0.237 OA
ATOM     92  O   UNL A   1      47.384  37.301  28.540  1.00  0.00    -0.744 OA
ENDBRANCH  86  89
ENDBRANCH  59  82
ENDBRANCH  33  34
ENDBRANCH  25  28
ENDBRANCH   1  24
TORSDOF 14
ENDMDL
MODEL 2
REMARK VINA RESULT:     -12.5      5.010      7.940
REMARK SMILES Cc1cc(=O)cc(C)n1-c1ccc(Cl)cc1C(=O)NCCCNC(=O)c1ccc(-c2c3nc(c(-c4cccc(S(=O)(=O)[O-])c4F)c4ccc([nH]4)c(-c4cccc(S(=O)(=O)[O-])c4F)c4nc(c(-c5cccc(S(=O)(=O)[O-])c5F)c5ccc2[nH]5)C=C4)C=C3)cc1
REMARK SMILES IDX 22 1 21 2 20 3 19 4 17 5 18 6 16 8 10 9 11 10 12 11 15 12
REMARK SMILES IDX 13 13 14 14 9 15 1 16 2 17 3 18 4 19 7 20 5 21 6 22 8 23
REMARK SMILES IDX 23 24 24 25 25 27 26 28 27 29 88 30 28 31 87 32 29 33 30 34
REMARK SMILES IDX 31 35 81 36 32 37 86 38 80 39 82 40 33 41 85 42 79 43 78 44
REMARK SMILES IDX 34 46 66 47 46 48 65 49 47 50 50 51 64 52 83 53 48 54 49 55
REMARK SMILES IDX 63 57 84 58 51 59 35 60 36 61 44 62 37 63 39 64 45 65 38 66
REMARK SMILES IDX 40 67 41 68 42 69 43 70 67 71 68 72 76 73 69 74 71 75 77 76
REMARK SMILES IDX 70 77 72 78 73 79 74 80 75 81 52 82 53 83 61 84 54 85 56 86
REMARK SMILES IDX 62 87 55 88 57 89 58 90 59 91 60 92
REMARK H PARENT 19 7 23 26 82 45 50 56
REMARK Flexibility Score: inf
ROOT
ATOM      1  C   UNL A   1      31.811  31.383  27.215  1.00  0.00     0.118 C 
ENDROOT
BRANCH   1   2
ATOM      2  C   UNL A   1      31.814  30.786  25.816  1.00  0.00     0.042 C 
BRANCH   2   3
ATOM      3  C   UNL A   1      32.860  29.720  25.582  1.00  0.00     0.118 C 
BRANCH   3   4
ATOM      4  N   UNL A   1      33.307  29.505  24.233  1.00  0.00    -0.352 N 
ATOM      5  C   UNL A   1      32.673  28.825  23.222  1.00  0.00     0.253 C 
ATOM      6  O   UNL A   1      33.177  28.904  22.098  1.00  0.00    -0.269 OA
ATOM      7  H   UNL A   1      34.180  29.897  24.003  1.00  0.00     0.163 HD
BRANCH   5   8
ATOM      8  C   UNL A   1      31.473  27.937  23.386  1.00  0.00     0.065 A 
ATOM      9  C   UNL A   1      31.399  26.588  23.817  1.00  0.00     0.058 A 
ATOM     10  C   UNL A   1      30.116  26.000  23.977  1.00  0.00     0.029 A 
ATOM     11  C   UNL A   1      28.939  26.695  23.704  1.00  0.00     0.023 A 
ATOM     12  C   UNL A   1      30.260  28.625  23.126  1.00  0.00     0.036 A 
ATOM     13  C   UNL A   1      29.019  28.009  23.278  1.00  0.00     0.041 A 
ATOM     14  Cl  UNL A   1      27.576  28.886  22.949  1.00  0.00    -0.084 Cl
BRANCH   9  15
ATOM     15  N   UNL A   1      32.511  25.734  24.123  1.00  0.00    -0.317 N 
ATOM     16  C   UNL A   1      32.257  26.254  26.601  1.00  0.00     0.065 C 
ATOM     17  C   UNL A   1      32.936  25.536  25.460  1.00  0.00     0.024 A 
ATOM     18  C   UNL A   1      33.960  24.713  25.766  1.00  0.00     0.073 A 
ATOM     19  C   UNL A   1      34.667  23.983  24.696  1.00  0.00     0.182 A 
ATOM     20  C   UNL A   1      33.159  25.009  23.076  1.00  0.00     0.024 A 
ATOM     21  O   UNL A   1      35.605  23.239  24.947  1.00  0.00    -0.290 OA
ATOM     22  C   UNL A   1      34.195  24.183  23.317  1.00  0.00     0.073 A 
ATOM     23  C   UNL A   1      32.817  25.225  21.613  1.00  0.00     0.065 C 
ENDBRANCH   9  15
ENDBRANCH   5   8
ENDBRANCH   3   4
ENDBRANCH   2   3
ENDBRANCH   1   2
BRANCH   1  24
ATOM     24  N   UNL A   1      32.178  32.797  27.293  1.00  0.00    -0.352 N 
ATOM     25  C   UNL A   1      33.340  33.451  27.642  1.00  0.00     0.251 C 
ATOM     26  H   UNL A   1      31.445  33.406  27.045  1.00  0.00     0.163 HD
ATOM     27  O   UNL A   1      33.359  34.681  27.615  1.00  0.00    -0.269 OA
BRANCH  25  28
ATOM     28  C   UNL A   1      34.545  32.713  28.083  1.00  0.00     0.039 A 
ATOM     29  C   UNL A   1      35.777  33.378  28.159  1.00  0.00     0.014 A 
ATOM     30  C   UNL A   1      34.481  31.369  28.428  1.00  0.00     0.014 A 
ATOM     31  C   UNL A   1      36.895  32.724  28.693  1.00  0.00     0.010 A 
ATOM     32  C   UNL A   1      35.542  30.770  29.092  1.00  0.00     0.010 A 
ATOM     33  C   UNL A   1      36.768  31.434  29.230  1.00  0.00    -0.014 A 
BRANCH  33  34
ATOM     34  C   UNL A   1      37.873  30.731  29.941  1.00  0.00     0.031 A 
ATOM     35  C   UNL A   1      38.228  31.129  31.352  1.00  0.00     0.074 A 
ATOM     36  C   UNL A   1      38.647  29.849  29.278  1.00  0.00     0.049 A 
ATOM     37  N   UNL A   1      39.276  30.810  32.065  1.00  0.00    -0.248 NA
ATOM     38  C   UNL A   1      37.304  32.054  32.032  1.00  0.00     0.031 C 
ATOM     39  C   UNL A   1      38.456  29.424  27.890  1.00  0.00     0.029 A 
ATOM     40  N   UNL A   1      39.774  29.171  29.677  1.00  0.00    -0.354 N 
ATOM     41  C   UNL A   1      39.167  31.534  33.246  1.00  0.00     0.074 A 
ATOM     42  C   UNL A   1      37.981  32.355  33.130  1.00  0.00     0.031 C 
ATOM     43  C   UNL A   1      39.410  28.540  27.562  1.00  0.00     0.029 A 
ATOM     44  C   UNL A   1      40.313  28.371  28.696  1.00  0.00     0.049 A 
ATOM     45  H   UNL A   1      40.160  29.250  30.579  1.00  0.00     0.167 HD
ATOM     46  C   UNL A   1      39.951  31.491  34.351  1.00  0.00     0.034 A 
ATOM     47  C   UNL A   1      41.412  27.589  28.705  1.00  0.00     0.034 A 
ATOM     48  C   UNL A   1      41.086  30.621  34.488  1.00  0.00     0.049 A 
ATOM     49  C   UNL A   1      42.241  27.514  29.958  1.00  0.00     0.074 A 
ATOM     50  C   UNL A   1      41.915  30.453  35.582  1.00  0.00     0.029 A 
ATOM     51  N   UNL A   1      41.539  29.752  33.505  1.00  0.00    -0.354 N 
ATOM     52  N   UNL A   1      42.072  28.141  31.097  1.00  0.00    -0.248 NA
ATOM     53  C   UNL A   1      43.393  26.601  29.941  1.00  0.00     0.031 C 
ATOM     54  C   UNL A   1      42.872  29.485  35.260  1.00  0.00     0.029 A 
ATOM     55  C   UNL A   1      42.626  29.034  33.972  1.00  0.00     0.049 A 
ATOM     56  H   UNL A   1      41.144  29.659  32.608  1.00  0.00     0.167 HD
ATOM     57  C   UNL A   1      43.069  27.672  31.945  1.00  0.00     0.074 A 
ATOM     58  C   UNL A   1      43.830  26.696  31.190  1.00  0.00     0.031 C 
ATOM     59  C   UNL A   1      43.337  28.025  33.227  1.00  0.00     0.034 A 
BRANCH  46  60
ATOM     60  C   UNL A   1      39.552  32.353  35.524  1.00  0.00     0.023 A 
ATOM     61  C   UNL A   1      38.763  31.795  36.552  1.00  0.00     0.012 A 
ATOM     62  C   UNL A   1      39.977  33.692  35.635  1.00  0.00     0.148 A 
ATOM     63  C   UNL A   1      38.362  32.564  37.643  1.00  0.00     0.002 A 
ATOM     64  C   UNL A   1      39.617  34.437  36.754  1.00  0.00     0.091 A 
ATOM     65  F   UNL A   1      40.707  34.218  34.641  1.00  0.00    -0.205 F 
ATOM     66  C   UNL A   1      38.798  33.880  37.749  1.00  0.00     0.022 A 
BRANCH  64  67
ATOM     67  S   UNL A   1      40.202  36.114  37.029  1.00  0.00     0.127 S 
ATOM     68  O   UNL A   1      39.406  36.517  38.189  1.00  0.00    -0.237 OA
ATOM     69  O   UNL A   1      41.623  35.903  37.310  1.00  0.00    -0.237 OA
ATOM     70  O   UNL A   1      39.929  36.840  35.797  1.00  0.00    -0.744 OA
ENDBRANCH  64  67
ENDBRANCH  46  60
BRANCH  47  71
ATOM     71  C   UNL A   1      41.705  26.725  27.525  1.00  0.00     0.023 A 
ATOM     72  C   UNL A   1      42.411  27.281  26.441  1.00  0.00     0.012 A 
ATOM     73  C   UNL A   1      41.382  25.354  27.503  1.00  0.00     0.148 A 
ATOM     74  C   UNL A   1      42.780  26.494  25.351  1.00  0.00     0.002 A 
ATOM     75  C   UNL A   1      41.801  24.563  26.438  1.00  0.00     0.091 A 
ATOM     76  F   UNL A   1      40.707  24.844  28.543  1.00  0.00    -0.205 F 
ATOM     77  C   UNL A   1      42.488  25.134  25.354  1.00  0.00     0.022 A 
BRANCH  75  78
ATOM     78  S   UNL A   1      41.603  22.777  26.417  1.00  0.00     0.127 S 
ATOM     79  O   UNL A   1      42.399  22.400  25.251  1.00  0.00    -0.237 OA
ATOM     80  O   UNL A   1      42.179  22.395  27.706  1.00  0.00    -0.237 OA
ATOM     81  O   UNL A   1      40.171  22.536  26.302  1.00  0.00    -0.744 OA
ENDBRANCH  75  78
ENDBRANCH  47  71
BRANCH  59  82
ATOM     82  C   UNL A   1      44.480  27.334  33.923  1.00  0.00     0.023 A 
ATOM     83  C   UNL A   1      45.775  27.884  33.857  1.00  0.00     0.012 A 
ATOM     84  C   UNL A   1      44.250  26.199  34.727  1.00  0.00     0.148 A 
ATOM     85  C   UNL A   1      46.829  27.299  34.558  1.00  0.00     0.002 A 
ATOM     86  C   UNL A   1      45.294  25.653  35.463  1.00  0.00     0.091 A 
ATOM     87  F   UNL A   1      43.015  25.678  34.761  1.00  0.00    -0.205 F 
ATOM     88  C   UNL A   1      46.587  26.195  35.372  1.00  0.00     0.022 A 
BRANCH  86  89
ATOM     89  S   UNL A   1      45.050  24.296  36.616  1.00  0.00     0.127 S 
ATOM     90  O   UNL A   1      44.227  24.925  37.647  1.00  0.00    -0.237 OA
ATOM     91  O   UNL A   1      44.349  23.310  35.792  1.00  0.00    -0.237 OA
ATOM     92  O   UNL A   1      46.383  23.888  37.039  1.00  0.00    -0.744 OA
ENDBRANCH  86  89
ENDBRANCH  59  82
ENDBRANCH  33  34
ENDBRANCH  25  28
ENDBRANCH   1  24
TORSDOF 14
ENDMDL
MODEL 3
REMARK VINA RESULT:     -12.4      5.880     10.651
REMARK SMILES Cc1cc(=O)cc(C)n1-c1ccc(Cl)cc1C(=O)NCCCNC(=O)c1ccc(-c2c3nc(c(-c4cccc(S(=O)(=O)[O-])c4F)c4ccc([nH]4)c(-c4cccc(S(=O)(=O)[O-])c4F)c4nc(c(-c5cccc(S(=O)(=O)[O-])c5F)c5ccc2[nH]5)C=C4)C=C3)cc1
REMARK SMILES IDX 22 1 21 2 20 3 19 4 17 5 18 6 16 8 10 9 11 10 12 11 15 12
REMARK SMILES IDX 13 13 14 14 9 15 1 16 2 17 3 18 4 19 7 20 5 21 6 22 8 23
REMARK SMILES IDX 23 24 24 25 25 27 26 28 27 29 88 30 28 31 87 32 29 33 30 34
REMARK SMILES IDX 31 35 81 36 32 37 86 38 80 39 82 40 33 41 85 42 79 43 78 44
REMARK SMILES IDX 34 46 66 47 46 48 65 49 47 50 50 51 64 52 83 53 48 54 49 55
REMARK SMILES IDX 63 57 84 58 51 59 35 60 36 61 44 62 37 63 39 64 45 65 38 66
REMARK SMILES IDX 40 67 41 68 42 69 43 70 67 71 68 72 76 73 69 74 71 75 77 76
REMARK SMILES IDX 70 77 72 78 73 79 74 80 75 81 52 82 53 83 61 84 54 85 56 86
REMARK SMILES IDX 62 87 55 88 57 89 58 90 59 91 60 92
REMARK H PARENT 19 7 23 26 82 45 50 56
REMARK Flexibility Score: inf
ROOT
ATOM      1  C   UNL A   1      32.973  32.260  27.285  1.00  0.00     0.118 C 
ENDROOT
BRANCH   1   2
ATOM      2  C   UNL A   1      31.881  31.475  26.573  1.00  0.00     0.042 C 
BRANCH   2   3
ATOM      3  C   UNL A   1      32.245  30.049  26.229  1.00  0.00     0.118 C 
BRANCH   3   4
ATOM      4  N   UNL A   1      33.011  29.822  25.034  1.00  0.00    -0.352 N 
ATOM      5  C   UNL A   1      32.618  29.201  23.874  1.00  0.00     0.253 C 
ATOM      6  O   UNL A   1      33.400  29.262  22.920  1.00  0.00    -0.269 OA
ATOM      7  H   UNL A   1      33.937  30.157  25.049  1.00  0.00     0.163 HD
BRANCH   5   8
ATOM      8  C   UNL A   1      31.364  28.395  23.697  1.00  0.00     0.065 A 
ATOM      9  C   UNL A   1      31.159  27.000  23.842  1.00  0.00     0.058 A 
ATOM     10  C   UNL A   1      29.838  26.494  23.708  1.00  0.00     0.029 A 
ATOM     11  C   UNL A   1      28.752  27.318  23.419  1.00  0.00     0.023 A 
ATOM     12  C   UNL A   1      30.239  29.212  23.414  1.00  0.00     0.036 A 
ATOM     13  C   UNL A   1      28.960  28.678  23.272  1.00  0.00     0.041 A 
ATOM     14  Cl  UNL A   1      27.629  29.712  22.929  1.00  0.00    -0.084 Cl
BRANCH   9  15
ATOM     15  N   UNL A   1      32.168  26.019  24.123  1.00  0.00    -0.317 N 
ATOM     16  C   UNL A   1      31.830  26.357  26.623  1.00  0.00     0.065 C 
ATOM     17  C   UNL A   1      32.500  25.672  25.457  1.00  0.00     0.024 A 
ATOM     18  C   UNL A   1      33.425  24.731  25.736  1.00  0.00     0.073 A 
ATOM     19  C   UNL A   1      34.118  24.026  24.641  1.00  0.00     0.182 A 
ATOM     20  C   UNL A   1      32.801  25.323  23.048  1.00  0.00     0.024 A 
ATOM     21  O   UNL A   1      34.967  23.175  24.868  1.00  0.00    -0.290 OA
ATOM     22  C   UNL A   1      33.740  24.382  23.264  1.00  0.00     0.073 A 
ATOM     23  C   UNL A   1      32.560  25.690  21.595  1.00  0.00     0.065 C 
ENDBRANCH   9  15
ENDBRANCH   5   8
ENDBRANCH   3   4
ENDBRANCH   2   3
ENDBRANCH   1   2
BRANCH   1  24
ATOM     24  N   UNL A   1      32.616  33.626  27.666  1.00  0.00    -0.352 N 
ATOM     25  C   UNL A   1      33.152  34.525  28.562  1.00  0.00     0.251 C 
ATOM     26  H   UNL A   1      31.833  33.976  27.181  1.00  0.00     0.163 HD
ATOM     27  O   UNL A   1      32.629  35.633  28.675  1.00  0.00    -0.269 OA
BRANCH  25  28
ATOM     28  C   UNL A   1      34.310  34.176  29.416  1.00  0.00     0.039 A 
ATOM     29  C   UNL A   1      34.102  33.493  30.622  1.00  0.00     0.014 A 
ATOM     30  C   UNL A   1      35.606  34.512  29.044  1.00  0.00     0.014 A 
ATOM     31  C   UNL A   1      35.198  33.049  31.374  1.00  0.00     0.010 A 
ATOM     32  C   UNL A   1      36.687  33.947  29.706  1.00  0.00     0.010 A 
ATOM     33  C   UNL A   1      36.502  33.212  30.884  1.00  0.00    -0.014 A 
BRANCH  33  34
ATOM     34  C   UNL A   1      37.706  32.644  31.554  1.00  0.00     0.031 A 
ATOM     35  C   UNL A   1      38.442  31.492  30.919  1.00  0.00     0.074 A 
ATOM     36  C   UNL A   1      38.046  33.057  32.792  1.00  0.00     0.049 A 
ATOM     37  N   UNL A   1      39.362  30.713  31.427  1.00  0.00    -0.248 NA
ATOM     38  C   UNL A   1      38.052  31.133  29.544  1.00  0.00     0.031 C 
ATOM     39  C   UNL A   1      37.378  34.117  33.549  1.00  0.00     0.029 A 
ATOM     40  N   UNL A   1      39.026  32.611  33.645  1.00  0.00    -0.354 N 
ATOM     41  C   UNL A   1      39.617  29.746  30.461  1.00  0.00     0.074 A 
ATOM     42  C   UNL A   1      38.713  30.000  29.361  1.00  0.00     0.031 C 
ATOM     43  C   UNL A   1      37.982  34.259  34.739  1.00  0.00     0.029 A 
ATOM     44  C   UNL A   1      39.047  33.269  34.854  1.00  0.00     0.049 A 
ATOM     45  H   UNL A   1      39.654  31.889  33.415  1.00  0.00     0.167 HD
ATOM     46  C   UNL A   1      40.549  28.763  30.463  1.00  0.00     0.034 A 
ATOM     47  C   UNL A   1      39.834  33.096  35.935  1.00  0.00     0.034 A 
ATOM     48  C   UNL A   1      41.493  28.561  31.528  1.00  0.00     0.049 A 
ATOM     49  C   UNL A   1      40.898  32.032  35.898  1.00  0.00     0.074 A 
ATOM     50  C   UNL A   1      42.516  27.634  31.609  1.00  0.00     0.029 A 
ATOM     51  N   UNL A   1      41.544  29.315  32.692  1.00  0.00    -0.354 N 
ATOM     52  N   UNL A   1      41.182  31.184  34.940  1.00  0.00    -0.248 NA
ATOM     53  C   UNL A   1      41.771  31.924  37.076  1.00  0.00     0.031 C 
ATOM     54  C   UNL A   1      43.184  27.826  32.822  1.00  0.00     0.029 A 
ATOM     55  C   UNL A   1      42.590  28.886  33.490  1.00  0.00     0.049 A 
ATOM     56  H   UNL A   1      40.927  30.049  32.917  1.00  0.00     0.167 HD
ATOM     57  C   UNL A   1      42.289  30.466  35.379  1.00  0.00     0.074 A 
ATOM     58  C   UNL A   1      42.632  30.991  36.686  1.00  0.00     0.031 C 
ATOM     59  C   UNL A   1      42.952  29.457  34.762  1.00  0.00     0.034 A 
BRANCH  46  60
ATOM     60  C   UNL A   1      40.642  27.888  29.237  1.00  0.00     0.023 A 
ATOM     61  C   UNL A   1      39.811  26.752  29.136  1.00  0.00     0.012 A 
ATOM     62  C   UNL A   1      41.513  28.197  28.174  1.00  0.00     0.148 A 
ATOM     63  C   UNL A   1      39.879  25.912  28.026  1.00  0.00     0.002 A 
ATOM     64  C   UNL A   1      41.537  27.384  27.045  1.00  0.00     0.091 A 
ATOM     65  F   UNL A   1      42.314  29.266  28.290  1.00  0.00    -0.205 F 
ATOM     66  C   UNL A   1      40.733  26.233  26.977  1.00  0.00     0.022 A 
BRANCH  64  67
ATOM     67  S   UNL A   1      42.536  27.761  25.599  1.00  0.00     0.127 S 
ATOM     68  O   UNL A   1      43.872  27.871  26.185  1.00  0.00    -0.237 OA
ATOM     69  O   UNL A   1      42.333  26.576  24.765  1.00  0.00    -0.237 OA
ATOM     70  O   UNL A   1      41.989  28.992  25.046  1.00  0.00    -0.744 OA
ENDBRANCH  64  67
ENDBRANCH  46  60
BRANCH  47  71
ATOM     71  C   UNL A   1      39.716  34.040  37.084  1.00  0.00     0.023 A 
ATOM     72  C   UNL A   1      40.072  35.388  36.888  1.00  0.00     0.012 A 
ATOM     73  C   UNL A   1      39.174  33.646  38.323  1.00  0.00     0.148 A 
ATOM     74  C   UNL A   1      39.902  36.326  37.906  1.00  0.00     0.002 A 
ATOM     75  C   UNL A   1      38.956  34.597  39.315  1.00  0.00     0.091 A 
ATOM     76  F   UNL A   1      38.844  32.358  38.491  1.00  0.00    -0.205 F 
ATOM     77  C   UNL A   1      39.333  35.935  39.114  1.00  0.00     0.022 A 
BRANCH  75  78
ATOM     78  S   UNL A   1      38.095  34.223  40.848  1.00  0.00     0.127 S 
ATOM     79  O   UNL A   1      39.107  33.466  41.583  1.00  0.00    -0.237 OA
ATOM     80  O   UNL A   1      37.823  35.560  41.374  1.00  0.00    -0.237 OA
ATOM     81  O   UNL A   1      36.907  33.472  40.465  1.00  0.00    -0.744 OA
ENDBRANCH  75  78
ENDBRANCH  47  71
BRANCH  59  82
ATOM     82  C   UNL A   1      44.145  28.865  35.467  1.00  0.00     0.023 A 
ATOM     83  C   UNL A   1      45.418  29.440  35.292  1.00  0.00     0.012 A 
ATOM     84  C   UNL A   1      43.984  27.806  36.384  1.00  0.00     0.148 A 
ATOM     85  C   UNL A   1      46.519  28.953  35.996  1.00  0.00     0.002 A 
ATOM     86  C   UNL A   1      45.074  27.360  37.120  1.00  0.00     0.091 A 
ATOM     87  F   UNL A   1      42.767  27.259  36.523  1.00  0.00    -0.205 F 
ATOM     88  C   UNL A   1      46.345  27.924  36.920  1.00  0.00     0.022 A 
BRANCH  86  89
ATOM     89  S   UNL A   1      44.921  26.113  38.405  1.00  0.00     0.127 S 
ATOM     90  O   UNL A   1      46.292  26.026  38.902  1.00  0.00    -0.237 OA
ATOM     91  O   UNL A   1      43.973  26.735  39.331  1.00  0.00    -0.237 OA
ATOM     92  O   UNL A   1      44.416  24.918  37.741  1.00  0.00    -0.744 OA
ENDBRANCH  86  89
ENDBRANCH  59  82
ENDBRANCH  33  34
ENDBRANCH  25  28
ENDBRANCH   1  24
TORSDOF 14
ENDMDL
