MODEL 1
REMARK VINA RESULT:     -13.1      0.000      0.000
REMARK SMILES Cc1ccc(C(F)(F)F)cc1-c1ccc(/C=C/C(=O)NCCCNC(=O)c2ccc(-c3c4nc(c(-c5cccc(S(=O)(=O)[O-])c5F)c5ccc([nH]5)c(-c5cccc(S(=O)(=O)[O-])c5F)c5nc(c(-c6cccc(S(=O)(=O)[O-])c6F)c6ccc3[nH]6)C=C5)C=C4)cc2)s1
REMARK SMILES IDX 22 1 21 2 20 3 18 4 19 5 17 7 16 8 15 9 12 10 13 11 90 12
REMARK SMILES IDX 14 13 11 14 1 15 2 16 3 17 4 18 10 19 5 20 6 21 7 22 8 23
REMARK SMILES IDX 9 24 23 25 24 26 25 27 26 29 27 30 28 31 89 32 29 33 88 34
REMARK SMILES IDX 30 35 31 36 32 37 82 38 33 39 87 40 81 41 83 42 34 43 86 44
REMARK SMILES IDX 80 45 79 46 35 48 67 49 47 50 66 51 48 52 51 53 65 54 84 55
REMARK SMILES IDX 49 56 50 57 64 59 85 60 52 61 36 62 37 63 45 64 38 65 40 66
REMARK SMILES IDX 46 67 39 68 41 69 42 70 43 71 44 72 68 73 69 74 77 75 70 76
REMARK SMILES IDX 72 77 78 78 71 79 73 80 74 81 75 82 76 83 53 84 54 85 62 86
REMARK SMILES IDX 55 87 57 88 63 89 56 90 58 91 59 92 60 93 61 94
REMARK H PARENT 20 6 24 28 83 47 51 58
REMARK Flexibility Score: inf
ROOT
ATOM      1  C   UNL A   1      32.526  30.767  26.849  1.00  0.00     0.042 C 
ENDROOT
BRANCH   1   2
ATOM      2  C   UNL A   1      32.054  29.728  25.838  1.00  0.00     0.118 C 
BRANCH   2   3
ATOM      3  N   UNL A   1      32.878  29.725  24.636  1.00  0.00    -0.352 N 
ATOM      4  C   UNL A   1      33.596  28.716  24.064  1.00  0.00     0.244 C 
ATOM      5  O   UNL A   1      34.126  28.870  22.967  1.00  0.00    -0.270 OA
ATOM      6  H   UNL A   1      32.924  30.587  24.162  1.00  0.00     0.163 HD
BRANCH   4   7
ATOM      7  C   UNL A   1      33.672  27.385  24.715  1.00  0.00     0.072 C 
ATOM      8  C   UNL A   1      33.855  26.256  24.018  1.00  0.00     0.024 C 
BRANCH   8   9
ATOM      9  C   UNL A   1      33.970  24.959  24.581  1.00  0.00     0.028 A 
ATOM     10  C   UNL A   1      34.468  22.580  25.069  1.00  0.00     0.035 A 
ATOM     11  C   UNL A   1      34.096  23.272  26.201  1.00  0.00     0.021 A 
ATOM     12  S   UNL A   1      34.415  23.573  23.676  1.00  0.00    -0.136 S 
ATOM     13  C   UNL A   1      33.814  24.636  25.920  1.00  0.00     0.020 A 
BRANCH  10  14
ATOM     14  C   UNL A   1      34.886  21.185  24.949  1.00  0.00    -0.005 A 
ATOM     15  C   UNL A   1      37.367  21.777  25.190  1.00  0.00     0.045 C 
ATOM     16  C   UNL A   1      36.240  20.798  24.995  1.00  0.00    -0.042 A 
ATOM     17  C   UNL A   1      36.565  19.444  24.816  1.00  0.00     0.005 A 
ATOM     18  C   UNL A   1      35.568  18.485  24.621  1.00  0.00     0.013 A 
ATOM     19  C   UNL A   1      33.893  20.209  24.749  1.00  0.00     0.023 A 
ATOM     20  C   UNL A   1      34.219  18.855  24.591  1.00  0.00     0.056 A 
BRANCH  20  21
ATOM     21  C   UNL A   1      33.149  17.816  24.384  1.00  0.00     0.416 C 
ATOM     22  F   UNL A   1      33.412  17.004  23.320  1.00  0.00    -0.166 F 
ATOM     23  F   UNL A   1      33.015  16.986  25.457  1.00  0.00    -0.166 F 
ATOM     24  F   UNL A   1      31.911  18.334  24.157  1.00  0.00    -0.166 F 
ENDBRANCH  20  21
ENDBRANCH  10  14
ENDBRANCH   8   9
ENDBRANCH   4   7
ENDBRANCH   2   3
ENDBRANCH   1   2
BRANCH   1  25
ATOM     25  C   UNL A   1      33.637  30.289  27.768  1.00  0.00     0.118 C 
BRANCH  25  26
ATOM     26  N   UNL A   1      34.451  31.388  28.277  1.00  0.00    -0.352 N 
ATOM     27  C   UNL A   1      35.723  31.348  28.820  1.00  0.00     0.251 C 
ATOM     28  H   UNL A   1      34.038  32.280  28.229  1.00  0.00     0.163 HD
ATOM     29  O   UNL A   1      36.214  32.362  29.306  1.00  0.00    -0.269 OA
BRANCH  27  30
ATOM     30  C   UNL A   1      36.511  30.107  28.662  1.00  0.00     0.039 A 
ATOM     31  C   UNL A   1      36.800  29.396  29.831  1.00  0.00     0.014 A 
ATOM     32  C   UNL A   1      37.224  29.879  27.489  1.00  0.00     0.014 A 
ATOM     33  C   UNL A   1      37.987  28.680  29.911  1.00  0.00     0.010 A 
ATOM     34  C   UNL A   1      38.442  29.243  27.590  1.00  0.00     0.010 A 
ATOM     35  C   UNL A   1      38.854  28.725  28.826  1.00  0.00    -0.014 A 
BRANCH  35  36
ATOM     36  C   UNL A   1      40.250  28.333  28.888  1.00  0.00     0.031 A 
ATOM     37  C   UNL A   1      40.618  26.916  28.751  1.00  0.00     0.074 A 
ATOM     38  C   UNL A   1      41.192  29.303  28.886  1.00  0.00     0.049 A 
ATOM     39  N   UNL A   1      41.807  26.461  28.948  1.00  0.00    -0.248 NA
ATOM     40  C   UNL A   1      39.639  25.878  28.441  1.00  0.00     0.031 C 
ATOM     41  C   UNL A   1      42.592  29.180  28.496  1.00  0.00     0.029 A 
ATOM     42  N   UNL A   1      41.112  30.568  29.483  1.00  0.00    -0.354 N 
ATOM     43  C   UNL A   1      41.821  25.169  28.478  1.00  0.00     0.074 A 
ATOM     44  C   UNL A   1      40.435  24.810  28.333  1.00  0.00     0.031 C 
ATOM     45  C   UNL A   1      43.291  30.160  29.086  1.00  0.00     0.029 A 
ATOM     46  C   UNL A   1      42.391  30.817  30.016  1.00  0.00     0.049 A 
ATOM     47  H   UNL A   1      40.327  31.160  29.520  1.00  0.00     0.167 HD
ATOM     48  C   UNL A   1      43.014  24.631  28.107  1.00  0.00     0.034 A 
ATOM     49  C   UNL A   1      42.636  31.000  31.347  1.00  0.00     0.034 A 
ATOM     50  C   UNL A   1      44.129  25.423  28.647  1.00  0.00     0.049 A 
ATOM     51  C   UNL A   1      43.645  30.016  31.916  1.00  0.00     0.074 A 
ATOM     52  C   UNL A   1      45.029  26.320  28.096  1.00  0.00     0.029 A 
ATOM     53  N   UNL A   1      44.258  25.543  30.029  1.00  0.00    -0.354 N 
ATOM     54  N   UNL A   1      44.118  28.985  31.272  1.00  0.00    -0.248 NA
ATOM     55  C   UNL A   1      44.178  30.106  33.273  1.00  0.00     0.031 C 
ATOM     56  C   UNL A   1      45.606  27.067  29.163  1.00  0.00     0.029 A 
ATOM     57  C   UNL A   1      45.098  26.593  30.361  1.00  0.00     0.049 A 
ATOM     58  H   UNL A   1      43.810  24.958  30.683  1.00  0.00     0.167 HD
ATOM     59  C   UNL A   1      44.872  28.210  32.117  1.00  0.00     0.074 A 
ATOM     60  C   UNL A   1      44.952  29.007  33.330  1.00  0.00     0.031 C 
ATOM     61  C   UNL A   1      45.300  26.954  31.766  1.00  0.00     0.034 A 
BRANCH  48  62
ATOM     62  C   UNL A   1      43.196  23.516  27.086  1.00  0.00     0.023 A 
ATOM     63  C   UNL A   1      43.930  23.827  25.919  1.00  0.00     0.012 A 
ATOM     64  C   UNL A   1      42.602  22.227  27.111  1.00  0.00     0.148 A 
ATOM     65  C   UNL A   1      44.050  22.936  24.843  1.00  0.00     0.002 A 
ATOM     66  C   UNL A   1      42.773  21.314  26.066  1.00  0.00     0.091 A 
ATOM     67  F   UNL A   1      41.780  21.879  28.100  1.00  0.00    -0.205 F 
ATOM     68  C   UNL A   1      43.482  21.673  24.920  1.00  0.00     0.022 A 
BRANCH  66  69
ATOM     69  S   UNL A   1      42.090  19.644  26.123  1.00  0.00     0.127 S 
ATOM     70  O   UNL A   1      42.711  19.017  24.958  1.00  0.00    -0.237 OA
ATOM     71  O   UNL A   1      42.576  19.151  27.413  1.00  0.00    -0.237 OA
ATOM     72  O   UNL A   1      40.640  19.791  26.048  1.00  0.00    -0.744 OA
ENDBRANCH  66  69
ENDBRANCH  48  62
BRANCH  49  73
ATOM     73  C   UNL A   1      41.490  31.597  32.093  1.00  0.00     0.023 A 
ATOM     74  C   UNL A   1      41.134  32.926  31.758  1.00  0.00     0.012 A 
ATOM     75  C   UNL A   1      40.559  30.798  32.778  1.00  0.00     0.148 A 
ATOM     76  C   UNL A   1      39.841  33.401  31.977  1.00  0.00     0.002 A 
ATOM     77  C   UNL A   1      39.267  31.280  32.993  1.00  0.00     0.091 A 
ATOM     78  F   UNL A   1      40.916  29.557  33.130  1.00  0.00    -0.205 F 
ATOM     79  C   UNL A   1      38.897  32.565  32.562  1.00  0.00     0.022 A 
BRANCH  77  80
ATOM     80  S   UNL A   1      37.975  30.243  33.693  1.00  0.00     0.127 S 
ATOM     81  O   UNL A   1      38.146  30.487  35.122  1.00  0.00    -0.237 OA
ATOM     82  O   UNL A   1      36.763  30.820  33.110  1.00  0.00    -0.237 OA
ATOM     83  O   UNL A   1      38.280  28.901  33.223  1.00  0.00    -0.744 OA
ENDBRANCH  77  80
ENDBRANCH  49  73
BRANCH  61  84
ATOM     84  C   UNL A   1      45.918  25.929  32.713  1.00  0.00     0.023 A 
ATOM     85  C   UNL A   1      47.304  25.854  32.954  1.00  0.00     0.012 A 
ATOM     86  C   UNL A   1      45.099  25.087  33.513  1.00  0.00     0.148 A 
ATOM     87  C   UNL A   1      47.858  24.957  33.876  1.00  0.00     0.002 A 
ATOM     88  C   UNL A   1      45.646  24.279  34.511  1.00  0.00     0.091 A 
ATOM     89  F   UNL A   1      43.776  25.044  33.304  1.00  0.00    -0.205 F 
ATOM     90  C   UNL A   1      47.027  24.185  34.673  1.00  0.00     0.022 A 
BRANCH  88  91
ATOM     91  S   UNL A   1      44.590  23.467  35.723  1.00  0.00     0.127 S 
ATOM     92  O   UNL A   1      43.851  24.592  36.288  1.00  0.00    -0.237 OA
ATOM     93  O   UNL A   1      43.787  22.567  34.893  1.00  0.00    -0.237 OA
ATOM     94  O   UNL A   1      45.512  22.782  36.619  1.00  0.00    -0.744 OA
ENDBRANCH  88  91
ENDBRANCH  61  84
ENDBRANCH  35  36
ENDBRANCH  27  30
ENDBRANCH  25  26
ENDBRANCH   1  25
TORSDOF 16
ENDMDL
MODEL 2
REMARK VINA RESULT:     -12.8      4.608     10.018
REMARK SMILES Cc1ccc(C(F)(F)F)cc1-c1ccc(/C=C/C(=O)NCCCNC(=O)c2ccc(-c3c4nc(c(-c5cccc(S(=O)(=O)[O-])c5F)c5ccc([nH]5)c(-c5cccc(S(=O)(=O)[O-])c5F)c5nc(c(-c6cccc(S(=O)(=O)[O-])c6F)c6ccc3[nH]6)C=C5)C=C4)cc2)s1
REMARK SMILES IDX 22 1 21 2 20 3 18 4 19 5 17 7 16 8 15 9 12 10 13 11 90 12
REMARK SMILES IDX 14 13 11 14 1 15 2 16 3 17 4 18 10 19 5 20 6 21 7 22 8 23
REMARK SMILES IDX 9 24 23 25 24 26 25 27 26 29 27 30 28 31 89 32 29 33 88 34
REMARK SMILES IDX 30 35 31 36 32 37 82 38 33 39 87 40 81 41 83 42 34 43 86 44
REMARK SMILES IDX 80 45 79 46 35 48 67 49 47 50 66 51 48 52 51 53 65 54 84 55
REMARK SMILES IDX 49 56 50 57 64 59 85 60 52 61 36 62 37 63 45 64 38 65 40 66
REMARK SMILES IDX 46 67 39 68 41 69 42 70 43 71 44 72 68 73 69 74 77 75 70 76
REMARK SMILES IDX 72 77 78 78 71 79 73 80 74 81 75 82 76 83 53 84 54 85 62 86
REMARK SMILES IDX 55 87 57 88 63 89 56 90 58 91 59 92 60 93 61 94
REMARK H PARENT 20 6 24 28 83 47 51 58
REMARK Flexibility Score: inf
ROOT
ATOM      1  C   UNL A   1      37.958  20.901  25.741  1.00  0.00     0.042 C 
ENDROOT
BRANCH   1   2
ATOM      2  C   UNL A   1      37.079  20.567  24.540  1.00  0.00     0.118 C 
BRANCH   2   3
ATOM      3  N   UNL A   1      35.892  19.817  24.926  1.00  0.00    -0.352 N 
ATOM      4  C   UNL A   1      34.576  20.176  24.899  1.00  0.00     0.244 C 
ATOM      5  O   UNL A   1      33.699  19.352  25.141  1.00  0.00    -0.270 OA
ATOM      6  H   UNL A   1      36.067  18.906  25.259  1.00  0.00     0.163 HD
BRANCH   4   7
ATOM      7  C   UNL A   1      34.180  21.545  24.488  1.00  0.00     0.072 C 
ATOM      8  C   UNL A   1      34.292  22.599  25.307  1.00  0.00     0.024 C 
BRANCH   8   9
ATOM      9  C   UNL A   1      33.963  23.937  24.965  1.00  0.00     0.028 A 
ATOM     10  C   UNL A   1      33.353  26.339  24.952  1.00  0.00     0.035 A 
ATOM     11  C   UNL A   1      33.887  25.936  23.747  1.00  0.00     0.021 A 
ATOM     12  S   UNL A   1      33.230  25.037  26.056  1.00  0.00    -0.136 S 
ATOM     13  C   UNL A   1      34.240  24.559  23.757  1.00  0.00     0.020 A 
BRANCH  10  14
ATOM     14  C   UNL A   1      32.922  27.676  25.356  1.00  0.00    -0.005 A 
ATOM     15  C   UNL A   1      30.852  27.597  23.847  1.00  0.00     0.045 C 
ATOM     16  C   UNL A   1      31.758  28.278  24.839  1.00  0.00    -0.042 A 
ATOM     17  C   UNL A   1      31.439  29.588  25.233  1.00  0.00     0.005 A 
ATOM     18  C   UNL A   1      32.242  30.280  26.143  1.00  0.00     0.013 A 
ATOM     19  C   UNL A   1      33.722  28.385  26.268  1.00  0.00     0.023 A 
ATOM     20  C   UNL A   1      33.391  29.685  26.676  1.00  0.00     0.056 A 
BRANCH  20  21
ATOM     21  C   UNL A   1      34.251  30.435  27.659  1.00  0.00     0.416 C 
ATOM     22  F   UNL A   1      35.044  29.604  28.394  1.00  0.00    -0.166 F 
ATOM     23  F   UNL A   1      35.099  31.309  27.047  1.00  0.00    -0.166 F 
ATOM     24  F   UNL A   1      33.546  31.170  28.562  1.00  0.00    -0.166 F 
ENDBRANCH  20  21
ENDBRANCH  10  14
ENDBRANCH   8   9
ENDBRANCH   4   7
ENDBRANCH   2   3
ENDBRANCH   1   2
BRANCH   1  25
ATOM     25  C   UNL A   1      38.635  22.259  25.665  1.00  0.00     0.118 C 
BRANCH  25  26
ATOM     26  N   UNL A   1      40.016  22.220  26.136  1.00  0.00    -0.352 N 
ATOM     27  C   UNL A   1      40.824  23.266  26.544  1.00  0.00     0.251 C 
ATOM     28  H   UNL A   1      40.428  21.328  26.167  1.00  0.00     0.163 HD
ATOM     29  O   UNL A   1      42.006  23.063  26.802  1.00  0.00    -0.269 OA
BRANCH  27  30
ATOM     30  C   UNL A   1      40.191  24.579  26.798  1.00  0.00     0.039 A 
ATOM     31  C   UNL A   1      40.770  25.685  26.166  1.00  0.00     0.014 A 
ATOM     32  C   UNL A   1      39.330  24.740  27.878  1.00  0.00     0.014 A 
ATOM     33  C   UNL A   1      40.726  26.922  26.794  1.00  0.00     0.010 A 
ATOM     34  C   UNL A   1      39.356  25.943  28.549  1.00  0.00     0.010 A 
ATOM     35  C   UNL A   1      40.128  27.001  28.047  1.00  0.00    -0.014 A 
BRANCH  35  36
ATOM     36  C   UNL A   1      40.308  28.112  28.962  1.00  0.00     0.031 A 
ATOM     37  C   UNL A   1      39.471  29.313  28.827  1.00  0.00     0.074 A 
ATOM     38  C   UNL A   1      41.118  27.940  30.031  1.00  0.00     0.049 A 
ATOM     39  N   UNL A   1      39.666  30.401  29.489  1.00  0.00    -0.248 NA
ATOM     40  C   UNL A   1      38.373  29.401  27.869  1.00  0.00     0.031 C 
ATOM     41  C   UNL A   1      41.108  28.692  31.281  1.00  0.00     0.029 A 
ATOM     42  N   UNL A   1      42.294  27.182  30.096  1.00  0.00    -0.354 N 
ATOM     43  C   UNL A   1      38.554  31.186  29.298  1.00  0.00     0.074 A 
ATOM     44  C   UNL A   1      37.873  30.602  28.173  1.00  0.00     0.031 C 
ATOM     45  C   UNL A   1      42.315  28.588  31.855  1.00  0.00     0.029 A 
ATOM     46  C   UNL A   1      43.181  27.927  30.895  1.00  0.00     0.049 A 
ATOM     47  H   UNL A   1      42.464  26.310  29.672  1.00  0.00     0.167 HD
ATOM     48  C   UNL A   1      38.264  32.131  30.233  1.00  0.00     0.034 A 
ATOM     49  C   UNL A   1      44.376  28.417  30.451  1.00  0.00     0.034 A 
ATOM     50  C   UNL A   1      39.431  32.386  31.091  1.00  0.00     0.049 A 
ATOM     51  C   UNL A   1      44.502  29.924  30.593  1.00  0.00     0.074 A 
ATOM     52  C   UNL A   1      39.763  32.044  32.391  1.00  0.00     0.029 A 
ATOM     53  N   UNL A   1      40.597  32.874  30.507  1.00  0.00    -0.354 N 
ATOM     54  N   UNL A   1      43.526  30.719  30.941  1.00  0.00    -0.248 NA
ATOM     55  C   UNL A   1      45.736  30.658  30.326  1.00  0.00     0.031 C 
ATOM     56  C   UNL A   1      41.170  32.214  32.539  1.00  0.00     0.029 A 
ATOM     57  C   UNL A   1      41.684  32.707  31.350  1.00  0.00     0.049 A 
ATOM     58  H   UNL A   1      40.643  33.284  29.613  1.00  0.00     0.167 HD
ATOM     59  C   UNL A   1      43.920  32.028  30.814  1.00  0.00     0.074 A 
ATOM     60  C   UNL A   1      45.339  31.929  30.516  1.00  0.00     0.031 C 
ATOM     61  C   UNL A   1      43.028  33.068  30.895  1.00  0.00     0.034 A 
BRANCH  48  62
ATOM     62  C   UNL A   1      36.874  32.683  30.524  1.00  0.00     0.023 A 
ATOM     63  C   UNL A   1      36.284  32.322  31.756  1.00  0.00     0.012 A 
ATOM     64  C   UNL A   1      36.044  33.421  29.639  1.00  0.00     0.148 A 
ATOM     65  C   UNL A   1      34.960  32.647  32.082  1.00  0.00     0.002 A 
ATOM     66  C   UNL A   1      34.744  33.800  29.989  1.00  0.00     0.091 A 
ATOM     67  F   UNL A   1      36.451  33.699  28.402  1.00  0.00    -0.205 F 
ATOM     68  C   UNL A   1      34.191  33.398  31.204  1.00  0.00     0.022 A 
BRANCH  66  69
ATOM     69  S   UNL A   1      33.710  34.806  28.905  1.00  0.00     0.127 S 
ATOM     70  O   UNL A   1      33.437  33.888  27.800  1.00  0.00    -0.237 OA
ATOM     71  O   UNL A   1      32.554  35.096  29.756  1.00  0.00    -0.237 OA
ATOM     72  O   UNL A   1      34.502  35.980  28.555  1.00  0.00    -0.744 OA
ENDBRANCH  66  69
ENDBRANCH  48  62
BRANCH  49  73
ATOM     73  C   UNL A   1      45.001  27.592  29.376  1.00  0.00     0.023 A 
ATOM     74  C   UNL A   1      45.485  26.315  29.752  1.00  0.00     0.012 A 
ATOM     75  C   UNL A   1      44.772  27.856  28.015  1.00  0.00     0.148 A 
ATOM     76  C   UNL A   1      45.606  25.289  28.816  1.00  0.00     0.002 A 
ATOM     77  C   UNL A   1      44.895  26.823  27.085  1.00  0.00     0.091 A 
ATOM     78  F   UNL A   1      44.356  29.078  27.661  1.00  0.00    -0.205 F 
ATOM     79  C   UNL A   1      45.276  25.533  27.488  1.00  0.00     0.022 A 
BRANCH  77  80
ATOM     80  S   UNL A   1      44.435  27.044  25.360  1.00  0.00     0.127 S 
ATOM     81  O   UNL A   1      43.492  28.155  25.448  1.00  0.00    -0.237 OA
ATOM     82  O   UNL A   1      45.717  27.372  24.736  1.00  0.00    -0.237 OA
ATOM     83  O   UNL A   1      43.887  25.759  24.953  1.00  0.00    -0.744 OA
ENDBRANCH  77  80
ENDBRANCH  49  73
BRANCH  61  84
ATOM     84  C   UNL A   1      43.319  34.518  30.521  1.00  0.00     0.023 A 
ATOM     85  C   UNL A   1      43.729  35.480  31.465  1.00  0.00     0.012 A 
ATOM     86  C   UNL A   1      43.325  34.935  29.162  1.00  0.00     0.148 A 
ATOM     87  C   UNL A   1      44.061  36.792  31.105  1.00  0.00     0.002 A 
ATOM     88  C   UNL A   1      43.767  36.208  28.796  1.00  0.00     0.091 A 
ATOM     89  F   UNL A   1      42.884  34.108  28.205  1.00  0.00    -0.205 F 
ATOM     90  C   UNL A   1      44.103  37.151  29.767  1.00  0.00     0.022 A 
BRANCH  88  91
ATOM     91  S   UNL A   1      44.076  36.617  27.071  1.00  0.00     0.127 S 
ATOM     92  O   UNL A   1      44.620  35.365  26.552  1.00  0.00    -0.237 OA
ATOM     93  O   UNL A   1      42.737  36.948  26.577  1.00  0.00    -0.237 OA
ATOM     94  O   UNL A   1      44.989  37.751  27.115  1.00  0.00    -0.744 OA
ENDBRANCH  88  91
ENDBRANCH  61  84
ENDBRANCH  35  36
ENDBRANCH  27  30
ENDBRANCH  25  26
ENDBRANCH   1  25
TORSDOF 16
ENDMDL
MODEL 3
REMARK VINA RESULT:     -12.5      4.602      9.920
REMARK SMILES Cc1ccc(C(F)(F)F)cc1-c1ccc(/C=C/C(=O)NCCCNC(=O)c2ccc(-c3c4nc(c(-c5cccc(S(=O)(=O)[O-])c5F)c5ccc([nH]5)c(-c5cccc(S(=O)(=O)[O-])c5F)c5nc(c(-c6cccc(S(=O)(=O)[O-])c6F)c6ccc3[nH]6)C=C5)C=C4)cc2)s1
REMARK SMILES IDX 22 1 21 2 20 3 18 4 19 5 17 7 16 8 15 9 12 10 13 11 90 12
REMARK SMILES IDX 14 13 11 14 1 15 2 16 3 17 4 18 10 19 5 20 6 21 7 22 8 23
REMARK SMILES IDX 9 24 23 25 24 26 25 27 26 29 27 30 28 31 89 32 29 33 88 34
REMARK SMILES IDX 30 35 31 36 32 37 82 38 33 39 87 40 81 41 83 42 34 43 86 44
REMARK SMILES IDX 80 45 79 46 35 48 67 49 47 50 66 51 48 52 51 53 65 54 84 55
REMARK SMILES IDX 49 56 50 57 64 59 85 60 52 61 36 62 37 63 45 64 38 65 40 66
REMARK SMILES IDX 46 67 39 68 41 69 42 70 43 71 44 72 68 73 69 74 77 75 70 76
REMARK SMILES IDX 72 77 78 78 71 79 73 80 74 81 75 82 76 83 53 84 54 85 62 86
REMARK SMILES IDX 55 87 57 88 63 89 56 90 58 91 59 92 60 93 61 94
REMARK H PARENT 20 6 24 28 83 47 51 58
REMARK Flexibility Score: inf
ROOT
ATOM      1  C   UNL A   1      37.765  20.957  25.305  1.00  0.00     0.042 C 
ENDROOT
BRANCH   1   2
ATOM      2  C   UNL A   1      36.443  21.079  24.553  1.00  0.00     0.118 C 
BRANCH   2   3
ATOM      3  N   UNL A   1      35.361  20.387  25.241  1.00  0.00    -0.352 N 
ATOM      4  C   UNL A   1      34.072  20.774  25.467  1.00  0.00     0.244 C 
ATOM      5  O   UNL A   1      33.261  19.991  25.953  1.00  0.00    -0.270 OA
ATOM      6  H   UNL A   1      35.596  19.500  25.598  1.00  0.00     0.163 HD
BRANCH   4   7
ATOM      7  C   UNL A   1      33.607  22.118  25.044  1.00  0.00     0.072 C 
ATOM      8  C   UNL A   1      33.211  22.376  23.791  1.00  0.00     0.024 C 
BRANCH   8   9
ATOM      9  C   UNL A   1      32.724  23.628  23.331  1.00  0.00     0.028 A 
ATOM     10  C   UNL A   1      31.893  25.951  23.101  1.00  0.00     0.035 A 
ATOM     11  C   UNL A   1      32.333  25.439  21.899  1.00  0.00     0.021 A 
ATOM     12  S   UNL A   1      32.010  24.798  24.360  1.00  0.00    -0.136 S 
ATOM     13  C   UNL A   1      32.813  24.108  22.034  1.00  0.00     0.020 A 
BRANCH  10  14
ATOM     14  C   UNL A   1      31.382  27.290  23.389  1.00  0.00    -0.005 A 
ATOM     15  C   UNL A   1      33.567  28.015  24.515  1.00  0.00     0.045 C 
ATOM     16  C   UNL A   1      32.153  28.261  24.058  1.00  0.00    -0.042 A 
ATOM     17  C   UNL A   1      31.572  29.506  24.349  1.00  0.00     0.005 A 
ATOM     18  C   UNL A   1      30.262  29.796  23.961  1.00  0.00     0.013 A 
ATOM     19  C   UNL A   1      30.064  27.595  23.007  1.00  0.00     0.023 A 
ATOM     20  C   UNL A   1      29.494  28.846  23.280  1.00  0.00     0.056 A 
BRANCH  20  21
ATOM     21  C   UNL A   1      28.082  29.166  22.862  1.00  0.00     0.416 C 
ATOM     22  F   UNL A   1      28.002  29.543  21.554  1.00  0.00    -0.166 F 
ATOM     23  F   UNL A   1      27.247  28.097  22.989  1.00  0.00    -0.166 F 
ATOM     24  F   UNL A   1      27.509  30.174  23.575  1.00  0.00    -0.166 F 
ENDBRANCH  20  21
ENDBRANCH  10  14
ENDBRANCH   8   9
ENDBRANCH   4   7
ENDBRANCH   2   3
ENDBRANCH   1   2
BRANCH   1  25
ATOM     25  C   UNL A   1      38.452  22.282  25.584  1.00  0.00     0.118 C 
BRANCH  25  26
ATOM     26  N   UNL A   1      39.749  22.112  26.231  1.00  0.00    -0.352 N 
ATOM     27  C   UNL A   1      40.600  23.078  26.738  1.00  0.00     0.251 C 
ATOM     28  H   UNL A   1      40.060  21.183  26.320  1.00  0.00     0.163 HD
ATOM     29  O   UNL A   1      41.711  22.760  27.149  1.00  0.00    -0.269 OA
BRANCH  27  30
ATOM     30  C   UNL A   1      40.078  24.452  26.902  1.00  0.00     0.039 A 
ATOM     31  C   UNL A   1      40.818  25.477  26.304  1.00  0.00     0.014 A 
ATOM     32  C   UNL A   1      39.141  24.727  27.893  1.00  0.00     0.014 A 
ATOM     33  C   UNL A   1      40.837  26.732  26.897  1.00  0.00     0.010 A 
ATOM     34  C   UNL A   1      39.223  25.943  28.536  1.00  0.00     0.010 A 
ATOM     35  C   UNL A   1      40.137  26.906  28.086  1.00  0.00    -0.014 A 
BRANCH  35  36
ATOM     36  C   UNL A   1      40.340  28.023  28.989  1.00  0.00     0.031 A 
ATOM     37  C   UNL A   1      39.505  29.226  28.864  1.00  0.00     0.074 A 
ATOM     38  C   UNL A   1      41.171  27.855  30.043  1.00  0.00     0.049 A 
ATOM     39  N   UNL A   1      39.717  30.318  29.514  1.00  0.00    -0.248 NA
ATOM     40  C   UNL A   1      38.388  29.311  27.928  1.00  0.00     0.031 C 
ATOM     41  C   UNL A   1      41.190  28.616  31.287  1.00  0.00     0.029 A 
ATOM     42  N   UNL A   1      42.346  27.093  30.089  1.00  0.00    -0.354 N 
ATOM     43  C   UNL A   1      38.604  31.106  29.340  1.00  0.00     0.074 A 
ATOM     44  C   UNL A   1      37.898  30.516  28.234  1.00  0.00     0.031 C 
ATOM     45  C   UNL A   1      42.408  28.511  31.837  1.00  0.00     0.029 A 
ATOM     46  C   UNL A   1      43.252  27.841  30.864  1.00  0.00     0.049 A 
ATOM     47  H   UNL A   1      42.504  26.218  29.667  1.00  0.00     0.167 HD
ATOM     48  C   UNL A   1      38.336  32.058  30.274  1.00  0.00     0.034 A 
ATOM     49  C   UNL A   1      44.439  28.324  30.391  1.00  0.00     0.034 A 
ATOM     50  C   UNL A   1      39.522  32.315  31.106  1.00  0.00     0.049 A 
ATOM     51  C   UNL A   1      44.573  29.831  30.521  1.00  0.00     0.074 A 
ATOM     52  C   UNL A   1      39.880  31.980  32.401  1.00  0.00     0.029 A 
ATOM     53  N   UNL A   1      40.678  32.794  30.494  1.00  0.00    -0.354 N 
ATOM     54  N   UNL A   1      43.608  30.631  30.883  1.00  0.00    -0.248 NA
ATOM     55  C   UNL A   1      45.804  30.558  30.223  1.00  0.00     0.031 C 
ATOM     56  C   UNL A   1      41.290  32.147  32.519  1.00  0.00     0.029 A 
ATOM     57  C   UNL A   1      41.781  32.629  31.316  1.00  0.00     0.049 A 
ATOM     58  H   UNL A   1      40.707  33.198  29.597  1.00  0.00     0.167 HD
ATOM     59  C   UNL A   1      44.003  31.938  30.739  1.00  0.00     0.074 A 
ATOM     60  C   UNL A   1      45.416  31.832  30.412  1.00  0.00     0.031 C 
ATOM     61  C   UNL A   1      43.117  32.982  30.831  1.00  0.00     0.034 A 
BRANCH  48  62
ATOM     62  C   UNL A   1      36.955  32.617  30.590  1.00  0.00     0.023 A 
ATOM     63  C   UNL A   1      36.431  32.347  31.874  1.00  0.00     0.012 A 
ATOM     64  C   UNL A   1      36.073  33.276  29.693  1.00  0.00     0.148 A 
ATOM     65  C   UNL A   1      35.119  32.683  32.239  1.00  0.00     0.002 A 
ATOM     66  C   UNL A   1      34.787  33.667  30.076  1.00  0.00     0.091 A 
ATOM     67  F   UNL A   1      36.416  33.460  28.419  1.00  0.00    -0.205 F 
ATOM     68  C   UNL A   1      34.299  33.355  31.345  1.00  0.00     0.022 A 
BRANCH  66  69
ATOM     69  S   UNL A   1      33.687  34.576  28.971  1.00  0.00     0.127 S 
ATOM     70  O   UNL A   1      33.331  33.557  27.984  1.00  0.00    -0.237 OA
ATOM     71  O   UNL A   1      32.596  34.966  29.865  1.00  0.00    -0.237 OA
ATOM     72  O   UNL A   1      34.463  35.697  28.451  1.00  0.00    -0.744 OA
ENDBRANCH  66  69
ENDBRANCH  48  62
BRANCH  49  73
ATOM     73  C   UNL A   1      45.039  27.489  29.310  1.00  0.00     0.023 A 
ATOM     74  C   UNL A   1      45.502  26.202  29.680  1.00  0.00     0.012 A 
ATOM     75  C   UNL A   1      44.803  27.760  27.951  1.00  0.00     0.148 A 
ATOM     76  C   UNL A   1      45.595  25.175  28.741  1.00  0.00     0.002 A 
ATOM     77  C   UNL A   1      44.898  26.726  27.018  1.00  0.00     0.091 A 
ATOM     78  F   UNL A   1      44.407  28.990  27.603  1.00  0.00    -0.205 F 
ATOM     79  C   UNL A   1      45.258  25.429  27.416  1.00  0.00     0.022 A 
BRANCH  77  80
ATOM     80  S   UNL A   1      44.427  26.959  25.298  1.00  0.00     0.127 S 
ATOM     81  O   UNL A   1      43.606  28.163  25.380  1.00  0.00    -0.237 OA
ATOM     82  O   UNL A   1      45.723  27.141  24.644  1.00  0.00    -0.237 OA
ATOM     83  O   UNL A   1      43.743  25.729  24.930  1.00  0.00    -0.744 OA
ENDBRANCH  77  80
ENDBRANCH  49  73
BRANCH  61  84
ATOM     84  C   UNL A   1      43.405  34.429  30.441  1.00  0.00     0.023 A 
ATOM     85  C   UNL A   1      43.880  35.384  31.360  1.00  0.00     0.012 A 
ATOM     86  C   UNL A   1      43.340  34.846  29.084  1.00  0.00     0.148 A 
ATOM     87  C   UNL A   1      44.208  36.693  30.982  1.00  0.00     0.002 A 
ATOM     88  C   UNL A   1      43.777  36.113  28.693  1.00  0.00     0.091 A 
ATOM     89  F   UNL A   1      42.835  34.025  28.153  1.00  0.00    -0.205 F 
ATOM     90  C   UNL A   1      44.179  37.051  29.643  1.00  0.00     0.022 A 
BRANCH  88  91
ATOM     91  S   UNL A   1      43.994  36.519  26.953  1.00  0.00     0.127 S 
ATOM     92  O   UNL A   1      45.211  37.326  26.976  1.00  0.00    -0.237 OA
ATOM     93  O   UNL A   1      44.152  35.200  26.336  1.00  0.00    -0.237 OA
ATOM     94  O   UNL A   1      42.767  37.207  26.576  1.00  0.00    -0.744 OA
ENDBRANCH  88  91
ENDBRANCH  61  84
ENDBRANCH  35  36
ENDBRANCH  27  30
ENDBRANCH  25  26
ENDBRANCH   1  25
TORSDOF 16
ENDMDL
