MODEL 1
REMARK VINA RESULT:     -11.7      0.000      0.000
REMARK SMILES CC(=O)[C@H]1CC(C)=C(C)C[C@@H]1C(=O)NCCCNC(=O)c1ccc(-c2c3nc(c(-c4cccc(S(=O)(=O)[O-])c4F)c4ccc([nH]4)c(-c4cccc(S(=O)(=O)[O-])c4F)c4nc(c(-c5cccc(S(=O)(=O)[O-])c5F)c5ccc2[nH]5)C=C4)C=C3)cc1
REMARK SMILES IDX 17 1 16 2 15 3 14 4 12 5 13 6 11 8 4 9 5 10 6 11 10 12 7 13
REMARK SMILES IDX 8 14 9 15 2 16 1 17 3 18 18 19 19 20 20 22 21 23 22 24 83 25
REMARK SMILES IDX 23 26 82 27 24 28 25 29 26 30 76 31 27 32 81 33 75 34 77 35
REMARK SMILES IDX 28 36 80 37 74 38 73 39 29 41 61 42 41 43 60 44 42 45 45 46
REMARK SMILES IDX 59 47 78 48 43 49 44 50 58 52 79 53 46 54 30 55 31 56 39 57
REMARK SMILES IDX 32 58 34 59 40 60 33 61 35 62 36 63 37 64 38 65 62 66 63 67
REMARK SMILES IDX 71 68 64 69 66 70 72 71 65 72 67 73 68 74 69 75 70 76 47 77
REMARK SMILES IDX 48 78 56 79 49 80 51 81 57 82 50 83 52 84 53 85 54 86 55 87
REMARK H PARENT 14 7 18 21 77 40 45 51
REMARK Flexibility Score: inf
ROOT
ATOM      1  C   UNL A   1      34.037  28.902  26.063  1.00  0.00     0.118 C 
ENDROOT
BRANCH   1   2
ATOM      2  C   UNL A   1      33.188  27.880  26.813  1.00  0.00     0.042 C 
BRANCH   2   3
ATOM      3  C   UNL A   1      31.700  28.029  26.507  1.00  0.00     0.117 C 
BRANCH   3   4
ATOM      4  N   UNL A   1      30.996  26.782  26.710  1.00  0.00    -0.356 N 
ATOM      5  C   UNL A   1      30.282  25.941  25.928  1.00  0.00     0.224 C 
ATOM      6  O   UNL A   1      29.788  24.997  26.562  1.00  0.00    -0.275 OA
ATOM      7  H   UNL A   1      31.050  26.470  27.642  1.00  0.00     0.163 HD
BRANCH   5   8
ATOM      8  C   UNL A   1      30.224  25.953  24.384  1.00  0.00     0.093 C 
ATOM      9  C   UNL A   1      31.430  26.420  23.553  1.00  0.00     0.072 C 
ATOM     10  C   UNL A   1      31.341  27.753  22.798  1.00  0.00     0.043 C 
ATOM     11  C   UNL A   1      30.014  28.444  22.731  1.00  0.00    -0.074 C 
ATOM     12  C   UNL A   1      28.875  26.554  23.911  1.00  0.00     0.045 C 
ATOM     13  C   UNL A   1      30.069  29.778  22.025  1.00  0.00     0.039 C 
ATOM     14  C   UNL A   1      28.892  27.901  23.238  1.00  0.00    -0.074 C 
ATOM     15  C   UNL A   1      27.550  28.584  23.141  1.00  0.00     0.039 C 
BRANCH   9  16
ATOM     16  C   UNL A   1      31.818  25.288  22.596  1.00  0.00     0.134 C 
ATOM     17  C   UNL A   1      32.323  25.691  21.230  1.00  0.00     0.088 C 
ATOM     18  O   UNL A   1      31.789  24.101  22.924  1.00  0.00    -0.300 OA
ENDBRANCH   9  16
ENDBRANCH   5   8
ENDBRANCH   3   4
ENDBRANCH   2   3
ENDBRANCH   1   2
BRANCH   1  19
ATOM     19  N   UNL A   1      33.856  30.243  26.611  1.00  0.00    -0.352 N 
ATOM     20  C   UNL A   1      34.506  30.868  27.643  1.00  0.00     0.251 C 
ATOM     21  H   UNL A   1      33.158  30.780  26.171  1.00  0.00     0.163 HD
ATOM     22  O   UNL A   1      34.010  31.875  28.141  1.00  0.00    -0.269 OA
BRANCH  20  23
ATOM     23  C   UNL A   1      35.796  30.347  28.139  1.00  0.00     0.039 A 
ATOM     24  C   UNL A   1      35.828  29.663  29.358  1.00  0.00     0.014 A 
ATOM     25  C   UNL A   1      36.979  30.584  27.435  1.00  0.00     0.014 A 
ATOM     26  C   UNL A   1      37.043  29.184  29.850  1.00  0.00     0.010 A 
ATOM     27  C   UNL A   1      38.174  30.035  27.884  1.00  0.00     0.010 A 
ATOM     28  C   UNL A   1      38.222  29.349  29.105  1.00  0.00    -0.014 A 
BRANCH  28  29
ATOM     29  C   UNL A   1      39.523  28.826  29.585  1.00  0.00     0.031 A 
ATOM     30  C   UNL A   1      40.249  29.527  30.701  1.00  0.00     0.074 A 
ATOM     31  C   UNL A   1      40.087  27.779  28.953  1.00  0.00     0.049 A 
ATOM     32  N   UNL A   1      41.426  29.268  31.208  1.00  0.00    -0.248 NA
ATOM     33  C   UNL A   1      39.580  30.692  31.305  1.00  0.00     0.031 C 
ATOM     34  C   UNL A   1      39.509  27.071  27.808  1.00  0.00     0.029 A 
ATOM     35  N   UNL A   1      41.284  27.147  29.165  1.00  0.00    -0.354 N 
ATOM     36  C   UNL A   1      41.655  30.257  32.158  1.00  0.00     0.074 A 
ATOM     37  C   UNL A   1      40.513  31.144  32.128  1.00  0.00     0.031 C 
ATOM     38  C   UNL A   1      40.347  26.095  27.426  1.00  0.00     0.029 A 
ATOM     39  C   UNL A   1      41.533  26.128  28.275  1.00  0.00     0.049 A 
ATOM     40  H   UNL A   1      41.907  27.397  29.886  1.00  0.00     0.167 HD
ATOM     41  C   UNL A   1      42.705  30.396  33.002  1.00  0.00     0.034 A 
ATOM     42  C   UNL A   1      42.601  25.315  28.157  1.00  0.00     0.034 A 
ATOM     43  C   UNL A   1      43.813  29.481  33.055  1.00  0.00     0.049 A 
ATOM     44  C   UNL A   1      43.734  25.462  29.135  1.00  0.00     0.074 A 
ATOM     45  C   UNL A   1      44.886  29.476  33.927  1.00  0.00     0.029 A 
ATOM     46  N   UNL A   1      43.990  28.406  32.195  1.00  0.00    -0.354 N 
ATOM     47  N   UNL A   1      43.863  26.309  30.127  1.00  0.00    -0.248 NA
ATOM     48  C   UNL A   1      44.851  24.517  29.002  1.00  0.00     0.031 C 
ATOM     49  C   UNL A   1      45.722  28.407  33.583  1.00  0.00     0.029 A 
ATOM     50  C   UNL A   1      45.156  27.733  32.511  1.00  0.00     0.049 A 
ATOM     51  H   UNL A   1      43.375  28.159  31.467  1.00  0.00     0.167 HD
ATOM     52  C   UNL A   1      45.056  25.978  30.759  1.00  0.00     0.074 A 
ATOM     53  C   UNL A   1      45.601  24.839  30.047  1.00  0.00     0.031 C 
ATOM     54  C   UNL A   1      45.655  26.570  31.822  1.00  0.00     0.034 A 
BRANCH  41  55
ATOM     55  C   UNL A   1      42.671  31.547  33.975  1.00  0.00     0.023 A 
ATOM     56  C   UNL A   1      43.245  32.782  33.609  1.00  0.00     0.012 A 
ATOM     57  C   UNL A   1      42.046  31.424  35.231  1.00  0.00     0.148 A 
ATOM     58  C   UNL A   1      43.237  33.861  34.491  1.00  0.00     0.002 A 
ATOM     59  C   UNL A   1      42.001  32.518  36.088  1.00  0.00     0.091 A 
ATOM     60  F   UNL A   1      41.524  30.237  35.574  1.00  0.00    -0.205 F 
ATOM     61  C   UNL A   1      42.607  33.733  35.726  1.00  0.00     0.022 A 
BRANCH  59  62
ATOM     62  S   UNL A   1      41.145  32.477  37.667  1.00  0.00     0.127 S 
ATOM     63  O   UNL A   1      42.007  31.591  38.447  1.00  0.00    -0.237 OA
ATOM     64  O   UNL A   1      41.184  33.881  38.077  1.00  0.00    -0.237 OA
ATOM     65  O   UNL A   1      39.811  31.966  37.385  1.00  0.00    -0.744 OA
ENDBRANCH  59  62
ENDBRANCH  41  55
BRANCH  42  66
ATOM     66  C   UNL A   1      42.601  24.236  27.130  1.00  0.00     0.023 A 
ATOM     67  C   UNL A   1      43.278  24.447  25.913  1.00  0.00     0.012 A 
ATOM     68  C   UNL A   1      41.982  22.994  27.365  1.00  0.00     0.148 A 
ATOM     69  C   UNL A   1      43.315  23.452  24.937  1.00  0.00     0.002 A 
ATOM     70  C   UNL A   1      42.068  21.987  26.410  1.00  0.00     0.091 A 
ATOM     71  F   UNL A   1      41.337  22.814  28.526  1.00  0.00    -0.205 F 
ATOM     72  C   UNL A   1      42.720  22.220  25.189  1.00  0.00     0.022 A 
BRANCH  70  73
ATOM     73  S   UNL A   1      41.449  20.325  26.700  1.00  0.00     0.127 S 
ATOM     74  O   UNL A   1      40.014  20.559  26.828  1.00  0.00    -0.237 OA
ATOM     75  O   UNL A   1      41.856  19.633  25.476  1.00  0.00    -0.237 OA
ATOM     76  O   UNL A   1      42.126  19.859  27.904  1.00  0.00    -0.744 OA
ENDBRANCH  70  73
ENDBRANCH  42  66
BRANCH  54  77
ATOM     77  C   UNL A   1      46.952  25.979  32.307  1.00  0.00     0.023 A 
ATOM     78  C   UNL A   1      48.173  26.447  31.783  1.00  0.00     0.012 A 
ATOM     79  C   UNL A   1      46.961  25.016  33.334  1.00  0.00     0.148 A 
ATOM     80  C   UNL A   1      49.384  25.940  32.253  1.00  0.00     0.002 A 
ATOM     81  C   UNL A   1      48.173  24.553  33.832  1.00  0.00     0.091 A 
ATOM     82  F   UNL A   1      45.787  24.570  33.805  1.00  0.00    -0.205 F 
ATOM     83  C   UNL A   1      49.385  25.004  33.285  1.00  0.00     0.022 A 
BRANCH  81  84
ATOM     84  S   UNL A   1      48.270  23.421  35.224  1.00  0.00     0.127 S 
ATOM     85  O   UNL A   1      47.553  24.162  36.261  1.00  0.00    -0.237 OA
ATOM     86  O   UNL A   1      47.563  22.244  34.716  1.00  0.00    -0.237 OA
ATOM     87  O   UNL A   1      49.689  23.212  35.473  1.00  0.00    -0.744 OA
ENDBRANCH  81  84
ENDBRANCH  54  77
ENDBRANCH  28  29
ENDBRANCH  20  23
ENDBRANCH   1  19
TORSDOF 14
ENDMDL
MODEL 2
REMARK VINA RESULT:     -11.6      5.868     11.655
REMARK SMILES CC(=O)[C@H]1CC(C)=C(C)C[C@@H]1C(=O)NCCCNC(=O)c1ccc(-c2c3nc(c(-c4cccc(S(=O)(=O)[O-])c4F)c4ccc([nH]4)c(-c4cccc(S(=O)(=O)[O-])c4F)c4nc(c(-c5cccc(S(=O)(=O)[O-])c5F)c5ccc2[nH]5)C=C4)C=C3)cc1
REMARK SMILES IDX 17 1 16 2 15 3 14 4 12 5 13 6 11 8 4 9 5 10 6 11 10 12 7 13
REMARK SMILES IDX 8 14 9 15 2 16 1 17 3 18 18 19 19 20 20 22 21 23 22 24 83 25
REMARK SMILES IDX 23 26 82 27 24 28 25 29 26 30 76 31 27 32 81 33 75 34 77 35
REMARK SMILES IDX 28 36 80 37 74 38 73 39 29 41 61 42 41 43 60 44 42 45 45 46
REMARK SMILES IDX 59 47 78 48 43 49 44 50 58 52 79 53 46 54 30 55 31 56 39 57
REMARK SMILES IDX 32 58 34 59 40 60 33 61 35 62 36 63 37 64 38 65 62 66 63 67
REMARK SMILES IDX 71 68 64 69 66 70 72 71 65 72 67 73 68 74 69 75 70 76 47 77
REMARK SMILES IDX 48 78 56 79 49 80 51 81 57 82 50 83 52 84 53 85 54 86 55 87
REMARK H PARENT 14 7 18 21 77 40 45 51
REMARK Flexibility Score: inf
ROOT
ATOM      1  C   UNL A   1      40.954  21.440  27.689  1.00  0.00     0.118 C 
ENDROOT
BRANCH   1   2
ATOM      2  C   UNL A   1      42.023  20.494  27.150  1.00  0.00     0.042 C 
BRANCH   2   3
ATOM      3  C   UNL A   1      42.605  20.975  25.823  1.00  0.00     0.117 C 
BRANCH   3   4
ATOM      4  N   UNL A   1      44.036  20.771  25.774  1.00  0.00    -0.356 N 
ATOM      5  C   UNL A   1      45.120  21.573  25.670  1.00  0.00     0.224 C 
ATOM      6  O   UNL A   1      46.182  20.939  25.596  1.00  0.00    -0.275 OA
ATOM      7  H   UNL A   1      44.280  19.820  25.831  1.00  0.00     0.163 HD
BRANCH   5   8
ATOM      8  C   UNL A   1      45.143  23.108  25.845  1.00  0.00     0.093 C 
ATOM      9  C   UNL A   1      46.458  23.850  26.134  1.00  0.00     0.072 C 
ATOM     10  C   UNL A   1      46.676  24.462  27.525  1.00  0.00     0.043 C 
ATOM     11  C   UNL A   1      45.519  24.494  28.475  1.00  0.00    -0.074 C 
ATOM     12  C   UNL A   1      43.967  23.554  26.752  1.00  0.00     0.045 C 
ATOM     13  C   UNL A   1      45.876  25.052  29.833  1.00  0.00     0.039 C 
ATOM     14  C   UNL A   1      44.287  24.081  28.127  1.00  0.00    -0.074 C 
ATOM     15  C   UNL A   1      43.117  24.143  29.076  1.00  0.00     0.039 C 
BRANCH   9  16
ATOM     16  C   UNL A   1      46.659  24.910  25.046  1.00  0.00     0.134 C 
ATOM     17  C   UNL A   1      46.123  26.293  25.332  1.00  0.00     0.088 C 
ATOM     18  O   UNL A   1      47.279  24.686  24.006  1.00  0.00    -0.300 OA
ENDBRANCH   9  16
ENDBRANCH   5   8
ENDBRANCH   3   4
ENDBRANCH   2   3
ENDBRANCH   1   2
BRANCH   1  19
ATOM     19  N   UNL A   1      39.857  21.595  26.738  1.00  0.00    -0.352 N 
ATOM     20  C   UNL A   1      39.069  22.684  26.471  1.00  0.00     0.251 C 
ATOM     21  H   UNL A   1      39.653  20.792  26.205  1.00  0.00     0.163 HD
ATOM     22  O   UNL A   1      38.018  22.526  25.857  1.00  0.00    -0.269 OA
BRANCH  20  23
ATOM     23  C   UNL A   1      39.487  24.032  26.903  1.00  0.00     0.039 A 
ATOM     24  C   UNL A   1      39.193  24.450  28.205  1.00  0.00     0.014 A 
ATOM     25  C   UNL A   1      40.113  24.906  26.010  1.00  0.00     0.014 A 
ATOM     26  C   UNL A   1      39.563  25.730  28.620  1.00  0.00     0.010 A 
ATOM     27  C   UNL A   1      40.554  26.147  26.449  1.00  0.00     0.010 A 
ATOM     28  C   UNL A   1      40.265  26.580  27.751  1.00  0.00    -0.014 A 
BRANCH  28  29
ATOM     29  C   UNL A   1      40.698  27.934  28.172  1.00  0.00     0.031 A 
ATOM     30  C   UNL A   1      42.160  28.292  28.165  1.00  0.00     0.074 A 
ATOM     31  C   UNL A   1      39.784  28.802  28.646  1.00  0.00     0.049 A 
ATOM     32  N   UNL A   1      42.741  29.392  28.566  1.00  0.00    -0.248 NA
ATOM     33  C   UNL A   1      43.095  27.265  27.673  1.00  0.00     0.031 C 
ATOM     34  C   UNL A   1      38.349  28.533  28.773  1.00  0.00     0.029 A 
ATOM     35  N   UNL A   1      39.929  30.073  29.137  1.00  0.00    -0.354 N 
ATOM     36  C   UNL A   1      44.105  29.177  28.413  1.00  0.00     0.074 A 
ATOM     37  C   UNL A   1      44.268  27.827  27.921  1.00  0.00     0.031 C 
ATOM     38  C   UNL A   1      37.745  29.611  29.296  1.00  0.00     0.029 A 
ATOM     39  C   UNL A   1      38.750  30.633  29.571  1.00  0.00     0.049 A 
ATOM     40  H   UNL A   1      40.794  30.541  29.175  1.00  0.00     0.167 HD
ATOM     41  C   UNL A   1      45.129  30.037  28.630  1.00  0.00     0.034 A 
ATOM     42  C   UNL A   1      38.510  31.834  30.131  1.00  0.00     0.034 A 
ATOM     43  C   UNL A   1      44.952  31.393  29.075  1.00  0.00     0.049 A 
ATOM     44  C   UNL A   1      39.658  32.787  30.321  1.00  0.00     0.074 A 
ATOM     45  C   UNL A   1      45.909  32.376  29.245  1.00  0.00     0.029 A 
ATOM     46  N   UNL A   1      43.732  31.955  29.422  1.00  0.00    -0.354 N 
ATOM     47  N   UNL A   1      40.924  32.621  30.028  1.00  0.00    -0.248 NA
ATOM     48  C   UNL A   1      39.338  34.106  30.884  1.00  0.00     0.031 C 
ATOM     49  C   UNL A   1      45.269  33.530  29.713  1.00  0.00     0.029 A 
ATOM     50  C   UNL A   1      43.911  33.271  29.811  1.00  0.00     0.049 A 
ATOM     51  H   UNL A   1      42.866  31.488  29.395  1.00  0.00     0.167 HD
ATOM     52  C   UNL A   1      41.548  33.825  30.336  1.00  0.00     0.074 A 
ATOM     53  C   UNL A   1      40.514  34.717  30.821  1.00  0.00     0.031 C 
ATOM     54  C   UNL A   1      42.859  34.159  30.241  1.00  0.00     0.034 A 
BRANCH  41  55
ATOM     55  C   UNL A   1      46.524  29.550  28.332  1.00  0.00     0.023 A 
ATOM     56  C   UNL A   1      47.073  29.760  27.051  1.00  0.00     0.012 A 
ATOM     57  C   UNL A   1      47.304  28.918  29.320  1.00  0.00     0.148 A 
ATOM     58  C   UNL A   1      48.357  29.313  26.743  1.00  0.00     0.002 A 
ATOM     59  C   UNL A   1      48.601  28.515  29.020  1.00  0.00     0.091 A 
ATOM     60  F   UNL A   1      46.761  28.705  30.528  1.00  0.00    -0.205 F 
ATOM     61  C   UNL A   1      49.124  28.699  27.729  1.00  0.00     0.022 A 
BRANCH  59  62
ATOM     62  S   UNL A   1      49.696  27.787  30.244  1.00  0.00     0.127 S 
ATOM     63  O   UNL A   1      49.000  26.541  30.559  1.00  0.00    -0.237 OA
ATOM     64  O   UNL A   1      50.937  27.617  29.487  1.00  0.00    -0.237 OA
ATOM     65  O   UNL A   1      49.779  28.753  31.331  1.00  0.00    -0.744 OA
ENDBRANCH  59  62
ENDBRANCH  41  55
BRANCH  42  66
ATOM     66  C   UNL A   1      37.113  32.231  30.464  1.00  0.00     0.023 A 
ATOM     67  C   UNL A   1      36.638  32.035  31.775  1.00  0.00     0.012 A 
ATOM     68  C   UNL A   1      36.272  32.840  29.513  1.00  0.00     0.148 A 
ATOM     69  C   UNL A   1      35.342  32.412  32.127  1.00  0.00     0.002 A 
ATOM     70  C   UNL A   1      35.001  33.262  29.884  1.00  0.00     0.091 A 
ATOM     71  F   UNL A   1      36.740  33.012  28.269  1.00  0.00    -0.205 F 
ATOM     72  C   UNL A   1      34.528  33.034  31.186  1.00  0.00     0.022 A 
BRANCH  70  73
ATOM     73  S   UNL A   1      33.931  34.192  28.779  1.00  0.00     0.127 S 
ATOM     74  O   UNL A   1      34.818  35.263  28.336  1.00  0.00    -0.237 OA
ATOM     75  O   UNL A   1      33.609  33.194  27.759  1.00  0.00    -0.237 OA
ATOM     76  O   UNL A   1      32.793  34.606  29.591  1.00  0.00    -0.744 OA
ENDBRANCH  70  73
ENDBRANCH  42  66
BRANCH  54  77
ATOM     77  C   UNL A   1      43.251  35.557  30.635  1.00  0.00     0.023 A 
ATOM     78  C   UNL A   1      43.670  35.822  31.954  1.00  0.00     0.012 A 
ATOM     79  C   UNL A   1      43.274  36.592  29.680  1.00  0.00     0.148 A 
ATOM     80  C   UNL A   1      44.076  37.103  32.323  1.00  0.00     0.002 A 
ATOM     81  C   UNL A   1      43.729  37.854  30.043  1.00  0.00     0.091 A 
ATOM     82  F   UNL A   1      42.853  36.323  28.435  1.00  0.00    -0.205 F 
ATOM     83  C   UNL A   1      44.118  38.115  31.366  1.00  0.00     0.022 A 
BRANCH  81  84
ATOM     84  S   UNL A   1      43.908  39.188  28.854  1.00  0.00     0.127 S 
ATOM     85  O   UNL A   1      44.766  38.573  27.842  1.00  0.00    -0.237 OA
ATOM     86  O   UNL A   1      42.525  39.412  28.427  1.00  0.00    -0.237 OA
ATOM     87  O   UNL A   1      44.501  40.300  29.585  1.00  0.00    -0.744 OA
ENDBRANCH  81  84
ENDBRANCH  54  77
ENDBRANCH  28  29
ENDBRANCH  20  23
ENDBRANCH   1  19
TORSDOF 14
ENDMDL
MODEL 3
REMARK VINA RESULT:     -11.6      1.480      2.680
REMARK SMILES CC(=O)[C@H]1CC(C)=C(C)C[C@@H]1C(=O)NCCCNC(=O)c1ccc(-c2c3nc(c(-c4cccc(S(=O)(=O)[O-])c4F)c4ccc([nH]4)c(-c4cccc(S(=O)(=O)[O-])c4F)c4nc(c(-c5cccc(S(=O)(=O)[O-])c5F)c5ccc2[nH]5)C=C4)C=C3)cc1
REMARK SMILES IDX 17 1 16 2 15 3 14 4 12 5 13 6 11 8 4 9 5 10 6 11 10 12 7 13
REMARK SMILES IDX 8 14 9 15 2 16 1 17 3 18 18 19 19 20 20 22 21 23 22 24 83 25
REMARK SMILES IDX 23 26 82 27 24 28 25 29 26 30 76 31 27 32 81 33 75 34 77 35
REMARK SMILES IDX 28 36 80 37 74 38 73 39 29 41 61 42 41 43 60 44 42 45 45 46
REMARK SMILES IDX 59 47 78 48 43 49 44 50 58 52 79 53 46 54 30 55 31 56 39 57
REMARK SMILES IDX 32 58 34 59 40 60 33 61 35 62 36 63 37 64 38 65 62 66 63 67
REMARK SMILES IDX 71 68 64 69 66 70 72 71 65 72 67 73 68 74 69 75 70 76 47 77
REMARK SMILES IDX 48 78 56 79 49 80 51 81 57 82 50 83 52 84 53 85 54 86 55 87
REMARK H PARENT 14 7 18 21 77 40 45 51
REMARK Flexibility Score: inf
ROOT
ATOM      1  C   UNL A   1      34.007  28.682  26.054  1.00  0.00     0.118 C 
ENDROOT
BRANCH   1   2
ATOM      2  C   UNL A   1      33.993  28.659  24.528  1.00  0.00     0.042 C 
BRANCH   2   3
ATOM      3  C   UNL A   1      32.708  28.051  23.971  1.00  0.00     0.117 C 
BRANCH   3   4
ATOM      4  N   UNL A   1      32.973  27.255  22.793  1.00  0.00    -0.356 N 
ATOM      5  C   UNL A   1      33.364  25.981  22.561  1.00  0.00     0.224 C 
ATOM      6  O   UNL A   1      33.535  25.743  21.356  1.00  0.00    -0.275 OA
ATOM      7  H   UNL A   1      32.835  27.761  21.961  1.00  0.00     0.163 HD
BRANCH   5   8
ATOM      8  C   UNL A   1      33.399  24.831  23.591  1.00  0.00     0.093 C 
ATOM      9  C   UNL A   1      33.501  25.122  25.097  1.00  0.00     0.072 C 
ATOM     10  C   UNL A   1      34.807  24.788  25.832  1.00  0.00     0.043 C 
ATOM     11  C   UNL A   1      35.851  24.001  25.101  1.00  0.00    -0.074 C 
ATOM     12  C   UNL A   1      34.365  23.718  23.107  1.00  0.00     0.045 C 
ATOM     13  C   UNL A   1      37.116  23.797  25.901  1.00  0.00     0.039 C 
ATOM     14  C   UNL A   1      35.653  23.515  23.862  1.00  0.00    -0.074 C 
ATOM     15  C   UNL A   1      36.694  22.696  23.140  1.00  0.00     0.039 C 
BRANCH   9  16
ATOM     16  C   UNL A   1      32.309  24.458  25.795  1.00  0.00     0.134 C 
ATOM     17  C   UNL A   1      31.137  25.348  26.140  1.00  0.00     0.088 C 
ATOM     18  O   UNL A   1      32.259  23.249  26.017  1.00  0.00    -0.300 OA
ENDBRANCH   9  16
ENDBRANCH   5   8
ENDBRANCH   3   4
ENDBRANCH   2   3
ENDBRANCH   1   2
BRANCH   1  19
ATOM     19  N   UNL A   1      33.824  30.039  26.562  1.00  0.00    -0.352 N 
ATOM     20  C   UNL A   1      34.484  30.701  27.564  1.00  0.00     0.251 C 
ATOM     21  H   UNL A   1      33.116  30.557  26.116  1.00  0.00     0.163 HD
ATOM     22  O   UNL A   1      33.987  31.719  28.038  1.00  0.00    -0.269 OA
BRANCH  20  23
ATOM     23  C   UNL A   1      35.784  30.204  28.058  1.00  0.00     0.039 A 
ATOM     24  C   UNL A   1      35.847  29.603  29.318  1.00  0.00     0.014 A 
ATOM     25  C   UNL A   1      36.948  30.386  27.306  1.00  0.00     0.014 A 
ATOM     26  C   UNL A   1      37.074  29.149  29.806  1.00  0.00     0.010 A 
ATOM     27  C   UNL A   1      38.152  29.859  27.756  1.00  0.00     0.010 A 
ATOM     28  C   UNL A   1      38.231  29.256  29.019  1.00  0.00    -0.014 A 
BRANCH  28  29
ATOM     29  C   UNL A   1      39.543  28.756  29.496  1.00  0.00     0.031 A 
ATOM     30  C   UNL A   1      40.261  29.471  30.609  1.00  0.00     0.074 A 
ATOM     31  C   UNL A   1      40.123  27.718  28.864  1.00  0.00     0.049 A 
ATOM     32  N   UNL A   1      41.443  29.234  31.113  1.00  0.00    -0.248 NA
ATOM     33  C   UNL A   1      39.573  30.625  31.213  1.00  0.00     0.031 C 
ATOM     34  C   UNL A   1      39.555  26.999  27.722  1.00  0.00     0.029 A 
ATOM     35  N   UNL A   1      41.332  27.108  29.073  1.00  0.00    -0.354 N 
ATOM     36  C   UNL A   1      41.657  30.228  32.060  1.00  0.00     0.074 A 
ATOM     37  C   UNL A   1      40.500  31.094  32.033  1.00  0.00     0.031 C 
ATOM     38  C   UNL A   1      40.409  26.037  27.338  1.00  0.00     0.029 A 
ATOM     39  C   UNL A   1      41.597  26.092  28.184  1.00  0.00     0.049 A 
ATOM     40  H   UNL A   1      41.953  27.370  29.792  1.00  0.00     0.167 HD
ATOM     41  C   UNL A   1      42.707  30.387  32.902  1.00  0.00     0.034 A 
ATOM     42  C   UNL A   1      42.678  25.298  28.064  1.00  0.00     0.034 A 
ATOM     43  C   UNL A   1      43.831  29.491  32.952  1.00  0.00     0.049 A 
ATOM     44  C   UNL A   1      43.811  25.466  29.039  1.00  0.00     0.074 A 
ATOM     45  C   UNL A   1      44.907  29.507  33.821  1.00  0.00     0.029 A 
ATOM     46  N   UNL A   1      44.024  28.419  32.094  1.00  0.00    -0.354 N 
ATOM     47  N   UNL A   1      43.929  26.316  30.028  1.00  0.00    -0.248 NA
ATOM     48  C   UNL A   1      44.945  24.540  28.903  1.00  0.00     0.031 C 
ATOM     49  C   UNL A   1      45.761  28.452  33.476  1.00  0.00     0.029 A 
ATOM     50  C   UNL A   1      45.203  27.767  32.407  1.00  0.00     0.049 A 
ATOM     51  H   UNL A   1      43.412  28.160  31.368  1.00  0.00     0.167 HD
ATOM     52  C   UNL A   1      45.129  26.008  30.658  1.00  0.00     0.074 A 
ATOM     53  C   UNL A   1      45.692  24.877  29.946  1.00  0.00     0.031 C 
ATOM     54  C   UNL A   1      45.721  26.611  31.718  1.00  0.00     0.034 A 
BRANCH  41  55
ATOM     55  C   UNL A   1      42.655  31.539  33.873  1.00  0.00     0.023 A 
ATOM     56  C   UNL A   1      43.207  32.783  33.503  1.00  0.00     0.012 A 
ATOM     57  C   UNL A   1      42.036  31.406  35.130  1.00  0.00     0.148 A 
ATOM     58  C   UNL A   1      43.183  33.863  34.384  1.00  0.00     0.002 A 
ATOM     59  C   UNL A   1      41.974  32.501  35.986  1.00  0.00     0.091 A 
ATOM     60  F   UNL A   1      41.535  30.211  35.477  1.00  0.00    -0.205 F 
ATOM     61  C   UNL A   1      42.558  33.725  35.621  1.00  0.00     0.022 A 
BRANCH  59  62
ATOM     62  S   UNL A   1      41.123  32.447  37.567  1.00  0.00     0.127 S 
ATOM     63  O   UNL A   1      42.000  31.572  38.344  1.00  0.00    -0.237 OA
ATOM     64  O   UNL A   1      41.144  33.852  37.978  1.00  0.00    -0.237 OA
ATOM     65  O   UNL A   1      39.795  31.919  37.288  1.00  0.00    -0.744 OA
ENDBRANCH  59  62
ENDBRANCH  41  55
BRANCH  42  66
ATOM     66  C   UNL A   1      42.694  24.218  27.038  1.00  0.00     0.023 A 
ATOM     67  C   UNL A   1      43.406  24.420  25.840  1.00  0.00     0.012 A 
ATOM     68  C   UNL A   1      42.056  22.982  27.258  1.00  0.00     0.148 A 
ATOM     69  C   UNL A   1      43.458  23.422  24.866  1.00  0.00     0.002 A 
ATOM     70  C   UNL A   1      42.157  21.973  26.307  1.00  0.00     0.091 A 
ATOM     71  F   UNL A   1      41.379  22.811  28.402  1.00  0.00    -0.205 F 
ATOM     72  C   UNL A   1      42.844  22.197  25.103  1.00  0.00     0.022 A 
BRANCH  70  73
ATOM     73  S   UNL A   1      41.513  20.318  26.582  1.00  0.00     0.127 S 
ATOM     74  O   UNL A   1      40.073  20.555  26.586  1.00  0.00    -0.237 OA
ATOM     75  O   UNL A   1      42.018  19.599  25.412  1.00  0.00    -0.237 OA
ATOM     76  O   UNL A   1      42.087  19.879  27.848  1.00  0.00    -0.744 OA
ENDBRANCH  70  73
ENDBRANCH  42  66
BRANCH  54  77
ATOM     77  C   UNL A   1      47.029  26.045  32.200  1.00  0.00     0.023 A 
ATOM     78  C   UNL A   1      48.237  26.485  31.625  1.00  0.00     0.012 A 
ATOM     79  C   UNL A   1      47.064  25.133  33.273  1.00  0.00     0.148 A 
ATOM     80  C   UNL A   1      49.459  26.001  32.090  1.00  0.00     0.002 A 
ATOM     81  C   UNL A   1      48.288  24.694  33.764  1.00  0.00     0.091 A 
ATOM     82  F   UNL A   1      45.902  24.713  33.794  1.00  0.00    -0.205 F 
ATOM     83  C   UNL A   1      49.485  25.117  33.166  1.00  0.00     0.022 A 
BRANCH  81  84
ATOM     84  S   UNL A   1      48.419  23.633  35.207  1.00  0.00     0.127 S 
ATOM     85  O   UNL A   1      47.831  22.388  34.716  1.00  0.00    -0.237 OA
ATOM     86  O   UNL A   1      49.866  23.581  35.424  1.00  0.00    -0.237 OA
ATOM     87  O   UNL A   1      47.675  24.301  36.266  1.00  0.00    -0.744 OA
ENDBRANCH  81  84
ENDBRANCH  54  77
ENDBRANCH  28  29
ENDBRANCH  20  23
ENDBRANCH   1  19
TORSDOF 14
ENDMDL
