MODEL 1
REMARK VINA RESULT:     -12.6      0.000      0.000
REMARK SMILES COc1cccc(-c2c([C@H]3c4ccccc4C(=O)N3CC(=O)NCCCNC(=O)c3ccc(-c4c5nc(c(-c6cccc(S(=O)(=O)[O-])c6F)c6ccc([nH]6)c(-c6cccc(S(=O)(=O)[O-])c6F)c6nc(c(-c7cccc(S(=O)(=O)[O-])c7F)c7ccc4[nH]7)C=C6)C=C5)cc3)c3ccccc3n2C)c1
REMARK SMILES IDX 24 1 23 2 21 3 22 4 20 6 19 7 10 8 11 9 12 10 16 11 17 12
REMARK SMILES IDX 13 13 15 14 18 15 14 16 9 17 8 18 99 19 93 20 98 21 100 22
REMARK SMILES IDX 94 23 97 24 95 25 96 26 7 27 3 28 4 29 101 30 5 31 6 32 2 33
REMARK SMILES IDX 1 34 25 35 26 36 27 37 28 38 29 40 30 41 31 42 92 43 32 44
REMARK SMILES IDX 91 45 33 46 34 47 35 48 85 49 36 50 90 51 84 52 86 53 37 54
REMARK SMILES IDX 89 55 83 56 82 57 38 59 70 60 50 61 69 62 51 63 54 64 68 65
REMARK SMILES IDX 87 66 52 67 53 68 67 70 88 71 55 72 39 73 40 74 48 75 41 76
REMARK SMILES IDX 43 77 49 78 42 79 44 80 45 81 46 82 47 83 71 84 72 85 80 86
REMARK SMILES IDX 73 87 75 88 81 89 74 90 76 91 77 92 78 93 79 94 56 95 57 96
REMARK SMILES IDX 65 97 58 98 60 99 66 100 59 101 61 102 62 103 63 104 64 105
REMARK H PARENT 23 5 27 39 86 58 54 69
REMARK Flexibility Score: inf
ROOT
ATOM      1  C   UNL A   1      31.621  26.792  25.650  1.00  0.00     0.117 C 
ENDROOT
BRANCH   1   2
ATOM      2  N   UNL A   1      30.767  25.938  26.458  1.00  0.00    -0.354 N 
ATOM      3  C   UNL A   1      31.049  24.664  26.863  1.00  0.00     0.239 C 
ATOM      4  O   UNL A   1      30.129  23.928  27.225  1.00  0.00    -0.273 OA
ATOM      5  H   UNL A   1      29.903  26.314  26.741  1.00  0.00     0.163 HD
BRANCH   3   6
ATOM      6  C   UNL A   1      32.499  24.207  26.904  1.00  0.00     0.220 C 
BRANCH   6   7
ATOM      7  N   UNL A   1      32.929  23.092  26.056  1.00  0.00    -0.318 N 
ATOM      8  C   UNL A   1      34.303  23.161  25.588  1.00  0.00     0.150 C 
ATOM      9  C   UNL A   1      34.077  23.828  24.251  1.00  0.00    -0.008 A 
ATOM     10  C   UNL A   1      34.693  24.936  23.693  1.00  0.00     0.007 A 
ATOM     11  C   UNL A   1      32.815  23.460  23.787  1.00  0.00     0.045 A 
ATOM     12  C   UNL A   1      32.117  22.859  24.924  1.00  0.00     0.255 C 
ATOM     13  C   UNL A   1      34.031  25.622  22.661  1.00  0.00     0.000 A 
ATOM     14  C   UNL A   1      32.160  24.083  22.738  1.00  0.00     0.014 A 
ATOM     15  O   UNL A   1      30.945  22.545  24.858  1.00  0.00    -0.269 OA
ATOM     16  C   UNL A   1      32.785  25.188  22.173  1.00  0.00     0.001 A 
BRANCH   8  17
ATOM     17  C   UNL A   1      34.927  21.798  25.326  1.00  0.00     0.013 A 
ATOM     18  C   UNL A   1      36.306  21.549  25.304  1.00  0.00     0.055 A 
ATOM     19  N   UNL A   1      36.485  20.277  24.797  1.00  0.00    -0.343 N 
ATOM     20  C   UNL A   1      34.298  20.505  25.200  1.00  0.00     0.006 A 
ATOM     21  C   UNL A   1      35.291  19.584  24.851  1.00  0.00     0.049 A 
ATOM     22  C   UNL A   1      37.728  19.732  24.296  1.00  0.00     0.150 C 
ATOM     23  C   UNL A   1      32.976  20.024  25.348  1.00  0.00     0.011 A 
ATOM     24  C   UNL A   1      34.996  18.227  24.608  1.00  0.00     0.027 A 
ATOM     25  C   UNL A   1      32.679  18.674  25.129  1.00  0.00     0.001 A 
ATOM     26  C   UNL A   1      33.679  17.790  24.753  1.00  0.00     0.002 A 
BRANCH  18  27
ATOM     27  C   UNL A   1      37.347  22.479  25.757  1.00  0.00     0.002 A 
ATOM     28  C   UNL A   1      39.508  22.628  26.870  1.00  0.00     0.119 A 
ATOM     29  C   UNL A   1      39.242  23.962  27.170  1.00  0.00     0.046 A 
ATOM     30  C   UNL A   1      38.596  21.921  26.095  1.00  0.00     0.056 A 
ATOM     31  C   UNL A   1      38.052  24.562  26.746  1.00  0.00     0.005 A 
ATOM     32  C   UNL A   1      37.091  23.814  26.060  1.00  0.00     0.010 A 
BRANCH  28  33
ATOM     33  O   UNL A   1      40.646  22.102  27.421  1.00  0.00    -0.497 OA
ATOM     34  C   UNL A   1      40.835  20.696  27.254  1.00  0.00     0.278 C 
ENDBRANCH  28  33
ENDBRANCH  18  27
ENDBRANCH   8  17
ENDBRANCH   6   7
ENDBRANCH   3   6
ENDBRANCH   1   2
BRANCH   1  35
ATOM     35  C   UNL A   1      31.938  28.069  26.413  1.00  0.00     0.042 C 
BRANCH  35  36
ATOM     36  C   UNL A   1      32.977  28.921  25.719  1.00  0.00     0.118 C 
BRANCH  36  37
ATOM     37  N   UNL A   1      32.777  30.322  26.047  1.00  0.00    -0.352 N 
ATOM     38  C   UNL A   1      33.403  31.083  27.004  1.00  0.00     0.251 C 
ATOM     39  H   UNL A   1      32.100  30.791  25.509  1.00  0.00     0.163 HD
ATOM     40  O   UNL A   1      32.834  32.091  27.418  1.00  0.00    -0.269 OA
BRANCH  38  41
ATOM     41  C   UNL A   1      34.749  30.726  27.519  1.00  0.00     0.039 A 
ATOM     42  C   UNL A   1      35.074  29.375  27.684  1.00  0.00     0.014 A 
ATOM     43  C   UNL A   1      35.650  31.701  27.955  1.00  0.00     0.014 A 
ATOM     44  C   UNL A   1      36.281  29.012  28.292  1.00  0.00     0.010 A 
ATOM     45  C   UNL A   1      36.898  31.342  28.449  1.00  0.00     0.010 A 
ATOM     46  C   UNL A   1      37.202  29.996  28.684  1.00  0.00    -0.014 A 
BRANCH  46  47
ATOM     47  C   UNL A   1      38.442  29.657  29.428  1.00  0.00     0.031 A 
ATOM     48  C   UNL A   1      38.622  30.144  30.846  1.00  0.00     0.074 A 
ATOM     49  C   UNL A   1      39.433  28.985  28.813  1.00  0.00     0.049 A 
ATOM     50  N   UNL A   1      39.651  30.010  31.641  1.00  0.00    -0.248 NA
ATOM     51  C   UNL A   1      37.515  30.920  31.433  1.00  0.00     0.031 C 
ATOM     52  C   UNL A   1      39.417  28.542  27.419  1.00  0.00     0.029 A 
ATOM     53  N   UNL A   1      40.659  28.582  29.278  1.00  0.00    -0.354 N 
ATOM     54  C   UNL A   1      39.338  30.726  32.792  1.00  0.00     0.074 A 
ATOM     55  C   UNL A   1      38.041  31.325  32.579  1.00  0.00     0.031 C 
ATOM     56  C   UNL A   1      40.577  27.925  27.141  1.00  0.00     0.029 A 
ATOM     57  C   UNL A   1      41.424  27.945  28.330  1.00  0.00     0.049 A 
ATOM     58  H   UNL A   1      40.963  28.735  30.202  1.00  0.00     0.167 HD
ATOM     59  C   UNL A   1      40.047  30.845  33.941  1.00  0.00     0.034 A 
ATOM     60  C   UNL A   1      42.667  27.433  28.413  1.00  0.00     0.034 A 
ATOM     61  C   UNL A   1      41.295  30.175  34.179  1.00  0.00     0.049 A 
ATOM     62  C   UNL A   1      43.391  27.486  29.730  1.00  0.00     0.074 A 
ATOM     63  C   UNL A   1      42.036  30.125  35.346  1.00  0.00     0.029 A 
ATOM     64  N   UNL A   1      41.984  29.430  33.233  1.00  0.00    -0.354 N 
ATOM     65  N   UNL A   1      43.003  28.019  30.864  1.00  0.00    -0.248 NA
ATOM     66  C   UNL A   1      44.707  26.833  29.794  1.00  0.00     0.031 C 
ATOM     67  C   UNL A   1      43.180  29.356  35.102  1.00  0.00     0.029 A 
ATOM     68  C   UNL A   1      43.144  28.919  33.787  1.00  0.00     0.049 A 
ATOM     69  H   UNL A   1      41.691  29.287  32.305  1.00  0.00     0.167 HD
ATOM     70  C   UNL A   1      44.010  27.743  31.781  1.00  0.00     0.074 A 
ATOM     71  C   UNL A   1      45.016  26.973  31.076  1.00  0.00     0.031 C 
ATOM     72  C   UNL A   1      44.106  28.110  33.083  1.00  0.00     0.034 A 
BRANCH  59  73
ATOM     73  C   UNL A   1      39.451  31.670  35.050  1.00  0.00     0.023 A 
ATOM     74  C   UNL A   1      38.513  31.084  35.925  1.00  0.00     0.012 A 
ATOM     75  C   UNL A   1      39.844  33.007  35.258  1.00  0.00     0.148 A 
ATOM     76  C   UNL A   1      37.947  31.822  36.964  1.00  0.00     0.002 A 
ATOM     77  C   UNL A   1      39.307  33.725  36.323  1.00  0.00     0.091 A 
ATOM     78  F   UNL A   1      40.717  33.560  34.404  1.00  0.00    -0.205 F 
ATOM     79  C   UNL A   1      38.352  33.139  37.168  1.00  0.00     0.022 A 
BRANCH  77  80
ATOM     80  S   UNL A   1      39.824  35.401  36.712  1.00  0.00     0.127 S 
ATOM     81  O   UNL A   1      39.098  35.653  37.956  1.00  0.00    -0.237 OA
ATOM     82  O   UNL A   1      41.271  35.253  36.871  1.00  0.00    -0.237 OA
ATOM     83  O   UNL A   1      39.423  36.214  35.572  1.00  0.00    -0.744 OA
ENDBRANCH  77  80
ENDBRANCH  59  73
BRANCH  60  84
ATOM     84  C   UNL A   1      43.254  26.738  27.232  1.00  0.00     0.023 A 
ATOM     85  C   UNL A   1      43.960  27.490  26.275  1.00  0.00     0.012 A 
ATOM     86  C   UNL A   1      43.173  25.339  27.085  1.00  0.00     0.148 A 
ATOM     87  C   UNL A   1      44.558  26.867  25.180  1.00  0.00     0.002 A 
ATOM     88  C   UNL A   1      43.811  24.719  26.017  1.00  0.00     0.091 A 
ATOM     89  F   UNL A   1      42.485  24.643  28.002  1.00  0.00    -0.205 F 
ATOM     90  C   UNL A   1      44.493  25.481  25.057  1.00  0.00     0.022 A 
BRANCH  88  91
ATOM     91  S   UNL A   1      43.885  22.931  25.843  1.00  0.00     0.127 S 
ATOM     92  O   UNL A   1      42.709  22.662  25.019  1.00  0.00    -0.237 OA
ATOM     93  O   UNL A   1      45.167  22.743  25.163  1.00  0.00    -0.237 OA
ATOM     94  O   UNL A   1      43.840  22.401  27.199  1.00  0.00    -0.744 OA
ENDBRANCH  88  91
ENDBRANCH  60  84
BRANCH  72  95
ATOM     95  C   UNL A   1      45.331  27.675  33.842  1.00  0.00     0.023 A 
ATOM     96  C   UNL A   1      46.445  28.535  33.908  1.00  0.00     0.012 A 
ATOM     97  C   UNL A   1      45.349  26.462  34.557  1.00  0.00     0.148 A 
ATOM     98  C   UNL A   1      47.571  28.180  34.651  1.00  0.00     0.002 A 
ATOM     99  C   UNL A   1      46.457  26.135  35.330  1.00  0.00     0.091 A 
ATOM    100  F   UNL A   1      44.286  25.648  34.466  1.00  0.00    -0.205 F 
ATOM    101  C   UNL A   1      47.571  26.987  35.370  1.00  0.00     0.022 A 
BRANCH  99 102
ATOM    102  S   UNL A   1      46.500  24.664  36.361  1.00  0.00     0.127 S 
ATOM    103  O   UNL A   1      46.581  23.600  35.361  1.00  0.00    -0.237 OA
ATOM    104  O   UNL A   1      47.723  24.860  37.140  1.00  0.00    -0.237 OA
ATOM    105  O   UNL A   1      45.276  24.696  37.149  1.00  0.00    -0.744 OA
ENDBRANCH  99 102
ENDBRANCH  72  95
ENDBRANCH  46  47
ENDBRANCH  38  41
ENDBRANCH  36  37
ENDBRANCH  35  36
ENDBRANCH   1  35
TORSDOF 17
ENDMDL
MODEL 2
REMARK VINA RESULT:     -11.8      9.732     16.467
REMARK SMILES COc1cccc(-c2c([C@H]3c4ccccc4C(=O)N3CC(=O)NCCCNC(=O)c3ccc(-c4c5nc(c(-c6cccc(S(=O)(=O)[O-])c6F)c6ccc([nH]6)c(-c6cccc(S(=O)(=O)[O-])c6F)c6nc(c(-c7cccc(S(=O)(=O)[O-])c7F)c7ccc4[nH]7)C=C6)C=C5)cc3)c3ccccc3n2C)c1
REMARK SMILES IDX 24 1 23 2 21 3 22 4 20 6 19 7 10 8 11 9 12 10 16 11 17 12
REMARK SMILES IDX 13 13 15 14 18 15 14 16 9 17 8 18 99 19 93 20 98 21 100 22
REMARK SMILES IDX 94 23 97 24 95 25 96 26 7 27 3 28 4 29 101 30 5 31 6 32 2 33
REMARK SMILES IDX 1 34 25 35 26 36 27 37 28 38 29 40 30 41 31 42 92 43 32 44
REMARK SMILES IDX 91 45 33 46 34 47 35 48 85 49 36 50 90 51 84 52 86 53 37 54
REMARK SMILES IDX 89 55 83 56 82 57 38 59 70 60 50 61 69 62 51 63 54 64 68 65
REMARK SMILES IDX 87 66 52 67 53 68 67 70 88 71 55 72 39 73 40 74 48 75 41 76
REMARK SMILES IDX 43 77 49 78 42 79 44 80 45 81 46 82 47 83 71 84 72 85 80 86
REMARK SMILES IDX 73 87 75 88 81 89 74 90 76 91 77 92 78 93 79 94 56 95 57 96
REMARK SMILES IDX 65 97 58 98 60 99 66 100 59 101 61 102 62 103 63 104 64 105
REMARK H PARENT 23 5 27 39 86 58 54 69
REMARK Flexibility Score: inf
ROOT
ATOM      1  C   UNL A   1      47.636  39.189  25.996  1.00  0.00     0.117 C 
ENDROOT
BRANCH   1   2
ATOM      2  N   UNL A   1      48.124  39.568  27.311  1.00  0.00    -0.354 N 
ATOM      3  C   UNL A   1      48.354  40.840  27.752  1.00  0.00     0.239 C 
ATOM      4  O   UNL A   1      49.087  41.017  28.727  1.00  0.00    -0.273 OA
ATOM      5  H   UNL A   1      48.305  38.837  27.945  1.00  0.00     0.163 HD
BRANCH   3   6
ATOM      6  C   UNL A   1      47.656  41.999  27.057  1.00  0.00     0.220 C 
BRANCH   6   7
ATOM      7  N   UNL A   1      46.194  42.018  26.978  1.00  0.00    -0.318 N 
ATOM      8  C   UNL A   1      45.641  42.787  25.876  1.00  0.00     0.150 C 
ATOM      9  C   UNL A   1      45.418  44.105  26.582  1.00  0.00    -0.008 A 
ATOM     10  C   UNL A   1      45.794  45.387  26.215  1.00  0.00     0.007 A 
ATOM     11  C   UNL A   1      45.163  43.843  27.927  1.00  0.00     0.045 A 
ATOM     12  C   UNL A   1      45.539  42.447  28.153  1.00  0.00     0.255 C 
ATOM     13  C   UNL A   1      45.870  46.374  27.211  1.00  0.00     0.000 A 
ATOM     14  C   UNL A   1      45.179  44.804  28.924  1.00  0.00     0.014 A 
ATOM     15  O   UNL A   1      45.539  41.960  29.266  1.00  0.00    -0.269 OA
ATOM     16  C   UNL A   1      45.546  46.091  28.551  1.00  0.00     0.001 A 
BRANCH   8  17
ATOM     17  C   UNL A   1      44.287  42.283  25.399  1.00  0.00     0.013 A 
ATOM     18  C   UNL A   1      43.657  42.700  24.218  1.00  0.00     0.055 A 
ATOM     19  N   UNL A   1      42.363  42.222  24.253  1.00  0.00    -0.343 N 
ATOM     20  C   UNL A   1      43.460  41.224  25.925  1.00  0.00     0.006 A 
ATOM     21  C   UNL A   1      42.261  41.225  25.203  1.00  0.00     0.049 A 
ATOM     22  C   UNL A   1      41.270  42.674  23.418  1.00  0.00     0.150 C 
ATOM     23  C   UNL A   1      43.611  40.259  26.949  1.00  0.00     0.011 A 
ATOM     24  C   UNL A   1      41.212  40.332  25.501  1.00  0.00     0.027 A 
ATOM     25  C   UNL A   1      42.581  39.356  27.236  1.00  0.00     0.001 A 
ATOM     26  C   UNL A   1      41.392  39.401  26.525  1.00  0.00     0.002 A 
BRANCH  18  27
ATOM     27  C   UNL A   1      44.285  43.487  23.150  1.00  0.00     0.002 A 
ATOM     28  C   UNL A   1      45.918  43.409  21.345  1.00  0.00     0.119 A 
ATOM     29  C   UNL A   1      46.014  44.797  21.394  1.00  0.00     0.046 A 
ATOM     30  C   UNL A   1      44.995  42.771  22.166  1.00  0.00     0.056 A 
ATOM     31  C   UNL A   1      45.233  45.532  22.293  1.00  0.00     0.005 A 
ATOM     32  C   UNL A   1      44.386  44.875  23.190  1.00  0.00     0.010 A 
BRANCH  28  33
ATOM     33  O   UNL A   1      46.800  42.774  20.512  1.00  0.00    -0.497 OA
ATOM     34  C   UNL A   1      48.106  42.536  21.040  1.00  0.00     0.278 C 
ENDBRANCH  28  33
ENDBRANCH  18  27
ENDBRANCH   8  17
ENDBRANCH   6   7
ENDBRANCH   3   6
ENDBRANCH   1   2
BRANCH   1  35
ATOM     35  C   UNL A   1      48.277  37.877  25.570  1.00  0.00     0.042 C 
BRANCH  35  36
ATOM     36  C   UNL A   1      47.654  36.676  26.246  1.00  0.00     0.118 C 
BRANCH  36  37
ATOM     37  N   UNL A   1      46.833  35.938  25.300  1.00  0.00    -0.352 N 
ATOM     38  C   UNL A   1      45.851  35.011  25.550  1.00  0.00     0.251 C 
ATOM     39  H   UNL A   1      47.004  36.131  24.350  1.00  0.00     0.163 HD
ATOM     40  O   UNL A   1      45.569  34.203  24.667  1.00  0.00    -0.269 OA
BRANCH  38  41
ATOM     41  C   UNL A   1      45.119  34.986  26.841  1.00  0.00     0.039 A 
ATOM     42  C   UNL A   1      44.144  35.959  27.085  1.00  0.00     0.014 A 
ATOM     43  C   UNL A   1      45.461  34.094  27.861  1.00  0.00     0.014 A 
ATOM     44  C   UNL A   1      43.534  36.042  28.342  1.00  0.00     0.010 A 
ATOM     45  C   UNL A   1      44.772  34.100  29.068  1.00  0.00     0.010 A 
ATOM     46  C   UNL A   1      43.848  35.114  29.346  1.00  0.00    -0.014 A 
BRANCH  46  47
ATOM     47  C   UNL A   1      43.304  35.234  30.722  1.00  0.00     0.031 A 
ATOM     48  C   UNL A   1      41.983  34.587  31.065  1.00  0.00     0.074 A 
ATOM     49  C   UNL A   1      43.948  35.981  31.639  1.00  0.00     0.049 A 
ATOM     50  N   UNL A   1      41.309  34.627  32.184  1.00  0.00    -0.248 NA
ATOM     51  C   UNL A   1      41.310  33.830  29.993  1.00  0.00     0.031 C 
ATOM     52  C   UNL A   1      45.183  36.730  31.403  1.00  0.00     0.029 A 
ATOM     53  N   UNL A   1      43.636  36.254  32.945  1.00  0.00    -0.354 N 
ATOM     54  C   UNL A   1      40.118  33.953  31.936  1.00  0.00     0.074 A 
ATOM     55  C   UNL A   1      40.142  33.546  30.550  1.00  0.00     0.031 C 
ATOM     56  C   UNL A   1      45.525  37.376  32.529  1.00  0.00     0.029 A 
ATOM     57  C   UNL A   1      44.527  37.102  33.558  1.00  0.00     0.049 A 
ATOM     58  H   UNL A   1      42.847  35.880  33.402  1.00  0.00     0.167 HD
ATOM     59  C   UNL A   1      39.109  33.662  32.792  1.00  0.00     0.034 A 
ATOM     60  C   UNL A   1      44.540  37.598  34.810  1.00  0.00     0.034 A 
ATOM     61  C   UNL A   1      39.130  33.992  34.190  1.00  0.00     0.049 A 
ATOM     62  C   UNL A   1      43.462  37.176  35.773  1.00  0.00     0.074 A 
ATOM     63  C   UNL A   1      38.222  33.639  35.171  1.00  0.00     0.029 A 
ATOM     64  N   UNL A   1      40.116  34.746  34.806  1.00  0.00    -0.354 N 
ATOM     65  N   UNL A   1      42.432  36.391  35.566  1.00  0.00    -0.248 NA
ATOM     66  C   UNL A   1      43.570  37.672  37.153  1.00  0.00     0.031 C 
ATOM     67  C   UNL A   1      38.656  34.189  36.383  1.00  0.00     0.029 A 
ATOM     68  C   UNL A   1      39.839  34.875  36.156  1.00  0.00     0.049 A 
ATOM     69  H   UNL A   1      40.898  35.134  34.351  1.00  0.00     0.167 HD
ATOM     70  C   UNL A   1      41.785  36.277  36.790  1.00  0.00     0.074 A 
ATOM     71  C   UNL A   1      42.555  37.054  37.741  1.00  0.00     0.031 C 
ATOM     72  C   UNL A   1      40.647  35.608  37.097  1.00  0.00     0.034 A 
BRANCH  59  73
ATOM     73  C   UNL A   1      37.935  32.886  32.254  1.00  0.00     0.023 A 
ATOM     74  C   UNL A   1      37.781  31.528  32.604  1.00  0.00     0.012 A 
ATOM     75  C   UNL A   1      36.963  33.502  31.442  1.00  0.00     0.148 A 
ATOM     76  C   UNL A   1      36.703  30.786  32.124  1.00  0.00     0.002 A 
ATOM     77  C   UNL A   1      35.867  32.766  31.002  1.00  0.00     0.091 A 
ATOM     78  F   UNL A   1      37.135  34.786  31.096  1.00  0.00    -0.205 F 
ATOM     79  C   UNL A   1      35.741  31.408  31.332  1.00  0.00     0.022 A 
BRANCH  77  80
ATOM     80  S   UNL A   1      34.537  33.500  30.041  1.00  0.00     0.127 S 
ATOM     81  O   UNL A   1      33.792  34.223  31.071  1.00  0.00    -0.237 OA
ATOM     82  O   UNL A   1      35.265  34.356  29.103  1.00  0.00    -0.237 OA
ATOM     83  O   UNL A   1      33.835  32.386  29.420  1.00  0.00    -0.744 OA
ENDBRANCH  77  80
ENDBRANCH  59  73
BRANCH  60  84
ATOM     84  C   UNL A   1      45.668  38.470  35.244  1.00  0.00     0.023 A 
ATOM     85  C   UNL A   1      46.870  37.875  35.668  1.00  0.00     0.012 A 
ATOM     86  C   UNL A   1      45.580  39.875  35.179  1.00  0.00     0.148 A 
ATOM     87  C   UNL A   1      47.960  38.661  36.041  1.00  0.00     0.002 A 
ATOM     88  C   UNL A   1      46.685  40.652  35.507  1.00  0.00     0.091 A 
ATOM     89  F   UNL A   1      44.421  40.422  34.783  1.00  0.00    -0.205 F 
ATOM     90  C   UNL A   1      47.872  40.048  35.950  1.00  0.00     0.022 A 
BRANCH  88  91
ATOM     91  S   UNL A   1      46.704  42.438  35.304  1.00  0.00     0.127 S 
ATOM     92  O   UNL A   1      48.066  42.771  35.713  1.00  0.00    -0.237 OA
ATOM     93  O   UNL A   1      46.439  42.585  33.872  1.00  0.00    -0.237 OA
ATOM     94  O   UNL A   1      45.644  42.944  36.166  1.00  0.00    -0.744 OA
ENDBRANCH  88  91
ENDBRANCH  60  84
BRANCH  72  95
ATOM     95  C   UNL A   1      40.164  35.670  38.521  1.00  0.00     0.023 A 
ATOM     96  C   UNL A   1      39.431  36.791  38.956  1.00  0.00     0.012 A 
ATOM     97  C   UNL A   1      40.360  34.587  39.401  1.00  0.00     0.148 A 
ATOM     98  C   UNL A   1      38.925  36.847  40.254  1.00  0.00     0.002 A 
ATOM     99  C   UNL A   1      39.816  34.631  40.679  1.00  0.00     0.091 A 
ATOM    100  F   UNL A   1      41.078  33.536  38.974  1.00  0.00    -0.205 F 
ATOM    101  C   UNL A   1      39.107  35.764  41.110  1.00  0.00     0.022 A 
BRANCH  99 102
ATOM    102  S   UNL A   1      39.924  33.240  41.811  1.00  0.00     0.127 S 
ATOM    103  O   UNL A   1      41.278  33.391  42.341  1.00  0.00    -0.237 OA
ATOM    104  O   UNL A   1      38.858  33.531  42.770  1.00  0.00    -0.237 OA
ATOM    105  O   UNL A   1      39.693  32.052  41.001  1.00  0.00    -0.744 OA
ENDBRANCH  99 102
ENDBRANCH  72  95
ENDBRANCH  46  47
ENDBRANCH  38  41
ENDBRANCH  36  37
ENDBRANCH  35  36
ENDBRANCH   1  35
TORSDOF 17
ENDMDL
MODEL 3
REMARK VINA RESULT:     -11.7     11.762     16.492
REMARK SMILES COc1cccc(-c2c([C@H]3c4ccccc4C(=O)N3CC(=O)NCCCNC(=O)c3ccc(-c4c5nc(c(-c6cccc(S(=O)(=O)[O-])c6F)c6ccc([nH]6)c(-c6cccc(S(=O)(=O)[O-])c6F)c6nc(c(-c7cccc(S(=O)(=O)[O-])c7F)c7ccc4[nH]7)C=C6)C=C5)cc3)c3ccccc3n2C)c1
REMARK SMILES IDX 24 1 23 2 21 3 22 4 20 6 19 7 10 8 11 9 12 10 16 11 17 12
REMARK SMILES IDX 13 13 15 14 18 15 14 16 9 17 8 18 99 19 93 20 98 21 100 22
REMARK SMILES IDX 94 23 97 24 95 25 96 26 7 27 3 28 4 29 101 30 5 31 6 32 2 33
REMARK SMILES IDX 1 34 25 35 26 36 27 37 28 38 29 40 30 41 31 42 92 43 32 44
REMARK SMILES IDX 91 45 33 46 34 47 35 48 85 49 36 50 90 51 84 52 86 53 37 54
REMARK SMILES IDX 89 55 83 56 82 57 38 59 70 60 50 61 69 62 51 63 54 64 68 65
REMARK SMILES IDX 87 66 52 67 53 68 67 70 88 71 55 72 39 73 40 74 48 75 41 76
REMARK SMILES IDX 43 77 49 78 42 79 44 80 45 81 46 82 47 83 71 84 72 85 80 86
REMARK SMILES IDX 73 87 75 88 81 89 74 90 76 91 77 92 78 93 79 94 56 95 57 96
REMARK SMILES IDX 65 97 58 98 60 99 66 100 59 101 61 102 62 103 63 104 64 105
REMARK H PARENT 23 5 27 39 86 58 54 69
REMARK Flexibility Score: inf
ROOT
ATOM      1  C   UNL A   1      45.000  43.504  25.654  1.00  0.00     0.117 C 
ENDROOT
BRANCH   1   2
ATOM      2  N   UNL A   1      43.893  43.423  24.716  1.00  0.00    -0.354 N 
ATOM      3  C   UNL A   1      43.652  44.273  23.674  1.00  0.00     0.239 C 
ATOM      4  O   UNL A   1      42.523  44.321  23.184  1.00  0.00    -0.273 OA
ATOM      5  H   UNL A   1      43.256  42.684  24.844  1.00  0.00     0.163 HD
BRANCH   3   6
ATOM      6  C   UNL A   1      44.800  45.099  23.116  1.00  0.00     0.220 C 
BRANCH   6   7
ATOM      7  N   UNL A   1      45.554  44.601  21.963  1.00  0.00    -0.318 N 
ATOM      8  C   UNL A   1      45.420  45.386  20.747  1.00  0.00     0.150 C 
ATOM      9  C   UNL A   1      44.293  44.626  20.085  1.00  0.00    -0.008 A 
ATOM     10  C   UNL A   1      43.106  45.089  19.541  1.00  0.00     0.007 A 
ATOM     11  C   UNL A   1      44.370  43.293  20.485  1.00  0.00     0.045 A 
ATOM     12  C   UNL A   1      45.294  43.257  21.619  1.00  0.00     0.255 C 
ATOM     13  C   UNL A   1      42.042  44.184  19.387  1.00  0.00     0.000 A 
ATOM     14  C   UNL A   1      43.360  42.365  20.300  1.00  0.00     0.014 A 
ATOM     15  O   UNL A   1      45.475  42.240  22.261  1.00  0.00    -0.269 OA
ATOM     16  C   UNL A   1      42.173  42.829  19.745  1.00  0.00     0.001 A 
BRANCH   8  17
ATOM     17  C   UNL A   1      46.632  45.305  19.832  1.00  0.00     0.013 A 
ATOM     18  C   UNL A   1      46.738  45.959  18.596  1.00  0.00     0.055 A 
ATOM     19  N   UNL A   1      47.854  45.454  17.960  1.00  0.00    -0.343 N 
ATOM     20  C   UNL A   1      47.926  44.710  20.066  1.00  0.00     0.006 A 
ATOM     21  C   UNL A   1      48.656  44.801  18.876  1.00  0.00     0.049 A 
ATOM     22  C   UNL A   1      48.162  45.593  16.553  1.00  0.00     0.150 C 
ATOM     23  C   UNL A   1      48.552  44.098  21.178  1.00  0.00     0.011 A 
ATOM     24  C   UNL A   1      49.955  44.268  18.756  1.00  0.00     0.027 A 
ATOM     25  C   UNL A   1      49.850  43.585  21.072  1.00  0.00     0.001 A 
ATOM     26  C   UNL A   1      50.538  43.662  19.871  1.00  0.00     0.002 A 
BRANCH  18  27
ATOM     27  C   UNL A   1      45.825  46.995  18.100  1.00  0.00     0.002 A 
ATOM     28  C   UNL A   1      44.674  49.057  18.697  1.00  0.00     0.119 A 
ATOM     29  C   UNL A   1      43.760  48.822  17.673  1.00  0.00     0.046 A 
ATOM     30  C   UNL A   1      45.747  48.185  18.849  1.00  0.00     0.056 A 
ATOM     31  C   UNL A   1      43.888  47.699  16.848  1.00  0.00     0.005 A 
ATOM     32  C   UNL A   1      44.907  46.770  17.077  1.00  0.00     0.010 A 
BRANCH  28  33
ATOM     33  O   UNL A   1      44.401  50.119  19.516  1.00  0.00    -0.497 OA
ATOM     34  C   UNL A   1      43.104  50.701  19.381  1.00  0.00     0.278 C 
ENDBRANCH  28  33
ENDBRANCH  18  27
ENDBRANCH   8  17
ENDBRANCH   6   7
ENDBRANCH   3   6
ENDBRANCH   1   2
BRANCH   1  35
ATOM     35  C   UNL A   1      44.647  42.757  26.931  1.00  0.00     0.042 C 
BRANCH  35  36
ATOM     36  C   UNL A   1      44.166  41.348  26.668  1.00  0.00     0.118 C 
BRANCH  36  37
ATOM     37  N   UNL A   1      42.723  41.334  26.497  1.00  0.00    -0.352 N 
ATOM     38  C   UNL A   1      41.861  40.265  26.518  1.00  0.00     0.251 C 
ATOM     39  H   UNL A   1      42.305  42.213  26.346  1.00  0.00     0.163 HD
ATOM     40  O   UNL A   1      40.775  40.374  25.952  1.00  0.00    -0.269 OA
BRANCH  38  41
ATOM     41  C   UNL A   1      42.206  39.006  27.226  1.00  0.00     0.039 A 
ATOM     42  C   UNL A   1      42.246  37.811  26.500  1.00  0.00     0.014 A 
ATOM     43  C   UNL A   1      42.372  38.966  28.613  1.00  0.00     0.014 A 
ATOM     44  C   UNL A   1      42.435  36.592  27.162  1.00  0.00     0.010 A 
ATOM     45  C   UNL A   1      42.678  37.773  29.255  1.00  0.00     0.010 A 
ATOM     46  C   UNL A   1      42.648  36.565  28.549  1.00  0.00    -0.014 A 
BRANCH  46  47
ATOM     47  C   UNL A   1      42.745  35.289  29.301  1.00  0.00     0.031 A 
ATOM     48  C   UNL A   1      41.486  34.564  29.714  1.00  0.00     0.074 A 
ATOM     49  C   UNL A   1      43.949  34.820  29.681  1.00  0.00     0.049 A 
ATOM     50  N   UNL A   1      41.354  33.475  30.425  1.00  0.00    -0.248 NA
ATOM     51  C   UNL A   1      40.203  35.166  29.308  1.00  0.00     0.031 C 
ATOM     52  C   UNL A   1      45.231  35.477  29.424  1.00  0.00     0.029 A 
ATOM     53  N   UNL A   1      44.285  33.695  30.389  1.00  0.00    -0.354 N 
ATOM     54  C   UNL A   1      39.986  33.295  30.596  1.00  0.00     0.074 A 
ATOM     55  C   UNL A   1      39.328  34.406  29.948  1.00  0.00     0.031 C 
ATOM     56  C   UNL A   1      46.216  34.741  29.964  1.00  0.00     0.029 A 
ATOM     57  C   UNL A   1      45.635  33.573  30.619  1.00  0.00     0.049 A 
ATOM     58  H   UNL A   1      43.623  33.037  30.703  1.00  0.00     0.167 HD
ATOM     59  C   UNL A   1      39.329  32.278  31.204  1.00  0.00     0.034 A 
ATOM     60  C   UNL A   1      46.325  32.624  31.280  1.00  0.00     0.034 A 
ATOM     61  C   UNL A   1      39.985  31.132  31.770  1.00  0.00     0.049 A 
ATOM     62  C   UNL A   1      45.580  31.450  31.857  1.00  0.00     0.074 A 
ATOM     63  C   UNL A   1      39.416  29.988  32.299  1.00  0.00     0.029 A 
ATOM     64  N   UNL A   1      41.360  30.982  31.873  1.00  0.00    -0.354 N 
ATOM     65  N   UNL A   1      44.291  31.209  31.856  1.00  0.00    -0.248 NA
ATOM     66  C   UNL A   1      46.387  30.396  32.490  1.00  0.00     0.031 C 
ATOM     67  C   UNL A   1      40.449  29.148  32.731  1.00  0.00     0.029 A 
ATOM     68  C   UNL A   1      41.660  29.766  32.461  1.00  0.00     0.049 A 
ATOM     69  H   UNL A   1      42.024  31.643  31.573  1.00  0.00     0.167 HD
ATOM     70  C   UNL A   1      44.133  29.968  32.460  1.00  0.00     0.074 A 
ATOM     71  C   UNL A   1      45.462  29.494  32.793  1.00  0.00     0.031 C 
ATOM     72  C   UNL A   1      42.992  29.289  32.735  1.00  0.00     0.034 A 
BRANCH  59  73
ATOM     73  C   UNL A   1      37.824  32.325  31.220  1.00  0.00     0.023 A 
ATOM     74  C   UNL A   1      37.096  31.591  30.260  1.00  0.00     0.012 A 
ATOM     75  C   UNL A   1      37.127  33.055  32.202  1.00  0.00     0.148 A 
ATOM     76  C   UNL A   1      35.702  31.612  30.252  1.00  0.00     0.002 A 
ATOM     77  C   UNL A   1      35.735  33.037  32.215  1.00  0.00     0.091 A 
ATOM     78  F   UNL A   1      37.830  33.768  33.093  1.00  0.00    -0.205 F 
ATOM     79  C   UNL A   1      35.022  32.327  31.235  1.00  0.00     0.022 A 
BRANCH  77  80
ATOM     80  S   UNL A   1      34.772  33.864  33.487  1.00  0.00     0.127 S 
ATOM     81  O   UNL A   1      34.961  35.270  33.134  1.00  0.00    -0.237 OA
ATOM     82  O   UNL A   1      33.424  33.350  33.242  1.00  0.00    -0.237 OA
ATOM     83  O   UNL A   1      35.353  33.448  34.756  1.00  0.00    -0.744 OA
ENDBRANCH  77  80
ENDBRANCH  59  73
BRANCH  60  84
ATOM     84  C   UNL A   1      47.811  32.704  31.340  1.00  0.00     0.023 A 
ATOM     85  C   UNL A   1      48.570  32.163  30.285  1.00  0.00     0.012 A 
ATOM     86  C   UNL A   1      48.472  33.363  32.397  1.00  0.00     0.148 A 
ATOM     87  C   UNL A   1      49.962  32.257  30.289  1.00  0.00     0.002 A 
ATOM     88  C   UNL A   1      49.855  33.495  32.370  1.00  0.00     0.091 A 
ATOM     89  F   UNL A   1      47.731  33.861  33.397  1.00  0.00    -0.205 F 
ATOM     90  C   UNL A   1      50.603  32.932  31.325  1.00  0.00     0.022 A 
BRANCH  88  91
ATOM     91  S   UNL A   1      50.757  34.452  33.596  1.00  0.00     0.127 S 
ATOM     92  O   UNL A   1      50.691  33.578  34.765  1.00  0.00    -0.237 OA
ATOM     93  O   UNL A   1      52.082  34.560  32.984  1.00  0.00    -0.237 OA
ATOM     94  O   UNL A   1      50.044  35.717  33.712  1.00  0.00    -0.744 OA
ENDBRANCH  88  91
ENDBRANCH  60  84
BRANCH  72  95
ATOM     95  C   UNL A   1      43.121  27.953  33.416  1.00  0.00     0.023 A 
ATOM     96  C   UNL A   1      43.600  26.848  32.687  1.00  0.00     0.012 A 
ATOM     97  C   UNL A   1      42.852  27.812  34.791  1.00  0.00     0.148 A 
ATOM     98  C   UNL A   1      43.782  25.613  33.309  1.00  0.00     0.002 A 
ATOM     99  C   UNL A   1      43.077  26.590  35.415  1.00  0.00     0.091 A 
ATOM    100  F   UNL A   1      42.379  28.872  35.465  1.00  0.00    -0.205 F 
ATOM    101  C   UNL A   1      43.532  25.488  34.673  1.00  0.00     0.022 A 
BRANCH  99 102
ATOM    102  S   UNL A   1      42.871  26.370  37.186  1.00  0.00     0.127 S 
ATOM    103  O   UNL A   1      43.349  25.001  37.374  1.00  0.00    -0.237 OA
ATOM    104  O   UNL A   1      43.749  27.403  37.737  1.00  0.00    -0.237 OA
ATOM    105  O   UNL A   1      41.454  26.585  37.449  1.00  0.00    -0.744 OA
ENDBRANCH  99 102
ENDBRANCH  72  95
ENDBRANCH  46  47
ENDBRANCH  38  41
ENDBRANCH  36  37
ENDBRANCH  35  36
ENDBRANCH   1  35
TORSDOF 17
ENDMDL
