MODEL 1
REMARK VINA RESULT:     -12.7      0.000      0.000
REMARK SMILES CCn1nc(C(=O)NCCCNC(=O)c2ccc(-c3c4nc(c(-c5cccc(S(=O)(=O)[O-])c5F)c5ccc([nH]5)c(-c5cccc(S(=O)(=O)[O-])c5F)c5nc(c(-c6cccc(S(=O)(=O)[O-])c6F)c6ccc3[nH]6)C=C5)C=C4)cc2)c2c1CC[C@H]([NH2+]Cc1nn(CC)c3ccccc13)C2
REMARK SMILES IDX 9 1 8 2 6 3 7 4 5 6 3 7 4 8 79 9 78 10 80 11 96 12 81 13
REMARK SMILES IDX 82 14 2 15 1 16 83 17 84 20 85 21 86 22 95 23 87 24 90 25
REMARK SMILES IDX 94 26 91 27 93 28 92 29 88 30 89 31 10 32 11 33 12 34 13 35
REMARK SMILES IDX 14 37 15 38 16 39 77 40 17 41 76 42 18 43 19 44 20 45 70 46
REMARK SMILES IDX 21 47 75 48 69 49 71 50 22 51 74 52 68 53 67 54 23 56 55 57
REMARK SMILES IDX 35 58 54 59 36 60 39 61 53 62 72 63 37 64 38 65 52 67 73 68
REMARK SMILES IDX 40 69 24 70 25 71 33 72 26 73 28 74 34 75 27 76 29 77 30 78
REMARK SMILES IDX 31 79 32 80 56 81 57 82 65 83 58 84 60 85 66 86 59 87 61 88
REMARK SMILES IDX 62 89 63 90 64 91 41 92 42 93 50 94 43 95 45 96 51 97 44 98
REMARK SMILES IDX 46 99 47 100 48 101 49 102
REMARK H PARENT 8 5 83 18 83 19 12 36 71 55 39 66
REMARK Flexibility Score: inf
ROOT
ATOM      1  C   UNL A   1      38.905  20.662  25.526  1.00  0.00     0.118 C 
ENDROOT
BRANCH   1   2
ATOM      2  N   UNL A   1      38.176  21.899  25.185  1.00  0.00    -0.351 N 
ATOM      3  C   UNL A   1      36.931  22.392  25.565  1.00  0.00     0.272 C 
ATOM      4  O   UNL A   1      36.937  23.471  26.166  1.00  0.00    -0.267 OA
ATOM      5  H   UNL A   1      38.666  22.491  24.571  1.00  0.00     0.163 HD
BRANCH   3   6
ATOM      6  C   UNL A   1      35.655  21.796  25.091  1.00  0.00     0.153 A 
ATOM      7  N   UNL A   1      34.256  20.232  24.571  1.00  0.00    -0.269 N 
ATOM      8  N   UNL A   1      35.517  20.456  25.000  1.00  0.00    -0.167 NA
ATOM      9  C   UNL A   1      33.563  21.395  24.380  1.00  0.00     0.043 A 
ATOM     10  C   UNL A   1      34.448  22.394  24.686  1.00  0.00     0.012 A 
ATOM     11  C   UNL A   1      32.169  21.663  23.953  1.00  0.00     0.062 C 
ATOM     12  C   UNL A   1      34.136  23.803  24.541  1.00  0.00     0.105 C 
ATOM     13  C   UNL A   1      32.112  22.986  23.125  1.00  0.00     0.072 C 
ATOM     14  C   UNL A   1      33.003  24.193  23.599  1.00  0.00     0.187 C 
BRANCH   7  15
ATOM     15  C   UNL A   1      33.799  18.857  24.457  1.00  0.00     0.141 C 
ATOM     16  C   UNL A   1      34.918  17.815  24.450  1.00  0.00     0.029 C 
ENDBRANCH   7  15
BRANCH  14  17
ATOM     17  N   UNL A   1      33.501  25.019  22.442  1.00  0.00    -0.338 N 
ATOM     18  H   UNL A   1      33.996  24.396  21.803  1.00  0.00     0.346 HD
ATOM     19  H   UNL A   1      34.087  25.744  22.853  1.00  0.00     0.346 HD
BRANCH  17  20
ATOM     20  C   UNL A   1      32.443  25.746  21.652  1.00  0.00     0.320 C 
BRANCH  20  21
ATOM     21  C   UNL A   1      31.803  26.930  22.407  1.00  0.00     0.124 A 
ATOM     22  N   UNL A   1      30.650  27.489  21.971  1.00  0.00    -0.171 NA
ATOM     23  C   UNL A   1      32.341  27.699  23.509  1.00  0.00     0.029 A 
ATOM     24  N   UNL A   1      30.522  28.602  22.734  1.00  0.00    -0.265 N 
ATOM     25  C   UNL A   1      31.348  28.617  23.826  1.00  0.00     0.069 A 
ATOM     26  C   UNL A   1      33.527  27.782  24.258  1.00  0.00     0.012 A 
ATOM     27  C   UNL A   1      31.399  29.513  24.904  1.00  0.00     0.028 A 
ATOM     28  C   UNL A   1      33.693  28.855  25.164  1.00  0.00     0.001 A 
ATOM     29  C   UNL A   1      32.644  29.707  25.480  1.00  0.00     0.002 A 
BRANCH  24  30
ATOM     30  C   UNL A   1      29.815  29.792  22.273  1.00  0.00     0.141 C 
ATOM     31  C   UNL A   1      28.541  30.118  23.075  1.00  0.00     0.029 C 
ENDBRANCH  24  30
ENDBRANCH  20  21
ENDBRANCH  17  20
ENDBRANCH  14  17
ENDBRANCH   3   6
ENDBRANCH   1   2
BRANCH   1  32
ATOM     32  C   UNL A   1      40.194  20.914  26.332  1.00  0.00     0.042 C 
BRANCH  32  33
ATOM     33  C   UNL A   1      40.509  22.385  26.628  1.00  0.00     0.118 C 
BRANCH  33  34
ATOM     34  N   UNL A   1      41.697  22.943  25.969  1.00  0.00    -0.352 N 
ATOM     35  C   UNL A   1      42.107  24.277  25.912  1.00  0.00     0.251 C 
ATOM     36  H   UNL A   1      42.279  22.295  25.510  1.00  0.00     0.163 HD
ATOM     37  O   UNL A   1      42.863  24.650  25.038  1.00  0.00    -0.269 OA
BRANCH  35  38
ATOM     38  C   UNL A   1      41.652  25.225  26.960  1.00  0.00     0.039 A 
ATOM     39  C   UNL A   1      42.307  25.338  28.190  1.00  0.00     0.014 A 
ATOM     40  C   UNL A   1      40.547  26.025  26.687  1.00  0.00     0.014 A 
ATOM     41  C   UNL A   1      41.959  26.389  29.041  1.00  0.00     0.010 A 
ATOM     42  C   UNL A   1      40.236  27.095  27.484  1.00  0.00     0.010 A 
ATOM     43  C   UNL A   1      40.976  27.311  28.636  1.00  0.00    -0.014 A 
BRANCH  43  44
ATOM     44  C   UNL A   1      41.032  28.696  29.103  1.00  0.00     0.031 A 
ATOM     45  C   UNL A   1      42.203  29.412  28.521  1.00  0.00     0.074 A 
ATOM     46  C   UNL A   1      39.996  29.382  29.629  1.00  0.00     0.049 A 
ATOM     47  N   UNL A   1      43.328  29.667  29.102  1.00  0.00    -0.248 NA
ATOM     48  C   UNL A   1      42.230  29.634  27.063  1.00  0.00     0.031 C 
ATOM     49  C   UNL A   1      38.627  28.909  29.851  1.00  0.00     0.029 A 
ATOM     50  N   UNL A   1      39.912  30.709  29.928  1.00  0.00    -0.354 N 
ATOM     51  C   UNL A   1      44.068  30.369  28.153  1.00  0.00     0.074 A 
ATOM     52  C   UNL A   1      43.495  30.023  26.883  1.00  0.00     0.031 C 
ATOM     53  C   UNL A   1      37.808  29.971  30.026  1.00  0.00     0.029 A 
ATOM     54  C   UNL A   1      38.611  31.178  30.093  1.00  0.00     0.049 A 
ATOM     55  H   UNL A   1      40.704  31.286  30.019  1.00  0.00     0.167 HD
ATOM     56  C   UNL A   1      44.823  31.444  28.519  1.00  0.00     0.034 A 
ATOM     57  C   UNL A   1      38.230  32.471  30.237  1.00  0.00     0.034 A 
ATOM     58  C   UNL A   1      44.912  31.524  29.962  1.00  0.00     0.049 A 
ATOM     59  C   UNL A   1      39.428  33.223  30.675  1.00  0.00     0.074 A 
ATOM     60  C   UNL A   1      45.328  30.686  30.976  1.00  0.00     0.029 A 
ATOM     61  N   UNL A   1      44.103  32.470  30.544  1.00  0.00    -0.354 N 
ATOM     62  N   UNL A   1      40.008  33.044  31.828  1.00  0.00    -0.248 NA
ATOM     63  C   UNL A   1      40.222  33.920  29.677  1.00  0.00     0.031 C 
ATOM     64  C   UNL A   1      44.420  30.924  32.050  1.00  0.00     0.029 A 
ATOM     65  C   UNL A   1      43.549  31.952  31.679  1.00  0.00     0.049 A 
ATOM     66  H   UNL A   1      43.947  33.378  30.196  1.00  0.00     0.167 HD
ATOM     67  C   UNL A   1      41.361  33.149  31.542  1.00  0.00     0.074 A 
ATOM     68  C   UNL A   1      41.420  33.852  30.264  1.00  0.00     0.031 C 
ATOM     69  C   UNL A   1      42.269  32.378  32.209  1.00  0.00     0.034 A 
BRANCH  56  70
ATOM     70  C   UNL A   1      45.086  32.683  27.671  1.00  0.00     0.023 A 
ATOM     71  C   UNL A   1      44.031  33.094  26.820  1.00  0.00     0.012 A 
ATOM     72  C   UNL A   1      46.346  33.280  27.440  1.00  0.00     0.148 A 
ATOM     73  C   UNL A   1      44.241  33.966  25.746  1.00  0.00     0.002 A 
ATOM     74  C   UNL A   1      46.534  34.204  26.416  1.00  0.00     0.091 A 
ATOM     75  F   UNL A   1      47.422  32.884  28.118  1.00  0.00    -0.205 F 
ATOM     76  C   UNL A   1      45.495  34.521  25.542  1.00  0.00     0.022 A 
BRANCH  74  77
ATOM     77  S   UNL A   1      48.130  34.988  26.134  1.00  0.00     0.127 S 
ATOM     78  O   UNL A   1      47.729  36.355  25.819  1.00  0.00    -0.237 OA
ATOM     79  O   UNL A   1      48.778  34.812  27.434  1.00  0.00    -0.237 OA
ATOM     80  O   UNL A   1      48.754  34.240  25.049  1.00  0.00    -0.744 OA
ENDBRANCH  74  77
ENDBRANCH  56  70
BRANCH  57  81
ATOM     81  C   UNL A   1      36.974  33.173  29.886  1.00  0.00     0.023 A 
ATOM     82  C   UNL A   1      36.419  33.000  28.600  1.00  0.00     0.012 A 
ATOM     83  C   UNL A   1      36.167  33.757  30.885  1.00  0.00     0.148 A 
ATOM     84  C   UNL A   1      35.088  33.342  28.333  1.00  0.00     0.002 A 
ATOM     85  C   UNL A   1      34.844  34.096  30.614  1.00  0.00     0.091 A 
ATOM     86  F   UNL A   1      36.667  33.888  32.121  1.00  0.00    -0.205 F 
ATOM     87  C   UNL A   1      34.296  33.875  29.344  1.00  0.00     0.022 A 
BRANCH  85  88
ATOM     88  S   UNL A   1      33.747  34.756  31.877  1.00  0.00     0.127 S 
ATOM     89  O   UNL A   1      32.598  35.192  31.082  1.00  0.00    -0.237 OA
ATOM     90  O   UNL A   1      33.506  33.581  32.710  1.00  0.00    -0.237 OA
ATOM     91  O   UNL A   1      34.484  35.843  32.511  1.00  0.00    -0.744 OA
ENDBRANCH  85  88
ENDBRANCH  57  81
BRANCH  69  92
ATOM     92  C   UNL A   1      41.834  31.732  33.500  1.00  0.00     0.023 A 
ATOM     93  C   UNL A   1      41.294  30.431  33.572  1.00  0.00     0.012 A 
ATOM     94  C   UNL A   1      42.125  32.413  34.693  1.00  0.00     0.148 A 
ATOM     95  C   UNL A   1      41.031  29.835  34.810  1.00  0.00     0.002 A 
ATOM     96  C   UNL A   1      41.913  31.798  35.919  1.00  0.00     0.091 A 
ATOM     97  F   UNL A   1      42.629  33.654  34.608  1.00  0.00    -0.205 F 
ATOM     98  C   UNL A   1      41.355  30.512  35.983  1.00  0.00     0.022 A 
BRANCH  96  99
ATOM     99  S   UNL A   1      42.437  32.573  37.449  1.00  0.00     0.127 S 
ATOM    100  O   UNL A   1      42.147  31.534  38.433  1.00  0.00    -0.237 OA
ATOM    101  O   UNL A   1      43.861  32.811  37.209  1.00  0.00    -0.237 OA
ATOM    102  O   UNL A   1      41.647  33.792  37.567  1.00  0.00    -0.744 OA
ENDBRANCH  96  99
ENDBRANCH  69  92
ENDBRANCH  43  44
ENDBRANCH  35  38
ENDBRANCH  33  34
ENDBRANCH  32  33
ENDBRANCH   1  32
TORSDOF 18
ENDMDL
MODEL 2
REMARK VINA RESULT:     -12.0      7.088     13.922
REMARK SMILES CCn1nc(C(=O)NCCCNC(=O)c2ccc(-c3c4nc(c(-c5cccc(S(=O)(=O)[O-])c5F)c5ccc([nH]5)c(-c5cccc(S(=O)(=O)[O-])c5F)c5nc(c(-c6cccc(S(=O)(=O)[O-])c6F)c6ccc3[nH]6)C=C5)C=C4)cc2)c2c1CC[C@H]([NH2+]Cc1nn(CC)c3ccccc13)C2
REMARK SMILES IDX 9 1 8 2 6 3 7 4 5 6 3 7 4 8 79 9 78 10 80 11 96 12 81 13
REMARK SMILES IDX 82 14 2 15 1 16 83 17 84 20 85 21 86 22 95 23 87 24 90 25
REMARK SMILES IDX 94 26 91 27 93 28 92 29 88 30 89 31 10 32 11 33 12 34 13 35
REMARK SMILES IDX 14 37 15 38 16 39 77 40 17 41 76 42 18 43 19 44 20 45 70 46
REMARK SMILES IDX 21 47 75 48 69 49 71 50 22 51 74 52 68 53 67 54 23 56 55 57
REMARK SMILES IDX 35 58 54 59 36 60 39 61 53 62 72 63 37 64 38 65 52 67 73 68
REMARK SMILES IDX 40 69 24 70 25 71 33 72 26 73 28 74 34 75 27 76 29 77 30 78
REMARK SMILES IDX 31 79 32 80 56 81 57 82 65 83 58 84 60 85 66 86 59 87 61 88
REMARK SMILES IDX 62 89 63 90 64 91 41 92 42 93 50 94 43 95 45 96 51 97 44 98
REMARK SMILES IDX 46 99 47 100 48 101 49 102
REMARK H PARENT 8 5 83 18 83 19 12 36 71 55 39 66
REMARK Flexibility Score: inf
ROOT
ATOM      1  C   UNL A   1      46.941  39.559  24.862  1.00  0.00     0.118 C 
ENDROOT
BRANCH   1   2
ATOM      2  N   UNL A   1      46.767  40.990  24.545  1.00  0.00    -0.351 N 
ATOM      3  C   UNL A   1      45.898  41.962  25.033  1.00  0.00     0.272 C 
ATOM      4  O   UNL A   1      46.428  42.934  25.580  1.00  0.00    -0.267 OA
ATOM      5  H   UNL A   1      47.386  41.321  23.856  1.00  0.00     0.163 HD
BRANCH   3   6
ATOM      6  C   UNL A   1      44.445  41.965  24.724  1.00  0.00     0.153 A 
ATOM      7  N   UNL A   1      42.350  41.496  24.982  1.00  0.00    -0.269 N 
ATOM      8  N   UNL A   1      43.579  41.275  25.497  1.00  0.00    -0.167 NA
ATOM      9  C   UNL A   1      42.390  42.315  23.889  1.00  0.00     0.043 A 
ATOM     10  C   UNL A   1      43.716  42.603  23.704  1.00  0.00     0.012 A 
ATOM     11  C   UNL A   1      41.324  42.860  23.016  1.00  0.00     0.062 C 
ATOM     12  C   UNL A   1      44.210  43.392  22.592  1.00  0.00     0.105 C 
ATOM     13  C   UNL A   1      41.856  43.005  21.554  1.00  0.00     0.072 C 
ATOM     14  C   UNL A   1      43.331  43.512  21.353  1.00  0.00     0.187 C 
BRANCH   7  15
ATOM     15  C   UNL A   1      41.201  40.931  25.670  1.00  0.00     0.141 C 
ATOM     16  C   UNL A   1      41.550  40.051  26.872  1.00  0.00     0.029 C 
ENDBRANCH   7  15
BRANCH  14  17
ATOM     17  N   UNL A   1      43.984  42.892  20.145  1.00  0.00    -0.338 N 
ATOM     18  H   UNL A   1      43.274  42.801  19.418  1.00  0.00     0.346 HD
ATOM     19  H   UNL A   1      44.367  42.003  20.464  1.00  0.00     0.346 HD
BRANCH  17  20
ATOM     20  C   UNL A   1      45.147  43.654  19.563  1.00  0.00     0.320 C 
BRANCH  20  21
ATOM     21  C   UNL A   1      44.748  44.983  18.889  1.00  0.00     0.124 A 
ATOM     22  N   UNL A   1      45.306  46.154  19.278  1.00  0.00    -0.171 NA
ATOM     23  C   UNL A   1      43.690  45.233  17.934  1.00  0.00     0.029 A 
ATOM     24  N   UNL A   1      44.570  47.093  18.635  1.00  0.00    -0.265 N 
ATOM     25  C   UNL A   1      43.789  46.585  17.631  1.00  0.00     0.069 A 
ATOM     26  C   UNL A   1      42.645  44.531  17.309  1.00  0.00     0.012 A 
ATOM     27  C   UNL A   1      43.016  47.251  16.668  1.00  0.00     0.028 A 
ATOM     28  C   UNL A   1      41.695  45.250  16.547  1.00  0.00     0.001 A 
ATOM     29  C   UNL A   1      41.879  46.589  16.233  1.00  0.00     0.002 A 
BRANCH  24  30
ATOM     30  C   UNL A   1      44.389  48.442  19.160  1.00  0.00     0.141 C 
ATOM     31  C   UNL A   1      45.525  48.916  20.084  1.00  0.00     0.029 C 
ENDBRANCH  24  30
ENDBRANCH  20  21
ENDBRANCH  17  20
ENDBRANCH  14  17
ENDBRANCH   3   6
ENDBRANCH   1   2
BRANCH   1  32
ATOM     32  C   UNL A   1      46.118  39.098  26.081  1.00  0.00     0.042 C 
BRANCH  32  33
ATOM     33  C   UNL A   1      46.519  37.741  26.672  1.00  0.00     0.118 C 
BRANCH  33  34
ATOM     34  N   UNL A   1      46.675  36.635  25.719  1.00  0.00    -0.352 N 
ATOM     35  C   UNL A   1      46.348  35.289  25.896  1.00  0.00     0.251 C 
ATOM     36  H   UNL A   1      47.059  36.872  24.843  1.00  0.00     0.163 HD
ATOM     37  O   UNL A   1      46.871  34.435  25.207  1.00  0.00    -0.269 OA
BRANCH  35  38
ATOM     38  C   UNL A   1      45.318  34.914  26.897  1.00  0.00     0.039 A 
ATOM     39  C   UNL A   1      43.957  34.881  26.580  1.00  0.00     0.014 A 
ATOM     40  C   UNL A   1      45.741  34.579  28.179  1.00  0.00     0.014 A 
ATOM     41  C   UNL A   1      43.068  34.321  27.500  1.00  0.00     0.010 A 
ATOM     42  C   UNL A   1      44.890  33.973  29.066  1.00  0.00     0.010 A 
ATOM     43  C   UNL A   1      43.563  33.794  28.708  1.00  0.00    -0.014 A 
BRANCH  43  44
ATOM     44  C   UNL A   1      42.876  32.679  29.359  1.00  0.00     0.031 A 
ATOM     45  C   UNL A   1      43.528  31.380  29.026  1.00  0.00     0.074 A 
ATOM     46  C   UNL A   1      42.055  32.785  30.424  1.00  0.00     0.049 A 
ATOM     47  N   UNL A   1      43.128  30.506  28.163  1.00  0.00    -0.248 NA
ATOM     48  C   UNL A   1      44.903  31.146  29.506  1.00  0.00     0.031 C 
ATOM     49  C   UNL A   1      41.672  34.004  31.143  1.00  0.00     0.029 A 
ATOM     50  N   UNL A   1      41.516  31.797  31.191  1.00  0.00    -0.354 N 
ATOM     51  C   UNL A   1      44.057  29.471  28.247  1.00  0.00     0.074 A 
ATOM     52  C   UNL A   1      45.241  30.060  28.808  1.00  0.00     0.031 C 
ATOM     53  C   UNL A   1      41.163  33.671  32.351  1.00  0.00     0.029 A 
ATOM     54  C   UNL A   1      41.033  32.227  32.424  1.00  0.00     0.049 A 
ATOM     55  H   UNL A   1      41.470  30.858  30.897  1.00  0.00     0.167 HD
ATOM     56  C   UNL A   1      43.652  28.170  28.204  1.00  0.00     0.034 A 
ATOM     57  C   UNL A   1      40.594  31.443  33.440  1.00  0.00     0.034 A 
ATOM     58  C   UNL A   1      42.260  28.094  27.815  1.00  0.00     0.049 A 
ATOM     59  C   UNL A   1      40.257  30.128  32.848  1.00  0.00     0.074 A 
ATOM     60  C   UNL A   1      41.504  28.529  26.746  1.00  0.00     0.029 A 
ATOM     61  N   UNL A   1      41.380  27.857  28.845  1.00  0.00    -0.354 N 
ATOM     62  N   UNL A   1      39.282  29.946  32.004  1.00  0.00    -0.248 NA
ATOM     63  C   UNL A   1      41.246  29.063  32.900  1.00  0.00     0.031 C 
ATOM     64  C   UNL A   1      40.256  28.928  27.311  1.00  0.00     0.029 A 
ATOM     65  C   UNL A   1      40.272  28.638  28.678  1.00  0.00     0.049 A 
ATOM     66  H   UNL A   1      41.526  27.226  29.586  1.00  0.00     0.167 HD
ATOM     67  C   UNL A   1      39.789  29.028  31.098  1.00  0.00     0.074 A 
ATOM     68  C   UNL A   1      40.911  28.400  31.789  1.00  0.00     0.031 C 
ATOM     69  C   UNL A   1      39.448  29.100  29.777  1.00  0.00     0.034 A 
BRANCH  56  70
ATOM     70  C   UNL A   1      44.300  27.006  28.944  1.00  0.00     0.023 A 
ATOM     71  C   UNL A   1      44.523  25.829  28.187  1.00  0.00     0.012 A 
ATOM     72  C   UNL A   1      44.433  26.883  30.346  1.00  0.00     0.148 A 
ATOM     73  C   UNL A   1      44.764  24.592  28.792  1.00  0.00     0.002 A 
ATOM     74  C   UNL A   1      44.746  25.664  30.941  1.00  0.00     0.091 A 
ATOM     75  F   UNL A   1      44.142  27.904  31.150  1.00  0.00    -0.205 F 
ATOM     76  C   UNL A   1      44.874  24.507  30.173  1.00  0.00     0.022 A 
BRANCH  74  77
ATOM     77  S   UNL A   1      44.944  25.508  32.723  1.00  0.00     0.127 S 
ATOM     78  O   UNL A   1      45.096  24.064  32.871  1.00  0.00    -0.237 OA
ATOM     79  O   UNL A   1      46.158  26.290  32.955  1.00  0.00    -0.237 OA
ATOM     80  O   UNL A   1      43.739  26.084  33.309  1.00  0.00    -0.744 OA
ENDBRANCH  74  77
ENDBRANCH  56  70
BRANCH  57  81
ATOM     81  C   UNL A   1      40.577  31.647  34.906  1.00  0.00     0.023 A 
ATOM     82  C   UNL A   1      41.749  32.089  35.558  1.00  0.00     0.012 A 
ATOM     83  C   UNL A   1      39.359  31.706  35.615  1.00  0.00     0.148 A 
ATOM     84  C   UNL A   1      41.700  32.626  36.850  1.00  0.00     0.002 A 
ATOM     85  C   UNL A   1      39.317  32.241  36.901  1.00  0.00     0.091 A 
ATOM     86  F   UNL A   1      38.234  31.330  34.994  1.00  0.00    -0.205 F 
ATOM     87  C   UNL A   1      40.482  32.716  37.515  1.00  0.00     0.022 A 
BRANCH  85  88
ATOM     88  S   UNL A   1      37.776  32.423  37.811  1.00  0.00     0.127 S 
ATOM     89  O   UNL A   1      37.362  31.031  37.986  1.00  0.00    -0.237 OA
ATOM     90  O   UNL A   1      38.226  33.088  39.031  1.00  0.00    -0.237 OA
ATOM     91  O   UNL A   1      36.899  33.206  36.949  1.00  0.00    -0.744 OA
ENDBRANCH  85  88
ENDBRANCH  57  81
BRANCH  69  92
ATOM     92  C   UNL A   1      38.235  29.913  29.405  1.00  0.00     0.023 A 
ATOM     93  C   UNL A   1      36.958  29.351  29.199  1.00  0.00     0.012 A 
ATOM     94  C   UNL A   1      38.368  31.311  29.412  1.00  0.00     0.148 A 
ATOM     95  C   UNL A   1      35.844  30.169  28.984  1.00  0.00     0.002 A 
ATOM     96  C   UNL A   1      37.251  32.121  29.252  1.00  0.00     0.091 A 
ATOM     97  F   UNL A   1      39.591  31.831  29.598  1.00  0.00    -0.205 F 
ATOM     98  C   UNL A   1      35.988  31.554  29.027  1.00  0.00     0.022 A 
BRANCH  96  99
ATOM     99  S   UNL A   1      37.363  33.901  29.432  1.00  0.00     0.127 S 
ATOM    100  O   UNL A   1      36.109  34.348  28.832  1.00  0.00    -0.237 OA
ATOM    101  O   UNL A   1      37.441  34.066  30.884  1.00  0.00    -0.237 OA
ATOM    102  O   UNL A   1      38.576  34.296  28.727  1.00  0.00    -0.744 OA
ENDBRANCH  96  99
ENDBRANCH  69  92
ENDBRANCH  43  44
ENDBRANCH  35  38
ENDBRANCH  33  34
ENDBRANCH  32  33
ENDBRANCH   1  32
TORSDOF 18
ENDMDL
MODEL 3
REMARK VINA RESULT:     -12.0      4.650      8.862
REMARK SMILES CCn1nc(C(=O)NCCCNC(=O)c2ccc(-c3c4nc(c(-c5cccc(S(=O)(=O)[O-])c5F)c5ccc([nH]5)c(-c5cccc(S(=O)(=O)[O-])c5F)c5nc(c(-c6cccc(S(=O)(=O)[O-])c6F)c6ccc3[nH]6)C=C5)C=C4)cc2)c2c1CC[C@H]([NH2+]Cc1nn(CC)c3ccccc13)C2
REMARK SMILES IDX 9 1 8 2 6 3 7 4 5 6 3 7 4 8 79 9 78 10 80 11 96 12 81 13
REMARK SMILES IDX 82 14 2 15 1 16 83 17 84 20 85 21 86 22 95 23 87 24 90 25
REMARK SMILES IDX 94 26 91 27 93 28 92 29 88 30 89 31 10 32 11 33 12 34 13 35
REMARK SMILES IDX 14 37 15 38 16 39 77 40 17 41 76 42 18 43 19 44 20 45 70 46
REMARK SMILES IDX 21 47 75 48 69 49 71 50 22 51 74 52 68 53 67 54 23 56 55 57
REMARK SMILES IDX 35 58 54 59 36 60 39 61 53 62 72 63 37 64 38 65 52 67 73 68
REMARK SMILES IDX 40 69 24 70 25 71 33 72 26 73 28 74 34 75 27 76 29 77 30 78
REMARK SMILES IDX 31 79 32 80 56 81 57 82 65 83 58 84 60 85 66 86 59 87 61 88
REMARK SMILES IDX 62 89 63 90 64 91 41 92 42 93 50 94 43 95 45 96 51 97 44 98
REMARK SMILES IDX 46 99 47 100 48 101 49 102
REMARK H PARENT 8 5 83 18 83 19 12 36 71 55 39 66
REMARK Flexibility Score: inf
ROOT
ATOM      1  C   UNL A   1      44.573  23.064  24.377  1.00  0.00     0.118 C 
ENDROOT
BRANCH   1   2
ATOM      2  N   UNL A   1      44.227  24.245  25.194  1.00  0.00    -0.351 N 
ATOM      3  C   UNL A   1      44.581  25.588  25.101  1.00  0.00     0.272 C 
ATOM      4  O   UNL A   1      43.648  26.381  24.939  1.00  0.00    -0.267 OA
ATOM      5  H   UNL A   1      43.632  24.042  25.949  1.00  0.00     0.163 HD
BRANCH   3   6
ATOM      6  C   UNL A   1      45.949  26.079  25.404  1.00  0.00     0.153 A 
ATOM      7  N   UNL A   1      48.013  26.597  25.021  1.00  0.00    -0.269 N 
ATOM      8  N   UNL A   1      46.907  26.073  24.452  1.00  0.00    -0.167 NA
ATOM      9  C   UNL A   1      47.804  26.948  26.325  1.00  0.00     0.043 A 
ATOM     10  C   UNL A   1      46.504  26.605  26.585  1.00  0.00     0.012 A 
ATOM     11  C   UNL A   1      48.684  27.575  27.339  1.00  0.00     0.062 C 
ATOM     12  C   UNL A   1      45.893  26.742  27.894  1.00  0.00     0.105 C 
ATOM     13  C   UNL A   1      48.329  27.033  28.761  1.00  0.00     0.072 C 
ATOM     14  C   UNL A   1      46.810  26.814  29.108  1.00  0.00     0.187 C 
BRANCH   7  15
ATOM     15  C   UNL A   1      49.192  26.786  24.193  1.00  0.00     0.141 C 
ATOM     16  C   UNL A   1      48.918  26.786  22.688  1.00  0.00     0.029 C 
ENDBRANCH   7  15
BRANCH  14  17
ATOM     17  N   UNL A   1      46.603  25.643  30.033  1.00  0.00    -0.338 N 
ATOM     18  H   UNL A   1      47.408  25.593  30.659  1.00  0.00     0.346 HD
ATOM     19  H   UNL A   1      46.497  24.829  29.428  1.00  0.00     0.346 HD
BRANCH  17  20
ATOM     20  C   UNL A   1      45.359  25.688  30.882  1.00  0.00     0.320 C 
BRANCH  20  21
ATOM     21  C   UNL A   1      45.633  25.590  32.397  1.00  0.00     0.124 A 
ATOM     22  N   UNL A   1      46.747  26.137  32.938  1.00  0.00    -0.171 NA
ATOM     23  C   UNL A   1      44.918  24.830  33.399  1.00  0.00     0.029 A 
ATOM     24  N   UNL A   1      46.751  25.670  34.211  1.00  0.00    -0.265 N 
ATOM     25  C   UNL A   1      45.557  25.121  34.597  1.00  0.00     0.069 A 
ATOM     26  C   UNL A   1      43.853  23.914  33.469  1.00  0.00     0.012 A 
ATOM     27  C   UNL A   1      45.139  24.673  35.860  1.00  0.00     0.028 A 
ATOM     28  C   UNL A   1      43.598  23.251  34.691  1.00  0.00     0.001 A 
ATOM     29  C   UNL A   1      44.232  23.626  35.868  1.00  0.00     0.002 A 
BRANCH  24  30
ATOM     30  C   UNL A   1      47.979  25.486  34.975  1.00  0.00     0.141 C 
ATOM     31  C   UNL A   1      48.807  26.771  35.157  1.00  0.00     0.029 C 
ENDBRANCH  24  30
ENDBRANCH  20  21
ENDBRANCH  17  20
ENDBRANCH  14  17
ENDBRANCH   3   6
ENDBRANCH   1   2
BRANCH   1  32
ATOM     32  C   UNL A   1      43.675  21.843  24.656  1.00  0.00     0.042 C 
BRANCH  32  33
ATOM     33  C   UNL A   1      43.047  21.794  26.055  1.00  0.00     0.118 C 
BRANCH  33  34
ATOM     34  N   UNL A   1      41.581  21.745  26.110  1.00  0.00    -0.352 N 
ATOM     35  C   UNL A   1      40.710  22.638  26.740  1.00  0.00     0.251 C 
ATOM     36  H   UNL A   1      41.157  20.988  25.645  1.00  0.00     0.163 HD
ATOM     37  O   UNL A   1      39.586  22.289  27.040  1.00  0.00    -0.269 OA
BRANCH  35  38
ATOM     38  C   UNL A   1      41.152  24.033  26.991  1.00  0.00     0.039 A 
ATOM     39  C   UNL A   1      40.520  25.127  26.393  1.00  0.00     0.014 A 
ATOM     40  C   UNL A   1      42.220  24.237  27.858  1.00  0.00     0.014 A 
ATOM     41  C   UNL A   1      40.847  26.412  26.832  1.00  0.00     0.010 A 
ATOM     42  C   UNL A   1      42.508  25.486  28.341  1.00  0.00     0.010 A 
ATOM     43  C   UNL A   1      41.786  26.571  27.869  1.00  0.00    -0.014 A 
BRANCH  43  44
ATOM     44  C   UNL A   1      41.689  27.712  28.779  1.00  0.00     0.031 A 
ATOM     45  C   UNL A   1      42.669  28.775  28.412  1.00  0.00     0.074 A 
ATOM     46  C   UNL A   1      40.630  27.992  29.567  1.00  0.00     0.049 A 
ATOM     47  N   UNL A   1      43.802  29.020  28.980  1.00  0.00    -0.248 NA
ATOM     48  C   UNL A   1      42.497  29.465  27.120  1.00  0.00     0.031 C 
ATOM     49  C   UNL A   1      39.380  27.237  29.691  1.00  0.00     0.029 A 
ATOM     50  N   UNL A   1      40.386  29.110  30.307  1.00  0.00    -0.354 N 
ATOM     51  C   UNL A   1      44.318  30.114  28.290  1.00  0.00     0.074 A 
ATOM     52  C   UNL A   1      43.661  30.109  27.013  1.00  0.00     0.031 C 
ATOM     53  C   UNL A   1      38.439  28.021  30.266  1.00  0.00     0.029 A 
ATOM     54  C   UNL A   1      39.058  29.260  30.697  1.00  0.00     0.049 A 
ATOM     55  H   UNL A   1      41.090  29.755  30.546  1.00  0.00     0.167 HD
ATOM     56  C   UNL A   1      44.943  31.124  28.958  1.00  0.00     0.034 A 
ATOM     57  C   UNL A   1      38.509  30.345  31.298  1.00  0.00     0.034 A 
ATOM     58  C   UNL A   1      45.183  30.739  30.333  1.00  0.00     0.049 A 
ATOM     59  C   UNL A   1      39.625  31.110  31.898  1.00  0.00     0.074 A 
ATOM     60  C   UNL A   1      45.831  29.703  30.973  1.00  0.00     0.029 A 
ATOM     61  N   UNL A   1      44.314  31.283  31.250  1.00  0.00    -0.354 N 
ATOM     62  N   UNL A   1      40.353  30.668  32.884  1.00  0.00    -0.248 NA
ATOM     63  C   UNL A   1      40.190  32.226  31.156  1.00  0.00     0.031 C 
ATOM     64  C   UNL A   1      45.025  29.409  32.113  1.00  0.00     0.029 A 
ATOM     65  C   UNL A   1      43.976  30.331  32.168  1.00  0.00     0.049 A 
ATOM     66  H   UNL A   1      43.988  32.212  31.245  1.00  0.00     0.167 HD
ATOM     67  C   UNL A   1      41.634  31.099  32.576  1.00  0.00     0.074 A 
ATOM     68  C   UNL A   1      41.443  32.181  31.615  1.00  0.00     0.031 C 
ATOM     69  C   UNL A   1      42.716  30.325  32.884  1.00  0.00     0.034 A 
BRANCH  56  70
ATOM     70  C   UNL A   1      44.923  32.599  28.574  1.00  0.00     0.023 A 
ATOM     71  C   UNL A   1      43.680  33.265  28.713  1.00  0.00     0.012 A 
ATOM     72  C   UNL A   1      45.919  33.281  27.839  1.00  0.00     0.148 A 
ATOM     73  C   UNL A   1      43.414  34.482  28.077  1.00  0.00     0.002 A 
ATOM     74  C   UNL A   1      45.676  34.527  27.269  1.00  0.00     0.091 A 
ATOM     75  F   UNL A   1      47.083  32.695  27.565  1.00  0.00    -0.205 F 
ATOM     76  C   UNL A   1      44.414  35.115  27.352  1.00  0.00     0.022 A 
BRANCH  74  77
ATOM     77  S   UNL A   1      46.950  35.412  26.356  1.00  0.00     0.127 S 
ATOM     78  O   UNL A   1      47.121  34.550  25.191  1.00  0.00    -0.237 OA
ATOM     79  O   UNL A   1      46.290  36.691  26.094  1.00  0.00    -0.237 OA
ATOM     80  O   UNL A   1      48.094  35.501  27.255  1.00  0.00    -0.744 OA
ENDBRANCH  74  77
ENDBRANCH  56  70
BRANCH  57  81
ATOM     81  C   UNL A   1      37.132  30.888  31.281  1.00  0.00     0.023 A 
ATOM     82  C   UNL A   1      36.557  31.357  32.482  1.00  0.00     0.012 A 
ATOM     83  C   UNL A   1      36.501  31.228  30.066  1.00  0.00     0.148 A 
ATOM     84  C   UNL A   1      35.428  32.185  32.471  1.00  0.00     0.002 A 
ATOM     85  C   UNL A   1      35.378  32.051  30.060  1.00  0.00     0.091 A 
ATOM     86  F   UNL A   1      37.059  30.825  28.917  1.00  0.00    -0.205 F 
ATOM     87  C   UNL A   1      34.848  32.544  31.259  1.00  0.00     0.022 A 
BRANCH  85  88
ATOM     88  S   UNL A   1      34.592  32.588  28.534  1.00  0.00     0.127 S 
ATOM     89  O   UNL A   1      34.086  31.325  27.994  1.00  0.00    -0.237 OA
ATOM     90  O   UNL A   1      33.564  33.499  29.030  1.00  0.00    -0.237 OA
ATOM     91  O   UNL A   1      35.651  33.198  27.739  1.00  0.00    -0.744 OA
ENDBRANCH  85  88
ENDBRANCH  57  81
BRANCH  69  92
ATOM     92  C   UNL A   1      42.531  29.224  33.897  1.00  0.00     0.023 A 
ATOM     93  C   UNL A   1      41.761  28.068  33.654  1.00  0.00     0.012 A 
ATOM     94  C   UNL A   1      43.287  29.299  35.078  1.00  0.00     0.148 A 
ATOM     95  C   UNL A   1      41.732  27.021  34.581  1.00  0.00     0.002 A 
ATOM     96  C   UNL A   1      43.299  28.236  35.970  1.00  0.00     0.091 A 
ATOM     97  F   UNL A   1      44.007  30.410  35.300  1.00  0.00    -0.205 F 
ATOM     98  C   UNL A   1      42.513  27.098  35.731  1.00  0.00     0.022 A 
BRANCH  96  99
ATOM     99  S   UNL A   1      44.388  28.232  37.395  1.00  0.00     0.127 S 
ATOM    100  O   UNL A   1      44.101  29.528  38.002  1.00  0.00    -0.237 OA
ATOM    101  O   UNL A   1      43.907  27.077  38.155  1.00  0.00    -0.237 OA
ATOM    102  O   UNL A   1      45.736  28.069  36.863  1.00  0.00    -0.744 OA
ENDBRANCH  96  99
ENDBRANCH  69  92
ENDBRANCH  43  44
ENDBRANCH  35  38
ENDBRANCH  33  34
ENDBRANCH  32  33
ENDBRANCH   1  32
TORSDOF 18
ENDMDL
