MODEL 1
REMARK VINA RESULT:     -12.2      0.000      0.000
REMARK SMILES COc1ccc(/C=C(\Sc2nc(C)n[nH]2)C(=O)NCCCNC(=O)c2ccc(-c3c4nc(c(-c5cccc(S(=O)(=O)[O-])c5F)c5ccc([nH]5)c(-c5cccc(S(=O)(=O)[O-])c5F)c5nc(c(-c6cccc(S(=O)(=O)[O-])c6F)c6ccc3[nH]6)C=C5)C=C4)cc2)c(OC)c1
REMARK SMILES IDX 20 1 19 2 18 3 16 4 17 5 8 7 7 8 6 9 3 10 4 11 91 12 5 13
REMARK SMILES IDX 88 14 2 15 1 16 89 17 90 18 9 19 10 20 11 21 15 22 12 23
REMARK SMILES IDX 14 24 13 26 21 27 22 28 23 29 24 31 25 32 26 33 87 34 27 35
REMARK SMILES IDX 86 36 28 37 29 38 30 39 80 40 31 41 85 42 79 43 81 44 32 45
REMARK SMILES IDX 84 46 78 47 77 48 33 50 65 51 45 52 64 53 46 54 49 55 63 56
REMARK SMILES IDX 82 57 47 58 48 59 62 61 83 62 50 63 34 64 35 65 43 66 36 67
REMARK SMILES IDX 38 68 44 69 37 70 39 71 40 72 41 73 42 74 66 75 67 76 75 77
REMARK SMILES IDX 68 78 70 79 76 80 69 81 71 82 72 83 73 84 74 85 51 86 52 87
REMARK SMILES IDX 60 88 53 89 55 90 61 91 54 92 56 93 57 94 58 95 59 96
REMARK H PARENT 18 6 15 25 22 30 81 49 49 60
REMARK Flexibility Score: inf
ROOT
ATOM      1  C   UNL A   1      31.389  31.877  26.656  1.00  0.00     0.042 C 
ENDROOT
BRANCH   1   2
ATOM      2  C   UNL A   1      31.628  30.583  25.866  1.00  0.00     0.118 C 
BRANCH   2   3
ATOM      3  N   UNL A   1      30.893  30.513  24.607  1.00  0.00    -0.352 N 
ATOM      4  C   UNL A   1      30.562  29.525  23.725  1.00  0.00     0.258 C 
ATOM      5  O   UNL A   1      29.729  29.850  22.871  1.00  0.00    -0.269 OA
ATOM      6  H   UNL A   1      30.552  31.393  24.327  1.00  0.00     0.163 HD
BRANCH   4   7
ATOM      7  C   UNL A   1      31.151  28.113  23.714  1.00  0.00     0.081 C 
ATOM      8  C   UNL A   1      32.499  28.087  23.873  1.00  0.00     0.033 C 
BRANCH   8   9
ATOM      9  C   UNL A   1      33.388  26.922  24.047  1.00  0.00     0.018 A 
ATOM     10  C   UNL A   1      34.354  24.384  24.609  1.00  0.00     0.122 A 
ATOM     11  C   UNL A   1      34.288  25.329  25.623  1.00  0.00     0.047 A 
ATOM     12  C   UNL A   1      34.135  24.751  23.282  1.00  0.00     0.093 A 
ATOM     13  C   UNL A   1      33.855  26.615  25.330  1.00  0.00     0.016 A 
ATOM     14  C   UNL A   1      33.700  26.047  22.988  1.00  0.00     0.129 A 
BRANCH  10  15
ATOM     15  O   UNL A   1      34.437  23.071  24.975  1.00  0.00    -0.497 OA
ATOM     16  C   UNL A   1      34.150  22.201  23.894  1.00  0.00     0.278 C 
ENDBRANCH  10  15
BRANCH  14  17
ATOM     17  O   UNL A   1      33.471  26.454  21.696  1.00  0.00    -0.496 OA
ATOM     18  C   UNL A   1      32.575  25.594  20.977  1.00  0.00     0.278 C 
ENDBRANCH  14  17
ENDBRANCH   8   9
BRANCH   7  19
ATOM     19  S   UNL A   1      30.024  26.808  23.717  1.00  0.00    -0.045 SA
BRANCH  19  20
ATOM     20  C   UNL A   1      30.358  25.650  24.921  1.00  0.00     0.188 A 
ATOM     21  N   UNL A   1      30.714  24.421  24.626  1.00  0.00    -0.206 NA
ATOM     22  N   UNL A   1      30.378  25.820  26.269  1.00  0.00    -0.254 N 
ATOM     23  C   UNL A   1      30.882  23.841  25.848  1.00  0.00     0.148 A 
ATOM     24  N   UNL A   1      30.752  24.674  26.891  1.00  0.00    -0.158 NA
ATOM     25  H   UNL A   1      30.152  26.659  26.731  1.00  0.00     0.192 HD
ATOM     26  C   UNL A   1      31.127  22.388  25.962  1.00  0.00     0.092 C 
ENDBRANCH  19  20
ENDBRANCH   7  19
ENDBRANCH   4   7
ENDBRANCH   2   3
ENDBRANCH   1   2
BRANCH   1  27
ATOM     27  C   UNL A   1      32.703  32.411  27.201  1.00  0.00     0.118 C 
BRANCH  27  28
ATOM     28  N   UNL A   1      32.576  33.790  27.721  1.00  0.00    -0.352 N 
ATOM     29  C   UNL A   1      33.229  34.386  28.780  1.00  0.00     0.251 C 
ATOM     30  H   UNL A   1      31.935  34.364  27.243  1.00  0.00     0.163 HD
ATOM     31  O   UNL A   1      32.789  35.433  29.281  1.00  0.00    -0.269 OA
BRANCH  29  32
ATOM     32  C   UNL A   1      34.482  33.800  29.272  1.00  0.00     0.039 A 
ATOM     33  C   UNL A   1      34.562  32.797  30.242  1.00  0.00     0.014 A 
ATOM     34  C   UNL A   1      35.632  34.259  28.659  1.00  0.00     0.014 A 
ATOM     35  C   UNL A   1      35.826  32.302  30.577  1.00  0.00     0.010 A 
ATOM     36  C   UNL A   1      36.714  33.444  28.673  1.00  0.00     0.010 A 
ATOM     37  C   UNL A   1      36.924  32.672  29.788  1.00  0.00    -0.014 A 
BRANCH  37  38
ATOM     38  C   UNL A   1      38.250  32.078  29.863  1.00  0.00     0.031 A 
ATOM     39  C   UNL A   1      38.230  30.736  29.228  1.00  0.00     0.074 A 
ATOM     40  C   UNL A   1      39.359  32.770  30.239  1.00  0.00     0.049 A 
ATOM     41  N   UNL A   1      38.096  29.615  29.856  1.00  0.00    -0.248 NA
ATOM     42  C   UNL A   1      38.005  30.618  27.773  1.00  0.00     0.031 C 
ATOM     43  C   UNL A   1      39.499  34.189  30.605  1.00  0.00     0.029 A 
ATOM     44  N   UNL A   1      40.654  32.352  30.324  1.00  0.00    -0.354 N 
ATOM     45  C   UNL A   1      38.153  28.645  28.865  1.00  0.00     0.074 A 
ATOM     46  C   UNL A   1      37.777  29.305  27.648  1.00  0.00     0.031 C 
ATOM     47  C   UNL A   1      40.810  34.543  30.627  1.00  0.00     0.029 A 
ATOM     48  C   UNL A   1      41.624  33.358  30.426  1.00  0.00     0.049 A 
ATOM     49  H   UNL A   1      40.895  31.398  30.313  1.00  0.00     0.167 HD
ATOM     50  C   UNL A   1      38.871  27.508  29.078  1.00  0.00     0.034 A 
ATOM     51  C   UNL A   1      42.982  33.214  30.352  1.00  0.00     0.034 A 
ATOM     52  C   UNL A   1      39.221  27.403  30.478  1.00  0.00     0.049 A 
ATOM     53  C   UNL A   1      43.273  31.788  30.630  1.00  0.00     0.074 A 
ATOM     54  C   UNL A   1      38.518  27.336  31.664  1.00  0.00     0.029 A 
ATOM     55  N   UNL A   1      40.481  27.846  30.796  1.00  0.00    -0.354 N 
ATOM     56  N   UNL A   1      43.043  31.242  31.791  1.00  0.00    -0.248 NA
ATOM     57  C   UNL A   1      43.282  30.887  29.489  1.00  0.00     0.031 C 
ATOM     58  C   UNL A   1      39.247  28.162  32.571  1.00  0.00     0.029 A 
ATOM     59  C   UNL A   1      40.423  28.582  31.947  1.00  0.00     0.049 A 
ATOM     60  H   UNL A   1      41.298  27.664  30.278  1.00  0.00     0.167 HD
ATOM     61  C   UNL A   1      42.377  30.067  31.474  1.00  0.00     0.074 A 
ATOM     62  C   UNL A   1      42.606  29.872  30.037  1.00  0.00     0.031 C 
ATOM     63  C   UNL A   1      41.421  29.564  32.309  1.00  0.00     0.034 A 
BRANCH  50  64
ATOM     64  C   UNL A   1      39.658  26.754  28.026  1.00  0.00     0.023 A 
ATOM     65  C   UNL A   1      39.451  25.357  27.972  1.00  0.00     0.012 A 
ATOM     66  C   UNL A   1      40.761  27.262  27.300  1.00  0.00     0.148 A 
ATOM     67  C   UNL A   1      40.320  24.508  27.281  1.00  0.00     0.002 A 
ATOM     68  C   UNL A   1      41.586  26.423  26.559  1.00  0.00     0.091 A 
ATOM     69  F   UNL A   1      41.103  28.547  27.404  1.00  0.00    -0.205 F 
ATOM     70  C   UNL A   1      41.387  25.042  26.570  1.00  0.00     0.022 A 
BRANCH  68  71
ATOM     71  S   UNL A   1      42.971  27.047  25.593  1.00  0.00     0.127 S 
ATOM     72  O   UNL A   1      42.296  27.926  24.643  1.00  0.00    -0.237 OA
ATOM     73  O   UNL A   1      43.756  27.731  26.620  1.00  0.00    -0.237 OA
ATOM     74  O   UNL A   1      43.620  25.876  25.021  1.00  0.00    -0.744 OA
ENDBRANCH  68  71
ENDBRANCH  50  64
BRANCH  51  75
ATOM     75  C   UNL A   1      44.024  34.072  29.706  1.00  0.00     0.023 A 
ATOM     76  C   UNL A   1      44.971  34.783  30.486  1.00  0.00     0.012 A 
ATOM     77  C   UNL A   1      44.300  33.926  28.331  1.00  0.00     0.148 A 
ATOM     78  C   UNL A   1      46.150  35.301  29.921  1.00  0.00     0.002 A 
ATOM     79  C   UNL A   1      45.476  34.434  27.775  1.00  0.00     0.091 A 
ATOM     80  F   UNL A   1      43.455  33.203  27.587  1.00  0.00    -0.205 F 
ATOM     81  C   UNL A   1      46.408  35.116  28.567  1.00  0.00     0.022 A 
BRANCH  79  82
ATOM     82  S   UNL A   1      45.895  34.182  26.044  1.00  0.00     0.127 S 
ATOM     83  O   UNL A   1      44.731  34.755  25.368  1.00  0.00    -0.237 OA
ATOM     84  O   UNL A   1      47.125  34.960  25.913  1.00  0.00    -0.237 OA
ATOM     85  O   UNL A   1      46.041  32.743  25.877  1.00  0.00    -0.744 OA
ENDBRANCH  79  82
ENDBRANCH  51  75
BRANCH  63  86
ATOM     86  C   UNL A   1      41.301  30.161  33.690  1.00  0.00     0.023 A 
ATOM     87  C   UNL A   1      42.202  29.911  34.750  1.00  0.00     0.012 A 
ATOM     88  C   UNL A   1      40.312  31.140  33.857  1.00  0.00     0.148 A 
ATOM     89  C   UNL A   1      42.097  30.621  35.955  1.00  0.00     0.002 A 
ATOM     90  C   UNL A   1      40.239  31.869  35.033  1.00  0.00     0.091 A 
ATOM     91  F   UNL A   1      39.475  31.363  32.834  1.00  0.00    -0.205 F 
ATOM     92  C   UNL A   1      41.122  31.607  36.092  1.00  0.00     0.022 A 
BRANCH  90  93
ATOM     93  S   UNL A   1      39.078  33.222  35.206  1.00  0.00     0.127 S 
ATOM     94  O   UNL A   1      39.448  33.772  36.508  1.00  0.00    -0.237 OA
ATOM     95  O   UNL A   1      39.416  34.070  34.062  1.00  0.00    -0.237 OA
ATOM     96  O   UNL A   1      37.749  32.626  35.135  1.00  0.00    -0.744 OA
ENDBRANCH  90  93
ENDBRANCH  63  86
ENDBRANCH  37  38
ENDBRANCH  29  32
ENDBRANCH  27  28
ENDBRANCH   1  27
TORSDOF 18
ENDMDL
MODEL 2
REMARK VINA RESULT:     -12.2      3.924      9.216
REMARK SMILES COc1ccc(/C=C(\Sc2nc(C)n[nH]2)C(=O)NCCCNC(=O)c2ccc(-c3c4nc(c(-c5cccc(S(=O)(=O)[O-])c5F)c5ccc([nH]5)c(-c5cccc(S(=O)(=O)[O-])c5F)c5nc(c(-c6cccc(S(=O)(=O)[O-])c6F)c6ccc3[nH]6)C=C5)C=C4)cc2)c(OC)c1
REMARK SMILES IDX 20 1 19 2 18 3 16 4 17 5 8 7 7 8 6 9 3 10 4 11 91 12 5 13
REMARK SMILES IDX 88 14 2 15 1 16 89 17 90 18 9 19 10 20 11 21 15 22 12 23
REMARK SMILES IDX 14 24 13 26 21 27 22 28 23 29 24 31 25 32 26 33 87 34 27 35
REMARK SMILES IDX 86 36 28 37 29 38 30 39 80 40 31 41 85 42 79 43 81 44 32 45
REMARK SMILES IDX 84 46 78 47 77 48 33 50 65 51 45 52 64 53 46 54 49 55 63 56
REMARK SMILES IDX 82 57 47 58 48 59 62 61 83 62 50 63 34 64 35 65 43 66 36 67
REMARK SMILES IDX 38 68 44 69 37 70 39 71 40 72 41 73 42 74 66 75 67 76 75 77
REMARK SMILES IDX 68 78 70 79 76 80 69 81 71 82 72 83 73 84 74 85 51 86 52 87
REMARK SMILES IDX 60 88 53 89 55 90 61 91 54 92 56 93 57 94 58 95 59 96
REMARK H PARENT 18 6 15 25 22 30 81 49 49 60
REMARK Flexibility Score: inf
ROOT
ATOM      1  C   UNL A   1      37.869  19.594  24.830  1.00  0.00     0.042 C 
ENDROOT
BRANCH   1   2
ATOM      2  C   UNL A   1      36.580  20.410  24.995  1.00  0.00     0.118 C 
BRANCH   2   3
ATOM      3  N   UNL A   1      35.369  19.597  25.060  1.00  0.00    -0.352 N 
ATOM      4  C   UNL A   1      34.029  19.834  24.949  1.00  0.00     0.258 C 
ATOM      5  O   UNL A   1      33.330  18.818  24.849  1.00  0.00    -0.269 OA
ATOM      6  H   UNL A   1      35.567  18.647  25.223  1.00  0.00     0.163 HD
BRANCH   4   7
ATOM      7  C   UNL A   1      33.369  21.214  24.964  1.00  0.00     0.081 C 
ATOM      8  C   UNL A   1      33.845  22.032  25.937  1.00  0.00     0.033 C 
BRANCH   8   9
ATOM      9  C   UNL A   1      33.550  23.459  26.172  1.00  0.00     0.018 A 
ATOM     10  C   UNL A   1      32.818  26.109  25.814  1.00  0.00     0.122 A 
ATOM     11  C   UNL A   1      34.134  25.729  25.589  1.00  0.00     0.047 A 
ATOM     12  C   UNL A   1      31.916  25.228  26.407  1.00  0.00     0.093 A 
ATOM     13  C   UNL A   1      34.512  24.413  25.820  1.00  0.00     0.016 A 
ATOM     14  C   UNL A   1      32.299  23.904  26.640  1.00  0.00     0.129 A 
BRANCH  10  15
ATOM     15  O   UNL A   1      32.398  27.283  25.257  1.00  0.00    -0.497 OA
ATOM     16  C   UNL A   1      31.572  28.022  26.140  1.00  0.00     0.278 C 
ENDBRANCH  10  15
BRANCH  14  17
ATOM     17  O   UNL A   1      31.444  22.999  27.222  1.00  0.00    -0.496 OA
ATOM     18  C   UNL A   1      30.060  23.268  26.957  1.00  0.00     0.278 C 
ENDBRANCH  14  17
ENDBRANCH   8   9
BRANCH   7  19
ATOM     19  S   UNL A   1      32.311  21.576  23.651  1.00  0.00    -0.045 SA
BRANCH  19  20
ATOM     20  C   UNL A   1      32.632  23.092  22.942  1.00  0.00     0.188 A 
ATOM     21  N   UNL A   1      31.749  24.062  22.942  1.00  0.00    -0.206 NA
ATOM     22  N   UNL A   1      33.788  23.527  22.375  1.00  0.00    -0.254 N 
ATOM     23  C   UNL A   1      32.392  25.074  22.293  1.00  0.00     0.148 A 
ATOM     24  N   UNL A   1      33.671  24.820  21.981  1.00  0.00    -0.158 NA
ATOM     25  H   UNL A   1      34.599  22.979  22.265  1.00  0.00     0.192 HD
ATOM     26  C   UNL A   1      31.672  26.311  21.931  1.00  0.00     0.092 C 
ENDBRANCH  19  20
ENDBRANCH   7  19
ENDBRANCH   4   7
ENDBRANCH   2   3
ENDBRANCH   1   2
BRANCH   1  27
ATOM     27  C   UNL A   1      38.972  20.173  25.701  1.00  0.00     0.118 C 
BRANCH  27  28
ATOM     28  N   UNL A   1      40.116  19.247  25.846  1.00  0.00    -0.352 N 
ATOM     29  C   UNL A   1      41.456  19.535  26.008  1.00  0.00     0.251 C 
ATOM     30  H   UNL A   1      39.890  18.289  25.825  1.00  0.00     0.163 HD
ATOM     31  O   UNL A   1      42.316  18.664  25.800  1.00  0.00    -0.269 OA
BRANCH  29  32
ATOM     32  C   UNL A   1      41.851  20.866  26.484  1.00  0.00     0.039 A 
ATOM     33  C   UNL A   1      42.033  21.982  25.661  1.00  0.00     0.014 A 
ATOM     34  C   UNL A   1      41.980  20.992  27.854  1.00  0.00     0.014 A 
ATOM     35  C   UNL A   1      42.365  23.200  26.264  1.00  0.00     0.010 A 
ATOM     36  C   UNL A   1      41.829  22.230  28.383  1.00  0.00     0.010 A 
ATOM     37  C   UNL A   1      42.292  23.300  27.660  1.00  0.00    -0.014 A 
BRANCH  37  38
ATOM     38  C   UNL A   1      42.385  24.539  28.418  1.00  0.00     0.031 A 
ATOM     39  C   UNL A   1      41.168  25.357  28.186  1.00  0.00     0.074 A 
ATOM     40  C   UNL A   1      43.333  24.765  29.367  1.00  0.00     0.049 A 
ATOM     41  N   UNL A   1      41.068  26.320  27.331  1.00  0.00    -0.248 NA
ATOM     42  C   UNL A   1      39.860  24.880  28.680  1.00  0.00     0.031 C 
ATOM     43  C   UNL A   1      44.401  23.876  29.856  1.00  0.00     0.029 A 
ATOM     44  N   UNL A   1      43.518  25.854  30.166  1.00  0.00    -0.354 N 
ATOM     45  C   UNL A   1      39.772  26.793  27.480  1.00  0.00     0.074 A 
ATOM     46  C   UNL A   1      39.022  25.709  28.047  1.00  0.00     0.031 C 
ATOM     47  C   UNL A   1      44.936  24.370  31.003  1.00  0.00     0.029 A 
ATOM     48  C   UNL A   1      44.368  25.679  31.265  1.00  0.00     0.049 A 
ATOM     49  H   UNL A   1      43.078  26.715  29.982  1.00  0.00     0.167 HD
ATOM     50  C   UNL A   1      39.543  28.134  27.484  1.00  0.00     0.034 A 
ATOM     51  C   UNL A   1      44.580  26.549  32.300  1.00  0.00     0.034 A 
ATOM     52  C   UNL A   1      40.722  28.836  27.026  1.00  0.00     0.049 A 
ATOM     53  C   UNL A   1      44.146  27.884  31.826  1.00  0.00     0.074 A 
ATOM     54  C   UNL A   1      41.477  28.837  25.870  1.00  0.00     0.029 A 
ATOM     55  N   UNL A   1      41.533  29.321  28.022  1.00  0.00    -0.354 N 
ATOM     56  N   UNL A   1      44.754  28.515  30.861  1.00  0.00    -0.248 NA
ATOM     57  C   UNL A   1      42.750  28.231  32.039  1.00  0.00     0.031 C 
ATOM     58  C   UNL A   1      42.832  28.902  26.316  1.00  0.00     0.029 A 
ATOM     59  C   UNL A   1      42.839  29.074  27.701  1.00  0.00     0.049 A 
ATOM     60  H   UNL A   1      41.223  29.775  28.839  1.00  0.00     0.167 HD
ATOM     61  C   UNL A   1      43.718  28.929  30.036  1.00  0.00     0.074 A 
ATOM     62  C   UNL A   1      42.502  28.778  30.844  1.00  0.00     0.031 C 
ATOM     63  C   UNL A   1      43.897  29.011  28.685  1.00  0.00     0.034 A 
BRANCH  50  64
ATOM     64  C   UNL A   1      38.495  28.846  28.315  1.00  0.00     0.023 A 
ATOM     65  C   UNL A   1      37.658  29.752  27.625  1.00  0.00     0.012 A 
ATOM     66  C   UNL A   1      38.458  28.897  29.729  1.00  0.00     0.148 A 
ATOM     67  C   UNL A   1      36.874  30.692  28.298  1.00  0.00     0.002 A 
ATOM     68  C   UNL A   1      37.627  29.789  30.398  1.00  0.00     0.091 A 
ATOM     69  F   UNL A   1      39.310  28.169  30.452  1.00  0.00    -0.205 F 
ATOM     70  C   UNL A   1      36.854  30.708  29.687  1.00  0.00     0.022 A 
BRANCH  68  71
ATOM     71  S   UNL A   1      37.531  29.848  32.194  1.00  0.00     0.127 S 
ATOM     72  O   UNL A   1      38.850  30.368  32.542  1.00  0.00    -0.237 OA
ATOM     73  O   UNL A   1      36.424  30.782  32.395  1.00  0.00    -0.237 OA
ATOM     74  O   UNL A   1      37.254  28.485  32.626  1.00  0.00    -0.744 OA
ENDBRANCH  68  71
ENDBRANCH  50  64
BRANCH  51  75
ATOM     75  C   UNL A   1      44.762  26.304  33.765  1.00  0.00     0.023 A 
ATOM     76  C   UNL A   1      45.998  26.576  34.403  1.00  0.00     0.012 A 
ATOM     77  C   UNL A   1      43.633  26.126  34.592  1.00  0.00     0.148 A 
ATOM     78  C   UNL A   1      46.095  26.690  35.801  1.00  0.00     0.002 A 
ATOM     79  C   UNL A   1      43.731  26.248  35.979  1.00  0.00     0.091 A 
ATOM     80  F   UNL A   1      42.444  25.934  34.010  1.00  0.00    -0.205 F 
ATOM     81  C   UNL A   1      44.958  26.538  36.589  1.00  0.00     0.022 A 
BRANCH  79  82
ATOM     82  S   UNL A   1      42.291  26.118  37.049  1.00  0.00     0.127 S 
ATOM     83  O   UNL A   1      41.857  24.744  36.799  1.00  0.00    -0.237 OA
ATOM     84  O   UNL A   1      42.873  26.346  38.369  1.00  0.00    -0.237 OA
ATOM     85  O   UNL A   1      41.361  27.139  36.588  1.00  0.00    -0.744 OA
ENDBRANCH  79  82
ENDBRANCH  51  75
BRANCH  63  86
ATOM     86  C   UNL A   1      45.303  28.903  28.149  1.00  0.00     0.023 A 
ATOM     87  C   UNL A   1      45.870  27.720  27.623  1.00  0.00     0.012 A 
ATOM     88  C   UNL A   1      46.016  30.105  28.037  1.00  0.00     0.148 A 
ATOM     89  C   UNL A   1      47.133  27.746  27.014  1.00  0.00     0.002 A 
ATOM     90  C   UNL A   1      47.244  30.134  27.396  1.00  0.00     0.091 A 
ATOM     91  F   UNL A   1      45.453  31.214  28.536  1.00  0.00    -0.205 F 
ATOM     92  C   UNL A   1      47.815  28.956  26.891  1.00  0.00     0.022 A 
BRANCH  90  93
ATOM     93  S   UNL A   1      48.098  31.683  27.115  1.00  0.00     0.127 S 
ATOM     94  O   UNL A   1      47.107  32.442  26.357  1.00  0.00    -0.237 OA
ATOM     95  O   UNL A   1      48.329  32.163  28.478  1.00  0.00    -0.237 OA
ATOM     96  O   UNL A   1      49.317  31.347  26.387  1.00  0.00    -0.744 OA
ENDBRANCH  90  93
ENDBRANCH  63  86
ENDBRANCH  37  38
ENDBRANCH  29  32
ENDBRANCH  27  28
ENDBRANCH   1  27
TORSDOF 18
ENDMDL
MODEL 3
REMARK VINA RESULT:     -11.9      1.304      2.233
REMARK SMILES COc1ccc(/C=C(\Sc2nc(C)n[nH]2)C(=O)NCCCNC(=O)c2ccc(-c3c4nc(c(-c5cccc(S(=O)(=O)[O-])c5F)c5ccc([nH]5)c(-c5cccc(S(=O)(=O)[O-])c5F)c5nc(c(-c6cccc(S(=O)(=O)[O-])c6F)c6ccc3[nH]6)C=C5)C=C4)cc2)c(OC)c1
REMARK SMILES IDX 20 1 19 2 18 3 16 4 17 5 8 7 7 8 6 9 3 10 4 11 91 12 5 13
REMARK SMILES IDX 88 14 2 15 1 16 89 17 90 18 9 19 10 20 11 21 15 22 12 23
REMARK SMILES IDX 14 24 13 26 21 27 22 28 23 29 24 31 25 32 26 33 87 34 27 35
REMARK SMILES IDX 86 36 28 37 29 38 30 39 80 40 31 41 85 42 79 43 81 44 32 45
REMARK SMILES IDX 84 46 78 47 77 48 33 50 65 51 45 52 64 53 46 54 49 55 63 56
REMARK SMILES IDX 82 57 47 58 48 59 62 61 83 62 50 63 34 64 35 65 43 66 36 67
REMARK SMILES IDX 38 68 44 69 37 70 39 71 40 72 41 73 42 74 66 75 67 76 75 77
REMARK SMILES IDX 68 78 70 79 76 80 69 81 71 82 72 83 73 84 74 85 51 86 52 87
REMARK SMILES IDX 60 88 53 89 55 90 61 91 54 92 56 93 57 94 58 95 59 96
REMARK H PARENT 18 6 15 25 22 30 81 49 49 60
REMARK Flexibility Score: inf
ROOT
ATOM      1  C   UNL A   1      31.479  31.266  26.444  1.00  0.00     0.042 C 
ENDROOT
BRANCH   1   2
ATOM      2  C   UNL A   1      31.800  29.833  25.997  1.00  0.00     0.118 C 
BRANCH   2   3
ATOM      3  N   UNL A   1      32.786  29.755  24.923  1.00  0.00    -0.352 N 
ATOM      4  C   UNL A   1      33.185  28.799  24.033  1.00  0.00     0.258 C 
ATOM      5  O   UNL A   1      33.919  29.210  23.126  1.00  0.00    -0.269 OA
ATOM      6  H   UNL A   1      33.284  30.597  24.814  1.00  0.00     0.163 HD
BRANCH   4   7
ATOM      7  C   UNL A   1      32.816  27.316  24.102  1.00  0.00     0.081 C 
ATOM      8  C   UNL A   1      33.518  26.626  25.037  1.00  0.00     0.033 C 
BRANCH   8   9
ATOM      9  C   UNL A   1      33.345  25.228  25.478  1.00  0.00     0.018 A 
ATOM     10  C   UNL A   1      32.430  22.624  25.737  1.00  0.00     0.122 A 
ATOM     11  C   UNL A   1      31.829  23.634  26.474  1.00  0.00     0.047 A 
ATOM     12  C   UNL A   1      33.607  22.864  25.031  1.00  0.00     0.093 A 
ATOM     13  C   UNL A   1      32.321  24.929  26.385  1.00  0.00     0.016 A 
ATOM     14  C   UNL A   1      34.103  24.168  24.943  1.00  0.00     0.129 A 
BRANCH  10  15
ATOM     15  O   UNL A   1      31.729  21.464  25.569  1.00  0.00    -0.497 OA
ATOM     16  C   UNL A   1      32.346  20.605  24.626  1.00  0.00     0.278 C 
ENDBRANCH  10  15
BRANCH  14  17
ATOM     17  O   UNL A   1      35.259  24.455  24.257  1.00  0.00    -0.496 OA
ATOM     18  C   UNL A   1      36.126  23.323  24.102  1.00  0.00     0.278 C 
ENDBRANCH  14  17
ENDBRANCH   8   9
BRANCH   7  19
ATOM     19  S   UNL A   1      31.461  26.816  23.161  1.00  0.00    -0.045 SA
BRANCH  19  20
ATOM     20  C   UNL A   1      30.519  28.124  22.611  1.00  0.00     0.188 A 
ATOM     21  N   UNL A   1      29.298  28.334  23.044  1.00  0.00    -0.206 NA
ATOM     22  N   UNL A   1      30.879  29.121  21.759  1.00  0.00    -0.254 N 
ATOM     23  C   UNL A   1      28.913  29.455  22.370  1.00  0.00     0.148 A 
ATOM     24  N   UNL A   1      29.870  30.016  21.617  1.00  0.00    -0.158 NA
ATOM     25  H   UNL A   1      31.752  29.184  21.309  1.00  0.00     0.192 HD
ATOM     26  C   UNL A   1      27.519  29.937  22.449  1.00  0.00     0.092 C 
ENDBRANCH  19  20
ENDBRANCH   7  19
ENDBRANCH   4   7
ENDBRANCH   2   3
ENDBRANCH   1   2
BRANCH   1  27
ATOM     27  C   UNL A   1      32.697  31.896  27.101  1.00  0.00     0.118 C 
BRANCH  27  28
ATOM     28  N   UNL A   1      32.477  33.318  27.443  1.00  0.00    -0.352 N 
ATOM     29  C   UNL A   1      33.094  34.088  28.407  1.00  0.00     0.251 C 
ATOM     30  H   UNL A   1      31.793  33.781  26.907  1.00  0.00     0.163 HD
ATOM     31  O   UNL A   1      32.585  35.159  28.777  1.00  0.00    -0.269 OA
BRANCH  29  32
ATOM     32  C   UNL A   1      34.389  33.658  28.949  1.00  0.00     0.039 A 
ATOM     33  C   UNL A   1      34.553  32.943  30.139  1.00  0.00     0.014 A 
ATOM     34  C   UNL A   1      35.487  33.949  28.162  1.00  0.00     0.014 A 
ATOM     35  C   UNL A   1      35.847  32.560  30.505  1.00  0.00     0.010 A 
ATOM     36  C   UNL A   1      36.586  33.171  28.315  1.00  0.00     0.010 A 
ATOM     37  C   UNL A   1      36.884  32.718  29.575  1.00  0.00    -0.014 A 
BRANCH  37  38
ATOM     38  C   UNL A   1      38.225  32.171  29.713  1.00  0.00     0.031 A 
ATOM     39  C   UNL A   1      38.258  30.789  29.170  1.00  0.00     0.074 A 
ATOM     40  C   UNL A   1      39.306  32.921  30.059  1.00  0.00     0.049 A 
ATOM     41  N   UNL A   1      38.145  29.710  29.870  1.00  0.00    -0.248 NA
ATOM     42  C   UNL A   1      38.063  30.566  27.723  1.00  0.00     0.031 C 
ATOM     43  C   UNL A   1      39.397  34.365  30.330  1.00  0.00     0.029 A 
ATOM     44  N   UNL A   1      40.611  32.550  30.194  1.00  0.00    -0.354 N 
ATOM     45  C   UNL A   1      38.250  28.677  28.948  1.00  0.00     0.074 A 
ATOM     46  C   UNL A   1      37.877  29.242  27.683  1.00  0.00     0.031 C 
ATOM     47  C   UNL A   1      40.697  34.760  30.350  1.00  0.00     0.029 A 
ATOM     48  C   UNL A   1      41.548  33.589  30.244  1.00  0.00     0.049 A 
ATOM     49  H   UNL A   1      40.880  31.605  30.252  1.00  0.00     0.167 HD
ATOM     50  C   UNL A   1      38.996  27.580  29.251  1.00  0.00     0.034 A 
ATOM     51  C   UNL A   1      42.912  33.483  30.202  1.00  0.00     0.034 A 
ATOM     52  C   UNL A   1      39.323  27.581  30.660  1.00  0.00     0.049 A 
ATOM     53  C   UNL A   1      43.239  32.089  30.582  1.00  0.00     0.074 A 
ATOM     54  C   UNL A   1      38.599  27.572  31.836  1.00  0.00     0.029 A 
ATOM     55  N   UNL A   1      40.563  28.083  30.969  1.00  0.00    -0.354 N 
ATOM     56  N   UNL A   1      43.004  31.615  31.773  1.00  0.00    -0.248 NA
ATOM     57  C   UNL A   1      43.296  31.114  29.505  1.00  0.00     0.031 C 
ATOM     58  C   UNL A   1      39.287  28.480  32.697  1.00  0.00     0.029 A 
ATOM     59  C   UNL A   1      40.461  28.892  32.066  1.00  0.00     0.049 A 
ATOM     60  H   UNL A   1      41.394  27.891  30.478  1.00  0.00     0.167 HD
ATOM     61  C   UNL A   1      42.378  30.402  31.525  1.00  0.00     0.074 A 
ATOM     62  C   UNL A   1      42.641  30.118  30.110  1.00  0.00     0.031 C 
ATOM     63  C   UNL A   1      41.422  29.927  32.377  1.00  0.00     0.034 A 
BRANCH  50  64
ATOM     64  C   UNL A   1      39.825  26.782  28.266  1.00  0.00     0.023 A 
ATOM     65  C   UNL A   1      39.762  25.375  28.391  1.00  0.00     0.012 A 
ATOM     66  C   UNL A   1      40.847  27.301  27.436  1.00  0.00     0.148 A 
ATOM     67  C   UNL A   1      40.693  24.536  27.773  1.00  0.00     0.002 A 
ATOM     68  C   UNL A   1      41.732  26.461  26.769  1.00  0.00     0.091 A 
ATOM     69  F   UNL A   1      41.057  28.616  27.369  1.00  0.00    -0.205 F 
ATOM     70  C   UNL A   1      41.677  25.079  26.957  1.00  0.00     0.022 A 
BRANCH  68  71
ATOM     71  S   UNL A   1      43.016  27.092  25.677  1.00  0.00     0.127 S 
ATOM     72  O   UNL A   1      43.909  27.755  26.624  1.00  0.00    -0.237 OA
ATOM     73  O   UNL A   1      43.537  25.856  25.095  1.00  0.00    -0.237 OA
ATOM     74  O   UNL A   1      42.340  27.966  24.728  1.00  0.00    -0.744 OA
ENDBRANCH  68  71
ENDBRANCH  50  64
BRANCH  51  75
ATOM     75  C   UNL A   1      43.940  34.328  29.518  1.00  0.00     0.023 A 
ATOM     76  C   UNL A   1      44.880  35.082  30.264  1.00  0.00     0.012 A 
ATOM     77  C   UNL A   1      44.213  34.128  28.148  1.00  0.00     0.148 A 
ATOM     78  C   UNL A   1      46.050  35.592  29.672  1.00  0.00     0.002 A 
ATOM     79  C   UNL A   1      45.379  34.629  27.567  1.00  0.00     0.091 A 
ATOM     80  F   UNL A   1      43.375  33.364  27.438  1.00  0.00    -0.205 F 
ATOM     81  C   UNL A   1      46.305  35.355  28.326  1.00  0.00     0.022 A 
BRANCH  79  82
ATOM     82  S   UNL A   1      45.796  34.311  25.846  1.00  0.00     0.127 S 
ATOM     83  O   UNL A   1      46.858  35.290  25.610  1.00  0.00    -0.237 OA
ATOM     84  O   UNL A   1      46.243  32.921  25.894  1.00  0.00    -0.237 OA
ATOM     85  O   UNL A   1      44.575  34.552  25.091  1.00  0.00    -0.744 OA
ENDBRANCH  79  82
ENDBRANCH  51  75
BRANCH  63  86
ATOM     86  C   UNL A   1      41.259  30.612  33.712  1.00  0.00     0.023 A 
ATOM     87  C   UNL A   1      42.138  30.450  34.807  1.00  0.00     0.012 A 
ATOM     88  C   UNL A   1      40.249  31.581  33.791  1.00  0.00     0.148 A 
ATOM     89  C   UNL A   1      41.992  31.236  35.959  1.00  0.00     0.002 A 
ATOM     90  C   UNL A   1      40.135  32.385  34.913  1.00  0.00     0.091 A 
ATOM     91  F   UNL A   1      39.434  31.720  32.736  1.00  0.00    -0.205 F 
ATOM     92  C   UNL A   1      40.997  32.211  36.007  1.00  0.00     0.022 A 
BRANCH  90  93
ATOM     93  S   UNL A   1      38.947  33.724  34.969  1.00  0.00     0.127 S 
ATOM     94  O   UNL A   1      37.679  33.005  34.874  1.00  0.00    -0.237 OA
ATOM     95  O   UNL A   1      39.217  34.325  36.276  1.00  0.00    -0.237 OA
ATOM     96  O   UNL A   1      39.260  34.591  33.838  1.00  0.00    -0.744 OA
ENDBRANCH  90  93
ENDBRANCH  63  86
ENDBRANCH  37  38
ENDBRANCH  29  32
ENDBRANCH  27  28
ENDBRANCH   1  27
TORSDOF 18
ENDMDL
