MODEL 1
REMARK VINA RESULT:     -12.0      0.000      0.000
REMARK SMILES CCOc1cnc(C(=O)c2[nH]c3cc(Cl)ccc3c2CC(=O)NCCCNC(=O)c2ccc(-c3c4nc(c(-c5cccc(S(=O)(=O)[O-])c5F)c5ccc([nH]5)c(-c5cccc(S(=O)(=O)[O-])c5F)c5nc(c(-c6cccc(S(=O)(=O)[O-])c6F)c6ccc3[nH]6)C=C5)C=C4)cc2)cc1CC
REMARK SMILES IDX 24 1 23 2 21 3 22 4 20 6 19 7 10 8 11 9 12 10 18 12 13 13
REMARK SMILES IDX 17 14 14 15 16 16 15 17 8 18 9 19 7 20 4 21 5 22 94 23 6 24
REMARK SMILES IDX 93 25 3 26 2 27 1 28 95 29 96 30 25 31 26 32 27 33 28 34
REMARK SMILES IDX 29 36 30 37 31 38 92 39 32 40 91 41 33 42 34 43 35 44 85 45
REMARK SMILES IDX 36 46 90 47 84 48 86 49 37 50 89 51 83 52 82 53 38 55 70 56
REMARK SMILES IDX 50 57 69 58 51 59 54 60 68 61 87 62 52 63 53 64 67 66 88 67
REMARK SMILES IDX 55 68 39 69 40 70 48 71 41 72 43 73 49 74 42 75 44 76 45 77
REMARK SMILES IDX 46 78 47 79 71 80 72 81 80 82 73 83 75 84 81 85 74 86 76 87
REMARK SMILES IDX 77 88 78 89 79 90 56 91 57 92 65 93 58 94 60 95 66 96 59 97
REMARK SMILES IDX 61 98 62 99 63 100 64 101
REMARK H PARENT 23 5 11 11 27 35 86 54 54 65
REMARK Flexibility Score: inf
ROOT
ATOM      1  C   UNL A   1      34.209  24.337  26.217  1.00  0.00     0.117 C 
ENDROOT
BRANCH   1   2
ATOM      2  N   UNL A   1      34.322  25.513  25.376  1.00  0.00    -0.356 N 
ATOM      3  C   UNL A   1      33.553  26.641  25.351  1.00  0.00     0.224 C 
ATOM      4  O   UNL A   1      33.980  27.609  24.716  1.00  0.00    -0.275 OA
ATOM      5  H   UNL A   1      35.063  25.496  24.728  1.00  0.00     0.163 HD
BRANCH   3   6
ATOM      6  C   UNL A   1      32.293  26.758  26.198  1.00  0.00     0.138 C 
BRANCH   6   7
ATOM      7  C   UNL A   1      30.998  26.657  25.444  1.00  0.00    -0.002 A 
ATOM      8  C   UNL A   1      30.112  25.582  25.428  1.00  0.00     0.093 A 
ATOM      9  N   UNL A   1      28.997  25.985  24.722  1.00  0.00    -0.351 N 
ATOM     10  C   UNL A   1      29.244  27.172  24.077  1.00  0.00     0.048 A 
ATOM     11  H   UNL A   1      28.146  25.492  24.687  1.00  0.00     0.167 HD
ATOM     12  C   UNL A   1      30.493  27.619  24.506  1.00  0.00     0.004 A 
ATOM     13  C   UNL A   1      28.454  27.882  23.161  1.00  0.00     0.047 A 
ATOM     14  C   UNL A   1      30.982  28.838  23.991  1.00  0.00     0.012 A 
ATOM     15  C   UNL A   1      28.971  29.081  22.663  1.00  0.00     0.043 A 
ATOM     16  C   UNL A   1      30.214  29.557  23.068  1.00  0.00     0.021 A 
ATOM     17  Cl  UNL A   1      28.061  29.990  21.519  1.00  0.00    -0.084 Cl
BRANCH   8  18
ATOM     18  C   UNL A   1      30.256  24.277  26.059  1.00  0.00     0.227 C 
ATOM     19  O   UNL A   1      29.769  24.047  27.160  1.00  0.00    -0.285 OA
BRANCH  18  20
ATOM     20  C   UNL A   1      31.076  23.220  25.346  1.00  0.00     0.113 A 
ATOM     21  C   UNL A   1      32.522  21.227  24.116  1.00  0.00     0.140 A 
ATOM     22  C   UNL A   1      31.901  21.059  25.349  1.00  0.00     0.158 A 
ATOM     23  C   UNL A   1      32.373  22.442  23.451  1.00  0.00    -0.002 A 
ATOM     24  N   UNL A   1      31.184  22.021  25.974  1.00  0.00    -0.249 NA
ATOM     25  C   UNL A   1      31.687  23.468  24.116  1.00  0.00     0.040 A 
BRANCH  21  26
ATOM     26  O   UNL A   1      33.190  20.188  23.533  1.00  0.00    -0.492 OA
BRANCH  26  27
ATOM     27  C   UNL A   1      32.609  18.920  23.863  1.00  0.00     0.226 C 
ATOM     28  C   UNL A   1      32.463  18.087  22.601  1.00  0.00     0.049 C 
ENDBRANCH  26  27
ENDBRANCH  21  26
BRANCH  23  29
ATOM     29  C   UNL A   1      32.924  22.682  22.065  1.00  0.00     0.036 C 
ATOM     30  C   UNL A   1      33.014  24.159  21.698  1.00  0.00     0.009 C 
ENDBRANCH  23  29
ENDBRANCH  18  20
ENDBRANCH   8  18
ENDBRANCH   6   7
ENDBRANCH   3   6
ENDBRANCH   1   2
BRANCH   1  31
ATOM     31  C   UNL A   1      35.221  23.249  25.876  1.00  0.00     0.042 C 
BRANCH  31  32
ATOM     32  C   UNL A   1      36.655  23.747  25.721  1.00  0.00     0.118 C 
BRANCH  32  33
ATOM     33  N   UNL A   1      37.643  22.707  25.983  1.00  0.00    -0.352 N 
ATOM     34  C   UNL A   1      38.941  22.810  26.420  1.00  0.00     0.251 C 
ATOM     35  H   UNL A   1      37.331  21.787  25.820  1.00  0.00     0.163 HD
ATOM     36  O   UNL A   1      39.665  21.818  26.408  1.00  0.00    -0.269 OA
BRANCH  34  37
ATOM     37  C   UNL A   1      39.478  24.107  26.892  1.00  0.00     0.039 A 
ATOM     38  C   UNL A   1      40.113  24.953  25.975  1.00  0.00     0.014 A 
ATOM     39  C   UNL A   1      39.385  24.478  28.235  1.00  0.00     0.014 A 
ATOM     40  C   UNL A   1      40.590  26.201  26.391  1.00  0.00     0.010 A 
ATOM     41  C   UNL A   1      39.803  25.746  28.633  1.00  0.00     0.010 A 
ATOM     42  C   UNL A   1      40.407  26.621  27.716  1.00  0.00    -0.014 A 
BRANCH  42  43
ATOM     43  C   UNL A   1      40.819  27.969  28.186  1.00  0.00     0.031 A 
ATOM     44  C   UNL A   1      42.278  28.278  28.386  1.00  0.00     0.074 A 
ATOM     45  C   UNL A   1      39.880  28.858  28.571  1.00  0.00     0.049 A 
ATOM     46  N   UNL A   1      42.832  29.314  28.961  1.00  0.00    -0.248 NA
ATOM     47  C   UNL A   1      43.242  27.273  27.907  1.00  0.00     0.031 C 
ATOM     48  C   UNL A   1      38.433  28.653  28.486  1.00  0.00     0.029 A 
ATOM     49  N   UNL A   1      40.005  30.094  29.157  1.00  0.00    -0.354 N 
ATOM     50  C   UNL A   1      44.197  29.057  28.971  1.00  0.00     0.074 A 
ATOM     51  C   UNL A   1      44.391  27.768  28.344  1.00  0.00     0.031 C 
ATOM     52  C   UNL A   1      37.805  29.712  29.020  1.00  0.00     0.029 A 
ATOM     53  C   UNL A   1      38.802  30.658  29.516  1.00  0.00     0.049 A 
ATOM     54  H   UNL A   1      40.872  30.535  29.307  1.00  0.00     0.167 HD
ATOM     55  C   UNL A   1      45.200  29.833  29.446  1.00  0.00     0.034 A 
ATOM     56  C   UNL A   1      38.531  31.795  30.188  1.00  0.00     0.034 A 
ATOM     57  C   UNL A   1      45.010  31.150  29.990  1.00  0.00     0.049 A 
ATOM     58  C   UNL A   1      39.671  32.669  30.638  1.00  0.00     0.074 A 
ATOM     59  C   UNL A   1      45.974  32.062  30.383  1.00  0.00     0.029 A 
ATOM     60  N   UNL A   1      43.779  31.743  30.215  1.00  0.00    -0.354 N 
ATOM     61  N   UNL A   1      40.960  32.485  30.487  1.00  0.00    -0.248 NA
ATOM     62  C   UNL A   1      39.321  33.924  31.323  1.00  0.00     0.031 C 
ATOM     63  C   UNL A   1      45.322  33.207  30.853  1.00  0.00     0.029 A 
ATOM     64  C   UNL A   1      43.956  33.008  30.746  1.00  0.00     0.049 A 
ATOM     65  H   UNL A   1      42.907  31.326  30.025  1.00  0.00     0.167 HD
ATOM     66  C   UNL A   1      41.571  33.616  31.017  1.00  0.00     0.074 A 
ATOM     67  C   UNL A   1      40.512  34.486  31.484  1.00  0.00     0.031 C 
ATOM     68  C   UNL A   1      42.892  33.899  31.124  1.00  0.00     0.034 A 
BRANCH  55  69
ATOM     69  C   UNL A   1      46.608  29.315  29.346  1.00  0.00     0.023 A 
ATOM     70  C   UNL A   1      47.140  28.548  30.399  1.00  0.00     0.012 A 
ATOM     71  C   UNL A   1      47.366  29.506  28.173  1.00  0.00     0.148 A 
ATOM     72  C   UNL A   1      48.414  27.991  30.297  1.00  0.00     0.002 A 
ATOM     73  C   UNL A   1      48.620  28.916  28.063  1.00  0.00     0.091 A 
ATOM     74  F   UNL A   1      46.847  30.257  27.191  1.00  0.00    -0.205 F 
ATOM     75  C   UNL A   1      49.148  28.165  29.127  1.00  0.00     0.022 A 
BRANCH  73  76
ATOM     76  S   UNL A   1      49.612  29.019  26.569  1.00  0.00     0.127 S 
ATOM     77  O   UNL A   1      50.736  28.144  26.899  1.00  0.00    -0.237 OA
ATOM     78  O   UNL A   1      48.700  28.484  25.556  1.00  0.00    -0.237 OA
ATOM     79  O   UNL A   1      49.944  30.427  26.403  1.00  0.00    -0.744 OA
ENDBRANCH  73  76
ENDBRANCH  55  69
BRANCH  56  80
ATOM     80  C   UNL A   1      37.117  32.206  30.421  1.00  0.00     0.023 A 
ATOM     81  C   UNL A   1      36.516  31.917  31.661  1.00  0.00     0.012 A 
ATOM     82  C   UNL A   1      36.373  32.893  29.442  1.00  0.00     0.148 A 
ATOM     83  C   UNL A   1      35.190  32.274  31.911  1.00  0.00     0.002 A 
ATOM     84  C   UNL A   1      35.068  33.292  29.716  1.00  0.00     0.091 A 
ATOM     85  F   UNL A   1      36.949  33.145  28.258  1.00  0.00    -0.205 F 
ATOM     86  C   UNL A   1      34.470  32.970  30.943  1.00  0.00     0.022 A 
BRANCH  84  87
ATOM     87  S   UNL A   1      34.140  34.306  28.559  1.00  0.00     0.127 S 
ATOM     88  O   UNL A   1      34.120  33.466  27.366  1.00  0.00    -0.237 OA
ATOM     89  O   UNL A   1      32.848  34.452  29.230  1.00  0.00    -0.237 OA
ATOM     90  O   UNL A   1      34.894  35.551  28.459  1.00  0.00    -0.744 OA
ENDBRANCH  84  87
ENDBRANCH  56  80
BRANCH  68  91
ATOM     91  C   UNL A   1      43.285  35.222  31.721  1.00  0.00     0.023 A 
ATOM     92  C   UNL A   1      43.504  35.322  33.109  1.00  0.00     0.012 A 
ATOM     93  C   UNL A   1      43.550  36.331  30.894  1.00  0.00     0.148 A 
ATOM     94  C   UNL A   1      43.968  36.512  33.667  1.00  0.00     0.002 A 
ATOM     95  C   UNL A   1      44.050  37.501  31.453  1.00  0.00     0.091 A 
ATOM     96  F   UNL A   1      43.316  36.218  29.579  1.00  0.00    -0.205 F 
ATOM     97  C   UNL A   1      44.254  37.595  32.839  1.00  0.00     0.022 A 
BRANCH  95  98
ATOM     98  S   UNL A   1      44.536  38.911  30.450  1.00  0.00     0.127 S 
ATOM     99  O   UNL A   1      45.013  39.848  31.466  1.00  0.00    -0.237 OA
ATOM    100  O   UNL A   1      45.585  38.346  29.601  1.00  0.00    -0.237 OA
ATOM    101  O   UNL A   1      43.338  39.322  29.731  1.00  0.00    -0.744 OA
ENDBRANCH  95  98
ENDBRANCH  68  91
ENDBRANCH  42  43
ENDBRANCH  34  37
ENDBRANCH  32  33
ENDBRANCH  31  32
ENDBRANCH   1  31
TORSDOF 19
ENDMDL
MODEL 2
REMARK VINA RESULT:     -11.9      4.706      7.905
REMARK SMILES CCOc1cnc(C(=O)c2[nH]c3cc(Cl)ccc3c2CC(=O)NCCCNC(=O)c2ccc(-c3c4nc(c(-c5cccc(S(=O)(=O)[O-])c5F)c5ccc([nH]5)c(-c5cccc(S(=O)(=O)[O-])c5F)c5nc(c(-c6cccc(S(=O)(=O)[O-])c6F)c6ccc3[nH]6)C=C5)C=C4)cc2)cc1CC
REMARK SMILES IDX 24 1 23 2 21 3 22 4 20 6 19 7 10 8 11 9 12 10 18 12 13 13
REMARK SMILES IDX 17 14 14 15 16 16 15 17 8 18 9 19 7 20 4 21 5 22 94 23 6 24
REMARK SMILES IDX 93 25 3 26 2 27 1 28 95 29 96 30 25 31 26 32 27 33 28 34
REMARK SMILES IDX 29 36 30 37 31 38 92 39 32 40 91 41 33 42 34 43 35 44 85 45
REMARK SMILES IDX 36 46 90 47 84 48 86 49 37 50 89 51 83 52 82 53 38 55 70 56
REMARK SMILES IDX 50 57 69 58 51 59 54 60 68 61 87 62 52 63 53 64 67 66 88 67
REMARK SMILES IDX 55 68 39 69 40 70 48 71 41 72 43 73 49 74 42 75 44 76 45 77
REMARK SMILES IDX 46 78 47 79 71 80 72 81 80 82 73 83 75 84 81 85 74 86 76 87
REMARK SMILES IDX 77 88 78 89 79 90 56 91 57 92 65 93 58 94 60 95 66 96 59 97
REMARK SMILES IDX 61 98 62 99 63 100 64 101
REMARK H PARENT 23 5 11 11 27 35 86 54 54 65
REMARK Flexibility Score: inf
ROOT
ATOM      1  C   UNL A   1      33.686  26.950  25.052  1.00  0.00     0.117 C 
ENDROOT
BRANCH   1   2
ATOM      2  N   UNL A   1      33.634  25.790  25.921  1.00  0.00    -0.356 N 
ATOM      3  C   UNL A   1      34.043  24.509  25.687  1.00  0.00     0.224 C 
ATOM      4  O   UNL A   1      34.119  23.748  26.655  1.00  0.00    -0.275 OA
ATOM      5  H   UNL A   1      33.248  25.951  26.812  1.00  0.00     0.163 HD
BRANCH   3   6
ATOM      6  C   UNL A   1      34.537  24.076  24.313  1.00  0.00     0.138 C 
BRANCH   6   7
ATOM      7  C   UNL A   1      33.677  23.065  23.609  1.00  0.00    -0.002 A 
ATOM      8  C   UNL A   1      32.914  23.260  22.461  1.00  0.00     0.093 A 
ATOM      9  N   UNL A   1      32.410  22.029  22.094  1.00  0.00    -0.351 N 
ATOM     10  C   UNL A   1      32.611  21.113  23.097  1.00  0.00     0.048 A 
ATOM     11  H   UNL A   1      31.970  21.835  21.235  1.00  0.00     0.167 HD
ATOM     12  C   UNL A   1      33.401  21.732  24.065  1.00  0.00     0.004 A 
ATOM     13  C   UNL A   1      32.164  19.789  23.212  1.00  0.00     0.047 A 
ATOM     14  C   UNL A   1      33.761  20.992  25.210  1.00  0.00     0.012 A 
ATOM     15  C   UNL A   1      32.530  19.086  24.363  1.00  0.00     0.043 A 
ATOM     16  C   UNL A   1      33.317  19.672  25.350  1.00  0.00     0.021 A 
ATOM     17  Cl  UNL A   1      31.996  17.463  24.576  1.00  0.00    -0.084 Cl
BRANCH   8  18
ATOM     18  C   UNL A   1      32.693  24.492  21.715  1.00  0.00     0.227 C 
ATOM     19  O   UNL A   1      33.277  24.709  20.660  1.00  0.00    -0.285 OA
BRANCH  18  20
ATOM     20  C   UNL A   1      31.762  25.532  22.305  1.00  0.00     0.113 A 
ATOM     21  C   UNL A   1      30.078  27.477  23.287  1.00  0.00     0.140 A 
ATOM     22  C   UNL A   1      30.890  27.671  22.174  1.00  0.00     0.158 A 
ATOM     23  C   UNL A   1      30.082  26.230  23.910  1.00  0.00    -0.002 A 
ATOM     24  N   UNL A   1      31.724  26.732  21.671  1.00  0.00    -0.249 NA
ATOM     25  C   UNL A   1      30.989  25.271  23.439  1.00  0.00     0.040 A 
BRANCH  21  26
ATOM     26  O   UNL A   1      29.230  28.463  23.703  1.00  0.00    -0.492 OA
BRANCH  26  27
ATOM     27  C   UNL A   1      29.329  29.638  22.887  1.00  0.00     0.226 C 
ATOM     28  C   UNL A   1      27.943  30.040  22.410  1.00  0.00     0.049 C 
ENDBRANCH  26  27
ENDBRANCH  21  26
BRANCH  23  29
ATOM     29  C   UNL A   1      29.162  25.894  25.059  1.00  0.00     0.036 C 
ATOM     30  C   UNL A   1      29.899  25.408  26.302  1.00  0.00     0.009 C 
ENDBRANCH  23  29
ENDBRANCH  18  20
ENDBRANCH   8  18
ENDBRANCH   6   7
ENDBRANCH   3   6
ENDBRANCH   1   2
BRANCH   1  31
ATOM     31  C   UNL A   1      32.820  28.108  25.535  1.00  0.00     0.042 C 
BRANCH  31  32
ATOM     32  C   UNL A   1      33.260  29.478  25.028  1.00  0.00     0.118 C 
BRANCH  32  33
ATOM     33  N   UNL A   1      32.613  30.576  25.739  1.00  0.00    -0.352 N 
ATOM     34  C   UNL A   1      32.982  31.221  26.894  1.00  0.00     0.251 C 
ATOM     35  H   UNL A   1      31.782  30.904  25.327  1.00  0.00     0.163 HD
ATOM     36  O   UNL A   1      32.201  32.007  27.425  1.00  0.00    -0.269 OA
BRANCH  34  37
ATOM     37  C   UNL A   1      34.304  30.968  27.511  1.00  0.00     0.039 A 
ATOM     38  C   UNL A   1      35.214  32.026  27.627  1.00  0.00     0.014 A 
ATOM     39  C   UNL A   1      34.662  29.691  27.947  1.00  0.00     0.014 A 
ATOM     40  C   UNL A   1      36.451  31.818  28.245  1.00  0.00     0.010 A 
ATOM     41  C   UNL A   1      35.868  29.501  28.618  1.00  0.00     0.010 A 
ATOM     42  C   UNL A   1      36.774  30.561  28.776  1.00  0.00    -0.014 A 
BRANCH  42  43
ATOM     43  C   UNL A   1      38.038  30.312  29.515  1.00  0.00     0.031 A 
ATOM     44  C   UNL A   1      39.052  29.347  28.960  1.00  0.00     0.074 A 
ATOM     45  C   UNL A   1      38.207  30.835  30.746  1.00  0.00     0.049 A 
ATOM     46  N   UNL A   1      40.118  28.851  29.530  1.00  0.00    -0.248 NA
ATOM     47  C   UNL A   1      38.815  28.848  27.594  1.00  0.00     0.031 C 
ATOM     48  C   UNL A   1      37.268  31.734  31.421  1.00  0.00     0.029 A 
ATOM     49  N   UNL A   1      39.205  30.646  31.671  1.00  0.00    -0.354 N 
ATOM     50  C   UNL A   1      40.642  27.936  28.624  1.00  0.00     0.074 A 
ATOM     51  C   UNL A   1      39.778  27.946  27.464  1.00  0.00     0.031 C 
ATOM     52  C   UNL A   1      37.722  32.000  32.656  1.00  0.00     0.029 A 
ATOM     53  C   UNL A   1      38.965  31.266  32.876  1.00  0.00     0.049 A 
ATOM     54  H   UNL A   1      40.015  30.117  31.489  1.00  0.00     0.167 HD
ATOM     55  C   UNL A   1      41.752  27.170  28.742  1.00  0.00     0.034 A 
ATOM     56  C   UNL A   1      39.655  31.230  34.033  1.00  0.00     0.034 A 
ATOM     57  C   UNL A   1      42.654  27.228  29.860  1.00  0.00     0.049 A 
ATOM     58  C   UNL A   1      40.925  30.425  34.106  1.00  0.00     0.074 A 
ATOM     59  C   UNL A   1      43.868  26.582  30.015  1.00  0.00     0.029 A 
ATOM     60  N   UNL A   1      42.444  27.972  31.009  1.00  0.00    -0.354 N 
ATOM     61  N   UNL A   1      41.492  29.696  33.175  1.00  0.00    -0.248 NA
ATOM     62  C   UNL A   1      41.667  30.458  35.375  1.00  0.00     0.031 C 
ATOM     63  C   UNL A   1      44.391  26.933  31.264  1.00  0.00     0.029 A 
ATOM     64  C   UNL A   1      43.503  27.800  31.881  1.00  0.00     0.049 A 
ATOM     65  H   UNL A   1      41.658  28.540  31.179  1.00  0.00     0.167 HD
ATOM     66  C   UNL A   1      42.676  29.222  33.731  1.00  0.00     0.074 A 
ATOM     67  C   UNL A   1      42.751  29.754  35.075  1.00  0.00     0.031 C 
ATOM     68  C   UNL A   1      43.607  28.405  33.182  1.00  0.00     0.034 A 
BRANCH  55  69
ATOM     69  C   UNL A   1      42.100  26.244  27.610  1.00  0.00     0.023 A 
ATOM     70  C   UNL A   1      42.949  26.696  26.582  1.00  0.00     0.012 A 
ATOM     71  C   UNL A   1      41.668  24.903  27.615  1.00  0.00     0.148 A 
ATOM     72  C   UNL A   1      43.349  25.833  25.563  1.00  0.00     0.002 A 
ATOM     73  C   UNL A   1      42.101  24.039  26.616  1.00  0.00     0.091 A 
ATOM     74  F   UNL A   1      40.844  24.501  28.593  1.00  0.00    -0.205 F 
ATOM     75  C   UNL A   1      42.935  24.504  25.586  1.00  0.00     0.022 A 
BRANCH  73  76
ATOM     76  S   UNL A   1      41.684  22.291  26.599  1.00  0.00     0.127 S 
ATOM     77  O   UNL A   1      42.354  21.839  25.380  1.00  0.00    -0.237 OA
ATOM     78  O   UNL A   1      42.296  21.816  27.841  1.00  0.00    -0.237 OA
ATOM     79  O   UNL A   1      40.230  22.225  26.574  1.00  0.00    -0.744 OA
ENDBRANCH  73  76
ENDBRANCH  55  69
BRANCH  56  80
ATOM     80  C   UNL A   1      39.196  32.034  35.202  1.00  0.00     0.023 A 
ATOM     81  C   UNL A   1      38.261  31.472  36.093  1.00  0.00     0.012 A 
ATOM     82  C   UNL A   1      39.685  33.331  35.450  1.00  0.00     0.148 A 
ATOM     83  C   UNL A   1      37.797  32.199  37.190  1.00  0.00     0.002 A 
ATOM     84  C   UNL A   1      39.257  34.030  36.574  1.00  0.00     0.091 A 
ATOM     85  F   UNL A   1      40.560  33.863  34.584  1.00  0.00    -0.205 F 
ATOM     86  C   UNL A   1      38.302  33.474  37.437  1.00  0.00     0.022 A 
BRANCH  84  87
ATOM     87  S   UNL A   1      39.973  35.619  37.014  1.00  0.00     0.127 S 
ATOM     88  O   UNL A   1      41.386  35.287  37.157  1.00  0.00    -0.237 OA
ATOM     89  O   UNL A   1      39.650  36.446  35.850  1.00  0.00    -0.237 OA
ATOM     90  O   UNL A   1      39.279  36.021  38.233  1.00  0.00    -0.744 OA
ENDBRANCH  84  87
ENDBRANCH  56  80
BRANCH  68  91
ATOM     91  C   UNL A   1      44.821  28.066  34.002  1.00  0.00     0.023 A 
ATOM     92  C   UNL A   1      45.928  28.937  33.998  1.00  0.00     0.012 A 
ATOM     93  C   UNL A   1      44.816  26.951  34.863  1.00  0.00     0.148 A 
ATOM     94  C   UNL A   1      47.021  28.694  34.830  1.00  0.00     0.002 A 
ATOM     95  C   UNL A   1      45.891  26.738  35.717  1.00  0.00     0.091 A 
ATOM     96  F   UNL A   1      43.759  26.127  34.835  1.00  0.00    -0.205 F 
ATOM     97  C   UNL A   1      46.996  27.604  35.697  1.00  0.00     0.022 A 
BRANCH  95  98
ATOM     98  S   UNL A   1      45.901  25.415  36.934  1.00  0.00     0.127 S 
ATOM     99  O   UNL A   1      47.083  25.750  37.727  1.00  0.00    -0.237 OA
ATOM    100  O   UNL A   1      44.627  25.615  37.625  1.00  0.00    -0.237 OA
ATOM    101  O   UNL A   1      45.985  24.174  36.176  1.00  0.00    -0.744 OA
ENDBRANCH  95  98
ENDBRANCH  68  91
ENDBRANCH  42  43
ENDBRANCH  34  37
ENDBRANCH  32  33
ENDBRANCH  31  32
ENDBRANCH   1  31
TORSDOF 19
ENDMDL
MODEL 3
REMARK VINA RESULT:     -11.9      3.511      8.501
REMARK SMILES CCOc1cnc(C(=O)c2[nH]c3cc(Cl)ccc3c2CC(=O)NCCCNC(=O)c2ccc(-c3c4nc(c(-c5cccc(S(=O)(=O)[O-])c5F)c5ccc([nH]5)c(-c5cccc(S(=O)(=O)[O-])c5F)c5nc(c(-c6cccc(S(=O)(=O)[O-])c6F)c6ccc3[nH]6)C=C5)C=C4)cc2)cc1CC
REMARK SMILES IDX 24 1 23 2 21 3 22 4 20 6 19 7 10 8 11 9 12 10 18 12 13 13
REMARK SMILES IDX 17 14 14 15 16 16 15 17 8 18 9 19 7 20 4 21 5 22 94 23 6 24
REMARK SMILES IDX 93 25 3 26 2 27 1 28 95 29 96 30 25 31 26 32 27 33 28 34
REMARK SMILES IDX 29 36 30 37 31 38 92 39 32 40 91 41 33 42 34 43 35 44 85 45
REMARK SMILES IDX 36 46 90 47 84 48 86 49 37 50 89 51 83 52 82 53 38 55 70 56
REMARK SMILES IDX 50 57 69 58 51 59 54 60 68 61 87 62 52 63 53 64 67 66 88 67
REMARK SMILES IDX 55 68 39 69 40 70 48 71 41 72 43 73 49 74 42 75 44 76 45 77
REMARK SMILES IDX 46 78 47 79 71 80 72 81 80 82 73 83 75 84 81 85 74 86 76 87
REMARK SMILES IDX 77 88 78 89 79 90 56 91 57 92 65 93 58 94 60 95 66 96 59 97
REMARK SMILES IDX 61 98 62 99 63 100 64 101
REMARK H PARENT 23 5 11 11 27 35 86 54 54 65
REMARK Flexibility Score: inf
ROOT
ATOM      1  C   UNL A   1      36.806  21.154  25.357  1.00  0.00     0.117 C 
ENDROOT
BRANCH   1   2
ATOM      2  N   UNL A   1      36.321  21.848  24.180  1.00  0.00    -0.356 N 
ATOM      3  C   UNL A   1      35.895  23.138  24.046  1.00  0.00     0.224 C 
ATOM      4  O   UNL A   1      35.753  23.576  22.900  1.00  0.00    -0.275 OA
ATOM      5  H   UNL A   1      36.295  21.309  23.356  1.00  0.00     0.163 HD
BRANCH   3   6
ATOM      6  C   UNL A   1      35.751  24.053  25.254  1.00  0.00     0.138 C 
BRANCH   6   7
ATOM      7  C   UNL A   1      34.344  24.459  25.591  1.00  0.00    -0.002 A 
ATOM      8  C   UNL A   1      33.395  23.715  26.288  1.00  0.00     0.093 A 
ATOM      9  N   UNL A   1      32.303  24.534  26.487  1.00  0.00    -0.351 N 
ATOM     10  C   UNL A   1      32.417  25.674  25.729  1.00  0.00     0.048 A 
ATOM     11  H   UNL A   1      31.550  24.331  27.087  1.00  0.00     0.167 HD
ATOM     12  C   UNL A   1      33.686  25.656  25.151  1.00  0.00     0.004 A 
ATOM     13  C   UNL A   1      31.501  26.715  25.524  1.00  0.00     0.047 A 
ATOM     14  C   UNL A   1      34.059  26.733  24.321  1.00  0.00     0.012 A 
ATOM     15  C   UNL A   1      31.898  27.763  24.689  1.00  0.00     0.043 A 
ATOM     16  C   UNL A   1      33.157  27.779  24.094  1.00  0.00     0.021 A 
ATOM     17  Cl  UNL A   1      30.812  29.062  24.378  1.00  0.00    -0.084 Cl
BRANCH   8  18
ATOM     18  C   UNL A   1      33.497  22.349  26.784  1.00  0.00     0.227 C 
ATOM     19  O   UNL A   1      33.899  22.113  27.917  1.00  0.00    -0.285 OA
BRANCH  18  20
ATOM     20  C   UNL A   1      33.148  21.214  25.841  1.00  0.00     0.113 A 
ATOM     21  C   UNL A   1      32.497  19.091  24.214  1.00  0.00     0.140 A 
ATOM     22  C   UNL A   1      32.822  18.941  25.558  1.00  0.00     0.158 A 
ATOM     23  C   UNL A   1      32.456  20.374  23.673  1.00  0.00    -0.002 A 
ATOM     24  N   UNL A   1      33.144  19.967  26.379  1.00  0.00    -0.249 NA
ATOM     25  C   UNL A   1      32.850  21.439  24.495  1.00  0.00     0.040 A 
BRANCH  21  26
ATOM     26  O   UNL A   1      32.139  18.006  23.466  1.00  0.00    -0.492 OA
BRANCH  26  27
ATOM     27  C   UNL A   1      32.955  16.862  23.752  1.00  0.00     0.226 C 
ATOM     28  C   UNL A   1      34.338  17.066  23.157  1.00  0.00     0.049 C 
ENDBRANCH  26  27
ENDBRANCH  21  26
BRANCH  23  29
ATOM     29  C   UNL A   1      32.016  20.644  22.254  1.00  0.00     0.036 C 
ATOM     30  C   UNL A   1      32.302  22.069  21.793  1.00  0.00     0.009 C 
ENDBRANCH  23  29
ENDBRANCH  18  20
ENDBRANCH   8  18
ENDBRANCH   6   7
ENDBRANCH   3   6
ENDBRANCH   1   2
BRANCH   1  31
ATOM     31  C   UNL A   1      38.037  20.295  25.090  1.00  0.00     0.042 C 
BRANCH  31  32
ATOM     32  C   UNL A   1      39.199  20.544  26.046  1.00  0.00     0.118 C 
BRANCH  32  33
ATOM     33  N   UNL A   1      40.202  19.486  26.000  1.00  0.00    -0.352 N 
ATOM     34  C   UNL A   1      41.572  19.562  26.065  1.00  0.00     0.251 C 
ATOM     35  H   UNL A   1      39.840  18.575  25.909  1.00  0.00     0.163 HD
ATOM     36  O   UNL A   1      42.246  18.562  25.830  1.00  0.00    -0.269 OA
BRANCH  34  37
ATOM     37  C   UNL A   1      42.242  20.839  26.400  1.00  0.00     0.039 A 
ATOM     38  C   UNL A   1      42.565  21.729  25.368  1.00  0.00     0.014 A 
ATOM     39  C   UNL A   1      42.580  21.150  27.719  1.00  0.00     0.014 A 
ATOM     40  C   UNL A   1      43.160  22.959  25.667  1.00  0.00     0.010 A 
ATOM     41  C   UNL A   1      43.114  22.400  28.021  1.00  0.00     0.010 A 
ATOM     42  C   UNL A   1      43.407  23.319  27.000  1.00  0.00    -0.014 A 
BRANCH  42  43
ATOM     43  C   UNL A   1      43.959  24.646  27.375  1.00  0.00     0.031 A 
ATOM     44  C   UNL A   1      43.042  25.713  27.912  1.00  0.00     0.074 A 
ATOM     45  C   UNL A   1      45.245  24.937  27.097  1.00  0.00     0.049 A 
ATOM     46  N   UNL A   1      43.284  26.981  28.118  1.00  0.00    -0.248 NA
ATOM     47  C   UNL A   1      41.662  25.306  28.226  1.00  0.00     0.031 C 
ATOM     48  C   UNL A   1      46.219  24.009  26.517  1.00  0.00     0.029 A 
ATOM     49  N   UNL A   1      45.943  26.114  27.217  1.00  0.00    -0.354 N 
ATOM     50  C   UNL A   1      42.075  27.536  28.521  1.00  0.00     0.074 A 
ATOM     51  C   UNL A   1      41.100  26.468  28.533  1.00  0.00     0.031 C 
ATOM     52  C   UNL A   1      47.377  24.655  26.312  1.00  0.00     0.029 A 
ATOM     53  C   UNL A   1      47.222  26.051  26.713  1.00  0.00     0.049 A 
ATOM     54  H   UNL A   1      45.564  26.927  27.625  1.00  0.00     0.167 HD
ATOM     55  C   UNL A   1      41.806  28.818  28.867  1.00  0.00     0.034 A 
ATOM     56  C   UNL A   1      48.157  27.012  26.568  1.00  0.00     0.034 A 
ATOM     57  C   UNL A   1      42.797  29.857  28.936  1.00  0.00     0.049 A 
ATOM     58  C   UNL A   1      47.848  28.411  27.030  1.00  0.00     0.074 A 
ATOM     59  C   UNL A   1      42.647  31.155  29.393  1.00  0.00     0.029 A 
ATOM     60  N   UNL A   1      44.118  29.719  28.543  1.00  0.00    -0.354 N 
ATOM     61  N   UNL A   1      46.746  28.877  27.566  1.00  0.00    -0.248 NA
ATOM     62  C   UNL A   1      48.918  29.412  26.896  1.00  0.00     0.031 C 
ATOM     63  C   UNL A   1      43.879  31.804  29.269  1.00  0.00     0.029 A 
ATOM     64  C   UNL A   1      44.795  30.908  28.742  1.00  0.00     0.049 A 
ATOM     65  H   UNL A   1      44.515  28.895  28.177  1.00  0.00     0.167 HD
ATOM     66  C   UNL A   1      47.005  30.208  27.873  1.00  0.00     0.074 A 
ATOM     67  C   UNL A   1      48.371  30.474  27.473  1.00  0.00     0.031 C 
ATOM     68  C   UNL A   1      46.179  31.132  28.420  1.00  0.00     0.034 A 
BRANCH  55  69
ATOM     69  C   UNL A   1      40.398  29.167  29.261  1.00  0.00     0.023 A 
ATOM     70  C   UNL A   1      39.473  29.540  28.266  1.00  0.00     0.012 A 
ATOM     71  C   UNL A   1      39.967  29.035  30.595  1.00  0.00     0.148 A 
ATOM     72  C   UNL A   1      38.143  29.793  28.595  1.00  0.00     0.002 A 
ATOM     73  C   UNL A   1      38.630  29.252  30.910  1.00  0.00     0.091 A 
ATOM     74  F   UNL A   1      40.869  28.698  31.528  1.00  0.00    -0.205 F 
ATOM     75  C   UNL A   1      37.719  29.638  29.913  1.00  0.00     0.022 A 
BRANCH  73  76
ATOM     76  S   UNL A   1      37.971  29.006  32.563  1.00  0.00     0.127 S 
ATOM     77  O   UNL A   1      38.846  29.865  33.361  1.00  0.00    -0.237 OA
ATOM     78  O   UNL A   1      36.599  29.496  32.424  1.00  0.00    -0.237 OA
ATOM     79  O   UNL A   1      38.082  27.579  32.832  1.00  0.00    -0.744 OA
ENDBRANCH  73  76
ENDBRANCH  55  69
BRANCH  56  80
ATOM     80  C   UNL A   1      49.500  26.671  26.018  1.00  0.00     0.023 A 
ATOM     81  C   UNL A   1      50.384  25.902  26.800  1.00  0.00     0.012 A 
ATOM     82  C   UNL A   1      49.901  27.079  24.731  1.00  0.00     0.148 A 
ATOM     83  C   UNL A   1      51.655  25.575  26.325  1.00  0.00     0.002 A 
ATOM     84  C   UNL A   1      51.149  26.705  24.243  1.00  0.00     0.091 A 
ATOM     85  F   UNL A   1      49.059  27.827  24.004  1.00  0.00    -0.205 F 
ATOM     86  C   UNL A   1      52.034  25.967  25.043  1.00  0.00     0.022 A 
BRANCH  84  87
ATOM     87  S   UNL A   1      51.637  27.068  22.552  1.00  0.00     0.127 S 
ATOM     88  O   UNL A   1      50.429  26.729  21.807  1.00  0.00    -0.237 OA
ATOM     89  O   UNL A   1      51.943  28.498  22.610  1.00  0.00    -0.237 OA
ATOM     90  O   UNL A   1      52.803  26.226  22.307  1.00  0.00    -0.744 OA
ENDBRANCH  84  87
ENDBRANCH  56  80
BRANCH  68  91
ATOM     91  C   UNL A   1      46.728  32.509  28.674  1.00  0.00     0.023 A 
ATOM     92  C   UNL A   1      47.330  32.800  29.913  1.00  0.00     0.012 A 
ATOM     93  C   UNL A   1      46.751  33.473  27.646  1.00  0.00     0.148 A 
ATOM     94  C   UNL A   1      47.936  34.037  30.131  1.00  0.00     0.002 A 
ATOM     95  C   UNL A   1      47.392  34.687  27.857  1.00  0.00     0.091 A 
ATOM     96  F   UNL A   1      46.155  33.179  26.482  1.00  0.00    -0.205 F 
ATOM     97  C   UNL A   1      47.978  34.974  29.100  1.00  0.00     0.022 A 
BRANCH  95  98
ATOM     98  S   UNL A   1      47.577  35.912  26.556  1.00  0.00     0.127 S 
ATOM     99  O   UNL A   1      48.317  35.160  25.543  1.00  0.00    -0.237 OA
ATOM    100  O   UNL A   1      46.189  36.208  26.202  1.00  0.00    -0.237 OA
ATOM    101  O   UNL A   1      48.295  37.029  27.156  1.00  0.00    -0.744 OA
ENDBRANCH  95  98
ENDBRANCH  68  91
ENDBRANCH  42  43
ENDBRANCH  34  37
ENDBRANCH  32  33
ENDBRANCH  31  32
ENDBRANCH   1  31
TORSDOF 19
ENDMDL
