MODEL 1
REMARK VINA RESULT:     -11.2      0.000      0.000
REMARK SMILES CCC(C)(C)NC(=O)[C@@H](C)Oc1ccc(C)nc1C(=O)NCCCNC(=O)c1ccc(-c2c3nc(c(-c4cccc(S(=O)(=O)[O-])c4F)c4ccc([nH]4)c(-c4cccc(S(=O)(=O)[O-])c4F)c4nc(c(-c5cccc(S(=O)(=O)[O-])c5F)c5ccc2[nH]5)C=C4)C=C3)cc1
REMARK SMILES IDX 22 1 21 2 19 3 20 4 18 6 12 7 13 8 14 9 17 10 15 11 16 12
REMARK SMILES IDX 11 13 9 14 10 15 7 16 6 17 8 19 3 20 4 21 5 22 2 23 1 24
REMARK SMILES IDX 23 25 24 26 25 27 26 28 27 30 28 31 29 32 90 33 30 34 89 35
REMARK SMILES IDX 31 36 32 37 33 38 83 39 34 40 88 41 82 42 84 43 35 44 87 45
REMARK SMILES IDX 81 46 80 47 36 49 68 50 48 51 67 52 49 53 52 54 66 55 85 56
REMARK SMILES IDX 50 57 51 58 65 60 86 61 53 62 37 63 38 64 46 65 39 66 41 67
REMARK SMILES IDX 47 68 40 69 42 70 43 71 44 72 45 73 69 74 70 75 78 76 71 77
REMARK SMILES IDX 73 78 79 79 72 80 74 81 75 82 76 83 77 84 54 85 55 86 63 87
REMARK SMILES IDX 56 88 58 89 64 90 57 91 59 92 60 93 61 94 62 95
REMARK H PARENT 21 5 6 18 25 29 84 48 52 59
REMARK Flexibility Score: inf
ROOT
ATOM      1  C   UNL A   1      37.139  20.965  24.400  1.00  0.00     0.118 C 
ENDROOT
BRANCH   1   2
ATOM      2  N   UNL A   1      36.370  21.419  25.537  1.00  0.00    -0.351 N 
ATOM      3  C   UNL A   1      35.022  21.533  25.783  1.00  0.00     0.273 C 
ATOM      4  O   UNL A   1      34.743  22.056  26.870  1.00  0.00    -0.267 OA
ATOM      5  H   UNL A   1      36.929  21.707  26.295  1.00  0.00     0.163 HD
BRANCH   3   6
ATOM      6  C   UNL A   1      33.905  20.994  24.916  1.00  0.00     0.170 A 
ATOM      7  C   UNL A   1      32.994  21.712  24.133  1.00  0.00     0.151 A 
ATOM      8  C   UNL A   1      32.282  20.984  23.180  1.00  0.00     0.051 A 
ATOM      9  C   UNL A   1      32.218  19.593  23.270  1.00  0.00     0.027 A 
ATOM     10  N   UNL A   1      33.813  19.632  25.027  1.00  0.00    -0.244 NA
ATOM     11  C   UNL A   1      32.890  18.975  24.305  1.00  0.00     0.038 A 
ATOM     12  C   UNL A   1      32.536  17.596  24.768  1.00  0.00     0.067 C 
BRANCH   7  13
ATOM     13  O   UNL A   1      32.729  23.010  24.448  1.00  0.00    -0.478 OA
BRANCH  13  14
ATOM     14  C   UNL A   1      31.467  23.447  24.926  1.00  0.00     0.259 C 
ATOM     15  C   UNL A   1      30.727  24.240  23.824  1.00  0.00     0.064 C 
BRANCH  14  16
ATOM     16  C   UNL A   1      31.198  24.245  26.220  1.00  0.00     0.261 C 
ATOM     17  N   UNL A   1      31.004  25.590  26.216  1.00  0.00    -0.348 N 
ATOM     18  H   UNL A   1      30.075  25.845  26.419  1.00  0.00     0.164 HD
ATOM     19  O   UNL A   1      30.956  23.643  27.273  1.00  0.00    -0.271 OA
BRANCH  17  20
ATOM     20  C   UNL A   1      31.884  26.757  25.972  1.00  0.00     0.034 C 
ATOM     21  C   UNL A   1      33.345  26.236  26.014  1.00  0.00     0.034 C 
ATOM     22  C   UNL A   1      31.708  27.666  27.212  1.00  0.00     0.034 C 
BRANCH  20  23
ATOM     23  C   UNL A   1      31.733  27.656  24.706  1.00  0.00     0.024 C 
ATOM     24  C   UNL A   1      32.604  27.481  23.475  1.00  0.00     0.006 C 
ENDBRANCH  20  23
ENDBRANCH  17  20
ENDBRANCH  14  16
ENDBRANCH  13  14
ENDBRANCH   7  13
ENDBRANCH   3   6
ENDBRANCH   1   2
BRANCH   1  25
ATOM     25  C   UNL A   1      38.084  19.845  24.825  1.00  0.00     0.042 C 
BRANCH  25  26
ATOM     26  C   UNL A   1      38.833  20.106  26.124  1.00  0.00     0.118 C 
BRANCH  26  27
ATOM     27  N   UNL A   1      39.999  19.242  26.226  1.00  0.00    -0.352 N 
ATOM     28  C   UNL A   1      41.335  19.544  26.166  1.00  0.00     0.251 C 
ATOM     29  H   UNL A   1      39.796  18.288  26.360  1.00  0.00     0.163 HD
ATOM     30  O   UNL A   1      42.129  18.634  25.926  1.00  0.00    -0.269 OA
BRANCH  28  31
ATOM     31  C   UNL A   1      41.838  20.920  26.397  1.00  0.00     0.039 A 
ATOM     32  C   UNL A   1      42.174  21.297  27.703  1.00  0.00     0.014 A 
ATOM     33  C   UNL A   1      41.887  21.872  25.375  1.00  0.00     0.014 A 
ATOM     34  C   UNL A   1      42.564  22.610  27.976  1.00  0.00     0.010 A 
ATOM     35  C   UNL A   1      42.365  23.156  25.631  1.00  0.00     0.010 A 
ATOM     36  C   UNL A   1      42.676  23.550  26.939  1.00  0.00    -0.014 A 
BRANCH  36  37
ATOM     37  C   UNL A   1      43.088  24.952  27.217  1.00  0.00     0.031 A 
ATOM     38  C   UNL A   1      42.123  25.918  27.856  1.00  0.00     0.074 A 
ATOM     39  C   UNL A   1      44.314  25.370  26.844  1.00  0.00     0.049 A 
ATOM     40  N   UNL A   1      42.295  27.181  28.153  1.00  0.00    -0.248 NA
ATOM     41  C   UNL A   1      40.778  25.410  28.180  1.00  0.00     0.031 C 
ATOM     42  C   UNL A   1      45.308  24.553  26.144  1.00  0.00     0.029 A 
ATOM     43  N   UNL A   1      44.926  26.591  26.980  1.00  0.00    -0.354 N 
ATOM     44  C   UNL A   1      41.077  27.626  28.656  1.00  0.00     0.074 A 
ATOM     45  C   UNL A   1      40.161  26.508  28.593  1.00  0.00     0.031 C 
ATOM     46  C   UNL A   1      46.407  25.290  25.922  1.00  0.00     0.029 A 
ATOM     47  C   UNL A   1      46.187  26.639  26.433  1.00  0.00     0.049 A 
ATOM     48  H   UNL A   1      44.502  27.359  27.426  1.00  0.00     0.167 HD
ATOM     49  C   UNL A   1      40.755  28.845  29.152  1.00  0.00     0.034 A 
ATOM     50  C   UNL A   1      47.066  27.657  26.348  1.00  0.00     0.034 A 
ATOM     51  C   UNL A   1      41.686  29.936  29.259  1.00  0.00     0.049 A 
ATOM     52  C   UNL A   1      46.704  28.982  26.961  1.00  0.00     0.074 A 
ATOM     53  C   UNL A   1      41.489  31.180  29.832  1.00  0.00     0.029 A 
ATOM     54  N   UNL A   1      42.985  29.918  28.778  1.00  0.00    -0.354 N 
ATOM     55  N   UNL A   1      45.600  29.332  27.576  1.00  0.00    -0.248 NA
ATOM     56  C   UNL A   1      47.723  30.040  26.907  1.00  0.00     0.031 C 
ATOM     57  C   UNL A   1      42.662  31.924  29.671  1.00  0.00     0.029 A 
ATOM     58  C   UNL A   1      43.601  31.130  29.032  1.00  0.00     0.049 A 
ATOM     59  H   UNL A   1      43.408  29.154  28.322  1.00  0.00     0.167 HD
ATOM     60  C   UNL A   1      45.806  30.636  28.013  1.00  0.00     0.074 A 
ATOM     61  C   UNL A   1      47.150  31.003  27.614  1.00  0.00     0.031 C 
ATOM     62  C   UNL A   1      44.956  31.460  28.674  1.00  0.00     0.034 A 
BRANCH  49  63
ATOM     63  C   UNL A   1      39.354  29.053  29.668  1.00  0.00     0.023 A 
ATOM     64  C   UNL A   1      39.024  28.652  30.979  1.00  0.00     0.012 A 
ATOM     65  C   UNL A   1      38.386  29.713  28.885  1.00  0.00     0.148 A 
ATOM     66  C   UNL A   1      37.746  28.872  31.491  1.00  0.00     0.002 A 
ATOM     67  C   UNL A   1      37.128  29.973  29.420  1.00  0.00     0.091 A 
ATOM     68  F   UNL A   1      38.710  30.072  27.636  1.00  0.00    -0.205 F 
ATOM     69  C   UNL A   1      36.803  29.543  30.717  1.00  0.00     0.022 A 
BRANCH  67  70
ATOM     70  S   UNL A   1      35.871  30.903  28.536  1.00  0.00     0.127 S 
ATOM     71  O   UNL A   1      36.655  32.013  27.991  1.00  0.00    -0.237 OA
ATOM     72  O   UNL A   1      35.418  29.932  27.537  1.00  0.00    -0.237 OA
ATOM     73  O   UNL A   1      34.871  31.273  29.522  1.00  0.00    -0.744 OA
ENDBRANCH  67  70
ENDBRANCH  49  63
BRANCH  50  74
ATOM     74  C   UNL A   1      48.397  27.444  25.710  1.00  0.00     0.023 A 
ATOM     75  C   UNL A   1      49.492  27.044  26.501  1.00  0.00     0.012 A 
ATOM     76  C   UNL A   1      48.580  27.618  24.324  1.00  0.00     0.148 A 
ATOM     77  C   UNL A   1      50.753  26.861  25.931  1.00  0.00     0.002 A 
ATOM     78  C   UNL A   1      49.824  27.376  23.754  1.00  0.00     0.091 A 
ATOM     79  F   UNL A   1      47.530  28.009  23.590  1.00  0.00    -0.205 F 
ATOM     80  C   UNL A   1      50.916  27.017  24.557  1.00  0.00     0.022 A 
BRANCH  78  81
ATOM     81  S   UNL A   1      50.084  27.421  21.977  1.00  0.00     0.127 S 
ATOM     82  O   UNL A   1      51.480  26.987  21.870  1.00  0.00    -0.237 OA
ATOM     83  O   UNL A   1      49.102  26.440  21.504  1.00  0.00    -0.237 OA
ATOM     84  O   UNL A   1      49.810  28.784  21.571  1.00  0.00    -0.744 OA
ENDBRANCH  78  81
ENDBRANCH  50  74
BRANCH  62  85
ATOM     85  C   UNL A   1      45.463  32.829  29.049  1.00  0.00     0.023 A 
ATOM     86  C   UNL A   1      46.136  33.020  30.272  1.00  0.00     0.012 A 
ATOM     87  C   UNL A   1      45.328  33.910  28.157  1.00  0.00     0.148 A 
ATOM     88  C   UNL A   1      46.631  34.276  30.619  1.00  0.00     0.002 A 
ATOM     89  C   UNL A   1      45.872  35.145  28.485  1.00  0.00     0.091 A 
ATOM     90  F   UNL A   1      44.669  33.711  27.006  1.00  0.00    -0.205 F 
ATOM     91  C   UNL A   1      46.510  35.334  29.722  1.00  0.00     0.022 A 
BRANCH  89  92
ATOM     92  S   UNL A   1      45.853  36.536  27.348  1.00  0.00     0.127 S 
ATOM     93  O   UNL A   1      46.605  36.003  26.213  1.00  0.00    -0.237 OA
ATOM     94  O   UNL A   1      44.422  36.714  27.101  1.00  0.00    -0.237 OA
ATOM     95  O   UNL A   1      46.487  37.641  28.055  1.00  0.00    -0.744 OA
ENDBRANCH  89  92
ENDBRANCH  62  85
ENDBRANCH  36  37
ENDBRANCH  28  31
ENDBRANCH  26  27
ENDBRANCH  25  26
ENDBRANCH   1  25
TORSDOF 18
ENDMDL
MODEL 2
REMARK VINA RESULT:     -10.6      1.283      7.529
REMARK SMILES CCC(C)(C)NC(=O)[C@@H](C)Oc1ccc(C)nc1C(=O)NCCCNC(=O)c1ccc(-c2c3nc(c(-c4cccc(S(=O)(=O)[O-])c4F)c4ccc([nH]4)c(-c4cccc(S(=O)(=O)[O-])c4F)c4nc(c(-c5cccc(S(=O)(=O)[O-])c5F)c5ccc2[nH]5)C=C4)C=C3)cc1
REMARK SMILES IDX 22 1 21 2 19 3 20 4 18 6 12 7 13 8 14 9 17 10 15 11 16 12
REMARK SMILES IDX 11 13 9 14 10 15 7 16 6 17 8 19 3 20 4 21 5 22 2 23 1 24
REMARK SMILES IDX 23 25 24 26 25 27 26 28 27 30 28 31 29 32 90 33 30 34 89 35
REMARK SMILES IDX 31 36 32 37 33 38 83 39 34 40 88 41 82 42 84 43 35 44 87 45
REMARK SMILES IDX 81 46 80 47 36 49 68 50 48 51 67 52 49 53 52 54 66 55 85 56
REMARK SMILES IDX 50 57 51 58 65 60 86 61 53 62 37 63 38 64 46 65 39 66 41 67
REMARK SMILES IDX 47 68 40 69 42 70 43 71 44 72 45 73 69 74 70 75 78 76 71 77
REMARK SMILES IDX 73 78 79 79 72 80 74 81 75 82 76 83 77 84 54 85 55 86 63 87
REMARK SMILES IDX 56 88 58 89 64 90 57 91 59 92 60 93 61 94 62 95
REMARK H PARENT 21 5 6 18 25 29 84 48 52 59
REMARK Flexibility Score: inf
ROOT
ATOM      1  C   UNL A   1      37.048  20.887  24.655  1.00  0.00     0.118 C 
ENDROOT
BRANCH   1   2
ATOM      2  N   UNL A   1      36.277  21.124  25.855  1.00  0.00    -0.351 N 
ATOM      3  C   UNL A   1      34.950  21.400  26.088  1.00  0.00     0.273 C 
ATOM      4  O   UNL A   1      34.677  21.629  27.274  1.00  0.00    -0.267 OA
ATOM      5  H   UNL A   1      36.815  21.079  26.679  1.00  0.00     0.163 HD
BRANCH   3   6
ATOM      6  C   UNL A   1      33.832  21.339  25.072  1.00  0.00     0.170 A 
ATOM      7  C   UNL A   1      32.933  22.349  24.714  1.00  0.00     0.151 A 
ATOM      8  C   UNL A   1      32.215  22.157  23.533  1.00  0.00     0.051 A 
ATOM      9  C   UNL A   1      32.135  20.884  22.966  1.00  0.00     0.027 A 
ATOM     10  N   UNL A   1      33.723  20.083  24.538  1.00  0.00    -0.244 NA
ATOM     11  C   UNL A   1      32.795  19.847  23.595  1.00  0.00     0.038 A 
ATOM     12  C   UNL A   1      32.423  18.415  23.365  1.00  0.00     0.067 C 
BRANCH   7  13
ATOM     13  O   UNL A   1      32.681  23.356  25.596  1.00  0.00    -0.478 OA
BRANCH  13  14
ATOM     14  C   UNL A   1      32.568  24.715  25.204  1.00  0.00     0.259 C 
ATOM     15  C   UNL A   1      33.925  25.435  25.386  1.00  0.00     0.064 C 
BRANCH  14  16
ATOM     16  C   UNL A   1      31.523  25.734  25.705  1.00  0.00     0.261 C 
ATOM     17  N   UNL A   1      30.596  26.289  24.880  1.00  0.00    -0.348 N 
ATOM     18  H   UNL A   1      29.683  25.969  25.057  1.00  0.00     0.164 HD
ATOM     19  O   UNL A   1      31.380  25.921  26.920  1.00  0.00    -0.271 OA
BRANCH  17  20
ATOM     20  C   UNL A   1      30.661  27.271  23.771  1.00  0.00     0.034 C 
ATOM     21  C   UNL A   1      31.321  26.549  22.568  1.00  0.00     0.034 C 
ATOM     22  C   UNL A   1      31.666  28.350  24.241  1.00  0.00     0.034 C 
BRANCH  20  23
ATOM     23  C   UNL A   1      29.390  28.010  23.248  1.00  0.00     0.024 C 
ATOM     24  C   UNL A   1      29.437  29.432  22.718  1.00  0.00     0.006 C 
ENDBRANCH  20  23
ENDBRANCH  17  20
ENDBRANCH  14  16
ENDBRANCH  13  14
ENDBRANCH   7  13
ENDBRANCH   3   6
ENDBRANCH   1   2
BRANCH   1  25
ATOM     25  C   UNL A   1      38.142  19.861  24.934  1.00  0.00     0.042 C 
BRANCH  25  26
ATOM     26  C   UNL A   1      39.043  20.199  26.114  1.00  0.00     0.118 C 
BRANCH  26  27
ATOM     27  N   UNL A   1      40.258  19.401  26.076  1.00  0.00    -0.352 N 
ATOM     28  C   UNL A   1      41.572  19.788  26.028  1.00  0.00     0.251 C 
ATOM     29  H   UNL A   1      40.114  18.427  26.088  1.00  0.00     0.163 HD
ATOM     30  O   UNL A   1      42.409  18.966  25.654  1.00  0.00    -0.269 OA
BRANCH  28  31
ATOM     31  C   UNL A   1      42.004  21.150  26.427  1.00  0.00     0.039 A 
ATOM     32  C   UNL A   1      42.123  21.438  27.792  1.00  0.00     0.014 A 
ATOM     33  C   UNL A   1      42.192  22.171  25.492  1.00  0.00     0.014 A 
ATOM     34  C   UNL A   1      42.436  22.734  28.211  1.00  0.00     0.010 A 
ATOM     35  C   UNL A   1      42.597  23.438  25.906  1.00  0.00     0.010 A 
ATOM     36  C   UNL A   1      42.690  23.744  27.270  1.00  0.00    -0.014 A 
BRANCH  36  37
ATOM     37  C   UNL A   1      43.023  25.128  27.702  1.00  0.00     0.031 A 
ATOM     38  C   UNL A   1      44.454  25.602  27.704  1.00  0.00     0.074 A 
ATOM     39  C   UNL A   1      42.042  25.939  28.145  1.00  0.00     0.049 A 
ATOM     40  N   UNL A   1      44.937  26.763  28.067  1.00  0.00    -0.248 NA
ATOM     41  C   UNL A   1      45.482  24.642  27.267  1.00  0.00     0.031 C 
ATOM     42  C   UNL A   1      40.631  25.568  28.268  1.00  0.00     0.029 A 
ATOM     43  N   UNL A   1      42.083  27.235  28.595  1.00  0.00    -0.354 N 
ATOM     44  C   UNL A   1      46.319  26.658  27.944  1.00  0.00     0.074 A 
ATOM     45  C   UNL A   1      46.602  25.310  27.504  1.00  0.00     0.031 C 
ATOM     46  C   UNL A   1      39.940  26.612  28.750  1.00  0.00     0.029 A 
ATOM     47  C   UNL A   1      40.860  27.717  29.000  1.00  0.00     0.049 A 
ATOM     48  H   UNL A   1      42.911  27.769  28.625  1.00  0.00     0.167 HD
ATOM     49  C   UNL A   1      47.266  27.606  28.149  1.00  0.00     0.034 A 
ATOM     50  C   UNL A   1      40.520  28.913  29.520  1.00  0.00     0.034 A 
ATOM     51  C   UNL A   1      46.973  28.959  28.535  1.00  0.00     0.049 A 
ATOM     52  C   UNL A   1      41.583  29.964  29.680  1.00  0.00     0.074 A 
ATOM     53  C   UNL A   1      47.848  30.021  28.678  1.00  0.00     0.029 A 
ATOM     54  N   UNL A   1      45.711  29.437  28.848  1.00  0.00    -0.354 N 
ATOM     55  N   UNL A   1      42.863  29.893  29.404  1.00  0.00    -0.248 NA
ATOM     56  C   UNL A   1      41.150  31.276  30.183  1.00  0.00     0.031 C 
ATOM     57  C   UNL A   1      47.118  31.135  29.105  1.00  0.00     0.029 A 
ATOM     58  C   UNL A   1      45.782  30.775  29.192  1.00  0.00     0.049 A 
ATOM     59  H   UNL A   1      44.884  28.903  28.829  1.00  0.00     0.167 HD
ATOM     60  C   UNL A   1      43.380  31.157  29.664  1.00  0.00     0.074 A 
ATOM     61  C   UNL A   1      42.268  31.981  30.096  1.00  0.00     0.031 C 
ATOM     62  C   UNL A   1      44.659  31.594  29.568  1.00  0.00     0.034 A 
BRANCH  49  63
ATOM     63  C   UNL A   1      48.707  27.231  27.909  1.00  0.00     0.023 A 
ATOM     64  C   UNL A   1      49.477  26.703  28.965  1.00  0.00     0.012 A 
ATOM     65  C   UNL A   1      49.276  27.331  26.624  1.00  0.00     0.148 A 
ATOM     66  C   UNL A   1      50.798  26.311  28.756  1.00  0.00     0.002 A 
ATOM     67  C   UNL A   1      50.579  26.893  26.412  1.00  0.00     0.091 A 
ATOM     68  F   UNL A   1      48.536  27.852  25.635  1.00  0.00    -0.205 F 
ATOM     69  C   UNL A   1      51.345  26.394  27.478  1.00  0.00     0.022 A 
BRANCH  67  70
ATOM     70  S   UNL A   1      51.346  26.880  24.788  1.00  0.00     0.127 S 
ATOM     71  O   UNL A   1      51.887  28.239  24.707  1.00  0.00    -0.237 OA
ATOM     72  O   UNL A   1      52.359  25.832  24.937  1.00  0.00    -0.237 OA
ATOM     73  O   UNL A   1      50.288  26.576  23.841  1.00  0.00    -0.744 OA
ENDBRANCH  67  70
ENDBRANCH  49  63
BRANCH  50  74
ATOM     74  C   UNL A   1      39.098  29.199  29.868  1.00  0.00     0.023 A 
ATOM     75  C   UNL A   1      38.635  28.937  31.172  1.00  0.00     0.012 A 
ATOM     76  C   UNL A   1      38.210  29.745  28.920  1.00  0.00     0.148 A 
ATOM     77  C   UNL A   1      37.302  29.176  31.515  1.00  0.00     0.002 A 
ATOM     78  C   UNL A   1      36.900  30.035  29.286  1.00  0.00     0.091 A 
ATOM     79  F   UNL A   1      38.666  29.977  27.682  1.00  0.00    -0.205 F 
ATOM     80  C   UNL A   1      36.439  29.733  30.576  1.00  0.00     0.022 A 
BRANCH  78  81
ATOM     81  S   UNL A   1      35.766  30.880  28.179  1.00  0.00     0.127 S 
ATOM     82  O   UNL A   1      36.535  32.076  27.822  1.00  0.00    -0.237 OA
ATOM     83  O   UNL A   1      35.617  29.904  27.095  1.00  0.00    -0.237 OA
ATOM     84  O   UNL A   1      34.559  31.108  28.948  1.00  0.00    -0.744 OA
ENDBRANCH  78  81
ENDBRANCH  50  74
BRANCH  62  85
ATOM     85  C   UNL A   1      44.928  33.041  29.892  1.00  0.00     0.023 A 
ATOM     86  C   UNL A   1      45.310  33.411  31.197  1.00  0.00     0.012 A 
ATOM     87  C   UNL A   1      44.865  34.022  28.885  1.00  0.00     0.148 A 
ATOM     88  C   UNL A   1      45.584  34.743  31.503  1.00  0.00     0.002 A 
ATOM     89  C   UNL A   1      45.193  35.338  29.184  1.00  0.00     0.091 A 
ATOM     90  F   UNL A   1      44.482  33.651  27.654  1.00  0.00    -0.205 F 
ATOM     91  C   UNL A   1      45.538  35.703  30.495  1.00  0.00     0.022 A 
BRANCH  89  92
ATOM     92  S   UNL A   1      45.259  36.621  27.928  1.00  0.00     0.127 S 
ATOM     93  O   UNL A   1      46.249  36.077  26.999  1.00  0.00    -0.237 OA
ATOM     94  O   UNL A   1      43.887  36.629  27.420  1.00  0.00    -0.237 OA
ATOM     95  O   UNL A   1      45.655  37.841  28.620  1.00  0.00    -0.744 OA
ENDBRANCH  89  92
ENDBRANCH  62  85
ENDBRANCH  36  37
ENDBRANCH  28  31
ENDBRANCH  26  27
ENDBRANCH  25  26
ENDBRANCH   1  25
TORSDOF 18
ENDMDL
MODEL 3
REMARK VINA RESULT:     -10.2      2.363      7.850
REMARK SMILES CCC(C)(C)NC(=O)[C@@H](C)Oc1ccc(C)nc1C(=O)NCCCNC(=O)c1ccc(-c2c3nc(c(-c4cccc(S(=O)(=O)[O-])c4F)c4ccc([nH]4)c(-c4cccc(S(=O)(=O)[O-])c4F)c4nc(c(-c5cccc(S(=O)(=O)[O-])c5F)c5ccc2[nH]5)C=C4)C=C3)cc1
REMARK SMILES IDX 22 1 21 2 19 3 20 4 18 6 12 7 13 8 14 9 17 10 15 11 16 12
REMARK SMILES IDX 11 13 9 14 10 15 7 16 6 17 8 19 3 20 4 21 5 22 2 23 1 24
REMARK SMILES IDX 23 25 24 26 25 27 26 28 27 30 28 31 29 32 90 33 30 34 89 35
REMARK SMILES IDX 31 36 32 37 33 38 83 39 34 40 88 41 82 42 84 43 35 44 87 45
REMARK SMILES IDX 81 46 80 47 36 49 68 50 48 51 67 52 49 53 52 54 66 55 85 56
REMARK SMILES IDX 50 57 51 58 65 60 86 61 53 62 37 63 38 64 46 65 39 66 41 67
REMARK SMILES IDX 47 68 40 69 42 70 43 71 44 72 45 73 69 74 70 75 78 76 71 77
REMARK SMILES IDX 73 78 79 79 72 80 74 81 75 82 76 83 77 84 54 85 55 86 63 87
REMARK SMILES IDX 56 88 58 89 64 90 57 91 59 92 60 93 61 94 62 95
REMARK H PARENT 21 5 6 18 25 29 84 48 52 59
REMARK Flexibility Score: inf
ROOT
ATOM      1  C   UNL A   1      37.056  20.984  24.732  1.00  0.00     0.118 C 
ENDROOT
BRANCH   1   2
ATOM      2  N   UNL A   1      36.294  21.180  25.946  1.00  0.00    -0.351 N 
ATOM      3  C   UNL A   1      34.964  21.414  26.201  1.00  0.00     0.273 C 
ATOM      4  O   UNL A   1      34.699  21.616  27.393  1.00  0.00    -0.267 OA
ATOM      5  H   UNL A   1      36.844  21.137  26.762  1.00  0.00     0.163 HD
BRANCH   3   6
ATOM      6  C   UNL A   1      33.834  21.337  25.197  1.00  0.00     0.170 A 
ATOM      7  C   UNL A   1      32.929  22.341  24.835  1.00  0.00     0.151 A 
ATOM      8  C   UNL A   1      32.199  22.131  23.665  1.00  0.00     0.051 A 
ATOM      9  C   UNL A   1      32.114  20.850  23.118  1.00  0.00     0.027 A 
ATOM     10  N   UNL A   1      33.720  20.073  24.683  1.00  0.00    -0.244 NA
ATOM     11  C   UNL A   1      32.783  19.823  23.754  1.00  0.00     0.038 A 
ATOM     12  C   UNL A   1      32.410  18.388  23.549  1.00  0.00     0.067 C 
BRANCH   7  13
ATOM     13  O   UNL A   1      32.687  23.361  25.705  1.00  0.00    -0.478 OA
BRANCH  13  14
ATOM     14  C   UNL A   1      32.444  24.693  25.285  1.00  0.00     0.259 C 
ATOM     15  C   UNL A   1      33.721  25.548  25.466  1.00  0.00     0.064 C 
BRANCH  14  16
ATOM     16  C   UNL A   1      31.297  25.614  25.754  1.00  0.00     0.261 C 
ATOM     17  N   UNL A   1      30.373  26.117  24.894  1.00  0.00    -0.348 N 
ATOM     18  H   UNL A   1      29.479  25.721  25.015  1.00  0.00     0.164 HD
ATOM     19  O   UNL A   1      31.079  25.755  26.963  1.00  0.00    -0.271 OA
BRANCH  17  20
ATOM     20  C   UNL A   1      30.415  27.131  23.814  1.00  0.00     0.034 C 
ATOM     21  C   UNL A   1      31.177  26.491  22.624  1.00  0.00     0.034 C 
ATOM     22  C   UNL A   1      31.319  28.265  24.355  1.00  0.00     0.034 C 
BRANCH  20  23
ATOM     23  C   UNL A   1      29.119  27.793  23.252  1.00  0.00     0.024 C 
ATOM     24  C   UNL A   1      29.131  29.141  22.553  1.00  0.00     0.006 C 
ENDBRANCH  20  23
ENDBRANCH  17  20
ENDBRANCH  14  16
ENDBRANCH  13  14
ENDBRANCH   7  13
ENDBRANCH   3   6
ENDBRANCH   1   2
BRANCH   1  25
ATOM     25  C   UNL A   1      38.203  20.012  24.990  1.00  0.00     0.042 C 
BRANCH  25  26
ATOM     26  C   UNL A   1      39.220  20.488  26.018  1.00  0.00     0.118 C 
BRANCH  26  27
ATOM     27  N   UNL A   1      40.357  19.583  26.072  1.00  0.00    -0.352 N 
ATOM     28  C   UNL A   1      41.702  19.845  26.026  1.00  0.00     0.251 C 
ATOM     29  H   UNL A   1      40.123  18.631  26.156  1.00  0.00     0.163 HD
ATOM     30  O   UNL A   1      42.466  18.923  25.738  1.00  0.00    -0.269 OA
BRANCH  28  31
ATOM     31  C   UNL A   1      42.249  21.190  26.329  1.00  0.00     0.039 A 
ATOM     32  C   UNL A   1      42.485  21.528  27.667  1.00  0.00     0.014 A 
ATOM     33  C   UNL A   1      42.436  22.154  25.335  1.00  0.00     0.014 A 
ATOM     34  C   UNL A   1      42.913  22.816  28.000  1.00  0.00     0.010 A 
ATOM     35  C   UNL A   1      42.953  23.407  25.658  1.00  0.00     0.010 A 
ATOM     36  C   UNL A   1      43.164  23.765  26.996  1.00  0.00    -0.014 A 
BRANCH  36  37
ATOM     37  C   UNL A   1      43.617  25.139  27.338  1.00  0.00     0.031 A 
ATOM     38  C   UNL A   1      45.071  25.518  27.204  1.00  0.00     0.074 A 
ATOM     39  C   UNL A   1      42.729  26.031  27.820  1.00  0.00     0.049 A 
ATOM     40  N   UNL A   1      45.654  26.657  27.475  1.00  0.00    -0.248 NA
ATOM     41  C   UNL A   1      45.997  24.474  26.731  1.00  0.00     0.031 C 
ATOM     42  C   UNL A   1      41.312  25.759  28.072  1.00  0.00     0.029 A 
ATOM     43  N   UNL A   1      42.889  27.338  28.206  1.00  0.00    -0.354 N 
ATOM     44  C   UNL A   1      47.012  26.457  27.247  1.00  0.00     0.074 A 
ATOM     45  C   UNL A   1      47.173  25.076  26.848  1.00  0.00     0.031 C 
ATOM     46  C   UNL A   1      40.730  26.866  28.559  1.00  0.00     0.029 A 
ATOM     47  C   UNL A   1      41.736  27.916  28.684  1.00  0.00     0.049 A 
ATOM     48  H   UNL A   1      43.747  27.817  28.146  1.00  0.00     0.167 HD
ATOM     49  C   UNL A   1      48.030  27.347  27.332  1.00  0.00     0.034 A 
ATOM     50  C   UNL A   1      41.515  29.151  29.175  1.00  0.00     0.034 A 
ATOM     51  C   UNL A   1      47.855  28.731  27.679  1.00  0.00     0.049 A 
ATOM     52  C   UNL A   1      42.651  30.136  29.202  1.00  0.00     0.074 A 
ATOM     53  C   UNL A   1      48.804  29.737  27.704  1.00  0.00     0.029 A 
ATOM     54  N   UNL A   1      46.656  29.303  28.070  1.00  0.00    -0.354 N 
ATOM     55  N   UNL A   1      43.897  29.969  28.829  1.00  0.00    -0.248 NA
ATOM     56  C   UNL A   1      42.344  31.493  29.678  1.00  0.00     0.031 C 
ATOM     57  C   UNL A   1      48.183  30.913  28.136  1.00  0.00     0.029 A 
ATOM     58  C   UNL A   1      46.839  30.647  28.345  1.00  0.00     0.049 A 
ATOM     59  H   UNL A   1      45.798  28.825  28.140  1.00  0.00     0.167 HD
ATOM     60  C   UNL A   1      44.512  31.206  28.990  1.00  0.00     0.074 A 
ATOM     61  C   UNL A   1      43.494  32.118  29.470  1.00  0.00     0.031 C 
ATOM     62  C   UNL A   1      45.804  31.552  28.772  1.00  0.00     0.034 A 
BRANCH  49  63
ATOM     63  C   UNL A   1      49.420  26.868  26.996  1.00  0.00     0.023 A 
ATOM     64  C   UNL A   1      49.734  26.509  25.669  1.00  0.00     0.012 A 
ATOM     65  C   UNL A   1      50.434  26.846  27.973  1.00  0.00     0.148 A 
ATOM     66  C   UNL A   1      51.023  26.104  25.326  1.00  0.00     0.002 A 
ATOM     67  C   UNL A   1      51.729  26.487  27.615  1.00  0.00     0.091 A 
ATOM     68  F   UNL A   1      50.114  27.173  29.233  1.00  0.00    -0.205 F 
ATOM     69  C   UNL A   1      52.022  26.105  26.296  1.00  0.00     0.022 A 
BRANCH  67  70
ATOM     70  S   UNL A   1      53.104  26.536  28.769  1.00  0.00     0.127 S 
ATOM     71  O   UNL A   1      52.500  25.958  29.971  1.00  0.00    -0.237 OA
ATOM     72  O   UNL A   1      54.088  25.673  28.109  1.00  0.00    -0.237 OA
ATOM     73  O   UNL A   1      53.494  27.931  28.878  1.00  0.00    -0.744 OA
ENDBRANCH  67  70
ENDBRANCH  49  63
BRANCH  50  74
ATOM     74  C   UNL A   1      40.148  29.545  29.622  1.00  0.00     0.023 A 
ATOM     75  C   UNL A   1      39.205  29.984  28.672  1.00  0.00     0.012 A 
ATOM     76  C   UNL A   1      39.772  29.469  30.977  1.00  0.00     0.148 A 
ATOM     77  C   UNL A   1      37.926  30.379  29.069  1.00  0.00     0.002 A 
ATOM     78  C   UNL A   1      38.478  29.808  31.357  1.00  0.00     0.091 A 
ATOM     79  F   UNL A   1      40.685  29.059  31.867  1.00  0.00    -0.205 F 
ATOM     80  C   UNL A   1      37.560  30.282  30.408  1.00  0.00     0.022 A 
BRANCH  78  81
ATOM     81  S   UNL A   1      37.886  29.578  33.037  1.00  0.00     0.127 S 
ATOM     82  O   UNL A   1      39.099  29.838  33.818  1.00  0.00    -0.237 OA
ATOM     83  O   UNL A   1      36.859  30.620  33.141  1.00  0.00    -0.237 OA
ATOM     84  O   UNL A   1      37.372  28.225  33.094  1.00  0.00    -0.744 OA
ENDBRANCH  78  81
ENDBRANCH  50  74
BRANCH  62  85
ATOM     85  C   UNL A   1      46.189  32.990  29.008  1.00  0.00     0.023 A 
ATOM     86  C   UNL A   1      46.515  33.428  30.308  1.00  0.00     0.012 A 
ATOM     87  C   UNL A   1      46.291  33.889  27.929  1.00  0.00     0.148 A 
ATOM     88  C   UNL A   1      46.896  34.750  30.534  1.00  0.00     0.002 A 
ATOM     89  C   UNL A   1      46.724  35.189  28.154  1.00  0.00     0.091 A 
ATOM     90  F   UNL A   1      45.959  33.456  26.704  1.00  0.00    -0.205 F 
ATOM     91  C   UNL A   1      47.012  35.625  29.457  1.00  0.00     0.022 A 
BRANCH  89  92
ATOM     92  S   UNL A   1      47.000  36.355  26.816  1.00  0.00     0.127 S 
ATOM     93  O   UNL A   1      47.282  37.588  27.549  1.00  0.00    -0.237 OA
ATOM     94  O   UNL A   1      48.155  35.774  26.132  1.00  0.00    -0.237 OA
ATOM     95  O   UNL A   1      45.773  36.362  26.030  1.00  0.00    -0.744 OA
ENDBRANCH  89  92
ENDBRANCH  62  85
ENDBRANCH  36  37
ENDBRANCH  28  31
ENDBRANCH  26  27
ENDBRANCH  25  26
ENDBRANCH   1  25
TORSDOF 18
ENDMDL
