MODEL 1
REMARK VINA RESULT:     -11.7      0.000      0.000
REMARK SMILES O=C(NCCCNC(=O)[C@H](CCO)NC(=O)c1cccc(C(F)(F)F)c1F)c1ccc(-c2c3nc(c(-c4cccc(S(=O)(=O)[O-])c4F)c4ccc([nH]4)c(-c4cccc(S(=O)(=O)[O-])c4F)c4nc(c(-c5cccc(S(=O)(=O)[O-])c5F)c5ccc2[nH]5)C=C4)C=C3)cc1
REMARK SMILES IDX 5 1 4 2 3 3 1 4 2 5 28 7 29 8 90 9 30 10 89 11 31 12 32 13
REMARK SMILES IDX 33 14 83 15 34 16 88 17 82 18 84 19 35 20 87 21 81 22 80 23
REMARK SMILES IDX 36 25 68 26 48 27 67 28 49 29 52 30 66 31 85 32 50 33 51 34
REMARK SMILES IDX 65 36 86 37 53 38 37 39 38 40 46 41 39 42 41 43 47 44 40 45
REMARK SMILES IDX 42 46 43 47 44 48 45 49 69 50 70 51 78 52 71 53 73 54 79 55
REMARK SMILES IDX 72 56 74 57 75 58 76 59 77 60 54 61 55 62 63 63 56 64 58 65
REMARK SMILES IDX 64 66 57 67 59 68 60 69 61 70 62 71 6 72 7 73 8 74 9 76
REMARK SMILES IDX 10 77 14 78 15 79 16 81 17 82 18 83 26 84 19 85 21 86 27 87
REMARK SMILES IDX 20 88 22 89 23 90 24 91 25 92 11 93 12 94 13 95
REMARK H PARENT 3 6 84 24 52 35 7 75 14 80 13 96
REMARK Flexibility Score: inf
ROOT
ATOM      1  C   UNL A   1      31.060  31.995  26.121  1.00  0.00     0.042 C 
ENDROOT
BRANCH   1   2
ATOM      2  C   UNL A   1      32.322  32.229  26.936  1.00  0.00     0.118 C 
BRANCH   2   3
ATOM      3  N   UNL A   1      32.489  33.639  27.251  1.00  0.00    -0.352 N 
ATOM      4  O   UNL A   1      33.119  35.399  28.493  1.00  0.00    -0.269 OA
ATOM      5  C   UNL A   1      33.333  34.237  28.159  1.00  0.00     0.251 C 
ATOM      6  H   UNL A   1      31.916  34.255  26.740  1.00  0.00     0.163 HD
BRANCH   5   7
ATOM      7  C   UNL A   1      34.476  33.488  28.733  1.00  0.00     0.039 A 
ATOM      8  C   UNL A   1      35.773  34.001  28.667  1.00  0.00     0.014 A 
ATOM      9  C   UNL A   1      34.243  32.280  29.401  1.00  0.00     0.014 A 
ATOM     10  C   UNL A   1      36.846  33.252  29.135  1.00  0.00     0.010 A 
ATOM     11  C   UNL A   1      35.312  31.582  29.972  1.00  0.00     0.010 A 
ATOM     12  C   UNL A   1      36.625  32.056  29.833  1.00  0.00    -0.014 A 
BRANCH  12  13
ATOM     13  C   UNL A   1      37.766  31.393  30.517  1.00  0.00     0.031 A 
ATOM     14  C   UNL A   1      38.129  31.723  31.936  1.00  0.00     0.074 A 
ATOM     15  C   UNL A   1      38.478  30.480  29.824  1.00  0.00     0.049 A 
ATOM     16  N   UNL A   1      39.115  31.257  32.657  1.00  0.00    -0.248 NA
ATOM     17  C   UNL A   1      37.284  32.702  32.641  1.00  0.00     0.031 C 
ATOM     18  C   UNL A   1      38.225  30.096  28.430  1.00  0.00     0.029 A 
ATOM     19  N   UNL A   1      39.552  29.708  30.184  1.00  0.00    -0.354 N 
ATOM     20  C   UNL A   1      39.033  31.901  33.885  1.00  0.00     0.074 A 
ATOM     21  C   UNL A   1      37.903  32.802  33.813  1.00  0.00     0.031 C 
ATOM     22  C   UNL A   1      39.088  29.138  28.069  1.00  0.00     0.029 A 
ATOM     23  C   UNL A   1      40.007  28.894  29.172  1.00  0.00     0.049 A 
ATOM     24  H   UNL A   1      39.958  29.733  31.081  1.00  0.00     0.167 HD
ATOM     25  C   UNL A   1      39.821  31.741  34.974  1.00  0.00     0.034 A 
ATOM     26  C   UNL A   1      41.065  28.062  29.122  1.00  0.00     0.034 A 
ATOM     27  C   UNL A   1      40.928  30.823  35.040  1.00  0.00     0.049 A 
ATOM     28  C   UNL A   1      41.930  27.927  30.341  1.00  0.00     0.074 A 
ATOM     29  C   UNL A   1      41.771  30.573  36.109  1.00  0.00     0.029 A 
ATOM     30  N   UNL A   1      41.348  30.005  34.002  1.00  0.00    -0.354 N 
ATOM     31  N   UNL A   1      41.788  28.490  31.516  1.00  0.00    -0.248 NA
ATOM     32  C   UNL A   1      43.089  27.031  30.237  1.00  0.00     0.031 C 
ATOM     33  C   UNL A   1      42.715  29.622  35.709  1.00  0.00     0.029 A 
ATOM     34  C   UNL A   1      42.438  29.253  34.403  1.00  0.00     0.049 A 
ATOM     35  H   UNL A   1      40.931  29.965  33.110  1.00  0.00     0.167 HD
ATOM     36  C   UNL A   1      42.819  27.993  32.302  1.00  0.00     0.074 A 
ATOM     37  C   UNL A   1      43.562  27.063  31.475  1.00  0.00     0.031 C 
ATOM     38  C   UNL A   1      43.132  28.292  33.585  1.00  0.00     0.034 A 
BRANCH  25  39
ATOM     39  C   UNL A   1      39.503  32.537  36.216  1.00  0.00     0.023 A 
ATOM     40  C   UNL A   1      40.063  33.819  36.377  1.00  0.00     0.012 A 
ATOM     41  C   UNL A   1      38.551  32.075  37.147  1.00  0.00     0.148 A 
ATOM     42  C   UNL A   1      39.688  34.627  37.451  1.00  0.00     0.002 A 
ATOM     43  C   UNL A   1      38.150  32.903  38.190  1.00  0.00     0.091 A 
ATOM     44  F   UNL A   1      38.040  30.847  36.982  1.00  0.00    -0.205 F 
ATOM     45  C   UNL A   1      38.724  34.176  38.347  1.00  0.00     0.022 A 
BRANCH  43  46
ATOM     46  S   UNL A   1      36.855  32.453  39.351  1.00  0.00     0.127 S 
ATOM     47  O   UNL A   1      37.197  31.062  39.650  1.00  0.00    -0.237 OA
ATOM     48  O   UNL A   1      37.093  33.389  40.450  1.00  0.00    -0.237 OA
ATOM     49  O   UNL A   1      35.596  32.640  38.646  1.00  0.00    -0.744 OA
ENDBRANCH  43  46
ENDBRANCH  25  39
BRANCH  26  50
ATOM     50  C   UNL A   1      41.334  27.269  27.889  1.00  0.00     0.023 A 
ATOM     51  C   UNL A   1      41.904  27.904  26.769  1.00  0.00     0.012 A 
ATOM     52  C   UNL A   1      41.068  25.886  27.830  1.00  0.00     0.148 A 
ATOM     53  C   UNL A   1      42.178  27.184  25.606  1.00  0.00     0.002 A 
ATOM     54  C   UNL A   1      41.403  25.163  26.692  1.00  0.00     0.091 A 
ATOM     55  F   UNL A   1      40.512  25.300  28.900  1.00  0.00    -0.205 F 
ATOM     56  C   UNL A   1      41.940  25.813  25.571  1.00  0.00     0.022 A 
BRANCH  54  57
ATOM     57  S   UNL A   1      41.269  23.373  26.615  1.00  0.00     0.127 S 
ATOM     58  O   UNL A   1      42.073  23.064  25.436  1.00  0.00    -0.237 OA
ATOM     59  O   UNL A   1      41.864  22.971  27.890  1.00  0.00    -0.237 OA
ATOM     60  O   UNL A   1      39.844  23.090  26.505  1.00  0.00    -0.744 OA
ENDBRANCH  54  57
ENDBRANCH  26  50
BRANCH  38  61
ATOM     61  C   UNL A   1      44.309  27.581  34.200  1.00  0.00     0.023 A 
ATOM     62  C   UNL A   1      45.588  28.168  34.147  1.00  0.00     0.012 A 
ATOM     63  C   UNL A   1      44.128  26.375  34.906  1.00  0.00     0.148 A 
ATOM     64  C   UNL A   1      46.676  27.551  34.764  1.00  0.00     0.002 A 
ATOM     65  C   UNL A   1      45.204  25.796  35.565  1.00  0.00     0.091 A 
ATOM     66  F   UNL A   1      42.905  25.825  34.927  1.00  0.00    -0.205 F 
ATOM     67  C   UNL A   1      46.481  26.374  35.484  1.00  0.00     0.022 A 
BRANCH  65  68
ATOM     68  S   UNL A   1      45.028  24.341  36.604  1.00  0.00     0.127 S 
ATOM     69  O   UNL A   1      44.216  24.860  37.705  1.00  0.00    -0.237 OA
ATOM     70  O   UNL A   1      44.331  23.410  35.717  1.00  0.00    -0.237 OA
ATOM     71  O   UNL A   1      46.380  23.939  36.965  1.00  0.00    -0.744 OA
ENDBRANCH  65  68
ENDBRANCH  38  61
ENDBRANCH  12  13
ENDBRANCH   5   7
ENDBRANCH   2   3
ENDBRANCH   1   2
BRANCH   1  72
ATOM     72  C   UNL A   1      31.021  30.615  25.466  1.00  0.00     0.117 C 
BRANCH  72  73
ATOM     73  N   UNL A   1      32.372  30.135  25.274  1.00  0.00    -0.354 N 
ATOM     74  C   UNL A   1      32.891  28.883  25.388  1.00  0.00     0.242 C 
ATOM     75  H   UNL A   1      33.022  30.827  25.016  1.00  0.00     0.163 HD
ATOM     76  O   UNL A   1      34.118  28.819  25.537  1.00  0.00    -0.273 OA
BRANCH  74  77
ATOM     77  C   UNL A   1      32.022  27.599  25.298  1.00  0.00     0.173 C 
BRANCH  77  78
ATOM     78  N   UNL A   1      32.172  27.215  23.871  1.00  0.00    -0.340 N 
ATOM     79  C   UNL A   1      31.294  27.190  22.831  1.00  0.00     0.254 C 
ATOM     80  H   UNL A   1      33.080  26.922  23.631  1.00  0.00     0.164 HD
ATOM     81  O   UNL A   1      31.593  26.647  21.767  1.00  0.00    -0.269 OA
BRANCH  79  82
ATOM     82  C   UNL A   1      29.967  27.794  22.964  1.00  0.00     0.076 A 
ATOM     83  C   UNL A   1      28.934  27.039  23.526  1.00  0.00     0.017 A 
ATOM     84  C   UNL A   1      29.713  29.069  22.459  1.00  0.00     0.148 A 
ATOM     85  C   UNL A   1      27.659  27.590  23.630  1.00  0.00     0.002 A 
ATOM     86  C   UNL A   1      28.452  29.644  22.582  1.00  0.00     0.092 A 
ATOM     87  F   UNL A   1      30.694  29.752  21.852  1.00  0.00    -0.205 F 
ATOM     88  C   UNL A   1      27.422  28.889  23.171  1.00  0.00     0.016 A 
BRANCH  86  89
ATOM     89  C   UNL A   1      28.196  31.042  22.106  1.00  0.00     0.419 C 
ATOM     90  F   UNL A   1      29.329  31.799  22.086  1.00  0.00    -0.166 F 
ATOM     91  F   UNL A   1      27.721  31.058  20.827  1.00  0.00    -0.166 F 
ATOM     92  F   UNL A   1      27.289  31.744  22.836  1.00  0.00    -0.166 F 
ENDBRANCH  86  89
ENDBRANCH  79  82
ENDBRANCH  77  78
BRANCH  77  93
ATOM     93  C   UNL A   1      32.493  26.394  26.124  1.00  0.00     0.063 C 
BRANCH  93  94
ATOM     94  C   UNL A   1      31.498  25.269  26.365  1.00  0.00     0.158 C 
BRANCH  94  95
ATOM     95  O   UNL A   1      31.173  24.604  25.155  1.00  0.00    -0.396 OA
ATOM     96  H   UNL A   1      30.396  24.040  25.294  1.00  0.00     0.210 HD
ENDBRANCH  94  95
ENDBRANCH  93  94
ENDBRANCH  77  93
ENDBRANCH  74  77
ENDBRANCH  72  73
ENDBRANCH   1  72
TORSDOF 19
ENDMDL
MODEL 2
REMARK VINA RESULT:     -11.6      6.562     11.883
REMARK SMILES O=C(NCCCNC(=O)[C@H](CCO)NC(=O)c1cccc(C(F)(F)F)c1F)c1ccc(-c2c3nc(c(-c4cccc(S(=O)(=O)[O-])c4F)c4ccc([nH]4)c(-c4cccc(S(=O)(=O)[O-])c4F)c4nc(c(-c5cccc(S(=O)(=O)[O-])c5F)c5ccc2[nH]5)C=C4)C=C3)cc1
REMARK SMILES IDX 5 1 4 2 3 3 1 4 2 5 28 7 29 8 90 9 30 10 89 11 31 12 32 13
REMARK SMILES IDX 33 14 83 15 34 16 88 17 82 18 84 19 35 20 87 21 81 22 80 23
REMARK SMILES IDX 36 25 68 26 48 27 67 28 49 29 52 30 66 31 85 32 50 33 51 34
REMARK SMILES IDX 65 36 86 37 53 38 37 39 38 40 46 41 39 42 41 43 47 44 40 45
REMARK SMILES IDX 42 46 43 47 44 48 45 49 69 50 70 51 78 52 71 53 73 54 79 55
REMARK SMILES IDX 72 56 74 57 75 58 76 59 77 60 54 61 55 62 63 63 56 64 58 65
REMARK SMILES IDX 64 66 57 67 59 68 60 69 61 70 62 71 6 72 7 73 8 74 9 76
REMARK SMILES IDX 10 77 14 78 15 79 16 81 17 82 18 83 26 84 19 85 21 86 27 87
REMARK SMILES IDX 20 88 22 89 23 90 24 91 25 92 11 93 12 94 13 95
REMARK H PARENT 3 6 84 24 52 35 7 75 14 80 13 96
REMARK Flexibility Score: inf
ROOT
ATOM      1  C   UNL A   1      37.953  19.145  25.130  1.00  0.00     0.042 C 
ENDROOT
BRANCH   1   2
ATOM      2  C   UNL A   1      39.047  20.036  25.699  1.00  0.00     0.118 C 
BRANCH   2   3
ATOM      3  N   UNL A   1      40.181  19.248  26.155  1.00  0.00    -0.352 N 
ATOM      4  O   UNL A   1      42.347  18.823  26.565  1.00  0.00    -0.269 OA
ATOM      5  C   UNL A   1      41.450  19.659  26.494  1.00  0.00     0.251 C 
ATOM      6  H   UNL A   1      40.018  18.280  26.232  1.00  0.00     0.163 HD
BRANCH   5   7
ATOM      7  C   UNL A   1      41.734  21.090  26.760  1.00  0.00     0.039 A 
ATOM      8  C   UNL A   1      42.201  21.506  28.008  1.00  0.00     0.014 A 
ATOM      9  C   UNL A   1      41.586  22.025  25.729  1.00  0.00     0.014 A 
ATOM     10  C   UNL A   1      42.383  22.859  28.270  1.00  0.00     0.010 A 
ATOM     11  C   UNL A   1      41.880  23.372  25.962  1.00  0.00     0.010 A 
ATOM     12  C   UNL A   1      42.270  23.803  27.239  1.00  0.00    -0.014 A 
BRANCH  12  13
ATOM     13  C   UNL A   1      42.689  25.206  27.491  1.00  0.00     0.031 A 
ATOM     14  C   UNL A   1      44.037  25.711  27.060  1.00  0.00     0.074 A 
ATOM     15  C   UNL A   1      41.823  26.024  28.125  1.00  0.00     0.049 A 
ATOM     16  N   UNL A   1      44.560  26.896  27.238  1.00  0.00    -0.248 NA
ATOM     17  C   UNL A   1      44.913  24.773  26.341  1.00  0.00     0.031 C 
ATOM     18  C   UNL A   1      40.493  25.632  28.606  1.00  0.00     0.029 A 
ATOM     19  N   UNL A   1      41.919  27.345  28.475  1.00  0.00    -0.354 N 
ATOM     20  C   UNL A   1      45.833  26.843  26.685  1.00  0.00     0.074 A 
ATOM     21  C   UNL A   1      46.011  25.502  26.170  1.00  0.00     0.031 C 
ATOM     22  C   UNL A   1      39.886  26.694  29.149  1.00  0.00     0.029 A 
ATOM     23  C   UNL A   1      40.806  27.822  29.131  1.00  0.00     0.049 A 
ATOM     24  H   UNL A   1      42.707  27.901  28.277  1.00  0.00     0.167 HD
ATOM     25  C   UNL A   1      46.758  27.828  26.603  1.00  0.00     0.034 A 
ATOM     26  C   UNL A   1      40.560  29.025  29.683  1.00  0.00     0.034 A 
ATOM     27  C   UNL A   1      46.557  29.164  27.099  1.00  0.00     0.049 A 
ATOM     28  C   UNL A   1      41.618  30.086  29.594  1.00  0.00     0.074 A 
ATOM     29  C   UNL A   1      47.427  30.239  27.041  1.00  0.00     0.029 A 
ATOM     30  N   UNL A   1      45.413  29.613  27.741  1.00  0.00    -0.354 N 
ATOM     31  N   UNL A   1      42.785  30.035  28.999  1.00  0.00    -0.248 NA
ATOM     32  C   UNL A   1      41.322  31.374  30.233  1.00  0.00     0.031 C 
ATOM     33  C   UNL A   1      46.819  31.330  27.670  1.00  0.00     0.029 A 
ATOM     34  C   UNL A   1      45.556  30.945  28.087  1.00  0.00     0.049 A 
ATOM     35  H   UNL A   1      44.616  29.064  27.924  1.00  0.00     0.167 HD
ATOM     36  C   UNL A   1      43.349  31.293  29.164  1.00  0.00     0.074 A 
ATOM     37  C   UNL A   1      42.384  32.091  29.892  1.00  0.00     0.031 C 
ATOM     38  C   UNL A   1      44.563  31.741  28.763  1.00  0.00     0.034 A 
BRANCH  25  39
ATOM     39  C   UNL A   1      48.066  27.531  25.914  1.00  0.00     0.023 A 
ATOM     40  C   UNL A   1      49.136  27.000  26.661  1.00  0.00     0.012 A 
ATOM     41  C   UNL A   1      48.190  27.648  24.515  1.00  0.00     0.148 A 
ATOM     42  C   UNL A   1      50.313  26.598  26.029  1.00  0.00     0.002 A 
ATOM     43  C   UNL A   1      49.349  27.206  23.887  1.00  0.00     0.091 A 
ATOM     44  F   UNL A   1      47.165  28.168  23.824  1.00  0.00    -0.205 F 
ATOM     45  C   UNL A   1      50.414  26.688  24.643  1.00  0.00     0.022 A 
BRANCH  43  46
ATOM     46  S   UNL A   1      49.550  27.198  22.101  1.00  0.00     0.127 S 
ATOM     47  O   UNL A   1      50.976  26.897  21.966  1.00  0.00    -0.237 OA
ATOM     48  O   UNL A   1      48.657  26.111  21.699  1.00  0.00    -0.237 OA
ATOM     49  O   UNL A   1      49.153  28.521  21.643  1.00  0.00    -0.744 OA
ENDBRANCH  43  46
ENDBRANCH  25  39
BRANCH  26  50
ATOM     50  C   UNL A   1      39.245  29.294  30.332  1.00  0.00     0.023 A 
ATOM     51  C   UNL A   1      38.977  28.751  31.603  1.00  0.00     0.012 A 
ATOM     52  C   UNL A   1      38.277  30.115  29.720  1.00  0.00     0.148 A 
ATOM     53  C   UNL A   1      37.760  28.996  32.239  1.00  0.00     0.002 A 
ATOM     54  C   UNL A   1      37.094  30.407  30.387  1.00  0.00     0.091 A 
ATOM     55  F   UNL A   1      38.542  30.613  28.504  1.00  0.00    -0.205 F 
ATOM     56  C   UNL A   1      36.824  29.833  31.639  1.00  0.00     0.022 A 
BRANCH  54  57
ATOM     57  S   UNL A   1      35.901  31.593  29.755  1.00  0.00     0.127 S 
ATOM     58  O   UNL A   1      35.098  31.871  30.943  1.00  0.00    -0.237 OA
ATOM     59  O   UNL A   1      36.765  32.691  29.324  1.00  0.00    -0.237 OA
ATOM     60  O   UNL A   1      35.210  30.913  28.668  1.00  0.00    -0.744 OA
ENDBRANCH  54  57
ENDBRANCH  26  50
BRANCH  38  61
ATOM     61  C   UNL A   1      44.913  33.174  29.065  1.00  0.00     0.023 A 
ATOM     62  C   UNL A   1      45.541  33.501  30.283  1.00  0.00     0.012 A 
ATOM     63  C   UNL A   1      44.699  34.181  28.103  1.00  0.00     0.148 A 
ATOM     64  C   UNL A   1      45.925  34.814  30.551  1.00  0.00     0.002 A 
ATOM     65  C   UNL A   1      45.134  35.476  28.354  1.00  0.00     0.091 A 
ATOM     66  F   UNL A   1      44.083  33.851  26.959  1.00  0.00    -0.205 F 
ATOM     67  C   UNL A   1      45.734  35.797  29.583  1.00  0.00     0.022 A 
BRANCH  65  68
ATOM     68  S   UNL A   1      45.030  36.782  27.126  1.00  0.00     0.127 S 
ATOM     69  O   UNL A   1      45.566  37.926  27.864  1.00  0.00    -0.237 OA
ATOM     70  O   UNL A   1      45.902  36.278  26.065  1.00  0.00    -0.237 OA
ATOM     71  O   UNL A   1      43.624  36.880  26.761  1.00  0.00    -0.744 OA
ENDBRANCH  65  68
ENDBRANCH  38  61
ENDBRANCH  12  13
ENDBRANCH   5   7
ENDBRANCH   2   3
ENDBRANCH   1   2
BRANCH   1  72
ATOM     72  C   UNL A   1      36.745  19.933  24.628  1.00  0.00     0.117 C 
BRANCH  72  73
ATOM     73  N   UNL A   1      36.403  20.957  25.590  1.00  0.00    -0.354 N 
ATOM     74  C   UNL A   1      35.715  22.120  25.438  1.00  0.00     0.242 C 
ATOM     75  H   UNL A   1      36.718  20.783  26.506  1.00  0.00     0.163 HD
ATOM     76  O   UNL A   1      35.891  22.971  26.320  1.00  0.00    -0.273 OA
BRANCH  74  77
ATOM     77  C   UNL A   1      34.733  22.371  24.261  1.00  0.00     0.173 C 
BRANCH  77  78
ATOM     78  N   UNL A   1      33.410  22.319  24.936  1.00  0.00    -0.340 N 
ATOM     79  C   UNL A   1      32.380  21.432  24.867  1.00  0.00     0.254 C 
ATOM     80  H   UNL A   1      33.247  23.069  25.551  1.00  0.00     0.164 HD
ATOM     81  O   UNL A   1      31.290  21.692  25.375  1.00  0.00    -0.269 OA
BRANCH  79  82
ATOM     82  C   UNL A   1      32.544  20.155  24.169  1.00  0.00     0.076 A 
ATOM     83  C   UNL A   1      32.165  20.064  22.828  1.00  0.00     0.017 A 
ATOM     84  C   UNL A   1      32.989  19.024  24.854  1.00  0.00     0.148 A 
ATOM     85  C   UNL A   1      32.286  18.847  22.160  1.00  0.00     0.002 A 
ATOM     86  C   UNL A   1      33.143  17.809  24.193  1.00  0.00     0.092 A 
ATOM     87  F   UNL A   1      33.275  19.106  26.161  1.00  0.00    -0.205 F 
ATOM     88  C   UNL A   1      32.782  17.729  22.836  1.00  0.00     0.016 A 
BRANCH  86  89
ATOM     89  C   UNL A   1      33.690  16.610  24.909  1.00  0.00     0.419 C 
ATOM     90  F   UNL A   1      33.045  16.370  26.085  1.00  0.00    -0.166 F 
ATOM     91  F   UNL A   1      33.544  15.474  24.170  1.00  0.00    -0.166 F 
ATOM     92  F   UNL A   1      35.014  16.674  25.214  1.00  0.00    -0.166 F 
ENDBRANCH  86  89
ENDBRANCH  79  82
ENDBRANCH  77  78
BRANCH  77  93
ATOM     93  C   UNL A   1      34.818  23.743  23.579  1.00  0.00     0.063 C 
BRANCH  93  94
ATOM     94  C   UNL A   1      33.864  24.829  24.052  1.00  0.00     0.158 C 
BRANCH  94  95
ATOM     95  O   UNL A   1      34.171  25.241  25.374  1.00  0.00    -0.396 OA
ATOM     96  H   UNL A   1      34.820  24.631  25.760  1.00  0.00     0.210 HD
ENDBRANCH  94  95
ENDBRANCH  93  94
ENDBRANCH  77  93
ENDBRANCH  74  77
ENDBRANCH  72  73
ENDBRANCH   1  72
TORSDOF 19
ENDMDL
MODEL 3
REMARK VINA RESULT:     -11.5      7.081     12.118
REMARK SMILES O=C(NCCCNC(=O)[C@H](CCO)NC(=O)c1cccc(C(F)(F)F)c1F)c1ccc(-c2c3nc(c(-c4cccc(S(=O)(=O)[O-])c4F)c4ccc([nH]4)c(-c4cccc(S(=O)(=O)[O-])c4F)c4nc(c(-c5cccc(S(=O)(=O)[O-])c5F)c5ccc2[nH]5)C=C4)C=C3)cc1
REMARK SMILES IDX 5 1 4 2 3 3 1 4 2 5 28 7 29 8 90 9 30 10 89 11 31 12 32 13
REMARK SMILES IDX 33 14 83 15 34 16 88 17 82 18 84 19 35 20 87 21 81 22 80 23
REMARK SMILES IDX 36 25 68 26 48 27 67 28 49 29 52 30 66 31 85 32 50 33 51 34
REMARK SMILES IDX 65 36 86 37 53 38 37 39 38 40 46 41 39 42 41 43 47 44 40 45
REMARK SMILES IDX 42 46 43 47 44 48 45 49 69 50 70 51 78 52 71 53 73 54 79 55
REMARK SMILES IDX 72 56 74 57 75 58 76 59 77 60 54 61 55 62 63 63 56 64 58 65
REMARK SMILES IDX 64 66 57 67 59 68 60 69 61 70 62 71 6 72 7 73 8 74 9 76
REMARK SMILES IDX 10 77 14 78 15 79 16 81 17 82 18 83 26 84 19 85 21 86 27 87
REMARK SMILES IDX 20 88 22 89 23 90 24 91 25 92 11 93 12 94 13 95
REMARK H PARENT 3 6 84 24 52 35 7 75 14 80 13 96
REMARK Flexibility Score: inf
ROOT
ATOM      1  C   UNL A   1      38.165  19.898  25.053  1.00  0.00     0.042 C 
ENDROOT
BRANCH   1   2
ATOM      2  C   UNL A   1      39.310  20.377  25.932  1.00  0.00     0.118 C 
BRANCH   2   3
ATOM      3  N   UNL A   1      40.364  19.379  26.011  1.00  0.00    -0.352 N 
ATOM      4  O   UNL A   1      42.454  18.586  25.802  1.00  0.00    -0.269 OA
ATOM      5  C   UNL A   1      41.730  19.550  26.035  1.00  0.00     0.251 C 
ATOM      6  H   UNL A   1      40.057  18.444  26.055  1.00  0.00     0.163 HD
BRANCH   5   7
ATOM      7  C   UNL A   1      42.318  20.880  26.325  1.00  0.00     0.039 A 
ATOM      8  C   UNL A   1      42.569  21.790  25.296  1.00  0.00     0.014 A 
ATOM      9  C   UNL A   1      42.570  21.247  27.651  1.00  0.00     0.014 A 
ATOM     10  C   UNL A   1      43.197  22.999  25.571  1.00  0.00     0.010 A 
ATOM     11  C   UNL A   1      43.097  22.511  27.936  1.00  0.00     0.010 A 
ATOM     12  C   UNL A   1      43.426  23.393  26.897  1.00  0.00    -0.014 A 
BRANCH  12  13
ATOM     13  C   UNL A   1      43.888  24.779  27.172  1.00  0.00     0.031 A 
ATOM     14  C   UNL A   1      45.311  25.195  26.929  1.00  0.00     0.074 A 
ATOM     15  C   UNL A   1      42.990  25.664  27.653  1.00  0.00     0.049 A 
ATOM     16  N   UNL A   1      45.872  26.354  27.152  1.00  0.00    -0.248 NA
ATOM     17  C   UNL A   1      46.225  24.186  26.369  1.00  0.00     0.031 C 
ATOM     18  C   UNL A   1      41.583  25.363  27.945  1.00  0.00     0.029 A 
ATOM     19  N   UNL A   1      43.112  26.989  27.980  1.00  0.00    -0.354 N 
ATOM     20  C   UNL A   1      47.207  26.212  26.791  1.00  0.00     0.074 A 
ATOM     21  C   UNL A   1      47.377  24.848  26.341  1.00  0.00     0.031 C 
ATOM     22  C   UNL A   1      40.968  26.474  28.367  1.00  0.00     0.029 A 
ATOM     23  C   UNL A   1      41.947  27.549  28.454  1.00  0.00     0.049 A 
ATOM     24  H   UNL A   1      43.953  27.494  27.884  1.00  0.00     0.167 HD
ATOM     25  C   UNL A   1      48.191  27.142  26.820  1.00  0.00     0.034 A 
ATOM     26  C   UNL A   1      41.696  28.781  28.935  1.00  0.00     0.034 A 
ATOM     27  C   UNL A   1      48.000  28.503  27.248  1.00  0.00     0.049 A 
ATOM     28  C   UNL A   1      42.817  29.778  28.974  1.00  0.00     0.074 A 
ATOM     29  C   UNL A   1      48.932  29.526  27.290  1.00  0.00     0.029 A 
ATOM     30  N   UNL A   1      46.804  29.035  27.705  1.00  0.00    -0.354 N 
ATOM     31  N   UNL A   1      44.053  29.643  28.556  1.00  0.00    -0.248 NA
ATOM     32  C   UNL A   1      42.509  31.102  29.530  1.00  0.00     0.031 C 
ATOM     33  C   UNL A   1      48.306  30.669  27.796  1.00  0.00     0.029 A 
ATOM     34  C   UNL A   1      46.974  30.369  28.035  1.00  0.00     0.049 A 
ATOM     35  H   UNL A   1      45.958  28.537  27.784  1.00  0.00     0.167 HD
ATOM     36  C   UNL A   1      44.661  30.873  28.769  1.00  0.00     0.074 A 
ATOM     37  C   UNL A   1      43.650  31.747  29.329  1.00  0.00     0.031 C 
ATOM     38  C   UNL A   1      45.944  31.240  28.539  1.00  0.00     0.034 A 
BRANCH  25  39
ATOM     39  C   UNL A   1      49.564  26.751  26.336  1.00  0.00     0.023 A 
ATOM     40  C   UNL A   1      50.319  25.821  27.077  1.00  0.00     0.012 A 
ATOM     41  C   UNL A   1      50.046  27.195  25.088  1.00  0.00     0.148 A 
ATOM     42  C   UNL A   1      51.537  25.345  26.590  1.00  0.00     0.002 A 
ATOM     43  C   UNL A   1      51.239  26.684  24.589  1.00  0.00     0.091 A 
ATOM     44  F   UNL A   1      49.318  28.089  24.405  1.00  0.00    -0.205 F 
ATOM     45  C   UNL A   1      51.989  25.765  25.342  1.00  0.00     0.022 A 
BRANCH  43  46
ATOM     46  S   UNL A   1      51.869  27.094  22.957  1.00  0.00     0.127 S 
ATOM     47  O   UNL A   1      53.037  26.216  22.863  1.00  0.00    -0.237 OA
ATOM     48  O   UNL A   1      50.751  26.715  22.094  1.00  0.00    -0.237 OA
ATOM     49  O   UNL A   1      52.170  28.517  22.985  1.00  0.00    -0.744 OA
ENDBRANCH  43  46
ENDBRANCH  25  39
BRANCH  26  50
ATOM     50  C   UNL A   1      40.320  29.144  29.378  1.00  0.00     0.023 A 
ATOM     51  C   UNL A   1      39.395  29.627  28.434  1.00  0.00     0.012 A 
ATOM     52  C   UNL A   1      39.909  28.976  30.716  1.00  0.00     0.148 A 
ATOM     53  C   UNL A   1      38.096  29.964  28.817  1.00  0.00     0.002 A 
ATOM     54  C   UNL A   1      38.597  29.251  31.078  1.00  0.00     0.091 A 
ATOM     55  F   UNL A   1      40.807  28.528  31.605  1.00  0.00    -0.205 F 
ATOM     56  C   UNL A   1      37.693  29.764  30.135  1.00  0.00     0.022 A 
BRANCH  54  57
ATOM     57  S   UNL A   1      37.953  28.883  32.714  1.00  0.00     0.127 S 
ATOM     58  O   UNL A   1      36.582  29.379  32.614  1.00  0.00    -0.237 OA
ATOM     59  O   UNL A   1      38.079  27.427  32.768  1.00  0.00    -0.237 OA
ATOM     60  O   UNL A   1      38.818  29.594  33.645  1.00  0.00    -0.744 OA
ENDBRANCH  54  57
ENDBRANCH  26  50
BRANCH  38  61
ATOM     61  C   UNL A   1      46.331  32.661  28.853  1.00  0.00     0.023 A 
ATOM     62  C   UNL A   1      46.882  32.976  30.109  1.00  0.00     0.012 A 
ATOM     63  C   UNL A   1      46.230  33.664  27.868  1.00  0.00     0.148 A 
ATOM     64  C   UNL A   1      47.301  34.275  30.393  1.00  0.00     0.002 A 
ATOM     65  C   UNL A   1      46.700  34.942  28.139  1.00  0.00     0.091 A 
ATOM     66  F   UNL A   1      45.685  33.346  26.686  1.00  0.00    -0.205 F 
ATOM     67  C   UNL A   1      47.223  35.253  29.404  1.00  0.00     0.022 A 
BRANCH  65  68
ATOM     68  S   UNL A   1      46.741  36.237  26.894  1.00  0.00     0.127 S 
ATOM     69  O   UNL A   1      47.493  35.592  25.819  1.00  0.00    -0.237 OA
ATOM     70  O   UNL A   1      45.320  36.437  26.611  1.00  0.00    -0.237 OA
ATOM     71  O   UNL A   1      47.401  37.375  27.519  1.00  0.00    -0.744 OA
ENDBRANCH  65  68
ENDBRANCH  38  61
ENDBRANCH  12  13
ENDBRANCH   5   7
ENDBRANCH   2   3
ENDBRANCH   1   2
BRANCH   1  72
ATOM     72  C   UNL A   1      37.294  21.041  24.535  1.00  0.00     0.117 C 
BRANCH  72  73
ATOM     73  N   UNL A   1      36.544  21.612  25.632  1.00  0.00    -0.354 N 
ATOM     74  C   UNL A   1      35.406  22.356  25.635  1.00  0.00     0.242 C 
ATOM     75  H   UNL A   1      36.918  21.431  26.524  1.00  0.00     0.163 HD
ATOM     76  O   UNL A   1      35.196  23.019  26.658  1.00  0.00    -0.273 OA
BRANCH  74  77
ATOM     77  C   UNL A   1      34.398  22.356  24.453  1.00  0.00     0.173 C 
BRANCH  77  78
ATOM     78  N   UNL A   1      33.094  22.208  25.150  1.00  0.00    -0.340 N 
ATOM     79  C   UNL A   1      32.123  21.256  25.088  1.00  0.00     0.254 C 
ATOM     80  H   UNL A   1      32.893  22.939  25.779  1.00  0.00     0.164 HD
ATOM     81  O   UNL A   1      31.027  21.438  25.618  1.00  0.00    -0.269 OA
BRANCH  79  82
ATOM     82  C   UNL A   1      32.358  20.002  24.369  1.00  0.00     0.076 A 
ATOM     83  C   UNL A   1      32.161  19.968  22.987  1.00  0.00     0.017 A 
ATOM     84  C   UNL A   1      32.687  18.837  25.064  1.00  0.00     0.148 A 
ATOM     85  C   UNL A   1      32.351  18.773  22.295  1.00  0.00     0.002 A 
ATOM     86  C   UNL A   1      32.908  17.644  24.384  1.00  0.00     0.092 A 
ATOM     87  F   UNL A   1      32.796  18.866  26.400  1.00  0.00    -0.205 F 
ATOM     88  C   UNL A   1      32.732  17.620  22.988  1.00  0.00     0.016 A 
BRANCH  86  89
ATOM     89  C   UNL A   1      33.332  16.409  25.120  1.00  0.00     0.419 C 
ATOM     90  F   UNL A   1      33.429  15.324  24.301  1.00  0.00    -0.166 F 
ATOM     91  F   UNL A   1      34.566  16.558  25.681  1.00  0.00    -0.166 F 
ATOM     92  F   UNL A   1      32.515  16.036  26.141  1.00  0.00    -0.166 F 
ENDBRANCH  86  89
ENDBRANCH  79  82
ENDBRANCH  77  78
BRANCH  77  93
ATOM     93  C   UNL A   1      34.305  23.649  23.631  1.00  0.00     0.063 C 
BRANCH  93  94
ATOM     94  C   UNL A   1      33.570  23.591  22.301  1.00  0.00     0.158 C 
BRANCH  94  95
ATOM     95  O   UNL A   1      32.170  23.464  22.494  1.00  0.00    -0.396 OA
ATOM     96  H   UNL A   1      31.729  23.405  21.632  1.00  0.00     0.210 HD
ENDBRANCH  94  95
ENDBRANCH  93  94
ENDBRANCH  77  93
ENDBRANCH  74  77
ENDBRANCH  72  73
ENDBRANCH   1  72
TORSDOF 19
ENDMDL
