MODEL 1
REMARK VINA RESULT:     -12.7      0.000      0.000
REMARK SMILES CCN(CC)c1ccc([C@@H]2[NH2+][C@H](C(=O)NCCCNC(=O)c3ccc(-c4c5nc(c(-c6cccc(S(=O)(=O)[O-])c6F)c6ccc([nH]6)c(-c6cccc(S(=O)(=O)[O-])c6F)c6nc(c(-c7cccc(S(=O)(=O)[O-])c7F)c7ccc4[nH]7)C=C6)C=C5)cc3)Cc3c2[nH]c2ccccc32)cc1
REMARK SMILES IDX 17 1 16 2 15 3 13 4 14 5 12 7 10 8 11 9 87 10 86 13 88 14
REMARK SMILES IDX 85 15 94 16 89 17 93 19 90 20 92 21 91 22 9 23 6 24 7 25
REMARK SMILES IDX 96 26 8 27 95 28 3 29 2 30 1 31 4 32 5 33 18 34 19 35 20 36
REMARK SMILES IDX 21 38 22 39 23 40 84 41 24 42 83 43 25 44 26 45 27 46 77 47
REMARK SMILES IDX 28 48 82 49 76 50 78 51 29 52 81 53 75 54 74 55 30 57 62 58
REMARK SMILES IDX 42 59 61 60 43 61 46 62 60 63 79 64 44 65 45 66 59 68 80 69
REMARK SMILES IDX 47 70 31 71 32 72 40 73 33 74 35 75 41 76 34 77 36 78 37 79
REMARK SMILES IDX 38 80 39 81 63 82 64 83 72 84 65 85 67 86 73 87 66 88 68 89
REMARK SMILES IDX 69 90 70 91 71 92 48 93 49 94 57 95 50 96 52 97 58 98 51 99
REMARK SMILES IDX 53 100 54 101 55 102 56 103
REMARK H PARENT 15 6 11 11 11 12 88 18 19 37 78 56 46 67
REMARK Flexibility Score: inf
ROOT
ATOM      1  C   UNL A   1      31.493  28.621  26.480  1.00  0.00     0.042 C 
ENDROOT
BRANCH   1   2
ATOM      2  C   UNL A   1      31.348  27.260  25.797  1.00  0.00     0.118 C 
BRANCH   2   3
ATOM      3  N   UNL A   1      31.707  26.136  26.649  1.00  0.00    -0.351 N 
ATOM      4  C   UNL A   1      31.622  24.783  26.481  1.00  0.00     0.278 C 
ATOM      5  O   UNL A   1      32.107  24.092  27.379  1.00  0.00    -0.268 OA
ATOM      6  H   UNL A   1      32.085  26.403  27.517  1.00  0.00     0.163 HD
BRANCH   4   7
ATOM      7  C   UNL A   1      30.928  24.170  25.254  1.00  0.00     0.277 C 
ATOM      8  C   UNL A   1      32.413  23.800  23.203  1.00  0.00     0.262 C 
ATOM      9  N   UNL A   1      31.503  24.691  23.962  1.00  0.00    -0.325 N 
ATOM     10  C   UNL A   1      31.840  22.419  23.298  1.00  0.00     0.083 A 
ATOM     11  H   UNL A   1      30.719  24.919  23.351  1.00  0.00     0.347 HD
ATOM     12  H   UNL A   1      32.086  25.480  24.239  1.00  0.00     0.347 HD
ATOM     13  C   UNL A   1      31.455  21.828  24.478  1.00  0.00    -0.006 A 
ATOM     14  N   UNL A   1      31.783  21.405  22.379  1.00  0.00    -0.353 N 
ATOM     15  C   UNL A   1      30.802  22.641  25.519  1.00  0.00     0.114 C 
ATOM     16  C   UNL A   1      32.184  20.616  24.418  1.00  0.00     0.003 A 
ATOM     17  C   UNL A   1      32.151  20.257  23.065  1.00  0.00     0.046 A 
ATOM     18  H   UNL A   1      31.533  21.476  21.429  1.00  0.00     0.166 HD
ATOM     19  C   UNL A   1      32.952  19.831  25.300  1.00  0.00     0.010 A 
ATOM     20  C   UNL A   1      32.581  19.015  22.598  1.00  0.00     0.026 A 
ATOM     21  C   UNL A   1      33.594  18.694  24.789  1.00  0.00     0.001 A 
ATOM     22  C   UNL A   1      33.345  18.254  23.486  1.00  0.00     0.002 A 
BRANCH   8  23
ATOM     23  C   UNL A   1      33.884  23.859  23.704  1.00  0.00     0.016 A 
ATOM     24  C   UNL A   1      36.461  23.481  24.956  1.00  0.00     0.037 A 
ATOM     25  C   UNL A   1      36.170  22.942  23.707  1.00  0.00     0.026 A 
ATOM     26  C   UNL A   1      35.528  24.416  25.422  1.00  0.00     0.026 A 
ATOM     27  C   UNL A   1      34.922  23.139  23.088  1.00  0.00     0.012 A 
ATOM     28  C   UNL A   1      34.274  24.618  24.811  1.00  0.00     0.012 A 
BRANCH  24  29
ATOM     29  N   UNL A   1      37.574  23.110  25.710  1.00  0.00    -0.372 N 
BRANCH  29  30
ATOM     30  C   UNL A   1      38.025  21.702  25.624  1.00  0.00     0.113 C 
ATOM     31  C   UNL A   1      36.898  20.710  25.376  1.00  0.00     0.027 C 
ENDBRANCH  29  30
BRANCH  29  32
ATOM     32  C   UNL A   1      38.596  24.085  26.122  1.00  0.00     0.113 C 
ATOM     33  C   UNL A   1      38.577  24.429  27.610  1.00  0.00     0.027 C 
ENDBRANCH  29  32
ENDBRANCH  24  29
ENDBRANCH   8  23
ENDBRANCH   4   7
ENDBRANCH   2   3
ENDBRANCH   1   2
BRANCH   1  34
ATOM     34  C   UNL A   1      32.501  29.589  25.858  1.00  0.00     0.118 C 
BRANCH  34  35
ATOM     35  N   UNL A   1      32.335  30.974  26.272  1.00  0.00    -0.352 N 
ATOM     36  C   UNL A   1      33.131  31.748  27.088  1.00  0.00     0.251 C 
ATOM     37  H   UNL A   1      31.535  31.425  25.917  1.00  0.00     0.163 HD
ATOM     38  O   UNL A   1      32.767  32.891  27.365  1.00  0.00    -0.269 OA
BRANCH  36  39
ATOM     39  C   UNL A   1      34.390  31.218  27.667  1.00  0.00     0.039 A 
ATOM     40  C   UNL A   1      35.407  32.122  27.997  1.00  0.00     0.014 A 
ATOM     41  C   UNL A   1      34.593  29.852  27.877  1.00  0.00     0.014 A 
ATOM     42  C   UNL A   1      36.583  31.669  28.605  1.00  0.00     0.010 A 
ATOM     43  C   UNL A   1      35.739  29.408  28.545  1.00  0.00     0.010 A 
ATOM     44  C   UNL A   1      36.745  30.311  28.925  1.00  0.00    -0.014 A 
BRANCH  44  45
ATOM     45  C   UNL A   1      37.931  29.831  29.690  1.00  0.00     0.031 A 
ATOM     46  C   UNL A   1      38.170  30.280  31.108  1.00  0.00     0.074 A 
ATOM     47  C   UNL A   1      38.846  29.051  29.080  1.00  0.00     0.049 A 
ATOM     48  N   UNL A   1      39.175  30.006  31.902  1.00  0.00    -0.248 NA
ATOM     49  C   UNL A   1      37.161  31.167  31.708  1.00  0.00     0.031 C 
ATOM     50  C   UNL A   1      38.777  28.598  27.689  1.00  0.00     0.029 A 
ATOM     51  N   UNL A   1      40.030  28.524  29.538  1.00  0.00    -0.354 N 
ATOM     52  C   UNL A   1      38.940  30.710  33.077  1.00  0.00     0.074 A 
ATOM     53  C   UNL A   1      37.708  31.447  32.882  1.00  0.00     0.031 C 
ATOM     54  C   UNL A   1      39.865  27.864  27.409  1.00  0.00     0.029 A 
ATOM     55  C   UNL A   1      40.730  27.821  28.584  1.00  0.00     0.049 A 
ATOM     56  H   UNL A   1      40.348  28.639  30.464  1.00  0.00     0.167 HD
ATOM     57  C   UNL A   1      39.666  30.728  34.222  1.00  0.00     0.034 A 
ATOM     58  C   UNL A   1      41.937  27.224  28.637  1.00  0.00     0.034 A 
ATOM     59  C   UNL A   1      40.875  29.974  34.428  1.00  0.00     0.049 A 
ATOM     60  C   UNL A   1      42.716  27.245  29.925  1.00  0.00     0.074 A 
ATOM     61  C   UNL A   1      41.633  29.865  35.581  1.00  0.00     0.029 A 
ATOM     62  N   UNL A   1      41.516  29.218  33.459  1.00  0.00    -0.354 N 
ATOM     63  N   UNL A   1      42.397  27.791  31.073  1.00  0.00    -0.248 NA
ATOM     64  C   UNL A   1      44.005  26.539  29.935  1.00  0.00     0.031 C 
ATOM     65  C   UNL A   1      42.750  29.072  35.300  1.00  0.00     0.029 A 
ATOM     66  C   UNL A   1      42.667  28.653  33.982  1.00  0.00     0.049 A 
ATOM     67  H   UNL A   1      41.199  29.100  32.534  1.00  0.00     0.167 HD
ATOM     68  C   UNL A   1      43.424  27.460  31.951  1.00  0.00     0.074 A 
ATOM     69  C   UNL A   1      44.365  26.651  31.207  1.00  0.00     0.031 C 
ATOM     70  C   UNL A   1      43.576  27.807  33.253  1.00  0.00     0.034 A 
BRANCH  57  71
ATOM     71  C   UNL A   1      39.152  31.563  35.368  1.00  0.00     0.023 A 
ATOM     72  C   UNL A   1      38.240  31.004  36.286  1.00  0.00     0.012 A 
ATOM     73  C   UNL A   1      39.622  32.875  35.576  1.00  0.00     0.148 A 
ATOM     74  C   UNL A   1      37.776  31.747  37.371  1.00  0.00     0.002 A 
ATOM     75  C   UNL A   1      39.190  33.593  36.686  1.00  0.00     0.091 A 
ATOM     76  F   UNL A   1      40.476  33.399  34.685  1.00  0.00    -0.205 F 
ATOM     77  C   UNL A   1      38.258  33.037  37.575  1.00  0.00     0.022 A 
BRANCH  75  78
ATOM     78  S   UNL A   1      39.816  35.230  37.085  1.00  0.00     0.127 S 
ATOM     79  O   UNL A   1      39.278  36.027  35.982  1.00  0.00    -0.237 OA
ATOM     80  O   UNL A   1      39.189  35.489  38.383  1.00  0.00    -0.237 OA
ATOM     81  O   UNL A   1      41.264  35.112  37.121  1.00  0.00    -0.744 OA
ENDBRANCH  75  78
ENDBRANCH  57  71
BRANCH  58  82
ATOM     82  C   UNL A   1      42.469  26.510  27.441  1.00  0.00     0.023 A 
ATOM     83  C   UNL A   1      43.161  27.235  26.450  1.00  0.00     0.012 A 
ATOM     84  C   UNL A   1      42.309  25.119  27.286  1.00  0.00     0.148 A 
ATOM     85  C   UNL A   1      43.650  26.595  25.312  1.00  0.00     0.002 A 
ATOM     86  C   UNL A   1      42.850  24.479  26.178  1.00  0.00     0.091 A 
ATOM     87  F   UNL A   1      41.639  24.449  28.235  1.00  0.00    -0.205 F 
ATOM     88  C   UNL A   1      43.504  25.217  25.180  1.00  0.00     0.022 A 
BRANCH  86  89
ATOM     89  S   UNL A   1      42.826  22.692  25.992  1.00  0.00     0.127 S 
ATOM     90  O   UNL A   1      43.323  22.528  24.626  1.00  0.00    -0.237 OA
ATOM     91  O   UNL A   1      43.758  22.270  27.040  1.00  0.00    -0.237 OA
ATOM     92  O   UNL A   1      41.447  22.289  26.215  1.00  0.00    -0.744 OA
ENDBRANCH  86  89
ENDBRANCH  58  82
BRANCH  70  93
ATOM     93  C   UNL A   1      44.784  27.277  33.984  1.00  0.00     0.023 A 
ATOM     94  C   UNL A   1      45.975  28.030  34.025  1.00  0.00     0.012 A 
ATOM     95  C   UNL A   1      44.714  26.059  34.691  1.00  0.00     0.148 A 
ATOM     96  C   UNL A   1      47.086  27.562  34.727  1.00  0.00     0.002 A 
ATOM     97  C   UNL A   1      45.808  25.626  35.431  1.00  0.00     0.091 A 
ATOM     98  F   UNL A   1      43.580  25.346  34.627  1.00  0.00    -0.205 F 
ATOM     99  C   UNL A   1      46.998  26.369  35.439  1.00  0.00     0.022 A 
BRANCH  97 100
ATOM    100  S   UNL A   1      45.756  24.152  36.458  1.00  0.00     0.127 S 
ATOM    101  O   UNL A   1      44.645  24.458  37.360  1.00  0.00    -0.237 OA
ATOM    102  O   UNL A   1      45.473  23.103  35.478  1.00  0.00    -0.237 OA
ATOM    103  O   UNL A   1      47.063  24.054  37.090  1.00  0.00    -0.744 OA
ENDBRANCH  97 100
ENDBRANCH  70  93
ENDBRANCH  44  45
ENDBRANCH  36  39
ENDBRANCH  34  35
ENDBRANCH   1  34
TORSDOF 17
ENDMDL
MODEL 2
REMARK VINA RESULT:     -12.1      2.383      8.467
REMARK SMILES CCN(CC)c1ccc([C@@H]2[NH2+][C@H](C(=O)NCCCNC(=O)c3ccc(-c4c5nc(c(-c6cccc(S(=O)(=O)[O-])c6F)c6ccc([nH]6)c(-c6cccc(S(=O)(=O)[O-])c6F)c6nc(c(-c7cccc(S(=O)(=O)[O-])c7F)c7ccc4[nH]7)C=C6)C=C5)cc3)Cc3c2[nH]c2ccccc32)cc1
REMARK SMILES IDX 17 1 16 2 15 3 13 4 14 5 12 7 10 8 11 9 87 10 86 13 88 14
REMARK SMILES IDX 85 15 94 16 89 17 93 19 90 20 92 21 91 22 9 23 6 24 7 25
REMARK SMILES IDX 96 26 8 27 95 28 3 29 2 30 1 31 4 32 5 33 18 34 19 35 20 36
REMARK SMILES IDX 21 38 22 39 23 40 84 41 24 42 83 43 25 44 26 45 27 46 77 47
REMARK SMILES IDX 28 48 82 49 76 50 78 51 29 52 81 53 75 54 74 55 30 57 62 58
REMARK SMILES IDX 42 59 61 60 43 61 46 62 60 63 79 64 44 65 45 66 59 68 80 69
REMARK SMILES IDX 47 70 31 71 32 72 40 73 33 74 35 75 41 76 34 77 36 78 37 79
REMARK SMILES IDX 38 80 39 81 63 82 64 83 72 84 65 85 67 86 73 87 66 88 68 89
REMARK SMILES IDX 69 90 70 91 71 92 48 93 49 94 57 95 50 96 52 97 58 98 51 99
REMARK SMILES IDX 53 100 54 101 55 102 56 103
REMARK H PARENT 15 6 11 11 11 12 88 18 19 37 78 56 46 67
REMARK Flexibility Score: inf
ROOT
ATOM      1  C   UNL A   1      31.891  31.539  27.124  1.00  0.00     0.042 C 
ENDROOT
BRANCH   1   2
ATOM      2  C   UNL A   1      32.856  30.371  27.335  1.00  0.00     0.118 C 
BRANCH   2   3
ATOM      3  N   UNL A   1      33.573  29.978  26.132  1.00  0.00    -0.351 N 
ATOM      4  C   UNL A   1      33.923  28.762  25.618  1.00  0.00     0.278 C 
ATOM      5  O   UNL A   1      34.460  28.773  24.509  1.00  0.00    -0.268 OA
ATOM      6  H   UNL A   1      33.864  30.738  25.580  1.00  0.00     0.163 HD
BRANCH   4   7
ATOM      7  C   UNL A   1      33.686  27.462  26.405  1.00  0.00     0.277 C 
ATOM      8  C   UNL A   1      31.357  26.428  26.172  1.00  0.00     0.262 C 
ATOM      9  N   UNL A   1      32.265  27.350  26.895  1.00  0.00    -0.325 N 
ATOM     10  C   UNL A   1      32.161  25.210  25.835  1.00  0.00     0.083 A 
ATOM     11  H   UNL A   1      32.303  27.043  27.867  1.00  0.00     0.347 HD
ATOM     12  H   UNL A   1      31.867  28.276  26.743  1.00  0.00     0.347 HD
ATOM     13  C   UNL A   1      33.394  25.248  25.229  1.00  0.00    -0.006 A 
ATOM     14  N   UNL A   1      31.817  23.884  25.815  1.00  0.00    -0.353 N 
ATOM     15  C   UNL A   1      34.349  26.311  25.592  1.00  0.00     0.114 C 
ATOM     16  C   UNL A   1      33.178  24.384  24.130  1.00  0.00     0.003 A 
ATOM     17  C   UNL A   1      32.347  23.378  24.637  1.00  0.00     0.046 A 
ATOM     18  H   UNL A   1      31.302  23.392  26.496  1.00  0.00     0.166 HD
ATOM     19  C   UNL A   1      33.484  24.369  22.756  1.00  0.00     0.010 A 
ATOM     20  C   UNL A   1      32.053  22.209  23.935  1.00  0.00     0.026 A 
ATOM     21  C   UNL A   1      32.991  23.312  21.976  1.00  0.00     0.001 A 
ATOM     22  C   UNL A   1      32.360  22.217  22.571  1.00  0.00     0.002 A 
BRANCH   8  23
ATOM     23  C   UNL A   1      30.710  27.070  24.912  1.00  0.00     0.016 A 
ATOM     24  C   UNL A   1      29.284  28.663  22.967  1.00  0.00     0.037 A 
ATOM     25  C   UNL A   1      30.625  28.892  23.257  1.00  0.00     0.026 A 
ATOM     26  C   UNL A   1      28.771  27.464  23.480  1.00  0.00     0.026 A 
ATOM     27  C   UNL A   1      31.326  28.107  24.191  1.00  0.00     0.012 A 
ATOM     28  C   UNL A   1      29.464  26.673  24.419  1.00  0.00     0.012 A 
BRANCH  24  29
ATOM     29  N   UNL A   1      28.491  29.557  22.248  1.00  0.00    -0.372 N 
BRANCH  29  30
ATOM     30  C   UNL A   1      27.263  30.066  22.902  1.00  0.00     0.113 C 
ATOM     31  C   UNL A   1      27.513  31.205  23.878  1.00  0.00     0.027 C 
ENDBRANCH  29  30
BRANCH  29  32
ATOM     32  C   UNL A   1      29.044  30.402  21.179  1.00  0.00     0.113 C 
ATOM     33  C   UNL A   1      28.028  31.335  20.524  1.00  0.00     0.027 C 
ENDBRANCH  29  32
ENDBRANCH  24  29
ENDBRANCH   8  23
ENDBRANCH   4   7
ENDBRANCH   2   3
ENDBRANCH   1   2
BRANCH   1  34
ATOM     34  C   UNL A   1      32.479  32.799  26.486  1.00  0.00     0.118 C 
BRANCH  34  35
ATOM     35  N   UNL A   1      32.308  34.007  27.279  1.00  0.00    -0.352 N 
ATOM     36  C   UNL A   1      33.030  34.456  28.364  1.00  0.00     0.251 C 
ATOM     37  H   UNL A   1      31.566  34.591  27.000  1.00  0.00     0.163 HD
ATOM     38  O   UNL A   1      32.671  35.485  28.934  1.00  0.00    -0.269 OA
BRANCH  36  39
ATOM     39  C   UNL A   1      34.201  33.702  28.877  1.00  0.00     0.039 A 
ATOM     40  C   UNL A   1      35.484  34.188  28.597  1.00  0.00     0.014 A 
ATOM     41  C   UNL A   1      34.061  32.523  29.613  1.00  0.00     0.014 A 
ATOM     42  C   UNL A   1      36.611  33.543  29.117  1.00  0.00     0.010 A 
ATOM     43  C   UNL A   1      35.183  31.918  30.187  1.00  0.00     0.010 A 
ATOM     44  C   UNL A   1      36.472  32.424  29.954  1.00  0.00    -0.014 A 
BRANCH  44  45
ATOM     45  C   UNL A   1      37.652  31.805  30.623  1.00  0.00     0.031 A 
ATOM     46  C   UNL A   1      38.468  30.746  29.929  1.00  0.00     0.074 A 
ATOM     47  C   UNL A   1      37.944  32.138  31.897  1.00  0.00     0.049 A 
ATOM     48  N   UNL A   1      39.491  30.064  30.381  1.00  0.00    -0.248 NA
ATOM     49  C   UNL A   1      38.075  30.392  28.557  1.00  0.00     0.031 C 
ATOM     50  C   UNL A   1      37.196  33.096  32.713  1.00  0.00     0.029 A 
ATOM     51  N   UNL A   1      38.930  31.686  32.742  1.00  0.00    -0.354 N 
ATOM     52  C   UNL A   1      39.842  29.180  29.369  1.00  0.00     0.074 A 
ATOM     53  C   UNL A   1      38.903  29.393  28.286  1.00  0.00     0.031 C 
ATOM     54  C   UNL A   1      37.748  33.162  33.935  1.00  0.00     0.029 A 
ATOM     55  C   UNL A   1      38.865  32.225  34.007  1.00  0.00     0.049 A 
ATOM     56  H   UNL A   1      39.619  31.037  32.468  1.00  0.00     0.167 HD
ATOM     57  C   UNL A   1      40.861  28.288  29.329  1.00  0.00     0.034 A 
ATOM     58  C   UNL A   1      39.606  31.984  35.107  1.00  0.00     0.034 A 
ATOM     59  C   UNL A   1      41.812  28.094  30.393  1.00  0.00     0.049 A 
ATOM     60  C   UNL A   1      40.741  31.000  35.032  1.00  0.00     0.074 A 
ATOM     61  C   UNL A   1      42.927  27.273  30.410  1.00  0.00     0.029 A 
ATOM     62  N   UNL A   1      41.754  28.710  31.633  1.00  0.00    -0.354 N 
ATOM     63  N   UNL A   1      41.150  30.287  34.011  1.00  0.00    -0.248 NA
ATOM     64  C   UNL A   1      41.541  30.813  36.251  1.00  0.00     0.031 C 
ATOM     65  C   UNL A   1      43.522  27.366  31.672  1.00  0.00     0.029 A 
ATOM     66  C   UNL A   1      42.802  28.276  32.428  1.00  0.00     0.049 A 
ATOM     67  H   UNL A   1      41.068  29.361  31.909  1.00  0.00     0.167 HD
ATOM     68  C   UNL A   1      42.275  29.599  34.452  1.00  0.00     0.074 A 
ATOM     69  C   UNL A   1      42.496  29.995  35.826  1.00  0.00     0.031 C 
ATOM     70  C   UNL A   1      43.048  28.710  33.779  1.00  0.00     0.034 A 
BRANCH  57  71
ATOM     71  C   UNL A   1      41.033  27.471  28.073  1.00  0.00     0.023 A 
ATOM     72  C   UNL A   1      41.624  28.055  26.935  1.00  0.00     0.012 A 
ATOM     73  C   UNL A   1      40.673  26.108  28.040  1.00  0.00     0.148 A 
ATOM     74  C   UNL A   1      41.821  27.309  25.773  1.00  0.00     0.002 A 
ATOM     75  C   UNL A   1      40.916  25.359  26.894  1.00  0.00     0.091 A 
ATOM     76  F   UNL A   1      40.097  25.571  29.125  1.00  0.00    -0.205 F 
ATOM     77  C   UNL A   1      41.476  25.961  25.756  1.00  0.00     0.022 A 
BRANCH  75  78
ATOM     78  S   UNL A   1      40.586  23.595  26.800  1.00  0.00     0.127 S 
ATOM     79  O   UNL A   1      41.520  23.177  25.753  1.00  0.00    -0.237 OA
ATOM     80  O   UNL A   1      40.945  23.145  28.147  1.00  0.00    -0.237 OA
ATOM     81  O   UNL A   1      39.178  23.465  26.469  1.00  0.00    -0.744 OA
ENDBRANCH  75  78
ENDBRANCH  57  71
BRANCH  58  82
ATOM     82  C   UNL A   1      39.326  32.725  36.371  1.00  0.00     0.023 A 
ATOM     83  C   UNL A   1      39.951  33.967  36.601  1.00  0.00     0.012 A 
ATOM     84  C   UNL A   1      38.436  32.216  37.336  1.00  0.00     0.148 A 
ATOM     85  C   UNL A   1      39.723  34.670  37.783  1.00  0.00     0.002 A 
ATOM     86  C   UNL A   1      38.167  32.950  38.486  1.00  0.00     0.091 A 
ATOM     87  F   UNL A   1      37.858  31.029  37.104  1.00  0.00    -0.205 F 
ATOM     88  C   UNL A   1      38.825  34.167  38.721  1.00  0.00     0.022 A 
BRANCH  86  89
ATOM     89  S   UNL A   1      36.926  32.445  39.682  1.00  0.00     0.127 S 
ATOM     90  O   UNL A   1      35.707  32.466  38.875  1.00  0.00    -0.237 OA
ATOM     91  O   UNL A   1      37.395  31.108  40.053  1.00  0.00    -0.237 OA
ATOM     92  O   UNL A   1      36.990  33.424  40.755  1.00  0.00    -0.744 OA
ENDBRANCH  86  89
ENDBRANCH  58  82
BRANCH  70  93
ATOM     93  C   UNL A   1      44.241  28.131  34.499  1.00  0.00     0.023 A 
ATOM     94  C   UNL A   1      45.454  28.846  34.545  1.00  0.00     0.012 A 
ATOM     95  C   UNL A   1      44.134  26.907  35.188  1.00  0.00     0.148 A 
ATOM     96  C   UNL A   1      46.553  28.333  35.236  1.00  0.00     0.002 A 
ATOM     97  C   UNL A   1      45.216  26.429  35.918  1.00  0.00     0.091 A 
ATOM     98  F   UNL A   1      42.977  26.232  35.119  1.00  0.00    -0.205 F 
ATOM     99  C   UNL A   1      46.430  27.133  35.932  1.00  0.00     0.022 A 
BRANCH  97 100
ATOM    100  S   UNL A   1      45.120  24.943  36.925  1.00  0.00     0.127 S 
ATOM    101  O   UNL A   1      44.692  25.485  38.215  1.00  0.00    -0.237 OA
ATOM    102  O   UNL A   1      44.101  24.161  36.225  1.00  0.00    -0.237 OA
ATOM    103  O   UNL A   1      46.452  24.356  36.907  1.00  0.00    -0.744 OA
ENDBRANCH  97 100
ENDBRANCH  70  93
ENDBRANCH  44  45
ENDBRANCH  36  39
ENDBRANCH  34  35
ENDBRANCH   1  34
TORSDOF 17
ENDMDL
MODEL 3
REMARK VINA RESULT:     -11.9      1.746      7.475
REMARK SMILES CCN(CC)c1ccc([C@@H]2[NH2+][C@H](C(=O)NCCCNC(=O)c3ccc(-c4c5nc(c(-c6cccc(S(=O)(=O)[O-])c6F)c6ccc([nH]6)c(-c6cccc(S(=O)(=O)[O-])c6F)c6nc(c(-c7cccc(S(=O)(=O)[O-])c7F)c7ccc4[nH]7)C=C6)C=C5)cc3)Cc3c2[nH]c2ccccc32)cc1
REMARK SMILES IDX 17 1 16 2 15 3 13 4 14 5 12 7 10 8 11 9 87 10 86 13 88 14
REMARK SMILES IDX 85 15 94 16 89 17 93 19 90 20 92 21 91 22 9 23 6 24 7 25
REMARK SMILES IDX 96 26 8 27 95 28 3 29 2 30 1 31 4 32 5 33 18 34 19 35 20 36
REMARK SMILES IDX 21 38 22 39 23 40 84 41 24 42 83 43 25 44 26 45 27 46 77 47
REMARK SMILES IDX 28 48 82 49 76 50 78 51 29 52 81 53 75 54 74 55 30 57 62 58
REMARK SMILES IDX 42 59 61 60 43 61 46 62 60 63 79 64 44 65 45 66 59 68 80 69
REMARK SMILES IDX 47 70 31 71 32 72 40 73 33 74 35 75 41 76 34 77 36 78 37 79
REMARK SMILES IDX 38 80 39 81 63 82 64 83 72 84 65 85 67 86 73 87 66 88 68 89
REMARK SMILES IDX 69 90 70 91 71 92 48 93 49 94 57 95 50 96 52 97 58 98 51 99
REMARK SMILES IDX 53 100 54 101 55 102 56 103
REMARK H PARENT 15 6 11 11 11 12 88 18 19 37 78 56 46 67
REMARK Flexibility Score: inf
ROOT
ATOM      1  C   UNL A   1      32.811  28.062  25.475  1.00  0.00     0.042 C 
ENDROOT
BRANCH   1   2
ATOM      2  C   UNL A   1      33.428  26.663  25.468  1.00  0.00     0.118 C 
BRANCH   2   3
ATOM      3  N   UNL A   1      32.872  25.772  26.475  1.00  0.00    -0.351 N 
ATOM      4  C   UNL A   1      32.191  24.591  26.392  1.00  0.00     0.278 C 
ATOM      5  O   UNL A   1      31.935  24.034  27.460  1.00  0.00    -0.268 OA
ATOM      6  H   UNL A   1      33.015  26.081  27.398  1.00  0.00     0.163 HD
BRANCH   4   7
ATOM      7  C   UNL A   1      31.745  24.017  25.036  1.00  0.00     0.277 C 
ATOM      8  C   UNL A   1      33.609  23.081  23.555  1.00  0.00     0.262 C 
ATOM      9  N   UNL A   1      32.778  24.239  23.962  1.00  0.00    -0.325 N 
ATOM     10  C   UNL A   1      32.701  21.890  23.525  1.00  0.00     0.083 A 
ATOM     11  H   UNL A   1      32.287  24.570  23.132  1.00  0.00     0.347 HD
ATOM     12  H   UNL A   1      33.439  24.899  24.372  1.00  0.00     0.347 HD
ATOM     13  C   UNL A   1      31.857  21.543  24.554  1.00  0.00    -0.006 A 
ATOM     14  N   UNL A   1      32.653  20.818  22.674  1.00  0.00    -0.353 N 
ATOM     15  C   UNL A   1      31.163  22.599  25.312  1.00  0.00     0.114 C 
ATOM     16  C   UNL A   1      32.239  20.198  24.769  1.00  0.00     0.003 A 
ATOM     17  C   UNL A   1      32.504  19.702  23.486  1.00  0.00     0.046 A 
ATOM     18  H   UNL A   1      32.711  20.834  21.691  1.00  0.00     0.166 HD
ATOM     19  C   UNL A   1      32.496  19.364  25.874  1.00  0.00     0.010 A 
ATOM     20  C   UNL A   1      32.718  18.350  23.223  1.00  0.00     0.026 A 
ATOM     21  C   UNL A   1      32.946  18.057  25.630  1.00  0.00     0.001 A 
ATOM     22  C   UNL A   1      32.976  17.540  24.333  1.00  0.00     0.002 A 
BRANCH   8  23
ATOM     23  C   UNL A   1      34.840  22.856  24.478  1.00  0.00     0.016 A 
ATOM     24  C   UNL A   1      37.445  22.598  25.704  1.00  0.00     0.037 A 
ATOM     25  C   UNL A   1      36.706  23.773  25.798  1.00  0.00     0.026 A 
ATOM     26  C   UNL A   1      36.731  21.497  25.213  1.00  0.00     0.026 A 
ATOM     27  C   UNL A   1      35.431  23.895  25.217  1.00  0.00     0.012 A 
ATOM     28  C   UNL A   1      35.455  21.610  24.625  1.00  0.00     0.012 A 
BRANCH  24  29
ATOM     29  N   UNL A   1      38.795  22.512  26.041  1.00  0.00    -0.372 N 
BRANCH  29  30
ATOM     30  C   UNL A   1      39.311  23.456  27.059  1.00  0.00     0.113 C 
ATOM     31  C   UNL A   1      39.727  24.805  26.491  1.00  0.00     0.027 C 
ENDBRANCH  29  30
BRANCH  29  32
ATOM     32  C   UNL A   1      39.561  21.267  25.877  1.00  0.00     0.113 C 
ATOM     33  C   UNL A   1      40.501  20.947  27.038  1.00  0.00     0.027 C 
ENDBRANCH  29  32
ENDBRANCH  24  29
ENDBRANCH   8  23
ENDBRANCH   4   7
ENDBRANCH   2   3
ENDBRANCH   1   2
BRANCH   1  34
ATOM     34  C   UNL A   1      32.566  28.690  26.848  1.00  0.00     0.118 C 
BRANCH  34  35
ATOM     35  N   UNL A   1      32.265  30.113  26.811  1.00  0.00    -0.352 N 
ATOM     36  C   UNL A   1      33.036  31.184  27.207  1.00  0.00     0.251 C 
ATOM     37  H   UNL A   1      31.380  30.346  26.448  1.00  0.00     0.163 HD
ATOM     38  O   UNL A   1      32.558  32.317  27.149  1.00  0.00    -0.269 OA
BRANCH  36  39
ATOM     39  C   UNL A   1      34.409  30.994  27.739  1.00  0.00     0.039 A 
ATOM     40  C   UNL A   1      35.223  32.120  27.906  1.00  0.00     0.014 A 
ATOM     41  C   UNL A   1      34.911  29.731  28.061  1.00  0.00     0.014 A 
ATOM     42  C   UNL A   1      36.499  31.990  28.465  1.00  0.00     0.010 A 
ATOM     43  C   UNL A   1      36.160  29.610  28.680  1.00  0.00     0.010 A 
ATOM     44  C   UNL A   1      36.966  30.739  28.898  1.00  0.00    -0.014 A 
BRANCH  44  45
ATOM     45  C   UNL A   1      38.267  30.603  29.615  1.00  0.00     0.031 A 
ATOM     46  C   UNL A   1      39.400  29.809  29.019  1.00  0.00     0.074 A 
ATOM     47  C   UNL A   1      38.403  31.128  30.850  1.00  0.00     0.049 A 
ATOM     48  N   UNL A   1      40.577  29.542  29.527  1.00  0.00    -0.248 NA
ATOM     49  C   UNL A   1      39.177  29.221  27.689  1.00  0.00     0.031 C 
ATOM     50  C   UNL A   1      37.364  31.860  31.576  1.00  0.00     0.029 A 
ATOM     51  N   UNL A   1      39.461  31.102  31.727  1.00  0.00    -0.354 N 
ATOM     52  C   UNL A   1      41.221  28.732  28.600  1.00  0.00     0.074 A 
ATOM     53  C   UNL A   1      40.292  28.527  27.508  1.00  0.00     0.031 C 
ATOM     54  C   UNL A   1      37.834  32.214  32.783  1.00  0.00     0.029 A 
ATOM     55  C   UNL A   1      39.193  31.704  32.935  1.00  0.00     0.049 A 
ATOM     56  H   UNL A   1      40.330  30.690  31.511  1.00  0.00     0.167 HD
ATOM     57  C   UNL A   1      42.477  28.221  28.639  1.00  0.00     0.034 A 
ATOM     58  C   UNL A   1      39.944  31.819  34.049  1.00  0.00     0.034 A 
ATOM     59  C   UNL A   1      43.412  28.447  29.710  1.00  0.00     0.049 A 
ATOM     60  C   UNL A   1      41.340  31.257  34.060  1.00  0.00     0.074 A 
ATOM     61  C   UNL A   1      44.732  28.039  29.798  1.00  0.00     0.029 A 
ATOM     62  N   UNL A   1      43.126  29.121  30.887  1.00  0.00    -0.354 N 
ATOM     63  N   UNL A   1      41.983  30.625  33.108  1.00  0.00    -0.248 NA
ATOM     64  C   UNL A   1      42.127  31.453  35.286  1.00  0.00     0.031 C 
ATOM     65  C   UNL A   1      45.234  28.436  31.041  1.00  0.00     0.029 A 
ATOM     66  C   UNL A   1      44.238  29.127  31.713  1.00  0.00     0.049 A 
ATOM     67  H   UNL A   1      42.259  29.535  31.104  1.00  0.00     0.167 HD
ATOM     68  C   UNL A   1      43.260  30.386  33.605  1.00  0.00     0.074 A 
ATOM     69  C   UNL A   1      43.305  30.956  34.935  1.00  0.00     0.031 C 
ATOM     70  C   UNL A   1      44.296  29.740  33.015  1.00  0.00     0.034 A 
BRANCH  57  71
ATOM     71  C   UNL A   1      42.935  27.393  27.465  1.00  0.00     0.023 A 
ATOM     72  C   UNL A   1      43.442  28.032  26.315  1.00  0.00     0.012 A 
ATOM     73  C   UNL A   1      42.931  25.985  27.525  1.00  0.00     0.148 A 
ATOM     74  C   UNL A   1      43.901  27.286  25.230  1.00  0.00     0.002 A 
ATOM     75  C   UNL A   1      43.434  25.248  26.459  1.00  0.00     0.091 A 
ATOM     76  F   UNL A   1      42.431  25.392  28.619  1.00  0.00    -0.205 F 
ATOM     77  C   UNL A   1      43.906  25.896  25.306  1.00  0.00     0.022 A 
BRANCH  75  78
ATOM     78  S   UNL A   1      43.563  23.456  26.493  1.00  0.00     0.127 S 
ATOM     79  O   UNL A   1      42.705  23.079  25.369  1.00  0.00    -0.237 OA
ATOM     80  O   UNL A   1      44.994  23.248  26.260  1.00  0.00    -0.237 OA
ATOM     81  O   UNL A   1      43.092  23.042  27.803  1.00  0.00    -0.744 OA
ENDBRANCH  75  78
ENDBRANCH  57  71
BRANCH  58  82
ATOM     82  C   UNL A   1      39.408  32.541  35.239  1.00  0.00     0.023 A 
ATOM     83  C   UNL A   1      39.544  33.941  35.321  1.00  0.00     0.012 A 
ATOM     84  C   UNL A   1      38.752  31.853  36.278  1.00  0.00     0.148 A 
ATOM     85  C   UNL A   1      39.069  34.638  36.432  1.00  0.00     0.002 A 
ATOM     86  C   UNL A   1      38.229  32.561  37.354  1.00  0.00     0.091 A 
ATOM     87  F   UNL A   1      38.641  30.520  36.186  1.00  0.00    -0.205 F 
ATOM     88  C   UNL A   1      38.404  33.950  37.443  1.00  0.00     0.022 A 
BRANCH  86  89
ATOM     89  S   UNL A   1      37.243  31.776  38.634  1.00  0.00     0.127 S 
ATOM     90  O   UNL A   1      37.056  30.432  38.085  1.00  0.00    -0.237 OA
ATOM     91  O   UNL A   1      38.140  31.848  39.790  1.00  0.00    -0.237 OA
ATOM     92  O   UNL A   1      36.039  32.581  38.756  1.00  0.00    -0.744 OA
ENDBRANCH  86  89
ENDBRANCH  58  82
BRANCH  70  93
ATOM     93  C   UNL A   1      45.594  29.650  33.778  1.00  0.00     0.023 A 
ATOM     94  C   UNL A   1      46.567  30.660  33.640  1.00  0.00     0.012 A 
ATOM     95  C   UNL A   1      45.817  28.596  34.686  1.00  0.00     0.148 A 
ATOM     96  C   UNL A   1      47.756  30.602  34.367  1.00  0.00     0.002 A 
ATOM     97  C   UNL A   1      46.981  28.574  35.446  1.00  0.00     0.091 A 
ATOM     98  F   UNL A   1      44.888  27.634  34.792  1.00  0.00    -0.205 F 
ATOM     99  C   UNL A   1      47.957  29.568  35.278  1.00  0.00     0.022 A 
BRANCH  97 100
ATOM    100  S   UNL A   1      47.283  27.336  36.713  1.00  0.00     0.127 S 
ATOM    101  O   UNL A   1      46.126  27.520  37.590  1.00  0.00    -0.237 OA
ATOM    102  O   UNL A   1      47.270  26.093  35.941  1.00  0.00    -0.237 OA
ATOM    103  O   UNL A   1      48.571  27.668  37.304  1.00  0.00    -0.744 OA
ENDBRANCH  97 100
ENDBRANCH  70  93
ENDBRANCH  44  45
ENDBRANCH  36  39
ENDBRANCH  34  35
ENDBRANCH   1  34
TORSDOF 17
ENDMDL
