MODEL 1
REMARK VINA RESULT:     -11.6      0.000      0.000
REMARK SMILES COc1ccc(OC)c(/C=C2\S/C(=[NH+]\c3ccc(C(=O)NCCCNC(=O)c4ccc(-c5c6nc(c(-c7cccc(S(=O)(=O)[O-])c7F)c7ccc([nH]7)c(-c7cccc(S(=O)(=O)[O-])c7F)c7nc(c(-c8cccc(S(=O)(=O)[O-])c8F)c8ccc5[nH]8)C=C7)C=C6)cc4)cc3)N(C)C2=O)c1
REMARK SMILES IDX 23 1 22 2 21 3 19 4 20 5 18 7 15 8 16 9 92 10 17 11 91 12
REMARK SMILES IDX 14 13 10 14 11 15 12 16 95 17 13 18 93 19 96 20 94 21 9 23
REMARK SMILES IDX 3 24 4 25 97 26 5 27 6 28 2 29 1 30 7 31 8 32 24 33 25 34
REMARK SMILES IDX 26 35 27 37 28 38 29 39 90 40 30 41 89 42 31 43 32 44 33 45
REMARK SMILES IDX 83 46 34 47 88 48 82 49 84 50 35 51 87 52 81 53 80 54 36 56
REMARK SMILES IDX 68 57 48 58 67 59 49 60 52 61 66 62 85 63 50 64 51 65 65 67
REMARK SMILES IDX 86 68 53 69 37 70 38 71 46 72 39 73 41 74 47 75 40 76 42 77
REMARK SMILES IDX 43 78 44 79 45 80 69 81 70 82 78 83 71 84 73 85 79 86 72 87
REMARK SMILES IDX 74 88 75 89 76 90 77 91 54 92 55 93 63 94 56 95 58 96 64 97
REMARK SMILES IDX 57 98 59 99 60 100 61 101 62 102
REMARK H PARENT 21 6 14 22 25 36 84 55 52 66
REMARK Flexibility Score: inf
ROOT
ATOM      1  C   UNL A   1      32.496  28.570  27.259  1.00  0.00     0.042 C 
ENDROOT
BRANCH   1   2
ATOM      2  C   UNL A   1      32.159  27.167  26.751  1.00  0.00     0.118 C 
BRANCH   2   3
ATOM      3  N   UNL A   1      31.065  27.188  25.795  1.00  0.00    -0.352 N 
ATOM      4  C   UNL A   1      30.463  26.218  25.035  1.00  0.00     0.251 C 
ATOM      5  O   UNL A   1      29.473  26.553  24.382  1.00  0.00    -0.269 OA
ATOM      6  H   UNL A   1      30.678  28.084  25.664  1.00  0.00     0.163 HD
BRANCH   4   7
ATOM      7  C   UNL A   1      30.896  24.790  25.000  1.00  0.00     0.040 A 
ATOM      8  C   UNL A   1      31.681  22.094  24.677  1.00  0.00     0.125 A 
ATOM      9  C   UNL A   1      32.073  23.052  23.744  1.00  0.00     0.052 A 
ATOM     10  C   UNL A   1      31.001  22.513  25.825  1.00  0.00     0.052 A 
ATOM     11  C   UNL A   1      31.662  24.383  23.893  1.00  0.00     0.018 A 
ATOM     12  C   UNL A   1      30.629  23.852  25.997  1.00  0.00     0.018 A 
BRANCH   8  13
ATOM     13  N   UNL A   1      31.879  20.714  24.489  1.00  0.00    -0.234 N 
ATOM     14  C   UNL A   1      36.739  20.212  25.008  1.00  0.00     0.036 C 
ATOM     15  C   UNL A   1      35.446  19.919  25.202  1.00  0.00     0.110 C 
ATOM     16  S   UNL A   1      34.245  20.959  25.844  1.00  0.00     0.007 SA
ATOM     17  C   UNL A   1      34.788  18.706  24.640  1.00  0.00     0.348 C 
ATOM     18  C   UNL A   1      33.006  20.202  24.870  1.00  0.00     0.324 C 
ATOM     19  N   UNL A   1      33.438  18.957  24.480  1.00  0.00    -0.189 N 
ATOM     20  O   UNL A   1      35.402  17.709  24.284  1.00  0.00    -0.240 OA
ATOM     21  C   UNL A   1      32.593  18.064  23.720  1.00  0.00     0.301 C 
ATOM     22  H   UNL A   1      31.182  20.152  24.080  1.00  0.00     0.313 HD
BRANCH  14  23
ATOM     23  C   UNL A   1      37.338  21.528  25.297  1.00  0.00     0.022 A 
ATOM     24  C   UNL A   1      39.045  22.778  26.489  1.00  0.00     0.119 A 
ATOM     25  C   UNL A   1      38.430  23.978  26.147  1.00  0.00     0.050 A 
ATOM     26  C   UNL A   1      38.494  21.557  26.091  1.00  0.00     0.058 A 
ATOM     27  C   UNL A   1      37.300  23.965  25.335  1.00  0.00     0.051 A 
ATOM     28  C   UNL A   1      36.777  22.753  24.874  1.00  0.00     0.126 A 
BRANCH  24  29
ATOM     29  O   UNL A   1      40.150  22.852  27.294  1.00  0.00    -0.497 OA
ATOM     30  C   UNL A   1      40.749  21.571  27.477  1.00  0.00     0.278 C 
ENDBRANCH  24  29
BRANCH  28  31
ATOM     31  O   UNL A   1      35.647  22.890  24.106  1.00  0.00    -0.496 OA
ATOM     32  C   UNL A   1      35.890  23.050  22.711  1.00  0.00     0.278 C 
ENDBRANCH  28  31
ENDBRANCH  14  23
ENDBRANCH   8  13
ENDBRANCH   4   7
ENDBRANCH   2   3
ENDBRANCH   1   2
BRANCH   1  33
ATOM     33  C   UNL A   1      33.602  29.269  26.467  1.00  0.00     0.118 C 
BRANCH  33  34
ATOM     34  N   UNL A   1      33.519  30.721  26.567  1.00  0.00    -0.352 N 
ATOM     35  C   UNL A   1      34.195  31.595  27.383  1.00  0.00     0.251 C 
ATOM     36  H   UNL A   1      32.877  31.141  25.951  1.00  0.00     0.163 HD
ATOM     37  O   UNL A   1      33.819  32.763  27.443  1.00  0.00    -0.269 OA
BRANCH  35  38
ATOM     38  C   UNL A   1      35.356  31.155  28.192  1.00  0.00     0.039 A 
ATOM     39  C   UNL A   1      36.498  31.963  28.220  1.00  0.00     0.014 A 
ATOM     40  C   UNL A   1      35.356  29.932  28.869  1.00  0.00     0.014 A 
ATOM     41  C   UNL A   1      37.616  31.572  28.965  1.00  0.00     0.010 A 
ATOM     42  C   UNL A   1      36.449  29.571  29.659  1.00  0.00     0.010 A 
ATOM     43  C   UNL A   1      37.592  30.384  29.712  1.00  0.00    -0.014 A 
BRANCH  43  44
ATOM     44  C   UNL A   1      38.742  29.986  30.567  1.00  0.00     0.031 A 
ATOM     45  C   UNL A   1      38.929  30.595  31.931  1.00  0.00     0.074 A 
ATOM     46  C   UNL A   1      39.669  29.138  30.080  1.00  0.00     0.049 A 
ATOM     47  N   UNL A   1      39.901  30.413  32.789  1.00  0.00    -0.248 NA
ATOM     48  C   UNL A   1      37.903  31.550  32.382  1.00  0.00     0.031 C 
ATOM     49  C   UNL A   1      39.644  28.536  28.745  1.00  0.00     0.029 A 
ATOM     50  N   UNL A   1      40.828  28.659  30.637  1.00  0.00    -0.354 N 
ATOM     51  C   UNL A   1      39.626  31.255  33.861  1.00  0.00     0.074 A 
ATOM     52  C   UNL A   1      38.409  31.967  33.535  1.00  0.00     0.031 C 
ATOM     53  C   UNL A   1      40.737  27.774  28.584  1.00  0.00     0.029 A 
ATOM     54  C   UNL A   1      41.553  27.849  29.793  1.00  0.00     0.049 A 
ATOM     55  H   UNL A   1      41.115  28.873  31.554  1.00  0.00     0.167 HD
ATOM     56  C   UNL A   1      40.308  31.402  35.023  1.00  0.00     0.034 A 
ATOM     57  C   UNL A   1      42.743  27.242  29.966  1.00  0.00     0.034 A 
ATOM     58  C   UNL A   1      41.488  30.656  35.367  1.00  0.00     0.049 A 
ATOM     59  C   UNL A   1      43.457  27.388  31.282  1.00  0.00     0.074 A 
ATOM     60  C   UNL A   1      42.193  30.661  36.559  1.00  0.00     0.029 A 
ATOM     61  N   UNL A   1      42.145  29.777  34.520  1.00  0.00    -0.354 N 
ATOM     62  N   UNL A   1      43.091  28.056  32.349  1.00  0.00    -0.248 NA
ATOM     63  C   UNL A   1      44.731  26.669  31.432  1.00  0.00     0.031 C 
ATOM     64  C   UNL A   1      43.283  29.796  36.427  1.00  0.00     0.029 A 
ATOM     65  C   UNL A   1      43.251  29.241  35.158  1.00  0.00     0.049 A 
ATOM     66  H   UNL A   1      41.866  29.564  33.601  1.00  0.00     0.167 HD
ATOM     67  C   UNL A   1      44.071  27.815  33.306  1.00  0.00     0.074 A 
ATOM     68  C   UNL A   1      45.034  26.919  32.700  1.00  0.00     0.031 C 
ATOM     69  C   UNL A   1      44.174  28.308  34.565  1.00  0.00     0.034 A 
BRANCH  56  70
ATOM     70  C   UNL A   1      39.755  32.363  36.043  1.00  0.00     0.023 A 
ATOM     71  C   UNL A   1      38.860  31.891  37.023  1.00  0.00     0.012 A 
ATOM     72  C   UNL A   1      40.164  33.711  36.073  1.00  0.00     0.148 A 
ATOM     73  C   UNL A   1      38.357  32.748  38.001  1.00  0.00     0.002 A 
ATOM     74  C   UNL A   1      39.689  34.552  37.074  1.00  0.00     0.091 A 
ATOM     75  F   UNL A   1      40.999  34.150  35.120  1.00  0.00    -0.205 F 
ATOM     76  C   UNL A   1      38.778  34.075  38.031  1.00  0.00     0.022 A 
BRANCH  74  77
ATOM     77  S   UNL A   1      40.229  36.257  37.244  1.00  0.00     0.127 S 
ATOM     78  O   UNL A   1      41.657  36.089  37.507  1.00  0.00    -0.237 OA
ATOM     79  O   UNL A   1      39.914  36.815  35.928  1.00  0.00    -0.237 OA
ATOM     80  O   UNL A   1      39.450  36.816  38.340  1.00  0.00    -0.744 OA
ENDBRANCH  74  77
ENDBRANCH  56  70
BRANCH  57  81
ATOM     81  C   UNL A   1      43.300  26.379  28.885  1.00  0.00     0.023 A 
ATOM     82  C   UNL A   1      42.892  25.033  28.801  1.00  0.00     0.012 A 
ATOM     83  C   UNL A   1      44.195  26.887  27.924  1.00  0.00     0.148 A 
ATOM     84  C   UNL A   1      43.385  24.202  27.796  1.00  0.00     0.002 A 
ATOM     85  C   UNL A   1      44.641  26.067  26.894  1.00  0.00     0.091 A 
ATOM     86  F   UNL A   1      44.586  28.165  28.030  1.00  0.00    -0.205 F 
ATOM     87  C   UNL A   1      44.250  24.720  26.836  1.00  0.00     0.022 A 
BRANCH  85  88
ATOM     88  S   UNL A   1      45.645  26.690  25.540  1.00  0.00     0.127 S 
ATOM     89  O   UNL A   1      46.877  27.067  26.229  1.00  0.00    -0.237 OA
ATOM     90  O   UNL A   1      45.759  25.513  24.677  1.00  0.00    -0.237 OA
ATOM     91  O   UNL A   1      44.879  27.783  24.958  1.00  0.00    -0.744 OA
ENDBRANCH  85  88
ENDBRANCH  57  81
BRANCH  69  92
ATOM     92  C   UNL A   1      45.361  27.880  35.386  1.00  0.00     0.023 A 
ATOM     93  C   UNL A   1      46.532  28.663  35.376  1.00  0.00     0.012 A 
ATOM     94  C   UNL A   1      45.292  26.750  36.225  1.00  0.00     0.148 A 
ATOM     95  C   UNL A   1      47.626  28.314  36.166  1.00  0.00     0.002 A 
ATOM     96  C   UNL A   1      46.370  26.432  37.044  1.00  0.00     0.091 A 
ATOM     97  F   UNL A   1      44.177  26.005  36.206  1.00  0.00    -0.205 F 
ATOM     98  C   UNL A   1      47.541  27.206  37.008  1.00  0.00     0.022 A 
BRANCH  96  99
ATOM     99  S   UNL A   1      46.315  25.079  38.223  1.00  0.00     0.127 S 
ATOM    100  O   UNL A   1      47.561  25.273  38.960  1.00  0.00    -0.237 OA
ATOM    101  O   UNL A   1      45.102  25.378  38.987  1.00  0.00    -0.237 OA
ATOM    102  O   UNL A   1      46.239  23.860  37.428  1.00  0.00    -0.744 OA
ENDBRANCH  96  99
ENDBRANCH  69  92
ENDBRANCH  43  44
ENDBRANCH  35  38
ENDBRANCH  33  34
ENDBRANCH   1  33
TORSDOF 17
ENDMDL
MODEL 2
REMARK VINA RESULT:     -11.4      2.019      2.586
REMARK SMILES COc1ccc(OC)c(/C=C2\S/C(=[NH+]\c3ccc(C(=O)NCCCNC(=O)c4ccc(-c5c6nc(c(-c7cccc(S(=O)(=O)[O-])c7F)c7ccc([nH]7)c(-c7cccc(S(=O)(=O)[O-])c7F)c7nc(c(-c8cccc(S(=O)(=O)[O-])c8F)c8ccc5[nH]8)C=C7)C=C6)cc4)cc3)N(C)C2=O)c1
REMARK SMILES IDX 23 1 22 2 21 3 19 4 20 5 18 7 15 8 16 9 92 10 17 11 91 12
REMARK SMILES IDX 14 13 10 14 11 15 12 16 95 17 13 18 93 19 96 20 94 21 9 23
REMARK SMILES IDX 3 24 4 25 97 26 5 27 6 28 2 29 1 30 7 31 8 32 24 33 25 34
REMARK SMILES IDX 26 35 27 37 28 38 29 39 90 40 30 41 89 42 31 43 32 44 33 45
REMARK SMILES IDX 83 46 34 47 88 48 82 49 84 50 35 51 87 52 81 53 80 54 36 56
REMARK SMILES IDX 68 57 48 58 67 59 49 60 52 61 66 62 85 63 50 64 51 65 65 67
REMARK SMILES IDX 86 68 53 69 37 70 38 71 46 72 39 73 41 74 47 75 40 76 42 77
REMARK SMILES IDX 43 78 44 79 45 80 69 81 70 82 78 83 71 84 73 85 79 86 72 87
REMARK SMILES IDX 74 88 75 89 76 90 77 91 54 92 55 93 63 94 56 95 58 96 64 97
REMARK SMILES IDX 57 98 59 99 60 100 61 101 62 102
REMARK H PARENT 21 6 14 22 25 36 84 55 52 66
REMARK Flexibility Score: inf
ROOT
ATOM      1  C   UNL A   1      32.475  28.321  26.187  1.00  0.00     0.042 C 
ENDROOT
BRANCH   1   2
ATOM      2  C   UNL A   1      32.563  27.008  25.409  1.00  0.00     0.118 C 
BRANCH   2   3
ATOM      3  N   UNL A   1      32.071  27.154  24.050  1.00  0.00    -0.352 N 
ATOM      4  C   UNL A   1      31.727  26.253  23.074  1.00  0.00     0.251 C 
ATOM      5  O   UNL A   1      31.240  26.710  22.038  1.00  0.00    -0.269 OA
ATOM      6  H   UNL A   1      31.963  28.092  23.771  1.00  0.00     0.163 HD
BRANCH   4   7
ATOM      7  C   UNL A   1      31.852  24.773  23.216  1.00  0.00     0.040 A 
ATOM      8  C   UNL A   1      32.130  21.960  23.229  1.00  0.00     0.125 A 
ATOM      9  C   UNL A   1      32.949  22.739  22.414  1.00  0.00     0.052 A 
ATOM     10  C   UNL A   1      31.262  22.601  24.117  1.00  0.00     0.052 A 
ATOM     11  C   UNL A   1      32.793  24.130  22.390  1.00  0.00     0.018 A 
ATOM     12  C   UNL A   1      31.137  23.996  24.127  1.00  0.00     0.018 A 
BRANCH   8  13
ATOM     13  N   UNL A   1      32.087  20.555  23.156  1.00  0.00    -0.234 N 
ATOM     14  C   UNL A   1      36.463  19.217  24.944  1.00  0.00     0.036 C 
ATOM     15  C   UNL A   1      35.130  19.187  24.806  1.00  0.00     0.110 C 
ATOM     16  S   UNL A   1      34.043  20.484  25.070  1.00  0.00     0.007 SA
ATOM     17  C   UNL A   1      34.403  18.069  24.142  1.00  0.00     0.348 C 
ATOM     18  C   UNL A   1      32.958  19.881  23.838  1.00  0.00     0.324 C 
ATOM     19  N   UNL A   1      33.213  18.548  23.625  1.00  0.00    -0.189 N 
ATOM     20  O   UNL A   1      34.872  16.948  23.999  1.00  0.00    -0.240 OA
ATOM     21  C   UNL A   1      32.421  17.760  22.708  1.00  0.00     0.301 C 
ATOM     22  H   UNL A   1      31.415  20.097  22.601  1.00  0.00     0.313 HD
BRANCH  14  23
ATOM     23  C   UNL A   1      37.223  20.422  25.326  1.00  0.00     0.022 A 
ATOM     24  C   UNL A   1      37.235  22.839  25.569  1.00  0.00     0.119 A 
ATOM     25  C   UNL A   1      38.611  22.829  25.774  1.00  0.00     0.050 A 
ATOM     26  C   UNL A   1      36.543  21.649  25.321  1.00  0.00     0.058 A 
ATOM     27  C   UNL A   1      39.292  21.616  25.812  1.00  0.00     0.051 A 
ATOM     28  C   UNL A   1      38.602  20.413  25.633  1.00  0.00     0.126 A 
BRANCH  24  29
ATOM     29  O   UNL A   1      36.619  24.061  25.536  1.00  0.00    -0.497 OA
ATOM     30  C   UNL A   1      35.226  23.936  25.261  1.00  0.00     0.278 C 
ENDBRANCH  24  29
BRANCH  28  31
ATOM     31  O   UNL A   1      39.403  19.299  25.668  1.00  0.00    -0.496 OA
ATOM     32  C   UNL A   1      40.743  19.543  26.086  1.00  0.00     0.278 C 
ENDBRANCH  28  31
ENDBRANCH  14  23
ENDBRANCH   8  13
ENDBRANCH   4   7
ENDBRANCH   2   3
ENDBRANCH   1   2
BRANCH   1  33
ATOM     33  C   UNL A   1      33.472  29.385  25.726  1.00  0.00     0.118 C 
BRANCH  33  34
ATOM     34  N   UNL A   1      33.136  30.712  26.228  1.00  0.00    -0.352 N 
ATOM     35  C   UNL A   1      33.686  31.440  27.254  1.00  0.00     0.251 C 
ATOM     36  H   UNL A   1      32.396  31.157  25.754  1.00  0.00     0.163 HD
ATOM     37  O   UNL A   1      33.110  32.455  27.638  1.00  0.00    -0.269 OA
BRANCH  35  38
ATOM     38  C   UNL A   1      34.949  31.021  27.906  1.00  0.00     0.039 A 
ATOM     39  C   UNL A   1      36.000  31.942  27.984  1.00  0.00     0.014 A 
ATOM     40  C   UNL A   1      35.131  29.721  28.383  1.00  0.00     0.014 A 
ATOM     41  C   UNL A   1      37.210  31.576  28.583  1.00  0.00     0.010 A 
ATOM     42  C   UNL A   1      36.318  29.374  29.033  1.00  0.00     0.010 A 
ATOM     43  C   UNL A   1      37.371  30.296  29.136  1.00  0.00    -0.014 A 
BRANCH  43  44
ATOM     44  C   UNL A   1      38.623  29.911  29.841  1.00  0.00     0.031 A 
ATOM     45  C   UNL A   1      38.930  30.458  31.210  1.00  0.00     0.074 A 
ATOM     46  C   UNL A   1      39.526  29.133  29.213  1.00  0.00     0.049 A 
ATOM     47  N   UNL A   1      39.996  30.280  31.948  1.00  0.00    -0.248 NA
ATOM     48  C   UNL A   1      37.920  31.338  31.819  1.00  0.00     0.031 C 
ATOM     49  C   UNL A   1      39.381  28.600  27.856  1.00  0.00     0.029 A 
ATOM     50  N   UNL A   1      40.758  28.683  29.616  1.00  0.00    -0.354 N 
ATOM     51  C   UNL A   1      39.805  31.052  33.088  1.00  0.00     0.074 A 
ATOM     52  C   UNL A   1      38.530  31.720  32.934  1.00  0.00     0.031 C 
ATOM     53  C   UNL A   1      40.482  27.900  27.538  1.00  0.00     0.029 A 
ATOM     54  C   UNL A   1      41.420  27.953  28.656  1.00  0.00     0.049 A 
ATOM     55  H   UNL A   1      41.133  28.864  30.508  1.00  0.00     0.167 HD
ATOM     56  C   UNL A   1      40.601  31.171  34.178  1.00  0.00     0.034 A 
ATOM     57  C   UNL A   1      42.647  27.395  28.668  1.00  0.00     0.034 A 
ATOM     58  C   UNL A   1      41.843  30.466  34.353  1.00  0.00     0.049 A 
ATOM     59  C   UNL A   1      43.493  27.508  29.907  1.00  0.00     0.074 A 
ATOM     60  C   UNL A   1      42.671  30.445  35.462  1.00  0.00     0.029 A 
ATOM     61  N   UNL A   1      42.440  29.663  33.394  1.00  0.00    -0.354 N 
ATOM     62  N   UNL A   1      43.217  28.102  31.042  1.00  0.00    -0.248 NA
ATOM     63  C   UNL A   1      44.804  26.844  29.881  1.00  0.00     0.031 C 
ATOM     64  C   UNL A   1      43.776  29.640  35.167  1.00  0.00     0.029 A 
ATOM     65  C   UNL A   1      43.630  29.150  33.880  1.00  0.00     0.049 A 
ATOM     66  H   UNL A   1      42.072  29.485  32.499  1.00  0.00     0.167 HD
ATOM     67  C   UNL A   1      44.303  27.861  31.875  1.00  0.00     0.074 A 
ATOM     68  C   UNL A   1      45.232  27.044  31.122  1.00  0.00     0.031 C 
ATOM     69  C   UNL A   1      44.522  28.293  33.142  1.00  0.00     0.034 A 
BRANCH  56  70
ATOM     70  C   UNL A   1      40.122  32.052  35.303  1.00  0.00     0.023 A 
ATOM     71  C   UNL A   1      40.542  33.396  35.353  1.00  0.00     0.012 A 
ATOM     72  C   UNL A   1      39.212  31.576  36.267  1.00  0.00     0.148 A 
ATOM     73  C   UNL A   1      40.089  34.246  36.362  1.00  0.00     0.002 A 
ATOM     74  C   UNL A   1      38.733  32.439  37.247  1.00  0.00     0.091 A 
ATOM     75  F   UNL A   1      38.838  30.290  36.216  1.00  0.00    -0.205 F 
ATOM     76  C   UNL A   1      39.179  33.771  37.302  1.00  0.00     0.022 A 
BRANCH  74  77
ATOM     77  S   UNL A   1      37.502  31.944  38.457  1.00  0.00     0.127 S 
ATOM     78  O   UNL A   1      38.253  32.062  39.707  1.00  0.00    -0.237 OA
ATOM     79  O   UNL A   1      36.462  32.957  38.275  1.00  0.00    -0.237 OA
ATOM     80  O   UNL A   1      37.102  30.593  38.091  1.00  0.00    -0.744 OA
ENDBRANCH  74  77
ENDBRANCH  56  70
BRANCH  57  81
ATOM     81  C   UNL A   1      43.120  26.615  27.488  1.00  0.00     0.023 A 
ATOM     82  C   UNL A   1      43.824  27.278  26.464  1.00  0.00     0.012 A 
ATOM     83  C   UNL A   1      42.912  25.226  27.392  1.00  0.00     0.148 A 
ATOM     84  C   UNL A   1      44.290  26.576  25.353  1.00  0.00     0.002 A 
ATOM     85  C   UNL A   1      43.425  24.524  26.307  1.00  0.00     0.091 A 
ATOM     86  F   UNL A   1      42.224  24.615  28.367  1.00  0.00    -0.205 F 
ATOM     87  C   UNL A   1      44.101  25.199  25.278  1.00  0.00     0.022 A 
BRANCH  85  88
ATOM     88  S   UNL A   1      43.346  22.732  26.201  1.00  0.00     0.127 S 
ATOM     89  O   UNL A   1      42.666  22.388  27.447  1.00  0.00    -0.237 OA
ATOM     90  O   UNL A   1      42.550  22.531  24.990  1.00  0.00    -0.237 OA
ATOM     91  O   UNL A   1      44.729  22.288  26.086  1.00  0.00    -0.744 OA
ENDBRANCH  85  88
ENDBRANCH  57  81
BRANCH  69  92
ATOM     92  C   UNL A   1      45.808  27.881  33.807  1.00  0.00     0.023 A 
ATOM     93  C   UNL A   1      46.914  28.752  33.781  1.00  0.00     0.012 A 
ATOM     94  C   UNL A   1      45.897  26.671  34.523  1.00  0.00     0.148 A 
ATOM     95  C   UNL A   1      48.099  28.414  34.433  1.00  0.00     0.002 A 
ATOM     96  C   UNL A   1      47.068  26.359  35.207  1.00  0.00     0.091 A 
ATOM     97  F   UNL A   1      44.841  25.844  34.519  1.00  0.00    -0.205 F 
ATOM     98  C   UNL A   1      48.172  27.224  35.154  1.00  0.00     0.022 A 
BRANCH  96  99
ATOM     99  S   UNL A   1      47.218  24.894  36.234  1.00  0.00     0.127 S 
ATOM    100  O   UNL A   1      48.592  25.009  36.720  1.00  0.00    -0.237 OA
ATOM    101  O   UNL A   1      46.191  25.118  37.253  1.00  0.00    -0.237 OA
ATOM    102  O   UNL A   1      46.957  23.762  35.355  1.00  0.00    -0.744 OA
ENDBRANCH  96  99
ENDBRANCH  69  92
ENDBRANCH  43  44
ENDBRANCH  35  38
ENDBRANCH  33  34
ENDBRANCH   1  33
TORSDOF 17
ENDMDL
MODEL 3
REMARK VINA RESULT:     -11.2      3.241      4.747
REMARK SMILES COc1ccc(OC)c(/C=C2\S/C(=[NH+]\c3ccc(C(=O)NCCCNC(=O)c4ccc(-c5c6nc(c(-c7cccc(S(=O)(=O)[O-])c7F)c7ccc([nH]7)c(-c7cccc(S(=O)(=O)[O-])c7F)c7nc(c(-c8cccc(S(=O)(=O)[O-])c8F)c8ccc5[nH]8)C=C7)C=C6)cc4)cc3)N(C)C2=O)c1
REMARK SMILES IDX 23 1 22 2 21 3 19 4 20 5 18 7 15 8 16 9 92 10 17 11 91 12
REMARK SMILES IDX 14 13 10 14 11 15 12 16 95 17 13 18 93 19 96 20 94 21 9 23
REMARK SMILES IDX 3 24 4 25 97 26 5 27 6 28 2 29 1 30 7 31 8 32 24 33 25 34
REMARK SMILES IDX 26 35 27 37 28 38 29 39 90 40 30 41 89 42 31 43 32 44 33 45
REMARK SMILES IDX 83 46 34 47 88 48 82 49 84 50 35 51 87 52 81 53 80 54 36 56
REMARK SMILES IDX 68 57 48 58 67 59 49 60 52 61 66 62 85 63 50 64 51 65 65 67
REMARK SMILES IDX 86 68 53 69 37 70 38 71 46 72 39 73 41 74 47 75 40 76 42 77
REMARK SMILES IDX 43 78 44 79 45 80 69 81 70 82 78 83 71 84 73 85 79 86 72 87
REMARK SMILES IDX 74 88 75 89 76 90 77 91 54 92 55 93 63 94 56 95 58 96 64 97
REMARK SMILES IDX 57 98 59 99 60 100 61 101 62 102
REMARK H PARENT 21 6 14 22 25 36 84 55 52 66
REMARK Flexibility Score: inf
ROOT
ATOM      1  C   UNL A   1      35.060  30.440  27.888  1.00  0.00     0.042 C 
ENDROOT
BRANCH   1   2
ATOM      2  C   UNL A   1      33.723  29.741  27.644  1.00  0.00     0.118 C 
BRANCH   2   3
ATOM      3  N   UNL A   1      32.700  30.674  27.201  1.00  0.00    -0.352 N 
ATOM      4  C   UNL A   1      31.872  30.709  26.108  1.00  0.00     0.251 C 
ATOM      5  O   UNL A   1      31.029  31.608  26.075  1.00  0.00    -0.269 OA
ATOM      6  H   UNL A   1      32.578  31.438  27.809  1.00  0.00     0.163 HD
BRANCH   4   7
ATOM      7  C   UNL A   1      31.894  29.705  25.004  1.00  0.00     0.040 A 
ATOM      8  C   UNL A   1      32.147  27.925  22.823  1.00  0.00     0.125 A 
ATOM      9  C   UNL A   1      33.283  28.377  23.492  1.00  0.00     0.052 A 
ATOM     10  C   UNL A   1      30.890  28.273  23.326  1.00  0.00     0.052 A 
ATOM     11  C   UNL A   1      33.158  29.278  24.556  1.00  0.00     0.018 A 
ATOM     12  C   UNL A   1      30.762  29.139  24.420  1.00  0.00     0.018 A 
BRANCH   8  13
ATOM     13  N   UNL A   1      32.203  27.187  21.627  1.00  0.00    -0.234 N 
ATOM     14  C   UNL A   1      33.454  22.689  23.156  1.00  0.00     0.036 C 
ATOM     15  C   UNL A   1      32.757  23.603  22.468  1.00  0.00     0.110 C 
ATOM     16  S   UNL A   1      31.867  24.915  23.116  1.00  0.00     0.007 SA
ATOM     17  C   UNL A   1      32.863  23.770  20.992  1.00  0.00     0.348 C 
ATOM     18  C   UNL A   1      32.199  25.894  21.707  1.00  0.00     0.324 C 
ATOM     19  N   UNL A   1      32.546  25.074  20.660  1.00  0.00    -0.189 N 
ATOM     20  O   UNL A   1      33.279  22.897  20.241  1.00  0.00    -0.240 OA
ATOM     21  C   UNL A   1      32.808  25.599  19.339  1.00  0.00     0.301 C 
ATOM     22  H   UNL A   1      32.244  27.639  20.754  1.00  0.00     0.313 HD
BRANCH  14  23
ATOM     23  C   UNL A   1      33.591  22.693  24.625  1.00  0.00     0.022 A 
ATOM     24  C   UNL A   1      32.516  23.035  26.776  1.00  0.00     0.119 A 
ATOM     25  C   UNL A   1      33.749  22.991  27.419  1.00  0.00     0.050 A 
ATOM     26  C   UNL A   1      32.433  22.913  25.386  1.00  0.00     0.058 A 
ATOM     27  C   UNL A   1      34.901  22.742  26.680  1.00  0.00     0.051 A 
ATOM     28  C   UNL A   1      34.825  22.550  25.297  1.00  0.00     0.126 A 
BRANCH  24  29
ATOM     29  O   UNL A   1      31.417  23.289  27.553  1.00  0.00    -0.497 OA
ATOM     30  C   UNL A   1      30.210  22.935  26.881  1.00  0.00     0.278 C 
ENDBRANCH  24  29
BRANCH  28  31
ATOM     31  O   UNL A   1      36.041  22.341  24.695  1.00  0.00    -0.496 OA
ATOM     32  C   UNL A   1      36.898  21.434  25.382  1.00  0.00     0.278 C 
ENDBRANCH  28  31
ENDBRANCH  14  23
ENDBRANCH   8  13
ENDBRANCH   4   7
ENDBRANCH   2   3
ENDBRANCH   1   2
BRANCH   1  33
ATOM     33  C   UNL A   1      34.975  31.967  27.876  1.00  0.00     0.118 C 
BRANCH  33  34
ATOM     34  N   UNL A   1      34.570  32.509  29.167  1.00  0.00    -0.352 N 
ATOM     35  C   UNL A   1      35.094  32.304  30.420  1.00  0.00     0.251 C 
ATOM     36  H   UNL A   1      33.798  33.118  29.136  1.00  0.00     0.163 HD
ATOM     37  O   UNL A   1      34.466  32.701  31.399  1.00  0.00    -0.269 OA
BRANCH  35  38
ATOM     38  C   UNL A   1      36.390  31.611  30.611  1.00  0.00     0.039 A 
ATOM     39  C   UNL A   1      37.540  32.173  30.045  1.00  0.00     0.014 A 
ATOM     40  C   UNL A   1      36.476  30.389  31.282  1.00  0.00     0.014 A 
ATOM     41  C   UNL A   1      38.778  31.540  30.196  1.00  0.00     0.010 A 
ATOM     42  C   UNL A   1      37.720  29.788  31.483  1.00  0.00     0.010 A 
ATOM     43  C   UNL A   1      38.884  30.354  30.938  1.00  0.00    -0.014 A 
BRANCH  43  44
ATOM     44  C   UNL A   1      40.200  29.703  31.172  1.00  0.00     0.031 A 
ATOM     45  C   UNL A   1      41.122  30.205  32.251  1.00  0.00     0.074 A 
ATOM     46  C   UNL A   1      40.604  28.711  30.354  1.00  0.00     0.049 A 
ATOM     47  N   UNL A   1      42.329  29.800  32.558  1.00  0.00    -0.248 NA
ATOM     48  C   UNL A   1      40.636  31.322  33.078  1.00  0.00     0.031 C 
ATOM     49  C   UNL A   1      39.836  28.183  29.224  1.00  0.00     0.029 A 
ATOM     50  N   UNL A   1      41.773  27.991  30.325  1.00  0.00    -0.354 N 
ATOM     51  C   UNL A   1      42.761  30.633  33.584  1.00  0.00     0.074 A 
ATOM     52  C   UNL A   1      41.696  31.582  33.832  1.00  0.00     0.031 C 
ATOM     53  C   UNL A   1      40.554  27.230  28.610  1.00  0.00     0.029 A 
ATOM     54  C   UNL A   1      41.841  27.093  29.285  1.00  0.00     0.049 A 
ATOM     55  H   UNL A   1      42.494  28.106  30.985  1.00  0.00     0.167 HD
ATOM     56  C   UNL A   1      43.924  30.594  34.278  1.00  0.00     0.034 A 
ATOM     57  C   UNL A   1      42.831  26.257  28.911  1.00  0.00     0.034 A 
ATOM     58  C   UNL A   1      44.959  29.618  34.067  1.00  0.00     0.049 A 
ATOM     59  C   UNL A   1      44.095  26.205  29.725  1.00  0.00     0.074 A 
ATOM     60  C   UNL A   1      46.129  29.435  34.783  1.00  0.00     0.029 A 
ATOM     61  N   UNL A   1      44.955  28.664  33.061  1.00  0.00    -0.354 N 
ATOM     62  N   UNL A   1      44.412  26.885  30.800  1.00  0.00    -0.248 NA
ATOM     63  C   UNL A   1      45.123  25.245  29.298  1.00  0.00     0.031 C 
ATOM     64  C   UNL A   1      46.838  28.379  34.202  1.00  0.00     0.029 A 
ATOM     65  C   UNL A   1      46.105  27.896  33.131  1.00  0.00     0.049 A 
ATOM     66  H   UNL A   1      44.240  28.550  32.395  1.00  0.00     0.167 HD
ATOM     67  C   UNL A   1      45.660  26.418  31.194  1.00  0.00     0.074 A 
ATOM     68  C   UNL A   1      46.031  25.377  30.257  1.00  0.00     0.031 C 
ATOM     69  C   UNL A   1      46.439  26.827  32.226  1.00  0.00     0.034 A 
BRANCH  56  70
ATOM     70  C   UNL A   1      44.114  31.601  35.383  1.00  0.00     0.023 A 
ATOM     71  C   UNL A   1      44.725  32.837  35.092  1.00  0.00     0.012 A 
ATOM     72  C   UNL A   1      43.636  31.356  36.685  1.00  0.00     0.148 A 
ATOM     73  C   UNL A   1      44.885  33.803  36.085  1.00  0.00     0.002 A 
ATOM     74  C   UNL A   1      43.763  32.339  37.661  1.00  0.00     0.091 A 
ATOM     75  F   UNL A   1      43.076  30.167  36.950  1.00  0.00    -0.205 F 
ATOM     76  C   UNL A   1      44.397  33.558  37.365  1.00  0.00     0.022 A 
BRANCH  74  77
ATOM     77  S   UNL A   1      43.101  32.149  39.320  1.00  0.00     0.127 S 
ATOM     78  O   UNL A   1      43.435  33.439  39.920  1.00  0.00    -0.237 OA
ATOM     79  O   UNL A   1      41.673  31.949  39.063  1.00  0.00    -0.237 OA
ATOM     80  O   UNL A   1      43.779  30.995  39.892  1.00  0.00    -0.744 OA
ENDBRANCH  74  77
ENDBRANCH  56  70
BRANCH  57  81
ATOM     81  C   UNL A   1      42.634  25.349  27.745  1.00  0.00     0.023 A 
ATOM     82  C   UNL A   1      43.039  25.775  26.465  1.00  0.00     0.012 A 
ATOM     83  C   UNL A   1      42.088  24.060  27.899  1.00  0.00     0.148 A 
ATOM     84  C   UNL A   1      42.879  24.945  25.356  1.00  0.00     0.002 A 
ATOM     85  C   UNL A   1      41.981  23.218  26.798  1.00  0.00     0.091 A 
ATOM     86  F   UNL A   1      41.693  23.677  29.122  1.00  0.00    -0.205 F 
ATOM     87  C   UNL A   1      42.361  23.664  25.523  1.00  0.00     0.022 A 
BRANCH  85  88
ATOM     88  S   UNL A   1      41.455  21.506  26.948  1.00  0.00     0.127 S 
ATOM     89  O   UNL A   1      40.035  21.655  27.254  1.00  0.00    -0.237 OA
ATOM     90  O   UNL A   1      41.745  20.979  25.614  1.00  0.00    -0.237 OA
ATOM     91  O   UNL A   1      42.279  20.937  28.005  1.00  0.00    -0.744 OA
ENDBRANCH  85  88
ENDBRANCH  57  81
BRANCH  69  92
ATOM     92  C   UNL A   1      47.766  26.140  32.414  1.00  0.00     0.023 A 
ATOM     93  C   UNL A   1      48.893  26.603  31.708  1.00  0.00     0.012 A 
ATOM     94  C   UNL A   1      47.913  25.092  33.344  1.00  0.00     0.148 A 
ATOM     95  C   UNL A   1      50.143  26.015  31.903  1.00  0.00     0.002 A 
ATOM     96  C   UNL A   1      49.171  24.539  33.565  1.00  0.00     0.091 A 
ATOM     97  F   UNL A   1      46.825  24.651  33.990  1.00  0.00    -0.205 F 
ATOM     98  C   UNL A   1      50.283  24.992  32.838  1.00  0.00     0.022 A 
BRANCH  96  99
ATOM     99  S   UNL A   1      49.460  23.282  34.814  1.00  0.00     0.127 S 
ATOM    100  O   UNL A   1      49.034  23.967  36.032  1.00  0.00    -0.237 OA
ATOM    101  O   UNL A   1      48.573  22.200  34.381  1.00  0.00    -0.237 OA
ATOM    102  O   UNL A   1      50.879  22.962  34.737  1.00  0.00    -0.744 OA
ENDBRANCH  96  99
ENDBRANCH  69  92
ENDBRANCH  43  44
ENDBRANCH  35  38
ENDBRANCH  33  34
ENDBRANCH   1  33
TORSDOF 17
ENDMDL
