MODEL 1
REMARK VINA RESULT:     -12.1      0.000      0.000
REMARK SMILES C[C@@H]1CCCN(C(=O)NC2(CC(=O)NCCCNC(=O)c3ccc(-c4c5nc(c(-c6cccc(S(=O)(=O)[O-])c6F)c6ccc([nH]6)c(-c6cccc(S(=O)(=O)[O-])c6F)c6nc(c(-c7cccc(S(=O)(=O)[O-])c7F)c7ccc4[nH]7)C=C6)C=C5)cc3)CCC2)[C@@H]1C
REMARK SMILES IDX 16 1 15 2 14 3 12 4 13 5 11 7 10 8 84 9 86 10 85 11 9 12
REMARK SMILES IDX 7 13 8 14 6 16 1 17 2 18 3 19 87 20 4 21 88 22 5 23 17 24
REMARK SMILES IDX 18 25 19 26 20 28 21 29 22 30 83 31 23 32 82 33 24 34 25 35
REMARK SMILES IDX 26 36 76 37 27 38 81 39 75 40 77 41 28 42 80 43 74 44 73 45
REMARK SMILES IDX 29 47 61 48 41 49 60 50 42 51 45 52 59 53 78 54 43 55 44 56
REMARK SMILES IDX 58 58 79 59 46 60 30 61 31 62 39 63 32 64 34 65 40 66 33 67
REMARK SMILES IDX 35 68 36 69 37 70 38 71 62 72 63 73 71 74 64 75 66 76 72 77
REMARK SMILES IDX 65 78 67 79 68 80 69 81 70 82 47 83 48 84 56 85 49 86 51 87
REMARK SMILES IDX 57 88 50 89 52 90 53 91 54 92 55 93
REMARK H PARENT 14 6 9 15 18 27 77 46 45 57
REMARK Flexibility Score: inf
ROOT
ATOM      1  C   UNL A   1      31.455  32.297  26.571  1.00  0.00     0.042 C 
ENDROOT
BRANCH   1   2
ATOM      2  C   UNL A   1      31.430  30.780  26.405  1.00  0.00     0.117 C 
BRANCH   2   3
ATOM      3  N   UNL A   1      32.477  30.359  25.497  1.00  0.00    -0.356 N 
ATOM      4  C   UNL A   1      32.707  29.120  24.988  1.00  0.00     0.222 C 
ATOM      5  O   UNL A   1      33.810  28.881  24.494  1.00  0.00    -0.275 OA
ATOM      6  H   UNL A   1      33.104  31.063  25.211  1.00  0.00     0.163 HD
BRANCH   4   7
ATOM      7  C   UNL A   1      31.615  28.079  24.973  1.00  0.00     0.128 C 
BRANCH   7   8
ATOM      8  C   UNL A   1      31.153  27.514  23.605  1.00  0.00     0.051 C 
ATOM      9  C   UNL A   1      30.454  28.683  22.883  1.00  0.00     0.029 C 
ATOM     10  C   UNL A   1      29.811  26.747  23.620  1.00  0.00     0.029 C 
ATOM     11  C   UNL A   1      29.093  28.003  23.101  1.00  0.00     0.005 C 
BRANCH   8  12
ATOM     12  N   UNL A   1      32.288  26.859  22.917  1.00  0.00    -0.332 N 
ATOM     13  C   UNL A   1      32.925  25.684  22.729  1.00  0.00     0.318 C 
ATOM     14  O   UNL A   1      33.751  25.769  21.812  1.00  0.00    -0.249 OA
ATOM     15  H   UNL A   1      32.762  27.546  22.393  1.00  0.00     0.165 HD
BRANCH  13  16
ATOM     16  N   UNL A   1      32.728  24.518  23.409  1.00  0.00    -0.322 N 
ATOM     17  C   UNL A   1      35.499  23.243  23.323  1.00  0.00     0.010 C 
ATOM     18  C   UNL A   1      34.404  22.952  24.358  1.00  0.00     0.008 C 
ATOM     19  C   UNL A   1      33.523  21.763  23.924  1.00  0.00     0.007 C 
ATOM     20  C   UNL A   1      33.505  24.186  24.638  1.00  0.00     0.086 C 
ATOM     21  C   UNL A   1      32.562  22.134  22.799  1.00  0.00     0.022 C 
ATOM     22  C   UNL A   1      34.266  25.286  25.384  1.00  0.00     0.031 C 
ATOM     23  C   UNL A   1      31.812  23.434  23.096  1.00  0.00     0.121 C 
ENDBRANCH  13  16
ENDBRANCH   8  12
ENDBRANCH   7   8
ENDBRANCH   4   7
ENDBRANCH   2   3
ENDBRANCH   1   2
BRANCH   1  24
ATOM     24  C   UNL A   1      32.691  32.797  27.301  1.00  0.00     0.118 C 
BRANCH  24  25
ATOM     25  N   UNL A   1      32.557  34.197  27.666  1.00  0.00    -0.352 N 
ATOM     26  C   UNL A   1      33.118  34.890  28.708  1.00  0.00     0.251 C 
ATOM     27  H   UNL A   1      31.977  34.729  27.074  1.00  0.00     0.163 HD
ATOM     28  O   UNL A   1      32.655  35.990  29.005  1.00  0.00    -0.269 OA
BRANCH  26  29
ATOM     29  C   UNL A   1      34.263  34.335  29.465  1.00  0.00     0.039 A 
ATOM     30  C   UNL A   1      35.547  34.465  28.929  1.00  0.00     0.014 A 
ATOM     31  C   UNL A   1      34.078  33.626  30.655  1.00  0.00     0.014 A 
ATOM     32  C   UNL A   1      36.640  33.899  29.590  1.00  0.00     0.010 A 
ATOM     33  C   UNL A   1      35.176  33.144  31.361  1.00  0.00     0.010 A 
ATOM     34  C   UNL A   1      36.465  33.241  30.819  1.00  0.00    -0.014 A 
BRANCH  34  35
ATOM     35  C   UNL A   1      37.608  32.610  31.524  1.00  0.00     0.031 A 
ATOM     36  C   UNL A   1      38.359  31.473  30.879  1.00  0.00     0.074 A 
ATOM     37  C   UNL A   1      37.923  33.008  32.773  1.00  0.00     0.049 A 
ATOM     38  N   UNL A   1      39.359  30.773  31.350  1.00  0.00    -0.248 NA
ATOM     39  C   UNL A   1      37.912  31.044  29.541  1.00  0.00     0.031 C 
ATOM     40  C   UNL A   1      37.210  34.030  33.542  1.00  0.00     0.029 A 
ATOM     41  N   UNL A   1      38.908  32.579  33.626  1.00  0.00    -0.354 N 
ATOM     42  C   UNL A   1      39.622  29.796  30.397  1.00  0.00     0.074 A 
ATOM     43  C   UNL A   1      38.663  29.974  29.332  1.00  0.00     0.031 C 
ATOM     44  C   UNL A   1      37.781  34.148  34.751  1.00  0.00     0.029 A 
ATOM     45  C   UNL A   1      38.885  33.201  34.852  1.00  0.00     0.049 A 
ATOM     46  H   UNL A   1      39.570  31.891  33.383  1.00  0.00     0.167 HD
ATOM     47  C   UNL A   1      40.596  28.855  30.393  1.00  0.00     0.034 A 
ATOM     48  C   UNL A   1      39.666  33.024  35.936  1.00  0.00     0.034 A 
ATOM     49  C   UNL A   1      41.595  28.731  31.420  1.00  0.00     0.049 A 
ATOM     50  C   UNL A   1      40.805  32.043  35.861  1.00  0.00     0.074 A 
ATOM     51  C   UNL A   1      42.691  27.888  31.456  1.00  0.00     0.029 A 
ATOM     52  N   UNL A   1      41.619  29.471  32.590  1.00  0.00    -0.354 N 
ATOM     53  N   UNL A   1      41.150  31.254  34.873  1.00  0.00    -0.248 NA
ATOM     54  C   UNL A   1      41.693  31.964  37.030  1.00  0.00     0.031 C 
ATOM     55  C   UNL A   1      43.372  28.110  32.657  1.00  0.00     0.029 A 
ATOM     56  C   UNL A   1      42.711  29.106  33.357  1.00  0.00     0.049 A 
ATOM     57  H   UNL A   1      40.957  30.156  32.839  1.00  0.00     0.167 HD
ATOM     58  C   UNL A   1      42.313  30.614  35.283  1.00  0.00     0.074 A 
ATOM     59  C   UNL A   1      42.629  31.127  36.600  1.00  0.00     0.031 C 
ATOM     60  C   UNL A   1      43.046  29.674  34.637  1.00  0.00     0.034 A 
BRANCH  47  61
ATOM     61  C   UNL A   1      40.676  27.922  29.212  1.00  0.00     0.023 A 
ATOM     62  C   UNL A   1      39.795  26.824  29.133  1.00  0.00     0.012 A 
ATOM     63  C   UNL A   1      41.563  28.174  28.148  1.00  0.00     0.148 A 
ATOM     64  C   UNL A   1      39.815  25.975  28.027  1.00  0.00     0.002 A 
ATOM     65  C   UNL A   1      41.546  27.349  27.028  1.00  0.00     0.091 A 
ATOM     66  F   UNL A   1      42.407  29.210  28.251  1.00  0.00    -0.205 F 
ATOM     67  C   UNL A   1      40.681  26.245  26.971  1.00  0.00     0.022 A 
BRANCH  65  68
ATOM     68  S   UNL A   1      42.562  27.658  25.579  1.00  0.00     0.127 S 
ATOM     69  O   UNL A   1      41.985  28.904  25.075  1.00  0.00    -0.237 OA
ATOM     70  O   UNL A   1      43.896  27.797  26.163  1.00  0.00    -0.237 OA
ATOM     71  O   UNL A   1      42.394  26.498  24.714  1.00  0.00    -0.744 OA
ENDBRANCH  65  68
ENDBRANCH  47  61
BRANCH  48  72
ATOM     72  C   UNL A   1      39.448  33.854  37.155  1.00  0.00     0.023 A 
ATOM     73  C   UNL A   1      39.828  35.209  37.148  1.00  0.00     0.012 A 
ATOM     74  C   UNL A   1      38.844  33.317  38.309  1.00  0.00     0.148 A 
ATOM     75  C   UNL A   1      39.650  36.006  38.281  1.00  0.00     0.002 A 
ATOM     76  C   UNL A   1      38.616  34.130  39.414  1.00  0.00     0.091 A 
ATOM     77  F   UNL A   1      38.499  32.022  38.303  1.00  0.00    -0.205 F 
ATOM     78  C   UNL A   1      39.035  35.470  39.409  1.00  0.00     0.022 A 
BRANCH  76  79
ATOM     79  S   UNL A   1      37.705  33.556  40.851  1.00  0.00     0.127 S 
ATOM     80  O   UNL A   1      37.695  34.744  41.696  1.00  0.00    -0.237 OA
ATOM     81  O   UNL A   1      36.410  33.199  40.272  1.00  0.00    -0.237 OA
ATOM     82  O   UNL A   1      38.461  32.416  41.357  1.00  0.00    -0.744 OA
ENDBRANCH  76  79
ENDBRANCH  48  72
BRANCH  60  83
ATOM     83  C   UNL A   1      44.288  29.166  35.320  1.00  0.00     0.023 A 
ATOM     84  C   UNL A   1      45.526  29.792  35.080  1.00  0.00     0.012 A 
ATOM     85  C   UNL A   1      44.214  28.112  36.252  1.00  0.00     0.148 A 
ATOM     86  C   UNL A   1      46.679  29.352  35.727  1.00  0.00     0.002 A 
ATOM     87  C   UNL A   1      45.358  27.712  36.931  1.00  0.00     0.091 A 
ATOM     88  F   UNL A   1      43.030  27.515  36.453  1.00  0.00    -0.205 F 
ATOM     89  C   UNL A   1      46.594  28.321  36.660  1.00  0.00     0.022 A 
BRANCH  87  90
ATOM     90  S   UNL A   1      45.312  26.460  38.219  1.00  0.00     0.127 S 
ATOM     91  O   UNL A   1      44.933  25.267  37.462  1.00  0.00    -0.237 OA
ATOM     92  O   UNL A   1      46.692  26.458  38.706  1.00  0.00    -0.237 OA
ATOM     93  O   UNL A   1      44.333  26.928  39.190  1.00  0.00    -0.744 OA
ENDBRANCH  87  90
ENDBRANCH  60  83
ENDBRANCH  34  35
ENDBRANCH  26  29
ENDBRANCH  24  25
ENDBRANCH   1  24
TORSDOF 16
ENDMDL
MODEL 2
REMARK VINA RESULT:     -12.0      3.396      8.748
REMARK SMILES C[C@@H]1CCCN(C(=O)NC2(CC(=O)NCCCNC(=O)c3ccc(-c4c5nc(c(-c6cccc(S(=O)(=O)[O-])c6F)c6ccc([nH]6)c(-c6cccc(S(=O)(=O)[O-])c6F)c6nc(c(-c7cccc(S(=O)(=O)[O-])c7F)c7ccc4[nH]7)C=C6)C=C5)cc3)CCC2)[C@@H]1C
REMARK SMILES IDX 16 1 15 2 14 3 12 4 13 5 11 7 10 8 84 9 86 10 85 11 9 12
REMARK SMILES IDX 7 13 8 14 6 16 1 17 2 18 3 19 87 20 4 21 88 22 5 23 17 24
REMARK SMILES IDX 18 25 19 26 20 28 21 29 22 30 83 31 23 32 82 33 24 34 25 35
REMARK SMILES IDX 26 36 76 37 27 38 81 39 75 40 77 41 28 42 80 43 74 44 73 45
REMARK SMILES IDX 29 47 61 48 41 49 60 50 42 51 45 52 59 53 78 54 43 55 44 56
REMARK SMILES IDX 58 58 79 59 46 60 30 61 31 62 39 63 32 64 34 65 40 66 33 67
REMARK SMILES IDX 35 68 36 69 37 70 38 71 62 72 63 73 71 74 64 75 66 76 72 77
REMARK SMILES IDX 65 78 67 79 68 80 69 81 70 82 47 83 48 84 56 85 49 86 51 87
REMARK SMILES IDX 57 88 50 89 52 90 53 91 54 92 55 93
REMARK H PARENT 14 6 9 15 18 27 77 46 45 57
REMARK Flexibility Score: inf
ROOT
ATOM      1  C   UNL A   1      33.123  28.251  27.161  1.00  0.00     0.042 C 
ENDROOT
BRANCH   1   2
ATOM      2  C   UNL A   1      31.615  28.326  26.933  1.00  0.00     0.117 C 
BRANCH   2   3
ATOM      3  N   UNL A   1      31.335  28.605  25.539  1.00  0.00    -0.356 N 
ATOM      4  C   UNL A   1      31.072  27.724  24.538  1.00  0.00     0.222 C 
ATOM      5  O   UNL A   1      31.170  28.109  23.373  1.00  0.00    -0.275 OA
ATOM      6  H   UNL A   1      31.335  29.556  25.284  1.00  0.00     0.163 HD
BRANCH   4   7
ATOM      7  C   UNL A   1      30.610  26.322  24.848  1.00  0.00     0.128 C 
BRANCH   7   8
ATOM      8  C   UNL A   1      31.569  25.143  24.541  1.00  0.00     0.051 C 
ATOM      9  C   UNL A   1      31.370  24.818  23.048  1.00  0.00     0.029 C 
ATOM     10  C   UNL A   1      31.034  23.737  24.898  1.00  0.00     0.029 C 
ATOM     11  C   UNL A   1      30.642  23.519  23.428  1.00  0.00     0.005 C 
BRANCH   8  12
ATOM     12  N   UNL A   1      32.938  25.472  24.998  1.00  0.00    -0.332 N 
ATOM     13  C   UNL A   1      34.217  25.041  25.026  1.00  0.00     0.318 C 
ATOM     14  O   UNL A   1      34.978  25.937  25.412  1.00  0.00    -0.249 OA
ATOM     15  H   UNL A   1      32.903  26.341  25.460  1.00  0.00     0.165 HD
BRANCH  13  16
ATOM     16  N   UNL A   1      34.683  23.808  24.676  1.00  0.00    -0.322 N 
ATOM     17  C   UNL A   1      37.372  23.699  26.115  1.00  0.00     0.010 C 
ATOM     18  C   UNL A   1      36.538  22.491  25.669  1.00  0.00     0.008 C 
ATOM     19  C   UNL A   1      36.943  22.018  24.259  1.00  0.00     0.007 C 
ATOM     20  C   UNL A   1      35.012  22.774  25.701  1.00  0.00     0.086 C 
ATOM     21  C   UNL A   1      36.435  22.952  23.166  1.00  0.00     0.022 C 
ATOM     22  C   UNL A   1      34.491  22.922  27.133  1.00  0.00     0.031 C 
ATOM     23  C   UNL A   1      34.953  23.287  23.346  1.00  0.00     0.121 C 
ENDBRANCH  13  16
ENDBRANCH   8  12
ENDBRANCH   7   8
ENDBRANCH   4   7
ENDBRANCH   2   3
ENDBRANCH   1   2
BRANCH   1  24
ATOM     24  C   UNL A   1      33.905  29.241  26.315  1.00  0.00     0.118 C 
BRANCH  24  25
ATOM     25  N   UNL A   1      33.855  30.577  26.886  1.00  0.00    -0.352 N 
ATOM     26  C   UNL A   1      34.625  31.139  27.872  1.00  0.00     0.251 C 
ATOM     27  H   UNL A   1      33.165  31.168  26.506  1.00  0.00     0.163 HD
ATOM     28  O   UNL A   1      34.238  32.177  28.405  1.00  0.00    -0.269 OA
BRANCH  26  29
ATOM     29  C   UNL A   1      35.902  30.518  28.291  1.00  0.00     0.039 A 
ATOM     30  C   UNL A   1      35.911  29.703  29.427  1.00  0.00     0.014 A 
ATOM     31  C   UNL A   1      37.100  30.788  27.624  1.00  0.00     0.014 A 
ATOM     32  C   UNL A   1      37.112  29.152  29.881  1.00  0.00     0.010 A 
ATOM     33  C   UNL A   1      38.279  30.165  28.020  1.00  0.00     0.010 A 
ATOM     34  C   UNL A   1      38.307  29.371  29.175  1.00  0.00    -0.014 A 
BRANCH  34  35
ATOM     35  C   UNL A   1      39.597  28.818  29.655  1.00  0.00     0.031 A 
ATOM     36  C   UNL A   1      40.326  29.481  30.796  1.00  0.00     0.074 A 
ATOM     37  C   UNL A   1      40.150  27.766  29.020  1.00  0.00     0.049 A 
ATOM     38  N   UNL A   1      41.478  29.169  31.332  1.00  0.00    -0.248 NA
ATOM     39  C   UNL A   1      39.696  30.672  31.395  1.00  0.00     0.031 C 
ATOM     40  C   UNL A   1      39.590  27.097  27.843  1.00  0.00     0.029 A 
ATOM     41  N   UNL A   1      41.320  27.091  29.257  1.00  0.00    -0.354 N 
ATOM     42  C   UNL A   1      41.732  30.146  32.287  1.00  0.00     0.074 A 
ATOM     43  C   UNL A   1      40.629  31.078  32.242  1.00  0.00     0.031 C 
ATOM     44  C   UNL A   1      40.416  26.111  27.462  1.00  0.00     0.029 A 
ATOM     45  C   UNL A   1      41.572  26.087  28.352  1.00  0.00     0.049 A 
ATOM     46  H   UNL A   1      41.924  27.305  30.005  1.00  0.00     0.167 HD
ATOM     47  C   UNL A   1      42.773  30.240  33.148  1.00  0.00     0.034 A 
ATOM     48  C   UNL A   1      42.618  25.243  28.251  1.00  0.00     0.034 A 
ATOM     49  C   UNL A   1      43.829  29.269  33.239  1.00  0.00     0.049 A 
ATOM     50  C   UNL A   1      43.708  25.309  29.287  1.00  0.00     0.074 A 
ATOM     51  C   UNL A   1      44.867  29.210  34.152  1.00  0.00     0.029 A 
ATOM     52  N   UNL A   1      43.979  28.186  32.389  1.00  0.00    -0.354 N 
ATOM     53  N   UNL A   1      43.835  26.131  30.300  1.00  0.00    -0.248 NA
ATOM     54  C   UNL A   1      44.772  24.298  29.197  1.00  0.00     0.031 C 
ATOM     55  C   UNL A   1      45.655  28.096  33.844  1.00  0.00     0.029 A 
ATOM     56  C   UNL A   1      45.093  27.451  32.754  1.00  0.00     0.049 A 
ATOM     57  H   UNL A   1      43.381  27.970  31.638  1.00  0.00     0.167 HD
ATOM     58  C   UNL A   1      44.968  25.716  30.989  1.00  0.00     0.074 A 
ATOM     59  C   UNL A   1      45.478  24.553  30.292  1.00  0.00     0.031 C 
ATOM     60  C   UNL A   1      45.547  26.258  32.088  1.00  0.00     0.034 A 
BRANCH  47  61
ATOM     61  C   UNL A   1      42.795  31.401  34.109  1.00  0.00     0.023 A 
ATOM     62  C   UNL A   1      43.432  32.602  33.735  1.00  0.00     0.012 A 
ATOM     63  C   UNL A   1      42.121  31.332  35.344  1.00  0.00     0.148 A 
ATOM     64  C   UNL A   1      43.422  33.707  34.586  1.00  0.00     0.002 A 
ATOM     65  C   UNL A   1      42.077  32.452  36.167  1.00  0.00     0.091 A 
ATOM     66  F   UNL A   1      41.539  30.176  35.691  1.00  0.00    -0.205 F 
ATOM     67  C   UNL A   1      42.736  33.636  35.795  1.00  0.00     0.022 A 
BRANCH  65  68
ATOM     68  S   UNL A   1      41.150  32.492  37.705  1.00  0.00     0.127 S 
ATOM     69  O   UNL A   1      41.931  31.582  38.543  1.00  0.00    -0.237 OA
ATOM     70  O   UNL A   1      41.245  33.901  38.084  1.00  0.00    -0.237 OA
ATOM     71  O   UNL A   1      39.805  32.038  37.377  1.00  0.00    -0.744 OA
ENDBRANCH  65  68
ENDBRANCH  47  61
BRANCH  48  72
ATOM     72  C   UNL A   1      42.642  24.210  27.176  1.00  0.00     0.023 A 
ATOM     73  C   UNL A   1      43.400  24.438  26.013  1.00  0.00     0.012 A 
ATOM     74  C   UNL A   1      41.940  22.997  27.311  1.00  0.00     0.148 A 
ATOM     75  C   UNL A   1      43.428  23.496  24.984  1.00  0.00     0.002 A 
ATOM     76  C   UNL A   1      42.018  22.037  26.307  1.00  0.00     0.091 A 
ATOM     77  F   UNL A   1      41.213  22.801  28.420  1.00  0.00    -0.205 F 
ATOM     78  C   UNL A   1      42.746  22.292  25.135  1.00  0.00     0.022 A 
BRANCH  76  79
ATOM     79  S   UNL A   1      41.285  20.407  26.486  1.00  0.00     0.127 S 
ATOM     80  O   UNL A   1      39.866  20.694  26.313  1.00  0.00    -0.237 OA
ATOM     81  O   UNL A   1      41.904  19.669  25.384  1.00  0.00    -0.237 OA
ATOM     82  O   UNL A   1      41.689  19.945  27.809  1.00  0.00    -0.744 OA
ENDBRANCH  76  79
ENDBRANCH  48  72
BRANCH  60  83
ATOM     83  C   UNL A   1      46.773  25.577  32.639  1.00  0.00     0.023 A 
ATOM     84  C   UNL A   1      48.051  25.963  32.190  1.00  0.00     0.012 A 
ATOM     85  C   UNL A   1      46.659  24.604  33.650  1.00  0.00     0.148 A 
ATOM     86  C   UNL A   1      49.195  25.364  32.713  1.00  0.00     0.002 A 
ATOM     87  C   UNL A   1      47.806  24.046  34.201  1.00  0.00     0.091 A 
ATOM     88  F   UNL A   1      45.433  24.234  34.051  1.00  0.00    -0.205 F 
ATOM     89  C   UNL A   1      49.074  24.414  33.724  1.00  0.00     0.022 A 
BRANCH  87  90
ATOM     90  S   UNL A   1      47.737  22.891  35.576  1.00  0.00     0.127 S 
ATOM     91  O   UNL A   1      49.148  22.546  35.746  1.00  0.00    -0.237 OA
ATOM     92  O   UNL A   1      47.178  23.713  36.650  1.00  0.00    -0.237 OA
ATOM     93  O   UNL A   1      46.871  21.806  35.138  1.00  0.00    -0.744 OA
ENDBRANCH  87  90
ENDBRANCH  60  83
ENDBRANCH  34  35
ENDBRANCH  26  29
ENDBRANCH  24  25
ENDBRANCH   1  24
TORSDOF 16
ENDMDL
MODEL 3
REMARK VINA RESULT:     -12.0      5.511      8.885
REMARK SMILES C[C@@H]1CCCN(C(=O)NC2(CC(=O)NCCCNC(=O)c3ccc(-c4c5nc(c(-c6cccc(S(=O)(=O)[O-])c6F)c6ccc([nH]6)c(-c6cccc(S(=O)(=O)[O-])c6F)c6nc(c(-c7cccc(S(=O)(=O)[O-])c7F)c7ccc4[nH]7)C=C6)C=C5)cc3)CCC2)[C@@H]1C
REMARK SMILES IDX 16 1 15 2 14 3 12 4 13 5 11 7 10 8 84 9 86 10 85 11 9 12
REMARK SMILES IDX 7 13 8 14 6 16 1 17 2 18 3 19 87 20 4 21 88 22 5 23 17 24
REMARK SMILES IDX 18 25 19 26 20 28 21 29 22 30 83 31 23 32 82 33 24 34 25 35
REMARK SMILES IDX 26 36 76 37 27 38 81 39 75 40 77 41 28 42 80 43 74 44 73 45
REMARK SMILES IDX 29 47 61 48 41 49 60 50 42 51 45 52 59 53 78 54 43 55 44 56
REMARK SMILES IDX 58 58 79 59 46 60 30 61 31 62 39 63 32 64 34 65 40 66 33 67
REMARK SMILES IDX 35 68 36 69 37 70 38 71 62 72 63 73 71 74 64 75 66 76 72 77
REMARK SMILES IDX 65 78 67 79 68 80 69 81 70 82 47 83 48 84 56 85 49 86 51 87
REMARK SMILES IDX 57 88 50 89 52 90 53 91 54 92 55 93
REMARK H PARENT 14 6 9 15 18 27 77 46 45 57
REMARK Flexibility Score: inf
ROOT
ATOM      1  C   UNL A   1      34.665  21.392  26.101  1.00  0.00     0.042 C 
ENDROOT
BRANCH   1   2
ATOM      2  C   UNL A   1      34.096  21.779  27.464  1.00  0.00     0.117 C 
BRANCH   2   3
ATOM      3  N   UNL A   1      32.706  22.166  27.333  1.00  0.00    -0.356 N 
ATOM      4  C   UNL A   1      32.195  23.367  26.952  1.00  0.00     0.222 C 
ATOM      5  O   UNL A   1      31.013  23.610  27.199  1.00  0.00    -0.275 OA
ATOM      6  H   UNL A   1      32.045  21.468  27.547  1.00  0.00     0.163 HD
BRANCH   4   7
ATOM      7  C   UNL A   1      33.041  24.355  26.189  1.00  0.00     0.128 C 
BRANCH   7   8
ATOM      8  C   UNL A   1      32.658  24.676  24.721  1.00  0.00     0.051 C 
ATOM      9  C   UNL A   1      32.728  23.333  23.966  1.00  0.00     0.029 C 
ATOM     10  C   UNL A   1      33.806  25.211  23.834  1.00  0.00     0.029 C 
ATOM     11  C   UNL A   1      34.003  23.804  23.249  1.00  0.00     0.005 C 
BRANCH   8  12
ATOM     12  N   UNL A   1      31.381  25.423  24.681  1.00  0.00    -0.332 N 
ATOM     13  C   UNL A   1      30.796  26.608  24.955  1.00  0.00     0.318 C 
ATOM     14  O   UNL A   1      29.658  26.663  24.471  1.00  0.00    -0.249 OA
ATOM     15  H   UNL A   1      30.691  24.824  24.312  1.00  0.00     0.165 HD
BRANCH  13  16
ATOM     16  N   UNL A   1      31.328  27.653  25.650  1.00  0.00    -0.322 N 
ATOM     17  C   UNL A   1      33.601  28.555  23.825  1.00  0.00     0.010 C 
ATOM     18  C   UNL A   1      32.894  29.418  24.878  1.00  0.00     0.008 C 
ATOM     19  C   UNL A   1      33.619  29.354  26.236  1.00  0.00     0.007 C 
ATOM     20  C   UNL A   1      31.404  29.025  25.069  1.00  0.00     0.086 C 
ATOM     21  C   UNL A   1      33.386  28.030  26.957  1.00  0.00     0.022 C 
ATOM     22  C   UNL A   1      30.559  29.385  23.843  1.00  0.00     0.031 C 
ATOM     23  C   UNL A   1      31.904  27.650  26.985  1.00  0.00     0.121 C 
ENDBRANCH  13  16
ENDBRANCH   8  12
ENDBRANCH   7   8
ENDBRANCH   4   7
ENDBRANCH   2   3
ENDBRANCH   1   2
BRANCH   1  24
ATOM     24  C   UNL A   1      36.041  21.983  25.839  1.00  0.00     0.118 C 
BRANCH  24  25
ATOM     25  N   UNL A   1      37.064  20.951  25.831  1.00  0.00    -0.352 N 
ATOM     26  C   UNL A   1      38.429  21.068  25.905  1.00  0.00     0.251 C 
ATOM     27  H   UNL A   1      36.726  20.028  25.764  1.00  0.00     0.163 HD
ATOM     28  O   UNL A   1      39.123  20.102  25.595  1.00  0.00    -0.269 OA
BRANCH  26  29
ATOM     29  C   UNL A   1      39.064  22.329  26.353  1.00  0.00     0.039 A 
ATOM     30  C   UNL A   1      38.572  23.540  25.859  1.00  0.00     0.014 A 
ATOM     31  C   UNL A   1      40.181  22.326  27.193  1.00  0.00     0.014 A 
ATOM     32  C   UNL A   1      39.189  24.742  26.216  1.00  0.00     0.010 A 
ATOM     33  C   UNL A   1      40.737  23.527  27.623  1.00  0.00     0.010 A 
ATOM     34  C   UNL A   1      40.272  24.746  27.110  1.00  0.00    -0.014 A 
BRANCH  34  35
ATOM     35  C   UNL A   1      40.958  26.009  27.481  1.00  0.00     0.031 A 
ATOM     36  C   UNL A   1      42.397  26.231  27.089  1.00  0.00     0.074 A 
ATOM     37  C   UNL A   1      40.313  26.922  28.233  1.00  0.00     0.049 A 
ATOM     38  N   UNL A   1      43.175  27.248  27.350  1.00  0.00    -0.248 NA
ATOM     39  C   UNL A   1      43.060  25.156  26.328  1.00  0.00     0.031 C 
ATOM     40  C   UNL A   1      38.953  26.780  28.758  1.00  0.00     0.029 A 
ATOM     41  N   UNL A   1      40.726  28.140  28.711  1.00  0.00    -0.354 N 
ATOM     42  C   UNL A   1      44.424  26.916  26.837  1.00  0.00     0.074 A 
ATOM     43  C   UNL A   1      44.310  25.592  26.271  1.00  0.00     0.031 C 
ATOM     44  C   UNL A   1      38.646  27.866  29.484  1.00  0.00     0.029 A 
ATOM     45  C   UNL A   1      39.789  28.772  29.494  1.00  0.00     0.049 A 
ATOM     46  H   UNL A   1      41.611  28.525  28.513  1.00  0.00     0.167 HD
ATOM     47  C   UNL A   1      45.555  27.659  26.809  1.00  0.00     0.034 A 
ATOM     48  C   UNL A   1      39.847  29.950  30.147  1.00  0.00     0.034 A 
ATOM     49  C   UNL A   1      45.642  29.005  27.307  1.00  0.00     0.049 A 
ATOM     50  C   UNL A   1      41.082  30.798  30.010  1.00  0.00     0.074 A 
ATOM     51  C   UNL A   1      46.707  29.885  27.225  1.00  0.00     0.029 A 
ATOM     52  N   UNL A   1      44.627  29.666  27.978  1.00  0.00    -0.354 N 
ATOM     53  N   UNL A   1      42.191  30.541  29.361  1.00  0.00    -0.248 NA
ATOM     54  C   UNL A   1      41.055  32.121  30.652  1.00  0.00     0.031 C 
ATOM     55  C   UNL A   1      46.338  31.076  27.860  1.00  0.00     0.029 A 
ATOM     56  C   UNL A   1      45.037  30.943  28.316  1.00  0.00     0.049 A 
ATOM     57  H   UNL A   1      43.743  29.283  28.182  1.00  0.00     0.167 HD
ATOM     58  C   UNL A   1      42.978  31.679  29.483  1.00  0.00     0.074 A 
ATOM     59  C   UNL A   1      42.208  32.639  30.247  1.00  0.00     0.031 C 
ATOM     60  C   UNL A   1      44.232  31.907  29.020  1.00  0.00     0.034 A 
BRANCH  47  61
ATOM     61  C   UNL A   1      46.779  27.063  26.164  1.00  0.00     0.023 A 
ATOM     62  C   UNL A   1      46.952  27.169  24.768  1.00  0.00     0.012 A 
ATOM     63  C   UNL A   1      47.793  26.471  26.941  1.00  0.00     0.148 A 
ATOM     64  C   UNL A   1      48.099  26.670  24.154  1.00  0.00     0.002 A 
ATOM     65  C   UNL A   1      48.955  26.016  26.327  1.00  0.00     0.091 A 
ATOM     66  F   UNL A   1      47.602  26.361  28.264  1.00  0.00    -0.205 F 
ATOM     67  C   UNL A   1      49.105  26.106  24.933  1.00  0.00     0.022 A 
BRANCH  65  68
ATOM     68  S   UNL A   1      50.345  25.350  27.249  1.00  0.00     0.127 S 
ATOM     69  O   UNL A   1      49.721  24.229  27.953  1.00  0.00    -0.237 OA
ATOM     70  O   UNL A   1      51.265  24.961  26.180  1.00  0.00    -0.237 OA
ATOM     71  O   UNL A   1      50.821  26.432  28.099  1.00  0.00    -0.744 OA
ENDBRANCH  65  68
ENDBRANCH  47  61
BRANCH  48  72
ATOM     72  C   UNL A   1      38.667  30.431  30.920  1.00  0.00     0.023 A 
ATOM     73  C   UNL A   1      38.617  30.223  32.312  1.00  0.00     0.012 A 
ATOM     74  C   UNL A   1      37.608  31.115  30.291  1.00  0.00     0.148 A 
ATOM     75  C   UNL A   1      37.518  30.649  33.058  1.00  0.00     0.002 A 
ATOM     76  C   UNL A   1      36.542  31.589  31.050  1.00  0.00     0.091 A 
ATOM     77  F   UNL A   1      37.665  31.295  28.964  1.00  0.00    -0.205 F 
ATOM     78  C   UNL A   1      36.486  31.340  32.430  1.00  0.00     0.022 A 
BRANCH  76  79
ATOM     79  S   UNL A   1      35.245  32.608  30.340  1.00  0.00     0.127 S 
ATOM     80  O   UNL A   1      34.331  32.760  31.467  1.00  0.00    -0.237 OA
ATOM     81  O   UNL A   1      35.975  33.822  29.972  1.00  0.00    -0.237 OA
ATOM     82  O   UNL A   1      34.739  31.852  29.201  1.00  0.00    -0.744 OA
ENDBRANCH  76  79
ENDBRANCH  48  72
BRANCH  60  83
ATOM     83  C   UNL A   1      44.840  33.259  29.286  1.00  0.00     0.023 A 
ATOM     84  C   UNL A   1      45.569  33.480  30.470  1.00  0.00     0.012 A 
ATOM     85  C   UNL A   1      44.744  34.289  28.330  1.00  0.00     0.148 A 
ATOM     86  C   UNL A   1      46.163  34.717  30.716  1.00  0.00     0.002 A 
ATOM     87  C   UNL A   1      45.380  35.503  28.560  1.00  0.00     0.091 A 
ATOM     88  F   UNL A   1      44.028  34.067  27.217  1.00  0.00    -0.205 F 
ATOM     89  C   UNL A   1      46.078  35.723  29.757  1.00  0.00     0.022 A 
BRANCH  87  90
ATOM     90  S   UNL A   1      45.401  36.813  27.330  1.00  0.00     0.127 S 
ATOM     91  O   UNL A   1      43.973  37.053  27.125  1.00  0.00    -0.237 OA
ATOM     92  O   UNL A   1      46.105  37.890  28.029  1.00  0.00    -0.237 OA
ATOM     93  O   UNL A   1      46.120  36.271  26.186  1.00  0.00    -0.744 OA
ENDBRANCH  87  90
ENDBRANCH  60  83
ENDBRANCH  34  35
ENDBRANCH  26  29
ENDBRANCH  24  25
ENDBRANCH   1  24
TORSDOF 16
ENDMDL
