MODEL 1
REMARK VINA RESULT:     -11.3      0.000      0.000
REMARK SMILES C[NH2+][C@]1(C(=O)NCCCNC(=O)c2ccc(-c3c4nc(c(-c5cccc(S(=O)(=O)[O-])c5F)c5ccc([nH]5)c(-c5cccc(S(=O)(=O)[O-])c5F)c5nc(c(-c6cccc(S(=O)(=O)[O-])c6F)c6ccc3[nH]6)C=C5)C=C4)cc2)CCC[C@@H]1CC[N@H+]1CCC[C@H]([NH+](C)C)C1
REMARK SMILES IDX 7 1 6 2 4 3 5 4 3 6 76 7 79 8 77 9 78 10 2 11 1 12 80 15
REMARK SMILES IDX 81 16 82 17 83 18 90 19 84 21 86 22 85 23 87 24 88 25 89 26
REMARK SMILES IDX 8 28 9 29 10 30 11 31 12 33 13 34 14 35 75 36 15 37 74 38
REMARK SMILES IDX 16 39 17 40 18 41 68 42 19 43 73 44 67 45 69 46 20 47 72 48
REMARK SMILES IDX 66 49 65 50 21 52 53 53 33 54 52 55 34 56 37 57 51 58 70 59
REMARK SMILES IDX 35 60 36 61 50 63 71 64 38 65 22 66 23 67 31 68 24 69 26 70
REMARK SMILES IDX 32 71 25 72 27 73 28 74 29 75 30 76 54 77 55 78 63 79 56 80
REMARK SMILES IDX 58 81 64 82 57 83 59 84 60 85 61 86 62 87 39 88 40 89 48 90
REMARK SMILES IDX 41 91 43 92 49 93 42 94 44 95 45 96 46 97 47 98
REMARK H PARENT 6 5 2 13 2 14 82 20 87 27 10 32 69 51 37 62
REMARK Flexibility Score: inf
ROOT
ATOM      1  C   UNL A   1      31.993  28.000  26.487  1.00  0.00     0.118 C 
ENDROOT
BRANCH   1   2
ATOM      2  N   UNL A   1      31.083  26.897  26.754  1.00  0.00    -0.351 N 
ATOM      3  C   UNL A   1      30.291  26.129  25.957  1.00  0.00     0.281 C 
ATOM      4  O   UNL A   1      29.623  25.276  26.558  1.00  0.00    -0.268 OA
ATOM      5  H   UNL A   1      31.028  26.657  27.708  1.00  0.00     0.163 HD
BRANCH   3   6
ATOM      6  C   UNL A   1      30.223  26.280  24.387  1.00  0.00     0.178 C 
ATOM      7  C   UNL A   1      30.401  27.760  23.996  1.00  0.00     0.079 C 
ATOM      8  C   UNL A   1      31.423  25.550  23.715  1.00  0.00     0.066 C 
ATOM      9  C   UNL A   1      31.152  27.774  22.671  1.00  0.00     0.008 C 
ATOM     10  C   UNL A   1      31.780  26.393  22.481  1.00  0.00     0.011 C 
BRANCH   6  11
ATOM     11  N   UNL A   1      28.866  25.826  23.986  1.00  0.00    -0.336 N 
ATOM     12  C   UNL A   1      27.762  26.752  23.915  1.00  0.00     0.331 C 
ATOM     13  H   UNL A   1      28.960  25.416  23.056  1.00  0.00     0.346 HD
ATOM     14  H   UNL A   1      28.597  25.215  24.757  1.00  0.00     0.346 HD
ENDBRANCH   6  11
BRANCH   8  15
ATOM     15  C   UNL A   1      31.197  24.054  23.423  1.00  0.00     0.072 C 
BRANCH  15  16
ATOM     16  C   UNL A   1      32.435  23.252  22.995  1.00  0.00     0.262 C 
BRANCH  16  17
ATOM     17  N   UNL A   1      32.882  22.155  23.863  1.00  0.00    -0.330 N 
ATOM     18  C   UNL A   1      32.374  20.824  23.523  1.00  0.00     0.262 C 
ATOM     19  C   UNL A   1      34.358  22.102  23.877  1.00  0.00     0.327 C 
ATOM     20  H   UNL A   1      32.491  22.378  24.779  1.00  0.00     0.348 HD
ATOM     21  C   UNL A   1      32.743  19.827  24.625  1.00  0.00     0.068 C 
ATOM     22  C   UNL A   1      34.924  21.170  24.982  1.00  0.00     0.239 C 
ATOM     23  C   UNL A   1      34.243  19.783  24.906  1.00  0.00     0.077 C 
BRANCH  22  24
ATOM     24  N   UNL A   1      35.003  21.739  26.352  1.00  0.00    -0.333 N 
ATOM     25  C   UNL A   1      35.307  23.172  26.329  1.00  0.00     0.332 C 
ATOM     26  C   UNL A   1      33.831  21.503  27.191  1.00  0.00     0.332 C 
ATOM     27  H   UNL A   1      35.773  21.225  26.783  1.00  0.00     0.348 HD
ENDBRANCH  22  24
ENDBRANCH  16  17
ENDBRANCH  15  16
ENDBRANCH   8  15
ENDBRANCH   3   6
ENDBRANCH   1   2
BRANCH   1  28
ATOM     28  C   UNL A   1      33.360  27.507  26.041  1.00  0.00     0.042 C 
BRANCH  28  29
ATOM     29  C   UNL A   1      34.416  28.602  25.975  1.00  0.00     0.118 C 
BRANCH  29  30
ATOM     30  N   UNL A   1      33.969  29.857  26.567  1.00  0.00    -0.352 N 
ATOM     31  C   UNL A   1      34.506  30.578  27.608  1.00  0.00     0.251 C 
ATOM     32  H   UNL A   1      33.162  30.247  26.160  1.00  0.00     0.163 HD
ATOM     33  O   UNL A   1      33.884  31.520  28.082  1.00  0.00    -0.269 OA
BRANCH  31  34
ATOM     34  C   UNL A   1      35.822  30.200  28.169  1.00  0.00     0.039 A 
ATOM     35  C   UNL A   1      35.875  29.585  29.422  1.00  0.00     0.014 A 
ATOM     36  C   UNL A   1      37.001  30.444  27.461  1.00  0.00     0.014 A 
ATOM     37  C   UNL A   1      37.103  29.151  29.930  1.00  0.00     0.010 A 
ATOM     38  C   UNL A   1      38.205  29.921  27.918  1.00  0.00     0.010 A 
ATOM     39  C   UNL A   1      38.273  29.280  29.164  1.00  0.00    -0.014 A 
BRANCH  39  40
ATOM     40  C   UNL A   1      39.578  28.754  29.644  1.00  0.00     0.031 A 
ATOM     41  C   UNL A   1      40.313  29.459  30.754  1.00  0.00     0.074 A 
ATOM     42  C   UNL A   1      40.143  27.700  29.024  1.00  0.00     0.049 A 
ATOM     43  N   UNL A   1      41.486  29.190  31.265  1.00  0.00    -0.248 NA
ATOM     44  C   UNL A   1      39.659  30.638  31.348  1.00  0.00     0.031 C 
ATOM     45  C   UNL A   1      39.569  26.979  27.884  1.00  0.00     0.029 A 
ATOM     46  N   UNL A   1      41.340  27.065  29.247  1.00  0.00    -0.354 N 
ATOM     47  C   UNL A   1      41.729  30.186  32.204  1.00  0.00     0.074 A 
ATOM     48  C   UNL A   1      40.598  31.086  32.166  1.00  0.00     0.031 C 
ATOM     49  C   UNL A   1      40.408  25.997  27.516  1.00  0.00     0.029 A 
ATOM     50  C   UNL A   1      41.594  26.040  28.365  1.00  0.00     0.049 A 
ATOM     51  H   UNL A   1      41.958  27.320  29.969  1.00  0.00     0.167 HD
ATOM     52  C   UNL A   1      42.782  30.325  33.043  1.00  0.00     0.034 A 
ATOM     53  C   UNL A   1      42.666  25.231  28.247  1.00  0.00     0.034 A 
ATOM     54  C   UNL A   1      43.885  29.405  33.108  1.00  0.00     0.049 A 
ATOM     55  C   UNL A   1      43.808  25.385  29.214  1.00  0.00     0.074 A 
ATOM     56  C   UNL A   1      44.952  29.402  33.987  1.00  0.00     0.029 A 
ATOM     57  N   UNL A   1      44.069  28.331  32.251  1.00  0.00    -0.354 N 
ATOM     58  N   UNL A   1      43.943  26.236  30.203  1.00  0.00    -0.248 NA
ATOM     59  C   UNL A   1      44.928  24.444  29.074  1.00  0.00     0.031 C 
ATOM     60  C   UNL A   1      45.802  28.348  33.638  1.00  0.00     0.029 A 
ATOM     61  C   UNL A   1      45.241  27.667  32.569  1.00  0.00     0.049 A 
ATOM     62  H   UNL A   1      43.456  28.076  31.523  1.00  0.00     0.167 HD
ATOM     63  C   UNL A   1      45.142  25.908  30.826  1.00  0.00     0.074 A 
ATOM     64  C   UNL A   1      45.684  24.770  30.114  1.00  0.00     0.031 C 
ATOM     65  C   UNL A   1      45.745  26.504  31.884  1.00  0.00     0.034 A 
BRANCH  52  66
ATOM     66  C   UNL A   1      42.774  31.496  33.993  1.00  0.00     0.023 A 
ATOM     67  C   UNL A   1      43.361  32.719  33.604  1.00  0.00     0.012 A 
ATOM     68  C   UNL A   1      42.141  31.403  35.248  1.00  0.00     0.148 A 
ATOM     69  C   UNL A   1      43.355  33.816  34.464  1.00  0.00     0.002 A 
ATOM     70  C   UNL A   1      42.095  32.516  36.080  1.00  0.00     0.091 A 
ATOM     71  F   UNL A   1      41.607  30.229  35.610  1.00  0.00    -0.205 F 
ATOM     72  C   UNL A   1      42.714  33.718  35.696  1.00  0.00     0.022 A 
BRANCH  70  73
ATOM     73  S   UNL A   1      41.221  32.519  37.648  1.00  0.00     0.127 S 
ATOM     74  O   UNL A   1      41.200  33.944  37.972  1.00  0.00    -0.237 OA
ATOM     75  O   UNL A   1      39.922  31.959  37.276  1.00  0.00    -0.237 OA
ATOM     76  O   UNL A   1      42.006  31.685  38.548  1.00  0.00    -0.744 OA
ENDBRANCH  70  73
ENDBRANCH  52  66
BRANCH  53  77
ATOM     77  C   UNL A   1      42.682  24.162  27.208  1.00  0.00     0.023 A 
ATOM     78  C   UNL A   1      43.355  24.391  25.991  1.00  0.00     0.012 A 
ATOM     79  C   UNL A   1      42.056  22.920  27.423  1.00  0.00     0.148 A 
ATOM     80  C   UNL A   1      43.373  23.414  24.994  1.00  0.00     0.002 A 
ATOM     81  C   UNL A   1      42.128  21.930  26.448  1.00  0.00     0.091 A 
ATOM     82  F   UNL A   1      41.415  22.724  28.584  1.00  0.00    -0.205 F 
ATOM     83  C   UNL A   1      42.768  22.183  25.225  1.00  0.00     0.022 A 
BRANCH  81  84
ATOM     84  S   UNL A   1      41.492  20.271  26.710  1.00  0.00     0.127 S 
ATOM     85  O   UNL A   1      40.062  20.521  26.876  1.00  0.00    -0.237 OA
ATOM     86  O   UNL A   1      41.861  19.607  25.459  1.00  0.00    -0.237 OA
ATOM     87  O   UNL A   1      42.185  19.763  27.887  1.00  0.00    -0.744 OA
ENDBRANCH  81  84
ENDBRANCH  53  77
BRANCH  65  88
ATOM     88  C   UNL A   1      47.039  25.911  32.379  1.00  0.00     0.023 A 
ATOM     89  C   UNL A   1      47.040  25.039  33.486  1.00  0.00     0.012 A 
ATOM     90  C   UNL A   1      48.246  26.161  31.694  1.00  0.00     0.148 A 
ATOM     91  C   UNL A   1      48.226  24.456  33.927  1.00  0.00     0.002 A 
ATOM     92  C   UNL A   1      49.414  25.533  32.106  1.00  0.00     0.091 A 
ATOM     93  F   UNL A   1      48.227  27.006  30.653  1.00  0.00    -0.205 F 
ATOM     94  C   UNL A   1      49.410  24.692  33.230  1.00  0.00     0.022 A 
BRANCH  92  95
ATOM     95  S   UNL A   1      50.963  25.697  31.211  1.00  0.00     0.127 S 
ATOM     96  O   UNL A   1      51.842  24.811  31.973  1.00  0.00    -0.237 OA
ATOM     97  O   UNL A   1      50.606  25.205  29.880  1.00  0.00    -0.237 OA
ATOM     98  O   UNL A   1      51.309  27.111  31.261  1.00  0.00    -0.744 OA
ENDBRANCH  92  95
ENDBRANCH  65  88
ENDBRANCH  39  40
ENDBRANCH  31  34
ENDBRANCH  29  30
ENDBRANCH  28  29
ENDBRANCH   1  28
TORSDOF 18
ENDMDL
MODEL 2
REMARK VINA RESULT:     -11.3      2.892      3.879
REMARK SMILES C[NH2+][C@]1(C(=O)NCCCNC(=O)c2ccc(-c3c4nc(c(-c5cccc(S(=O)(=O)[O-])c5F)c5ccc([nH]5)c(-c5cccc(S(=O)(=O)[O-])c5F)c5nc(c(-c6cccc(S(=O)(=O)[O-])c6F)c6ccc3[nH]6)C=C5)C=C4)cc2)CCC[C@@H]1CC[N@H+]1CCC[C@H]([NH+](C)C)C1
REMARK SMILES IDX 7 1 6 2 4 3 5 4 3 6 76 7 79 8 77 9 78 10 2 11 1 12 80 15
REMARK SMILES IDX 81 16 82 17 83 18 90 19 84 21 86 22 85 23 87 24 88 25 89 26
REMARK SMILES IDX 8 28 9 29 10 30 11 31 12 33 13 34 14 35 75 36 15 37 74 38
REMARK SMILES IDX 16 39 17 40 18 41 68 42 19 43 73 44 67 45 69 46 20 47 72 48
REMARK SMILES IDX 66 49 65 50 21 52 53 53 33 54 52 55 34 56 37 57 51 58 70 59
REMARK SMILES IDX 35 60 36 61 50 63 71 64 38 65 22 66 23 67 31 68 24 69 26 70
REMARK SMILES IDX 32 71 25 72 27 73 28 74 29 75 30 76 54 77 55 78 63 79 56 80
REMARK SMILES IDX 58 81 64 82 57 83 59 84 60 85 61 86 62 87 39 88 40 89 48 90
REMARK SMILES IDX 41 91 43 92 49 93 42 94 44 95 45 96 46 97 47 98
REMARK H PARENT 6 5 2 13 2 14 82 20 87 27 10 32 69 51 37 62
REMARK Flexibility Score: inf
ROOT
ATOM      1  C   UNL A   1      32.583  27.572  25.706  1.00  0.00     0.118 C 
ENDROOT
BRANCH   1   2
ATOM      2  N   UNL A   1      32.030  26.385  26.342  1.00  0.00    -0.351 N 
ATOM      3  C   UNL A   1      32.248  25.052  26.175  1.00  0.00     0.281 C 
ATOM      4  O   UNL A   1      31.560  24.320  26.901  1.00  0.00    -0.268 OA
ATOM      5  H   UNL A   1      31.361  26.589  27.036  1.00  0.00     0.163 HD
BRANCH   3   6
ATOM      6  C   UNL A   1      33.298  24.459  25.156  1.00  0.00     0.178 C 
ATOM      7  C   UNL A   1      34.673  25.118  25.380  1.00  0.00     0.079 C 
ATOM      8  C   UNL A   1      33.538  22.946  25.437  1.00  0.00     0.066 C 
ATOM      9  C   UNL A   1      35.721  24.053  25.086  1.00  0.00     0.008 C 
ATOM     10  C   UNL A   1      35.017  22.694  25.105  1.00  0.00     0.011 C 
BRANCH   6  11
ATOM     11  N   UNL A   1      32.801  24.808  23.799  1.00  0.00    -0.336 N 
ATOM     12  C   UNL A   1      33.695  25.313  22.787  1.00  0.00     0.331 C 
ATOM     13  H   UNL A   1      32.380  23.960  23.418  1.00  0.00     0.346 HD
ATOM     14  H   UNL A   1      32.194  25.607  23.982  1.00  0.00     0.346 HD
ENDBRANCH   6  11
BRANCH   8  15
ATOM     15  C   UNL A   1      32.555  21.988  24.738  1.00  0.00     0.072 C 
BRANCH  15  16
ATOM     16  C   UNL A   1      32.288  20.653  25.448  1.00  0.00     0.262 C 
BRANCH  16  17
ATOM     17  N   UNL A   1      32.621  19.413  24.736  1.00  0.00    -0.330 N 
ATOM     18  C   UNL A   1      32.191  19.344  23.337  1.00  0.00     0.262 C 
ATOM     19  C   UNL A   1      34.080  19.186  24.788  1.00  0.00     0.327 C 
ATOM     20  H   UNL A   1      32.096  18.687  25.225  1.00  0.00     0.348 HD
ATOM     21  C   UNL A   1      32.413  17.931  22.791  1.00  0.00     0.068 C 
ATOM     22  C   UNL A   1      34.494  17.766  24.317  1.00  0.00     0.239 C 
ATOM     23  C   UNL A   1      33.855  17.456  22.943  1.00  0.00     0.077 C 
BRANCH  22  24
ATOM     24  N   UNL A   1      34.362  16.673  25.315  1.00  0.00    -0.333 N 
ATOM     25  C   UNL A   1      33.135  15.899  25.115  1.00  0.00     0.332 C 
ATOM     26  C   UNL A   1      35.503  15.765  25.395  1.00  0.00     0.332 C 
ATOM     27  H   UNL A   1      34.323  17.165  26.208  1.00  0.00     0.348 HD
ENDBRANCH  22  24
ENDBRANCH  16  17
ENDBRANCH  15  16
ENDBRANCH   8  15
ENDBRANCH   3   6
ENDBRANCH   1   2
BRANCH   1  28
ATOM     28  C   UNL A   1      31.699  28.789  25.920  1.00  0.00     0.042 C 
BRANCH  28  29
ATOM     29  C   UNL A   1      32.079  29.616  27.140  1.00  0.00     0.118 C 
BRANCH  29  30
ATOM     30  N   UNL A   1      32.210  31.038  26.844  1.00  0.00    -0.352 N 
ATOM     31  C   UNL A   1      33.217  31.915  27.171  1.00  0.00     0.251 C 
ATOM     32  H   UNL A   1      31.464  31.428  26.332  1.00  0.00     0.163 HD
ATOM     33  O   UNL A   1      33.063  33.116  26.989  1.00  0.00    -0.269 OA
BRANCH  31  34
ATOM     34  C   UNL A   1      34.475  31.409  27.764  1.00  0.00     0.039 A 
ATOM     35  C   UNL A   1      35.491  32.316  28.076  1.00  0.00     0.014 A 
ATOM     36  C   UNL A   1      34.652  30.047  28.016  1.00  0.00     0.014 A 
ATOM     37  C   UNL A   1      36.653  31.863  28.709  1.00  0.00     0.010 A 
ATOM     38  C   UNL A   1      35.760  29.614  28.737  1.00  0.00     0.010 A 
ATOM     39  C   UNL A   1      36.779  30.514  29.080  1.00  0.00    -0.014 A 
BRANCH  39  40
ATOM     40  C   UNL A   1      37.967  30.022  29.825  1.00  0.00     0.031 A 
ATOM     41  C   UNL A   1      38.233  30.503  31.228  1.00  0.00     0.074 A 
ATOM     42  C   UNL A   1      38.854  29.214  29.211  1.00  0.00     0.049 A 
ATOM     43  N   UNL A   1      39.244  30.238  32.013  1.00  0.00    -0.248 NA
ATOM     44  C   UNL A   1      37.248  31.428  31.815  1.00  0.00     0.031 C 
ATOM     45  C   UNL A   1      38.753  28.741  27.828  1.00  0.00     0.029 A 
ATOM     46  N   UNL A   1      40.031  28.668  29.661  1.00  0.00    -0.354 N 
ATOM     47  C   UNL A   1      39.041  30.992  33.162  1.00  0.00     0.074 A 
ATOM     48  C   UNL A   1      37.830  31.755  32.959  1.00  0.00     0.031 C 
ATOM     49  C   UNL A   1      39.815  27.968  27.548  1.00  0.00     0.029 A 
ATOM     50  C   UNL A   1      40.692  27.921  28.713  1.00  0.00     0.049 A 
ATOM     51  H   UNL A   1      40.370  28.799  30.577  1.00  0.00     0.167 HD
ATOM     52  C   UNL A   1      39.778  31.027  34.298  1.00  0.00     0.034 A 
ATOM     53  C   UNL A   1      41.875  27.278  28.773  1.00  0.00     0.034 A 
ATOM     54  C   UNL A   1      40.958  30.235  34.513  1.00  0.00     0.049 A 
ATOM     55  C   UNL A   1      42.658  27.305  30.058  1.00  0.00     0.074 A 
ATOM     56  C   UNL A   1      41.722  30.125  35.661  1.00  0.00     0.029 A 
ATOM     57  N   UNL A   1      41.554  29.427  33.557  1.00  0.00    -0.354 N 
ATOM     58  N   UNL A   1      42.365  27.897  31.191  1.00  0.00    -0.248 NA
ATOM     59  C   UNL A   1      43.915  26.545  30.085  1.00  0.00     0.031 C 
ATOM     60  C   UNL A   1      42.802  29.279  35.387  1.00  0.00     0.029 A 
ATOM     61  C   UNL A   1      42.686  28.828  34.082  1.00  0.00     0.049 A 
ATOM     62  H   UNL A   1      41.222  29.299  32.639  1.00  0.00     0.167 HD
ATOM     63  C   UNL A   1      43.379  27.550  32.075  1.00  0.00     0.074 A 
ATOM     64  C   UNL A   1      44.284  26.680  31.352  1.00  0.00     0.031 C 
ATOM     65  C   UNL A   1      43.552  27.925  33.367  1.00  0.00     0.034 A 
BRANCH  52  66
ATOM     66  C   UNL A   1      39.306  31.923  35.414  1.00  0.00     0.023 A 
ATOM     67  C   UNL A   1      38.389  31.432  36.368  1.00  0.00     0.012 A 
ATOM     68  C   UNL A   1      39.805  33.233  35.550  1.00  0.00     0.148 A 
ATOM     69  C   UNL A   1      37.946  32.241  37.412  1.00  0.00     0.002 A 
ATOM     70  C   UNL A   1      39.398  34.017  36.623  1.00  0.00     0.091 A 
ATOM     71  F   UNL A   1      40.659  33.690  34.624  1.00  0.00    -0.205 F 
ATOM     72  C   UNL A   1      38.459  33.528  37.546  1.00  0.00     0.022 A 
BRANCH  70  73
ATOM     73  S   UNL A   1      40.062  35.656  36.932  1.00  0.00     0.127 S 
ATOM     74  O   UNL A   1      41.500  35.395  36.947  1.00  0.00    -0.237 OA
ATOM     75  O   UNL A   1      39.590  36.403  35.765  1.00  0.00    -0.237 OA
ATOM     76  O   UNL A   1      39.492  36.089  38.201  1.00  0.00    -0.744 OA
ENDBRANCH  70  73
ENDBRANCH  52  66
BRANCH  53  77
ATOM     77  C   UNL A   1      42.363  26.504  27.596  1.00  0.00     0.023 A 
ATOM     78  C   UNL A   1      43.176  27.140  26.638  1.00  0.00     0.012 A 
ATOM     79  C   UNL A   1      42.044  25.143  27.430  1.00  0.00     0.148 A 
ATOM     80  C   UNL A   1      43.634  26.445  25.518  1.00  0.00     0.002 A 
ATOM     81  C   UNL A   1      42.551  24.441  26.342  1.00  0.00     0.091 A 
ATOM     82  F   UNL A   1      41.262  24.557  28.348  1.00  0.00    -0.205 F 
ATOM     83  C   UNL A   1      43.329  25.095  25.375  1.00  0.00     0.022 A 
BRANCH  81  84
ATOM     84  S   UNL A   1      42.321  22.670  26.144  1.00  0.00     0.127 S 
ATOM     85  O   UNL A   1      42.989  22.423  24.868  1.00  0.00    -0.237 OA
ATOM     86  O   UNL A   1      43.017  22.144  27.318  1.00  0.00    -0.237 OA
ATOM     87  O   UNL A   1      40.879  22.456  26.153  1.00  0.00    -0.744 OA
ENDBRANCH  81  84
ENDBRANCH  53  77
BRANCH  65  88
ATOM     88  C   UNL A   1      44.737  27.363  34.108  1.00  0.00     0.023 A 
ATOM     89  C   UNL A   1      45.966  28.052  34.102  1.00  0.00     0.012 A 
ATOM     90  C   UNL A   1      44.607  26.186  34.873  1.00  0.00     0.148 A 
ATOM     91  C   UNL A   1      47.057  27.559  34.816  1.00  0.00     0.002 A 
ATOM     92  C   UNL A   1      45.682  25.732  35.625  1.00  0.00     0.091 A 
ATOM     93  F   UNL A   1      43.434  25.536  34.852  1.00  0.00    -0.205 F 
ATOM     94  C   UNL A   1      46.912  26.407  35.587  1.00  0.00     0.022 A 
BRANCH  92  95
ATOM     95  S   UNL A   1      45.559  24.317  36.726  1.00  0.00     0.127 S 
ATOM     96  O   UNL A   1      46.897  24.279  37.313  1.00  0.00    -0.237 OA
ATOM     97  O   UNL A   1      44.500  24.732  37.646  1.00  0.00    -0.237 OA
ATOM     98  O   UNL A   1      45.217  23.179  35.883  1.00  0.00    -0.744 OA
ENDBRANCH  92  95
ENDBRANCH  65  88
ENDBRANCH  39  40
ENDBRANCH  31  34
ENDBRANCH  29  30
ENDBRANCH  28  29
ENDBRANCH   1  28
TORSDOF 18
ENDMDL
MODEL 3
REMARK VINA RESULT:     -11.2      1.968      2.361
REMARK SMILES C[NH2+][C@]1(C(=O)NCCCNC(=O)c2ccc(-c3c4nc(c(-c5cccc(S(=O)(=O)[O-])c5F)c5ccc([nH]5)c(-c5cccc(S(=O)(=O)[O-])c5F)c5nc(c(-c6cccc(S(=O)(=O)[O-])c6F)c6ccc3[nH]6)C=C5)C=C4)cc2)CCC[C@@H]1CC[N@H+]1CCC[C@H]([NH+](C)C)C1
REMARK SMILES IDX 7 1 6 2 4 3 5 4 3 6 76 7 79 8 77 9 78 10 2 11 1 12 80 15
REMARK SMILES IDX 81 16 82 17 83 18 90 19 84 21 86 22 85 23 87 24 88 25 89 26
REMARK SMILES IDX 8 28 9 29 10 30 11 31 12 33 13 34 14 35 75 36 15 37 74 38
REMARK SMILES IDX 16 39 17 40 18 41 68 42 19 43 73 44 67 45 69 46 20 47 72 48
REMARK SMILES IDX 66 49 65 50 21 52 53 53 33 54 52 55 34 56 37 57 51 58 70 59
REMARK SMILES IDX 35 60 36 61 50 63 71 64 38 65 22 66 23 67 31 68 24 69 26 70
REMARK SMILES IDX 32 71 25 72 27 73 28 74 29 75 30 76 54 77 55 78 63 79 56 80
REMARK SMILES IDX 58 81 64 82 57 83 59 84 60 85 61 86 62 87 39 88 40 89 48 90
REMARK SMILES IDX 41 91 43 92 49 93 42 94 44 95 45 96 46 97 47 98
REMARK H PARENT 6 5 2 13 2 14 82 20 87 27 10 32 69 51 37 62
REMARK Flexibility Score: inf
ROOT
ATOM      1  C   UNL A   1      33.034  26.775  26.424  1.00  0.00     0.118 C 
ENDROOT
BRANCH   1   2
ATOM      2  N   UNL A   1      31.716  26.247  26.744  1.00  0.00    -0.351 N 
ATOM      3  C   UNL A   1      30.610  25.985  25.994  1.00  0.00     0.281 C 
ATOM      4  O   UNL A   1      29.643  25.548  26.634  1.00  0.00    -0.268 OA
ATOM      5  H   UNL A   1      31.600  26.037  27.699  1.00  0.00     0.163 HD
BRANCH   3   6
ATOM      6  C   UNL A   1      30.545  26.195  24.431  1.00  0.00     0.178 C 
ATOM      7  C   UNL A   1      31.089  27.590  24.068  1.00  0.00     0.079 C 
ATOM      8  C   UNL A   1      31.499  25.201  23.705  1.00  0.00     0.066 C 
ATOM      9  C   UNL A   1      31.785  27.450  22.720  1.00  0.00     0.008 C 
ATOM     10  C   UNL A   1      32.031  25.959  22.479  1.00  0.00     0.011 C 
BRANCH   6  11
ATOM     11  N   UNL A   1      29.107  26.118  24.063  1.00  0.00    -0.336 N 
ATOM     12  C   UNL A   1      28.370  27.300  23.689  1.00  0.00     0.331 C 
ATOM     13  H   UNL A   1      29.044  25.475  23.273  1.00  0.00     0.346 HD
ATOM     14  H   UNL A   1      28.665  25.847  24.942  1.00  0.00     0.346 HD
ENDBRANCH   6  11
BRANCH   8  15
ATOM     15  C   UNL A   1      30.887  23.823  23.387  1.00  0.00     0.072 C 
BRANCH  15  16
ATOM     16  C   UNL A   1      31.750  22.601  23.736  1.00  0.00     0.262 C 
BRANCH  16  17
ATOM     17  N   UNL A   1      32.865  22.787  24.673  1.00  0.00    -0.330 N 
ATOM     18  C   UNL A   1      32.536  22.647  26.094  1.00  0.00     0.262 C 
ATOM     19  C   UNL A   1      33.951  21.840  24.349  1.00  0.00     0.327 C 
ATOM     20  H   UNL A   1      33.146  23.760  24.547  1.00  0.00     0.348 HD
ATOM     21  C   UNL A   1      33.730  23.073  26.951  1.00  0.00     0.068 C 
ATOM     22  C   UNL A   1      35.276  22.152  25.094  1.00  0.00     0.239 C 
ATOM     23  C   UNL A   1      35.008  22.312  26.609  1.00  0.00     0.077 C 
BRANCH  22  24
ATOM     24  N   UNL A   1      36.129  23.218  24.507  1.00  0.00    -0.333 N 
ATOM     25  C   UNL A   1      37.114  23.718  25.469  1.00  0.00     0.332 C 
ATOM     26  C   UNL A   1      36.804  22.858  23.262  1.00  0.00     0.332 C 
ATOM     27  H   UNL A   1      35.465  23.956  24.271  1.00  0.00     0.348 HD
ENDBRANCH  22  24
ENDBRANCH  16  17
ENDBRANCH  15  16
ENDBRANCH   8  15
ENDBRANCH   3   6
ENDBRANCH   1   2
BRANCH   1  28
ATOM     28  C   UNL A   1      33.305  28.086  27.142  1.00  0.00     0.042 C 
BRANCH  28  29
ATOM     29  C   UNL A   1      34.174  29.052  26.349  1.00  0.00     0.118 C 
BRANCH  29  30
ATOM     30  N   UNL A   1      33.949  30.447  26.711  1.00  0.00    -0.352 N 
ATOM     31  C   UNL A   1      34.600  31.231  27.634  1.00  0.00     0.251 C 
ATOM     32  H   UNL A   1      33.221  30.893  26.220  1.00  0.00     0.163 HD
ATOM     33  O   UNL A   1      34.147  32.331  27.926  1.00  0.00    -0.269 OA
BRANCH  31  34
ATOM     34  C   UNL A   1      35.831  30.736  28.289  1.00  0.00     0.039 A 
ATOM     35  C   UNL A   1      35.724  29.774  29.297  1.00  0.00     0.014 A 
ATOM     36  C   UNL A   1      37.087  31.214  27.910  1.00  0.00     0.014 A 
ATOM     37  C   UNL A   1      36.882  29.240  29.869  1.00  0.00     0.010 A 
ATOM     38  C   UNL A   1      38.237  30.609  28.405  1.00  0.00     0.010 A 
ATOM     39  C   UNL A   1      38.149  29.624  29.400  1.00  0.00    -0.014 A 
BRANCH  39  40
ATOM     40  C   UNL A   1      39.393  29.014  29.935  1.00  0.00     0.031 A 
ATOM     41  C   UNL A   1      40.045  29.582  31.168  1.00  0.00     0.074 A 
ATOM     42  C   UNL A   1      39.987  28.007  29.263  1.00  0.00     0.049 A 
ATOM     43  N   UNL A   1      41.162  29.228  31.748  1.00  0.00    -0.248 NA
ATOM     44  C   UNL A   1      39.368  30.718  31.819  1.00  0.00     0.031 C 
ATOM     45  C   UNL A   1      39.499  27.420  28.012  1.00  0.00     0.029 A 
ATOM     46  N   UNL A   1      41.144  27.316  29.522  1.00  0.00    -0.354 N 
ATOM     47  C   UNL A   1      41.344  30.119  32.799  1.00  0.00     0.074 A 
ATOM     48  C   UNL A   1      40.242  31.054  32.756  1.00  0.00     0.031 C 
ATOM     49  C   UNL A   1      40.344  26.453  27.620  1.00  0.00     0.029 A 
ATOM     50  C   UNL A   1      41.451  26.374  28.567  1.00  0.00     0.049 A 
ATOM     51  H   UNL A   1      41.703  27.479  30.317  1.00  0.00     0.167 HD
ATOM     52  C   UNL A   1      42.323  30.142  33.735  1.00  0.00     0.034 A 
ATOM     53  C   UNL A   1      42.510  25.547  28.460  1.00  0.00     0.034 A 
ATOM     54  C   UNL A   1      43.393  29.185  33.800  1.00  0.00     0.049 A 
ATOM     55  C   UNL A   1      43.566  25.570  29.532  1.00  0.00     0.074 A 
ATOM     56  C   UNL A   1      44.379  29.063  34.762  1.00  0.00     0.029 A 
ATOM     57  N   UNL A   1      43.627  28.195  32.859  1.00  0.00    -0.354 N 
ATOM     58  N   UNL A   1      43.634  26.316  30.609  1.00  0.00    -0.248 NA
ATOM     59  C   UNL A   1      44.672  24.612  29.394  1.00  0.00     0.031 C 
ATOM     60  C   UNL A   1      45.232  28.021  34.384  1.00  0.00     0.029 A 
ATOM     61  C   UNL A   1      44.751  27.466  33.208  1.00  0.00     0.049 A 
ATOM     62  H   UNL A   1      43.075  28.032  32.060  1.00  0.00     0.167 HD
ATOM     63  C   UNL A   1      44.765  25.890  31.295  1.00  0.00     0.074 A 
ATOM     64  C   UNL A   1      45.341  24.810  30.522  1.00  0.00     0.031 C 
ATOM     65  C   UNL A   1      45.286  26.360  32.456  1.00  0.00     0.034 A 
BRANCH  52  66
ATOM     66  C   UNL A   1      42.257  31.215  34.792  1.00  0.00     0.023 A 
ATOM     67  C   UNL A   1      41.595  30.959  36.011  1.00  0.00     0.012 A 
ATOM     68  C   UNL A   1      42.894  32.456  34.601  1.00  0.00     0.148 A 
ATOM     69  C   UNL A   1      41.531  31.934  37.005  1.00  0.00     0.002 A 
ATOM     70  C   UNL A   1      42.870  33.406  35.616  1.00  0.00     0.091 A 
ATOM     71  F   UNL A   1      43.501  32.691  33.430  1.00  0.00    -0.205 F 
ATOM     72  C   UNL A   1      42.177  33.152  36.812  1.00  0.00     0.022 A 
BRANCH  70  73
ATOM     73  S   UNL A   1      43.741  34.971  35.501  1.00  0.00     0.127 S 
ATOM     74  O   UNL A   1      45.117  34.528  35.285  1.00  0.00    -0.237 OA
ATOM     75  O   UNL A   1      43.109  35.589  34.335  1.00  0.00    -0.237 OA
ATOM     76  O   UNL A   1      43.498  35.662  36.760  1.00  0.00    -0.744 OA
ENDBRANCH  70  73
ENDBRANCH  52  66
BRANCH  53  77
ATOM     77  C   UNL A   1      42.593  24.585  27.325  1.00  0.00     0.023 A 
ATOM     78  C   UNL A   1      43.233  24.976  26.131  1.00  0.00     0.012 A 
ATOM     79  C   UNL A   1      42.063  23.285  27.424  1.00  0.00     0.148 A 
ATOM     80  C   UNL A   1      43.311  24.102  25.047  1.00  0.00     0.002 A 
ATOM     81  C   UNL A   1      42.195  22.400  26.360  1.00  0.00     0.091 A 
ATOM     82  F   UNL A   1      41.451  22.934  28.564  1.00  0.00    -0.205 F 
ATOM     83  C   UNL A   1      42.801  22.813  25.163  1.00  0.00     0.022 A 
BRANCH  81  84
ATOM     84  S   UNL A   1      41.686  20.680  26.466  1.00  0.00     0.127 S 
ATOM     85  O   UNL A   1      40.252  20.776  26.202  1.00  0.00    -0.237 OA
ATOM     86  O   UNL A   1      42.471  20.068  25.394  1.00  0.00    -0.237 OA
ATOM     87  O   UNL A   1      42.053  20.242  27.806  1.00  0.00    -0.744 OA
ENDBRANCH  81  84
ENDBRANCH  53  77
BRANCH  65  88
ATOM     88  C   UNL A   1      46.518  25.681  32.997  1.00  0.00     0.023 A 
ATOM     89  C   UNL A   1      47.796  26.201  32.710  1.00  0.00     0.012 A 
ATOM     90  C   UNL A   1      46.400  24.567  33.853  1.00  0.00     0.148 A 
ATOM     91  C   UNL A   1      48.938  25.602  33.238  1.00  0.00     0.002 A 
ATOM     92  C   UNL A   1      47.539  24.010  34.418  1.00  0.00     0.091 A 
ATOM     93  F   UNL A   1      45.177  24.077  34.100  1.00  0.00    -0.205 F 
ATOM     94  C   UNL A   1      48.810  24.515  34.101  1.00  0.00     0.022 A 
BRANCH  92  95
ATOM     95  S   UNL A   1      47.465  22.675  35.619  1.00  0.00     0.127 S 
ATOM     96  O   UNL A   1      48.880  22.478  35.932  1.00  0.00    -0.237 OA
ATOM     97  O   UNL A   1      46.679  23.272  36.698  1.00  0.00    -0.237 OA
ATOM     98  O   UNL A   1      46.816  21.560  34.942  1.00  0.00    -0.744 OA
ENDBRANCH  92  95
ENDBRANCH  65  88
ENDBRANCH  39  40
ENDBRANCH  31  34
ENDBRANCH  29  30
ENDBRANCH  28  29
ENDBRANCH   1  28
TORSDOF 18
ENDMDL
