MODEL 1
REMARK VINA RESULT:     -12.5      0.000      0.000
REMARK SMILES CC(C)c1nc(N2C[C@H](C)OC(C)(C)C2)sc1C(=O)NCCCNC(=O)c1ccc(-c2c3nc(c(-c4cccc(S(=O)(=O)[O-])c4F)c4ccc([nH]4)c(-c4cccc(S(=O)(=O)[O-])c4F)c4nc(c(-c5cccc(S(=O)(=O)[O-])c5F)c5ccc2[nH]5)C=C4)C=C3)cc1
REMARK SMILES IDX 23 1 22 2 21 3 20 4 18 5 19 6 17 8 4 9 5 10 6 11 16 12 2 13
REMARK SMILES IDX 1 14 3 15 7 16 8 17 15 18 9 19 12 20 11 21 10 22 13 23 14 24
REMARK SMILES IDX 24 25 25 26 26 28 27 29 28 30 89 31 29 32 88 33 30 34 31 35
REMARK SMILES IDX 32 36 82 37 33 38 87 39 81 40 83 41 34 42 86 43 80 44 79 45
REMARK SMILES IDX 35 47 67 48 47 49 66 50 48 51 51 52 65 53 84 54 49 55 50 56
REMARK SMILES IDX 64 58 85 59 52 60 36 61 37 62 45 63 38 64 40 65 46 66 39 67
REMARK SMILES IDX 41 68 42 69 43 70 44 71 68 72 69 73 77 74 70 75 72 76 78 77
REMARK SMILES IDX 71 78 73 79 74 80 75 81 76 82 53 83 54 84 62 85 55 86 57 87
REMARK SMILES IDX 63 88 56 89 58 90 59 91 60 92 61 93
REMARK H PARENT 20 7 24 27 83 46 51 57
REMARK Flexibility Score: inf
ROOT
ATOM      1  C   UNL A   1      37.015  21.817  25.591  1.00  0.00     0.118 C 
ENDROOT
BRANCH   1   2
ATOM      2  C   UNL A   1      36.088  21.344  24.488  1.00  0.00     0.042 C 
BRANCH   2   3
ATOM      3  C   UNL A   1      34.948  20.494  25.014  1.00  0.00     0.118 C 
BRANCH   3   4
ATOM      4  N   UNL A   1      34.438  20.935  26.277  1.00  0.00    -0.351 N 
ATOM      5  C   UNL A   1      33.497  21.855  26.648  1.00  0.00     0.263 C 
ATOM      6  O   UNL A   1      33.280  21.785  27.868  1.00  0.00    -0.268 OA
ATOM      7  H   UNL A   1      34.855  20.477  27.042  1.00  0.00     0.163 HD
BRANCH   5   8
ATOM      8  C   UNL A   1      32.795  22.821  25.788  1.00  0.00     0.117 A 
ATOM      9  C   UNL A   1      32.506  23.107  24.446  1.00  0.00     0.069 A 
ATOM     10  N   UNL A   1      31.673  24.215  24.256  1.00  0.00    -0.224 NA
ATOM     11  C   UNL A   1      31.474  24.890  25.353  1.00  0.00     0.186 A 
ATOM     12  S   UNL A   1      32.093  24.126  26.739  1.00  0.00    -0.091 S 
BRANCH   9  13
ATOM     13  C   UNL A   1      32.918  22.537  23.106  1.00  0.00     0.034 C 
ATOM     14  C   UNL A   1      32.079  21.311  22.725  1.00  0.00     0.014 C 
ATOM     15  C   UNL A   1      33.181  23.580  22.013  1.00  0.00     0.014 C 
ENDBRANCH   9  13
BRANCH  11  16
ATOM     16  N   UNL A   1      30.797  26.061  25.391  1.00  0.00    -0.343 N 
ATOM     17  C   UNL A   1      31.107  27.097  26.373  1.00  0.00     0.150 C 
ATOM     18  C   UNL A   1      30.021  26.496  24.232  1.00  0.00     0.153 C 
ATOM     19  C   UNL A   1      31.739  28.308  25.657  1.00  0.00     0.135 C 
ATOM     20  C   UNL A   1      30.580  27.802  23.606  1.00  0.00     0.081 C 
ATOM     21  O   UNL A   1      30.873  28.798  24.615  1.00  0.00    -0.369 OA
ATOM     22  C   UNL A   1      31.973  29.451  26.635  1.00  0.00     0.040 C 
ATOM     23  C   UNL A   1      31.813  27.546  22.728  1.00  0.00     0.044 C 
ATOM     24  C   UNL A   1      29.483  28.422  22.727  1.00  0.00     0.044 C 
ENDBRANCH  11  16
ENDBRANCH   5   8
ENDBRANCH   3   4
ENDBRANCH   2   3
ENDBRANCH   1   2
BRANCH   1  25
ATOM     25  N   UNL A   1      38.120  20.887  25.827  1.00  0.00    -0.352 N 
ATOM     26  C   UNL A   1      39.417  21.106  26.228  1.00  0.00     0.251 C 
ATOM     27  H   UNL A   1      37.898  19.941  25.671  1.00  0.00     0.163 HD
ATOM     28  O   UNL A   1      40.224  20.181  26.178  1.00  0.00    -0.269 OA
BRANCH  26  29
ATOM     29  C   UNL A   1      39.847  22.442  26.694  1.00  0.00     0.039 A 
ATOM     30  C   UNL A   1      40.825  22.544  27.687  1.00  0.00     0.014 A 
ATOM     31  C   UNL A   1      39.288  23.598  26.152  1.00  0.00     0.014 A 
ATOM     32  C   UNL A   1      41.296  23.804  28.068  1.00  0.00     0.010 A 
ATOM     33  C   UNL A   1      39.857  24.833  26.424  1.00  0.00     0.010 A 
ATOM     34  C   UNL A   1      40.851  24.957  27.403  1.00  0.00    -0.014 A 
BRANCH  34  35
ATOM     35  C   UNL A   1      41.382  26.311  27.714  1.00  0.00     0.031 A 
ATOM     36  C   UNL A   1      42.802  26.660  27.347  1.00  0.00     0.074 A 
ATOM     37  C   UNL A   1      40.633  27.178  28.424  1.00  0.00     0.049 A 
ATOM     38  N   UNL A   1      43.492  27.730  27.643  1.00  0.00    -0.248 NA
ATOM     39  C   UNL A   1      43.567  25.651  26.590  1.00  0.00     0.031 C 
ATOM     40  C   UNL A   1      39.277  26.925  28.920  1.00  0.00     0.029 A 
ATOM     41  N   UNL A   1      40.918  28.442  28.877  1.00  0.00    -0.354 N 
ATOM     42  C   UNL A   1      44.776  27.499  27.161  1.00  0.00     0.074 A 
ATOM     43  C   UNL A   1      44.785  26.169  26.599  1.00  0.00     0.031 C 
ATOM     44  C   UNL A   1      38.843  28.004  29.591  1.00  0.00     0.029 A 
ATOM     45  C   UNL A   1      39.900  29.010  29.608  1.00  0.00     0.049 A 
ATOM     46  H   UNL A   1      41.771  28.899  28.697  1.00  0.00     0.167 HD
ATOM     47  C   UNL A   1      45.843  28.332  27.150  1.00  0.00     0.034 A 
ATOM     48  C   UNL A   1      39.828  30.205  30.226  1.00  0.00     0.034 A 
ATOM     49  C   UNL A   1      45.805  29.683  27.639  1.00  0.00     0.049 A 
ATOM     50  C   UNL A   1      41.002  31.142  30.135  1.00  0.00     0.074 A 
ATOM     51  C   UNL A   1      46.795  30.647  27.578  1.00  0.00     0.029 A 
ATOM     52  N   UNL A   1      44.718  30.260  28.274  1.00  0.00    -0.354 N 
ATOM     53  N   UNL A   1      42.157  30.961  29.541  1.00  0.00    -0.248 NA
ATOM     54  C   UNL A   1      40.853  32.459  30.768  1.00  0.00     0.031 C 
ATOM     55  C   UNL A   1      46.309  31.805  28.195  1.00  0.00     0.029 A 
ATOM     56  C   UNL A   1      45.009  31.569  28.614  1.00  0.00     0.049 A 
ATOM     57  H   UNL A   1      43.863  29.807  28.456  1.00  0.00     0.167 HD
ATOM     58  C   UNL A   1      42.855  32.153  29.694  1.00  0.00     0.074 A 
ATOM     59  C   UNL A   1      41.985  33.055  30.420  1.00  0.00     0.031 C 
ATOM     60  C   UNL A   1      44.109  32.469  29.284  1.00  0.00     0.034 A 
BRANCH  47  61
ATOM     61  C   UNL A   1      47.121  27.828  26.527  1.00  0.00     0.023 A 
ATOM     62  C   UNL A   1      48.099  27.218  27.340  1.00  0.00     0.012 A 
ATOM     63  C   UNL A   1      47.334  27.913  25.138  1.00  0.00     0.148 A 
ATOM     64  C   UNL A   1      49.286  26.740  26.789  1.00  0.00     0.002 A 
ATOM     65  C   UNL A   1      48.498  27.387  24.588  1.00  0.00     0.091 A 
ATOM     66  F   UNL A   1      46.404  28.514  24.382  1.00  0.00    -0.205 F 
ATOM     67  C   UNL A   1      49.481  26.814  25.413  1.00  0.00     0.022 A 
BRANCH  65  68
ATOM     68  S   UNL A   1      48.809  27.358  22.820  1.00  0.00     0.127 S 
ATOM     69  O   UNL A   1      50.261  27.532  22.772  1.00  0.00    -0.237 OA
ATOM     70  O   UNL A   1      48.343  26.023  22.448  1.00  0.00    -0.237 OA
ATOM     71  O   UNL A   1      48.031  28.453  22.256  1.00  0.00    -0.744 OA
ENDBRANCH  65  68
ENDBRANCH  47  61
BRANCH  48  72
ATOM     72  C   UNL A   1      38.571  30.616  30.915  1.00  0.00     0.023 A 
ATOM     73  C   UNL A   1      38.428  30.359  32.293  1.00  0.00     0.012 A 
ATOM     74  C   UNL A   1      37.534  31.278  30.229  1.00  0.00     0.148 A 
ATOM     75  C   UNL A   1      37.262  30.722  32.969  1.00  0.00     0.002 A 
ATOM     76  C   UNL A   1      36.399  31.686  30.921  1.00  0.00     0.091 A 
ATOM     77  F   UNL A   1      37.685  31.506  28.918  1.00  0.00    -0.205 F 
ATOM     78  C   UNL A   1      36.252  31.394  32.285  1.00  0.00     0.022 A 
BRANCH  76  79
ATOM     79  S   UNL A   1      35.106  32.671  30.154  1.00  0.00     0.127 S 
ATOM     80  O   UNL A   1      34.175  32.859  31.263  1.00  0.00    -0.237 OA
ATOM     81  O   UNL A   1      35.840  33.872  29.754  1.00  0.00    -0.237 OA
ATOM     82  O   UNL A   1      34.612  31.872  29.041  1.00  0.00    -0.744 OA
ENDBRANCH  76  79
ENDBRANCH  48  72
BRANCH  60  83
ATOM     83  C   UNL A   1      44.607  33.861  29.570  1.00  0.00     0.023 A 
ATOM     84  C   UNL A   1      45.247  34.141  30.792  1.00  0.00     0.012 A 
ATOM     85  C   UNL A   1      44.511  34.868  28.590  1.00  0.00     0.148 A 
ATOM     86  C   UNL A   1      45.759  35.412  31.048  1.00  0.00     0.002 A 
ATOM     87  C   UNL A   1      45.068  36.117  28.831  1.00  0.00     0.091 A 
ATOM     88  F   UNL A   1      43.881  34.585  27.440  1.00  0.00    -0.205 F 
ATOM     89  C   UNL A   1      45.681  36.395  30.064  1.00  0.00     0.022 A 
BRANCH  87  90
ATOM     90  S   UNL A   1      45.104  37.411  27.585  1.00  0.00     0.127 S 
ATOM     91  O   UNL A   1      43.691  37.522  27.230  1.00  0.00    -0.237 OA
ATOM     92  O   UNL A   1      45.636  38.549  28.336  1.00  0.00    -0.237 OA
ATOM     93  O   UNL A   1      45.979  36.925  26.527  1.00  0.00    -0.744 OA
ENDBRANCH  87  90
ENDBRANCH  60  83
ENDBRANCH  34  35
ENDBRANCH  26  29
ENDBRANCH   1  25
TORSDOF 15
ENDMDL
MODEL 2
REMARK VINA RESULT:     -12.4      5.672      8.983
REMARK SMILES CC(C)c1nc(N2C[C@H](C)OC(C)(C)C2)sc1C(=O)NCCCNC(=O)c1ccc(-c2c3nc(c(-c4cccc(S(=O)(=O)[O-])c4F)c4ccc([nH]4)c(-c4cccc(S(=O)(=O)[O-])c4F)c4nc(c(-c5cccc(S(=O)(=O)[O-])c5F)c5ccc2[nH]5)C=C4)C=C3)cc1
REMARK SMILES IDX 23 1 22 2 21 3 20 4 18 5 19 6 17 8 4 9 5 10 6 11 16 12 2 13
REMARK SMILES IDX 1 14 3 15 7 16 8 17 15 18 9 19 12 20 11 21 10 22 13 23 14 24
REMARK SMILES IDX 24 25 25 26 26 28 27 29 28 30 89 31 29 32 88 33 30 34 31 35
REMARK SMILES IDX 32 36 82 37 33 38 87 39 81 40 83 41 34 42 86 43 80 44 79 45
REMARK SMILES IDX 35 47 67 48 47 49 66 50 48 51 51 52 65 53 84 54 49 55 50 56
REMARK SMILES IDX 64 58 85 59 52 60 36 61 37 62 45 63 38 64 40 65 46 66 39 67
REMARK SMILES IDX 41 68 42 69 43 70 44 71 68 72 69 73 77 74 70 75 72 76 78 77
REMARK SMILES IDX 71 78 73 79 74 80 75 81 76 82 53 83 54 84 62 85 55 86 57 87
REMARK SMILES IDX 63 88 56 89 58 90 59 91 60 92 61 93
REMARK H PARENT 20 7 24 27 83 46 51 57
REMARK Flexibility Score: inf
ROOT
ATOM      1  C   UNL A   1      32.751  32.410  27.285  1.00  0.00     0.118 C 
ENDROOT
BRANCH   1   2
ATOM      2  C   UNL A   1      31.604  31.803  26.501  1.00  0.00     0.042 C 
BRANCH   2   3
ATOM      3  C   UNL A   1      31.812  30.330  26.215  1.00  0.00     0.118 C 
BRANCH   3   4
ATOM      4  N   UNL A   1      32.723  30.077  25.140  1.00  0.00    -0.351 N 
ATOM      5  C   UNL A   1      32.901  29.032  24.277  1.00  0.00     0.263 C 
ATOM      6  O   UNL A   1      33.730  29.330  23.401  1.00  0.00    -0.268 OA
ATOM      7  H   UNL A   1      33.358  30.815  24.991  1.00  0.00     0.163 HD
BRANCH   5   8
ATOM      8  C   UNL A   1      32.243  27.717  24.309  1.00  0.00     0.117 A 
ATOM      9  C   UNL A   1      31.001  27.092  24.120  1.00  0.00     0.069 A 
ATOM     10  N   UNL A   1      31.031  25.698  24.238  1.00  0.00    -0.224 NA
ATOM     11  C   UNL A   1      32.169  25.254  24.689  1.00  0.00     0.186 A 
ATOM     12  S   UNL A   1      33.367  26.454  24.801  1.00  0.00    -0.091 S 
BRANCH   9  13
ATOM     13  C   UNL A   1      29.585  27.557  23.862  1.00  0.00     0.034 C 
ATOM     14  C   UNL A   1      29.519  28.584  22.725  1.00  0.00     0.014 C 
ATOM     15  C   UNL A   1      28.527  26.447  23.872  1.00  0.00     0.014 C 
ENDBRANCH   9  13
BRANCH  11  16
ATOM     16  N   UNL A   1      32.391  23.955  24.994  1.00  0.00    -0.343 N 
ATOM     17  C   UNL A   1      31.734  22.871  24.268  1.00  0.00     0.150 C 
ATOM     18  C   UNL A   1      33.570  23.575  25.768  1.00  0.00     0.153 C 
ATOM     19  C   UNL A   1      32.779  22.111  23.425  1.00  0.00     0.135 C 
ATOM     20  C   UNL A   1      34.548  22.685  24.956  1.00  0.00     0.081 C 
ATOM     21  O   UNL A   1      33.853  21.627  24.254  1.00  0.00    -0.369 OA
ATOM     22  C   UNL A   1      32.147  20.906  22.741  1.00  0.00     0.040 C 
ATOM     23  C   UNL A   1      35.409  23.503  23.983  1.00  0.00     0.044 C 
ATOM     24  C   UNL A   1      35.484  21.972  25.944  1.00  0.00     0.044 C 
ENDBRANCH  11  16
ENDBRANCH   5   8
ENDBRANCH   3   4
ENDBRANCH   2   3
ENDBRANCH   1   2
BRANCH   1  25
ATOM     25  N   UNL A   1      32.531  33.825  27.590  1.00  0.00    -0.352 N 
ATOM     26  C   UNL A   1      33.082  34.639  28.552  1.00  0.00     0.251 C 
ATOM     27  H   UNL A   1      31.874  34.271  27.008  1.00  0.00     0.163 HD
ATOM     28  O   UNL A   1      32.601  35.755  28.739  1.00  0.00    -0.269 OA
BRANCH  26  29
ATOM     29  C   UNL A   1      34.223  34.175  29.370  1.00  0.00     0.039 A 
ATOM     30  C   UNL A   1      33.981  33.450  30.540  1.00  0.00     0.014 A 
ATOM     31  C   UNL A   1      35.533  34.452  28.986  1.00  0.00     0.014 A 
ATOM     32  C   UNL A   1      35.058  32.935  31.270  1.00  0.00     0.010 A 
ATOM     33  C   UNL A   1      36.588  33.821  29.626  1.00  0.00     0.010 A 
ATOM     34  C   UNL A   1      36.369  33.074  30.790  1.00  0.00    -0.014 A 
BRANCH  34  35
ATOM     35  C   UNL A   1      37.539  32.475  31.485  1.00  0.00     0.031 A 
ATOM     36  C   UNL A   1      38.294  31.342  30.838  1.00  0.00     0.074 A 
ATOM     37  C   UNL A   1      37.848  32.867  32.738  1.00  0.00     0.049 A 
ATOM     38  N   UNL A   1      39.253  30.602  31.329  1.00  0.00    -0.248 NA
ATOM     39  C   UNL A   1      37.883  30.954  29.475  1.00  0.00     0.031 C 
ATOM     40  C   UNL A   1      37.137  33.889  33.510  1.00  0.00     0.029 A 
ATOM     41  N   UNL A   1      38.828  32.430  33.594  1.00  0.00    -0.354 N 
ATOM     42  C   UNL A   1      39.517  29.635  30.366  1.00  0.00     0.074 A 
ATOM     43  C   UNL A   1      38.585  29.849  29.283  1.00  0.00     0.031 C 
ATOM     44  C   UNL A   1      37.713  34.013  34.716  1.00  0.00     0.029 A 
ATOM     45  C   UNL A   1      38.809  33.056  34.820  1.00  0.00     0.049 A 
ATOM     46  H   UNL A   1      39.483  31.736  33.354  1.00  0.00     0.167 HD
ATOM     47  C   UNL A   1      40.475  28.678  30.360  1.00  0.00     0.034 A 
ATOM     48  C   UNL A   1      39.586  32.874  35.906  1.00  0.00     0.034 A 
ATOM     49  C   UNL A   1      41.450  28.521  31.405  1.00  0.00     0.049 A 
ATOM     50  C   UNL A   1      40.690  31.854  35.847  1.00  0.00     0.074 A 
ATOM     51  C   UNL A   1      42.529  27.657  31.450  1.00  0.00     0.029 A 
ATOM     52  N   UNL A   1      41.467  29.249  32.583  1.00  0.00    -0.354 N 
ATOM     53  N   UNL A   1      41.021  31.052  34.864  1.00  0.00    -0.248 NA
ATOM     54  C   UNL A   1      41.552  31.739  37.031  1.00  0.00     0.031 C 
ATOM     55  C   UNL A   1      43.189  27.851  32.669  1.00  0.00     0.029 A 
ATOM     56  C   UNL A   1      42.535  28.854  33.368  1.00  0.00     0.049 A 
ATOM     57  H   UNL A   1      40.814  29.945  32.827  1.00  0.00     0.167 HD
ATOM     58  C   UNL A   1      42.149  30.366  35.296  1.00  0.00     0.074 A 
ATOM     59  C   UNL A   1      42.458  30.861  36.621  1.00  0.00     0.031 C 
ATOM     60  C   UNL A   1      42.859  29.401  34.658  1.00  0.00     0.034 A 
BRANCH  47  61
ATOM     61  C   UNL A   1      40.558  27.773  29.157  1.00  0.00     0.023 A 
ATOM     62  C   UNL A   1      39.677  26.676  29.049  1.00  0.00     0.012 A 
ATOM     63  C   UNL A   1      41.468  28.032  28.115  1.00  0.00     0.148 A 
ATOM     64  C   UNL A   1      39.730  25.828  27.944  1.00  0.00     0.002 A 
ATOM     65  C   UNL A   1      41.480  27.211  26.992  1.00  0.00     0.091 A 
ATOM     66  F   UNL A   1      42.312  29.066  28.243  1.00  0.00    -0.205 F 
ATOM     67  C   UNL A   1      40.623  26.101  26.912  1.00  0.00     0.022 A 
BRANCH  65  68
ATOM     68  S   UNL A   1      42.533  27.523  25.572  1.00  0.00     0.127 S 
ATOM     69  O   UNL A   1      43.858  27.559  26.189  1.00  0.00    -0.237 OA
ATOM     70  O   UNL A   1      42.280  26.349  24.738  1.00  0.00    -0.237 OA
ATOM     71  O   UNL A   1      42.077  28.784  25.002  1.00  0.00    -0.744 OA
ENDBRANCH  65  68
ENDBRANCH  47  61
BRANCH  48  72
ATOM     72  C   UNL A   1      39.397  33.732  37.111  1.00  0.00     0.023 A 
ATOM     73  C   UNL A   1      39.862  35.062  37.088  1.00  0.00     0.012 A 
ATOM     74  C   UNL A   1      38.741  33.255  38.263  1.00  0.00     0.148 A 
ATOM     75  C   UNL A   1      39.710  35.890  38.200  1.00  0.00     0.002 A 
ATOM     76  C   UNL A   1      38.544  34.103  39.347  1.00  0.00     0.091 A 
ATOM     77  F   UNL A   1      38.314  31.985  38.270  1.00  0.00    -0.205 F 
ATOM     78  C   UNL A   1      39.043  35.415  39.325  1.00  0.00     0.022 A 
BRANCH  76  79
ATOM     79  S   UNL A   1      37.583  33.619  40.786  1.00  0.00     0.127 S 
ATOM     80  O   UNL A   1      36.377  33.073  40.170  1.00  0.00    -0.237 OA
ATOM     81  O   UNL A   1      38.458  32.629  41.414  1.00  0.00    -0.237 OA
ATOM     82  O   UNL A   1      37.400  34.837  41.564  1.00  0.00    -0.744 OA
ENDBRANCH  76  79
ENDBRANCH  48  72
BRANCH  60  83
ATOM     83  C   UNL A   1      44.067  28.843  35.363  1.00  0.00     0.023 A 
ATOM     84  C   UNL A   1      45.328  29.440  35.177  1.00  0.00     0.012 A 
ATOM     85  C   UNL A   1      43.932  27.776  36.273  1.00  0.00     0.148 A 
ATOM     86  C   UNL A   1      46.445  28.965  35.864  1.00  0.00     0.002 A 
ATOM     87  C   UNL A   1      45.037  27.341  36.992  1.00  0.00     0.091 A 
ATOM     88  F   UNL A   1      42.725  27.210  36.422  1.00  0.00    -0.205 F 
ATOM     89  C   UNL A   1      46.297  27.925  36.780  1.00  0.00     0.022 A 
BRANCH  87  90
ATOM     90  S   UNL A   1      44.922  26.078  38.265  1.00  0.00     0.127 S 
ATOM     91  O   UNL A   1      43.999  26.695  39.214  1.00  0.00    -0.237 OA
ATOM     92  O   UNL A   1      44.370  24.942  37.525  1.00  0.00    -0.237 OA
ATOM     93  O   UNL A   1      46.280  25.876  38.753  1.00  0.00    -0.744 OA
ENDBRANCH  87  90
ENDBRANCH  60  83
ENDBRANCH  34  35
ENDBRANCH  26  29
ENDBRANCH   1  25
TORSDOF 15
ENDMDL
MODEL 3
REMARK VINA RESULT:     -12.4      5.045     10.252
REMARK SMILES CC(C)c1nc(N2C[C@H](C)OC(C)(C)C2)sc1C(=O)NCCCNC(=O)c1ccc(-c2c3nc(c(-c4cccc(S(=O)(=O)[O-])c4F)c4ccc([nH]4)c(-c4cccc(S(=O)(=O)[O-])c4F)c4nc(c(-c5cccc(S(=O)(=O)[O-])c5F)c5ccc2[nH]5)C=C4)C=C3)cc1
REMARK SMILES IDX 23 1 22 2 21 3 20 4 18 5 19 6 17 8 4 9 5 10 6 11 16 12 2 13
REMARK SMILES IDX 1 14 3 15 7 16 8 17 15 18 9 19 12 20 11 21 10 22 13 23 14 24
REMARK SMILES IDX 24 25 25 26 26 28 27 29 28 30 89 31 29 32 88 33 30 34 31 35
REMARK SMILES IDX 32 36 82 37 33 38 87 39 81 40 83 41 34 42 86 43 80 44 79 45
REMARK SMILES IDX 35 47 67 48 47 49 66 50 48 51 51 52 65 53 84 54 49 55 50 56
REMARK SMILES IDX 64 58 85 59 52 60 36 61 37 62 45 63 38 64 40 65 46 66 39 67
REMARK SMILES IDX 41 68 42 69 43 70 44 71 68 72 69 73 77 74 70 75 72 76 78 77
REMARK SMILES IDX 71 78 73 79 74 80 75 81 76 82 53 83 54 84 62 85 55 86 57 87
REMARK SMILES IDX 63 88 56 89 58 90 59 91 60 92 61 93
REMARK H PARENT 20 7 24 27 83 46 51 57
REMARK Flexibility Score: inf
ROOT
ATOM      1  C   UNL A   1      32.057  29.516  27.075  1.00  0.00     0.118 C 
ENDROOT
BRANCH   1   2
ATOM      2  C   UNL A   1      31.828  28.766  25.777  1.00  0.00     0.042 C 
BRANCH   2   3
ATOM      3  C   UNL A   1      32.644  29.328  24.630  1.00  0.00     0.118 C 
BRANCH   3   4
ATOM      4  N   UNL A   1      31.954  29.319  23.376  1.00  0.00    -0.351 N 
ATOM      5  C   UNL A   1      31.326  28.346  22.649  1.00  0.00     0.263 C 
ATOM      6  O   UNL A   1      30.729  28.844  21.681  1.00  0.00    -0.268 OA
ATOM      7  H   UNL A   1      31.925  30.203  22.944  1.00  0.00     0.163 HD
BRANCH   5   8
ATOM      8  C   UNL A   1      31.307  26.898  22.911  1.00  0.00     0.117 A 
ATOM      9  C   UNL A   1      30.531  25.885  23.494  1.00  0.00     0.069 A 
ATOM     10  N   UNL A   1      31.062  24.598  23.357  1.00  0.00    -0.224 NA
ATOM     11  C   UNL A   1      32.273  24.600  22.880  1.00  0.00     0.186 A 
ATOM     12  S   UNL A   1      32.790  26.131  22.353  1.00  0.00    -0.091 S 
BRANCH   9  13
ATOM     13  C   UNL A   1      29.252  25.832  24.300  1.00  0.00     0.034 C 
ATOM     14  C   UNL A   1      29.528  25.684  25.801  1.00  0.00     0.014 C 
ATOM     15  C   UNL A   1      28.178  26.842  23.876  1.00  0.00     0.014 C 
ENDBRANCH   9  13
BRANCH  11  16
ATOM     16  N   UNL A   1      33.029  23.484  22.768  1.00  0.00    -0.343 N 
ATOM     17  C   UNL A   1      34.473  23.506  22.993  1.00  0.00     0.150 C 
ATOM     18  C   UNL A   1      32.401  22.166  22.814  1.00  0.00     0.153 C 
ATOM     19  C   UNL A   1      34.801  22.736  24.289  1.00  0.00     0.135 C 
ATOM     20  C   UNL A   1      32.852  21.340  24.048  1.00  0.00     0.081 C 
ATOM     21  O   UNL A   1      34.288  21.391  24.231  1.00  0.00    -0.369 OA
ATOM     22  C   UNL A   1      36.307  22.644  24.495  1.00  0.00     0.040 C 
ATOM     23  C   UNL A   1      32.129  21.768  25.333  1.00  0.00     0.044 C 
ATOM     24  C   UNL A   1      32.528  19.862  23.783  1.00  0.00     0.044 C 
ENDBRANCH  11  16
ENDBRANCH   5   8
ENDBRANCH   3   4
ENDBRANCH   2   3
ENDBRANCH   1   2
BRANCH   1  25
ATOM     25  N   UNL A   1      32.201  30.958  26.867  1.00  0.00    -0.352 N 
ATOM     26  C   UNL A   1      33.189  31.833  27.253  1.00  0.00     0.251 C 
ATOM     27  H   UNL A   1      31.464  31.373  26.365  1.00  0.00     0.163 HD
ATOM     28  O   UNL A   1      33.002  33.041  27.126  1.00  0.00    -0.269 OA
BRANCH  26  29
ATOM     29  C   UNL A   1      34.453  31.334  27.835  1.00  0.00     0.039 A 
ATOM     30  C   UNL A   1      35.461  32.241  28.175  1.00  0.00     0.014 A 
ATOM     31  C   UNL A   1      34.649  29.971  28.050  1.00  0.00     0.014 A 
ATOM     32  C   UNL A   1      36.622  31.783  28.806  1.00  0.00     0.010 A 
ATOM     33  C   UNL A   1      35.730  29.539  28.802  1.00  0.00     0.010 A 
ATOM     34  C   UNL A   1      36.744  30.433  29.170  1.00  0.00    -0.014 A 
BRANCH  34  35
ATOM     35  C   UNL A   1      37.920  29.912  29.914  1.00  0.00     0.031 A 
ATOM     36  C   UNL A   1      38.192  30.394  31.317  1.00  0.00     0.074 A 
ATOM     37  C   UNL A   1      38.803  29.104  29.293  1.00  0.00     0.049 A 
ATOM     38  N   UNL A   1      39.225  30.164  32.084  1.00  0.00    -0.248 NA
ATOM     39  C   UNL A   1      37.192  31.295  31.921  1.00  0.00     0.031 C 
ATOM     40  C   UNL A   1      38.704  28.640  27.907  1.00  0.00     0.029 A 
ATOM     41  N   UNL A   1      39.976  28.549  29.742  1.00  0.00    -0.354 N 
ATOM     42  C   UNL A   1      39.027  30.932  33.226  1.00  0.00     0.074 A 
ATOM     43  C   UNL A   1      37.802  31.672  33.034  1.00  0.00     0.031 C 
ATOM     44  C   UNL A   1      39.758  27.860  27.625  1.00  0.00     0.029 A 
ATOM     45  C   UNL A   1      40.629  27.796  28.793  1.00  0.00     0.049 A 
ATOM     46  H   UNL A   1      40.317  28.678  30.656  1.00  0.00     0.167 HD
ATOM     47  C   UNL A   1      39.775  30.987  34.354  1.00  0.00     0.034 A 
ATOM     48  C   UNL A   1      41.800  27.133  28.858  1.00  0.00     0.034 A 
ATOM     49  C   UNL A   1      40.949  30.188  34.571  1.00  0.00     0.049 A 
ATOM     50  C   UNL A   1      42.575  27.152  30.148  1.00  0.00     0.074 A 
ATOM     51  C   UNL A   1      41.719  30.085  35.716  1.00  0.00     0.029 A 
ATOM     52  N   UNL A   1      41.519  29.351  33.625  1.00  0.00    -0.354 N 
ATOM     53  N   UNL A   1      42.291  27.763  31.273  1.00  0.00    -0.248 NA
ATOM     54  C   UNL A   1      43.812  26.360  30.192  1.00  0.00     0.031 C 
ATOM     55  C   UNL A   1      42.768  29.197  35.454  1.00  0.00     0.029 A 
ATOM     56  C   UNL A   1      42.634  28.728  34.156  1.00  0.00     0.049 A 
ATOM     57  H   UNL A   1      41.180  29.219  32.710  1.00  0.00     0.167 HD
ATOM     58  C   UNL A   1      43.291  27.401  32.167  1.00  0.00     0.074 A 
ATOM     59  C   UNL A   1      44.177  26.499  31.459  1.00  0.00     0.031 C 
ATOM     60  C   UNL A   1      43.469  27.789  33.454  1.00  0.00     0.034 A 
BRANCH  47  61
ATOM     61  C   UNL A   1      39.305  31.891  35.465  1.00  0.00     0.023 A 
ATOM     62  C   UNL A   1      38.372  31.410  36.408  1.00  0.00     0.012 A 
ATOM     63  C   UNL A   1      39.817  33.195  35.605  1.00  0.00     0.148 A 
ATOM     64  C   UNL A   1      37.925  32.224  37.447  1.00  0.00     0.002 A 
ATOM     65  C   UNL A   1      39.404  33.984  36.674  1.00  0.00     0.091 A 
ATOM     66  F   UNL A   1      40.686  33.645  34.689  1.00  0.00    -0.205 F 
ATOM     67  C   UNL A   1      38.449  33.506  37.586  1.00  0.00     0.022 A 
BRANCH  65  68
ATOM     68  S   UNL A   1      40.079  35.618  36.991  1.00  0.00     0.127 S 
ATOM     69  O   UNL A   1      39.473  35.942  38.282  1.00  0.00    -0.237 OA
ATOM     70  O   UNL A   1      41.516  35.353  37.042  1.00  0.00    -0.237 OA
ATOM     71  O   UNL A   1      39.653  36.453  35.876  1.00  0.00    -0.744 OA
ENDBRANCH  65  68
ENDBRANCH  47  61
BRANCH  48  72
ATOM     72  C   UNL A   1      42.270  26.331  27.693  1.00  0.00     0.023 A 
ATOM     73  C   UNL A   1      43.130  26.929  26.749  1.00  0.00     0.012 A 
ATOM     74  C   UNL A   1      41.899  24.983  27.524  1.00  0.00     0.148 A 
ATOM     75  C   UNL A   1      43.583  26.212  25.642  1.00  0.00     0.002 A 
ATOM     76  C   UNL A   1      42.398  24.258  26.447  1.00  0.00     0.091 A 
ATOM     77  F   UNL A   1      41.074  24.435  28.426  1.00  0.00    -0.205 F 
ATOM     78  C   UNL A   1      43.226  24.874  25.496  1.00  0.00     0.022 A 
BRANCH  76  79
ATOM     79  S   UNL A   1      42.097  22.497  26.250  1.00  0.00     0.127 S 
ATOM     80  O   UNL A   1      40.640  22.452  26.160  1.00  0.00    -0.237 OA
ATOM     81  O   UNL A   1      42.802  22.209  25.001  1.00  0.00    -0.237 OA
ATOM     82  O   UNL A   1      42.679  21.865  27.427  1.00  0.00    -0.744 OA
ENDBRANCH  76  79
ENDBRANCH  48  72
BRANCH  60  83
ATOM     83  C   UNL A   1      44.641  27.212  34.202  1.00  0.00     0.023 A 
ATOM     84  C   UNL A   1      45.890  27.861  34.159  1.00  0.00     0.012 A 
ATOM     85  C   UNL A   1      44.480  26.072  35.012  1.00  0.00     0.148 A 
ATOM     86  C   UNL A   1      46.970  27.366  34.888  1.00  0.00     0.002 A 
ATOM     87  C   UNL A   1      45.545  25.614  35.776  1.00  0.00     0.091 A 
ATOM     88  F   UNL A   1      43.287  25.458  35.025  1.00  0.00    -0.205 F 
ATOM     89  C   UNL A   1      46.795  26.252  35.705  1.00  0.00     0.022 A 
BRANCH  87  90
ATOM     90  S   UNL A   1      45.384  24.249  36.933  1.00  0.00     0.127 S 
ATOM     91  O   UNL A   1      45.019  23.148  36.045  1.00  0.00    -0.237 OA
ATOM     92  O   UNL A   1      46.732  24.159  37.496  1.00  0.00    -0.237 OA
ATOM     93  O   UNL A   1      44.359  24.650  37.886  1.00  0.00    -0.744 OA
ENDBRANCH  87  90
ENDBRANCH  60  83
ENDBRANCH  34  35
ENDBRANCH  26  29
ENDBRANCH   1  25
TORSDOF 15
ENDMDL
