MODEL 1
REMARK VINA RESULT:     -11.9      0.000      0.000
REMARK SMILES CC(=O)N[C@@H](Cc1c(OCC(C)C)ccc2ccccc12)C(=O)NCCCNC(=O)c1ccc(-c2c3nc(c(-c4cccc(S(=O)(=O)[O-])c4F)c4ccc([nH]4)c(-c4cccc(S(=O)(=O)[O-])c4F)c4nc(c(-c5cccc(S(=O)(=O)[O-])c5F)c5ccc2[nH]5)C=C4)C=C3)cc1
REMARK SMILES IDX 25 1 24 2 22 3 23 4 5 6 4 7 1 8 2 9 3 10 6 12 7 13 8 14
REMARK SMILES IDX 21 15 14 16 16 17 20 18 15 19 17 20 19 21 18 22 9 23 10 24
REMARK SMILES IDX 11 25 12 26 13 27 26 28 27 29 28 30 29 31 30 33 31 34 32 35
REMARK SMILES IDX 93 36 33 37 92 38 34 39 35 40 36 41 86 42 37 43 91 44 85 45
REMARK SMILES IDX 87 46 38 47 90 48 84 49 83 50 39 52 71 53 51 54 70 55 52 56
REMARK SMILES IDX 55 57 69 58 88 59 53 60 54 61 68 63 89 64 56 65 40 66 41 67
REMARK SMILES IDX 49 68 42 69 44 70 50 71 43 72 45 73 46 74 47 75 48 76 72 77
REMARK SMILES IDX 73 78 81 79 74 80 76 81 82 82 75 83 77 84 78 85 79 86 80 87
REMARK SMILES IDX 57 88 58 89 66 90 59 91 61 92 67 93 60 94 62 95 63 96 64 97
REMARK SMILES IDX 65 98
REMARK H PARENT 24 5 4 11 28 32 87 51 55 62
REMARK Flexibility Score: inf
ROOT
ATOM      1  C   UNL A   1      35.478  22.113  25.345  1.00  0.00     0.117 C 
ENDROOT
BRANCH   1   2
ATOM      2  N   UNL A   1      35.238  22.362  26.753  1.00  0.00    -0.354 N 
ATOM      3  C   UNL A   1      34.127  22.875  27.354  1.00  0.00     0.242 C 
ATOM      4  O   UNL A   1      33.989  22.645  28.563  1.00  0.00    -0.273 OA
ATOM      5  H   UNL A   1      35.979  22.128  27.357  1.00  0.00     0.163 HD
BRANCH   3   6
ATOM      6  C   UNL A   1      33.005  23.601  26.578  1.00  0.00     0.175 C 
BRANCH   6   7
ATOM      7  N   UNL A   1      31.705  23.594  27.245  1.00  0.00    -0.344 N 
ATOM      8  C   UNL A   1      30.515  22.237  25.567  1.00  0.00     0.114 C 
ATOM      9  C   UNL A   1      30.557  22.961  26.882  1.00  0.00     0.217 C 
ATOM     10  O   UNL A   1      29.572  23.028  27.614  1.00  0.00    -0.275 OA
ATOM     11  H   UNL A   1      31.653  24.122  28.075  1.00  0.00     0.164 HD
ENDBRANCH   6   7
BRANCH   6  12
ATOM     12  C   UNL A   1      33.394  24.986  26.022  1.00  0.00     0.075 C 
BRANCH  12  13
ATOM     13  C   UNL A   1      32.409  25.747  25.141  1.00  0.00     0.005 A 
ATOM     14  C   UNL A   1      31.498  26.656  25.737  1.00  0.00     0.123 A 
ATOM     15  C   UNL A   1      32.417  25.588  23.714  1.00  0.00    -0.011 A 
ATOM     16  C   UNL A   1      30.500  27.239  24.963  1.00  0.00     0.047 A 
ATOM     17  C   UNL A   1      31.484  26.327  22.944  1.00  0.00    -0.018 A 
ATOM     18  C   UNL A   1      33.355  24.807  22.991  1.00  0.00     0.009 A 
ATOM     19  C   UNL A   1      30.507  27.095  23.579  1.00  0.00     0.012 A 
ATOM     20  C   UNL A   1      31.555  26.336  21.543  1.00  0.00     0.009 A 
ATOM     21  C   UNL A   1      33.416  24.825  21.594  1.00  0.00     0.001 A 
ATOM     22  C   UNL A   1      32.527  25.604  20.870  1.00  0.00     0.001 A 
BRANCH  14  23
ATOM     23  O   UNL A   1      31.723  26.975  27.050  1.00  0.00    -0.493 OA
BRANCH  23  24
ATOM     24  C   UNL A   1      31.479  28.303  27.542  1.00  0.00     0.232 C 
BRANCH  24  25
ATOM     25  C   UNL A   1      32.620  29.315  27.280  1.00  0.00     0.020 C 
ATOM     26  C   UNL A   1      34.008  28.685  27.157  1.00  0.00     0.011 C 
ATOM     27  C   UNL A   1      32.337  30.086  25.986  1.00  0.00     0.011 C 
ENDBRANCH  24  25
ENDBRANCH  23  24
ENDBRANCH  14  23
ENDBRANCH  12  13
ENDBRANCH   6  12
ENDBRANCH   3   6
ENDBRANCH   1   2
BRANCH   1  28
ATOM     28  C   UNL A   1      36.492  21.026  25.066  1.00  0.00     0.042 C 
BRANCH  28  29
ATOM     29  C   UNL A   1      37.923  21.539  25.051  1.00  0.00     0.118 C 
BRANCH  29  30
ATOM     30  N   UNL A   1      38.874  20.655  25.727  1.00  0.00    -0.352 N 
ATOM     31  C   UNL A   1      39.966  20.910  26.530  1.00  0.00     0.251 C 
ATOM     32  H   UNL A   1      38.703  19.697  25.580  1.00  0.00     0.163 HD
ATOM     33  O   UNL A   1      40.700  19.986  26.856  1.00  0.00    -0.269 OA
BRANCH  31  34
ATOM     34  C   UNL A   1      40.279  22.290  26.970  1.00  0.00     0.039 A 
ATOM     35  C   UNL A   1      41.180  22.489  28.022  1.00  0.00     0.014 A 
ATOM     36  C   UNL A   1      39.694  23.394  26.356  1.00  0.00     0.014 A 
ATOM     37  C   UNL A   1      41.566  23.788  28.373  1.00  0.00     0.010 A 
ATOM     38  C   UNL A   1      40.189  24.667  26.600  1.00  0.00     0.010 A 
ATOM     39  C   UNL A   1      41.121  24.887  27.622  1.00  0.00    -0.014 A 
BRANCH  39  40
ATOM     40  C   UNL A   1      41.601  26.273  27.873  1.00  0.00     0.031 A 
ATOM     41  C   UNL A   1      43.011  26.665  27.502  1.00  0.00     0.074 A 
ATOM     42  C   UNL A   1      40.820  27.139  28.552  1.00  0.00     0.049 A 
ATOM     43  N   UNL A   1      43.655  27.773  27.760  1.00  0.00    -0.248 NA
ATOM     44  C   UNL A   1      43.821  25.660  26.790  1.00  0.00     0.031 C 
ATOM     45  C   UNL A   1      39.477  26.853  29.063  1.00  0.00     0.029 A 
ATOM     46  N   UNL A   1      41.058  28.428  28.961  1.00  0.00    -0.354 N 
ATOM     47  C   UNL A   1      44.954  27.574  27.302  1.00  0.00     0.074 A 
ATOM     48  C   UNL A   1      45.018  26.225  26.788  1.00  0.00     0.031 C 
ATOM     49  C   UNL A   1      39.006  27.934  29.703  1.00  0.00     0.029 A 
ATOM     50  C   UNL A   1      40.024  28.978  29.685  1.00  0.00     0.049 A 
ATOM     51  H   UNL A   1      41.889  28.914  28.756  1.00  0.00     0.167 HD
ATOM     52  C   UNL A   1      45.990  28.445  27.274  1.00  0.00     0.034 A 
ATOM     53  C   UNL A   1      39.911  30.185  30.275  1.00  0.00     0.034 A 
ATOM     54  C   UNL A   1      45.897  29.811  27.709  1.00  0.00     0.049 A 
ATOM     55  C   UNL A   1      41.046  31.164  30.153  1.00  0.00     0.074 A 
ATOM     56  C   UNL A   1      46.848  30.811  27.609  1.00  0.00     0.029 A 
ATOM     57  N   UNL A   1      44.789  30.370  28.325  1.00  0.00    -0.354 N 
ATOM     58  N   UNL A   1      42.206  31.013  29.560  1.00  0.00    -0.248 NA
ATOM     59  C   UNL A   1      40.845  32.494  30.747  1.00  0.00     0.031 C 
ATOM     60  C   UNL A   1      46.319  31.972  28.184  1.00  0.00     0.029 A 
ATOM     61  C   UNL A   1      45.032  31.700  28.617  1.00  0.00     0.049 A 
ATOM     62  H   UNL A   1      43.952  29.891  28.524  1.00  0.00     0.167 HD
ATOM     63  C   UNL A   1      42.858  32.235  29.680  1.00  0.00     0.074 A 
ATOM     64  C   UNL A   1      41.952  33.124  30.380  1.00  0.00     0.031 C 
ATOM     65  C   UNL A   1      44.099  32.586  29.263  1.00  0.00     0.034 A 
BRANCH  52  66
ATOM     66  C   UNL A   1      47.295  27.967  26.689  1.00  0.00     0.023 A 
ATOM     67  C   UNL A   1      48.319  27.515  27.546  1.00  0.00     0.012 A 
ATOM     68  C   UNL A   1      47.488  27.910  25.295  1.00  0.00     0.148 A 
ATOM     69  C   UNL A   1      49.529  27.055  27.030  1.00  0.00     0.002 A 
ATOM     70  C   UNL A   1      48.678  27.404  24.785  1.00  0.00     0.091 A 
ATOM     71  F   UNL A   1      46.512  28.362  24.494  1.00  0.00    -0.205 F 
ATOM     72  C   UNL A   1      49.704  26.988  25.650  1.00  0.00     0.022 A 
BRANCH  70  73
ATOM     73  S   UNL A   1      48.970  27.198  23.025  1.00  0.00     0.127 S 
ATOM     74  O   UNL A   1      50.427  27.070  22.981  1.00  0.00    -0.237 OA
ATOM     75  O   UNL A   1      48.240  25.963  22.734  1.00  0.00    -0.237 OA
ATOM     76  O   UNL A   1      48.428  28.389  22.385  1.00  0.00    -0.744 OA
ENDBRANCH  70  73
ENDBRANCH  52  66
BRANCH  53  77
ATOM     77  C   UNL A   1      38.647  30.561  30.970  1.00  0.00     0.023 A 
ATOM     78  C   UNL A   1      38.498  30.261  32.338  1.00  0.00     0.012 A 
ATOM     79  C   UNL A   1      37.608  31.235  30.299  1.00  0.00     0.148 A 
ATOM     80  C   UNL A   1      37.325  30.593  33.018  1.00  0.00     0.002 A 
ATOM     81  C   UNL A   1      36.466  31.614  30.996  1.00  0.00     0.091 A 
ATOM     82  F   UNL A   1      37.764  31.504  28.995  1.00  0.00    -0.205 F 
ATOM     83  C   UNL A   1      36.314  31.278  32.350  1.00  0.00     0.022 A 
BRANCH  81  84
ATOM     84  S   UNL A   1      35.174  32.618  30.254  1.00  0.00     0.127 S 
ATOM     85  O   UNL A   1      34.228  32.754  31.360  1.00  0.00    -0.237 OA
ATOM     86  O   UNL A   1      35.901  33.840  29.910  1.00  0.00    -0.237 OA
ATOM     87  O   UNL A   1      34.702  31.859  29.104  1.00  0.00    -0.744 OA
ENDBRANCH  81  84
ENDBRANCH  53  77
BRANCH  65  88
ATOM     88  C   UNL A   1      44.546  34.003  29.514  1.00  0.00     0.023 A 
ATOM     89  C   UNL A   1      45.151  34.340  30.740  1.00  0.00     0.012 A 
ATOM     90  C   UNL A   1      44.436  34.977  28.503  1.00  0.00     0.148 A 
ATOM     91  C   UNL A   1      45.611  35.635  30.969  1.00  0.00     0.002 A 
ATOM     92  C   UNL A   1      44.943  36.253  28.720  1.00  0.00     0.091 A 
ATOM     93  F   UNL A   1      43.841  34.640  27.350  1.00  0.00    -0.205 F 
ATOM     94  C   UNL A   1      45.519  36.588  29.957  1.00  0.00     0.022 A 
BRANCH  92  95
ATOM     95  S   UNL A   1      44.958  37.512  27.438  1.00  0.00     0.127 S 
ATOM     96  O   UNL A   1      45.520  38.657  28.153  1.00  0.00    -0.237 OA
ATOM     97  O   UNL A   1      45.845  36.923  26.435  1.00  0.00    -0.237 OA
ATOM     98  O   UNL A   1      43.574  37.660  27.007  1.00  0.00    -0.744 OA
ENDBRANCH  92  95
ENDBRANCH  65  88
ENDBRANCH  39  40
ENDBRANCH  31  34
ENDBRANCH  29  30
ENDBRANCH  28  29
ENDBRANCH   1  28
TORSDOF 19
ENDMDL
MODEL 2
REMARK VINA RESULT:     -11.9      4.904      7.544
REMARK SMILES CC(=O)N[C@@H](Cc1c(OCC(C)C)ccc2ccccc12)C(=O)NCCCNC(=O)c1ccc(-c2c3nc(c(-c4cccc(S(=O)(=O)[O-])c4F)c4ccc([nH]4)c(-c4cccc(S(=O)(=O)[O-])c4F)c4nc(c(-c5cccc(S(=O)(=O)[O-])c5F)c5ccc2[nH]5)C=C4)C=C3)cc1
REMARK SMILES IDX 25 1 24 2 22 3 23 4 5 6 4 7 1 8 2 9 3 10 6 12 7 13 8 14
REMARK SMILES IDX 21 15 14 16 16 17 20 18 15 19 17 20 19 21 18 22 9 23 10 24
REMARK SMILES IDX 11 25 12 26 13 27 26 28 27 29 28 30 29 31 30 33 31 34 32 35
REMARK SMILES IDX 93 36 33 37 92 38 34 39 35 40 36 41 86 42 37 43 91 44 85 45
REMARK SMILES IDX 87 46 38 47 90 48 84 49 83 50 39 52 71 53 51 54 70 55 52 56
REMARK SMILES IDX 55 57 69 58 88 59 53 60 54 61 68 63 89 64 56 65 40 66 41 67
REMARK SMILES IDX 49 68 42 69 44 70 50 71 43 72 45 73 46 74 47 75 48 76 72 77
REMARK SMILES IDX 73 78 81 79 74 80 76 81 82 82 75 83 77 84 78 85 79 86 80 87
REMARK SMILES IDX 57 88 58 89 66 90 59 91 61 92 67 93 60 94 62 95 63 96 64 97
REMARK SMILES IDX 65 98
REMARK H PARENT 24 5 4 11 28 32 87 51 55 62
REMARK Flexibility Score: inf
ROOT
ATOM      1  C   UNL A   1      31.717  27.056  26.444  1.00  0.00     0.117 C 
ENDROOT
BRANCH   1   2
ATOM      2  N   UNL A   1      30.566  26.228  26.743  1.00  0.00    -0.354 N 
ATOM      3  C   UNL A   1      30.218  25.021  26.213  1.00  0.00     0.242 C 
ATOM      4  O   UNL A   1      29.432  24.326  26.870  1.00  0.00    -0.273 OA
ATOM      5  H   UNL A   1      29.951  26.587  27.424  1.00  0.00     0.163 HD
BRANCH   3   6
ATOM      6  C   UNL A   1      30.850  24.451  24.923  1.00  0.00     0.175 C 
BRANCH   6   7
ATOM      7  N   UNL A   1      31.018  23.000  24.921  1.00  0.00    -0.344 N 
ATOM      8  C   UNL A   1      32.678  22.887  26.740  1.00  0.00     0.114 C 
ATOM      9  C   UNL A   1      31.776  22.221  25.739  1.00  0.00     0.217 C 
ATOM     10  O   UNL A   1      31.739  20.999  25.616  1.00  0.00    -0.275 OA
ATOM     11  H   UNL A   1      30.509  22.517  24.229  1.00  0.00     0.164 HD
ENDBRANCH   6   7
BRANCH   6  12
ATOM     12  C   UNL A   1      30.246  24.994  23.611  1.00  0.00     0.075 C 
BRANCH  12  13
ATOM     13  C   UNL A   1      30.517  26.437  23.199  1.00  0.00     0.005 A 
ATOM     14  C   UNL A   1      31.797  26.790  22.698  1.00  0.00     0.123 A 
ATOM     15  C   UNL A   1      29.486  27.433  23.270  1.00  0.00    -0.011 A 
ATOM     16  C   UNL A   1      32.099  28.127  22.461  1.00  0.00     0.047 A 
ATOM     17  C   UNL A   1      29.793  28.757  22.864  1.00  0.00    -0.018 A 
ATOM     18  C   UNL A   1      28.140  27.181  23.634  1.00  0.00     0.009 A 
ATOM     19  C   UNL A   1      31.103  29.096  22.521  1.00  0.00     0.012 A 
ATOM     20  C   UNL A   1      28.787  29.728  22.758  1.00  0.00     0.009 A 
ATOM     21  C   UNL A   1      27.144  28.157  23.523  1.00  0.00     0.001 A 
ATOM     22  C   UNL A   1      27.465  29.427  23.067  1.00  0.00     0.001 A 
BRANCH  14  23
ATOM     23  O   UNL A   1      32.640  25.755  22.389  1.00  0.00    -0.493 OA
BRANCH  23  24
ATOM     24  C   UNL A   1      33.972  25.699  22.926  1.00  0.00     0.232 C 
BRANCH  24  25
ATOM     25  C   UNL A   1      34.560  24.275  23.059  1.00  0.00     0.020 C 
ATOM     26  C   UNL A   1      34.959  23.885  24.483  1.00  0.00     0.011 C 
ATOM     27  C   UNL A   1      33.538  23.247  22.560  1.00  0.00     0.011 C 
ENDBRANCH  24  25
ENDBRANCH  23  24
ENDBRANCH  14  23
ENDBRANCH  12  13
ENDBRANCH   6  12
ENDBRANCH   3   6
ENDBRANCH   1   2
BRANCH   1  28
ATOM     28  C   UNL A   1      31.387  28.502  26.146  1.00  0.00     0.042 C 
BRANCH  28  29
ATOM     29  C   UNL A   1      32.622  29.384  26.049  1.00  0.00     0.118 C 
BRANCH  29  30
ATOM     30  N   UNL A   1      32.379  30.782  26.407  1.00  0.00    -0.352 N 
ATOM     31  C   UNL A   1      33.097  31.683  27.165  1.00  0.00     0.251 C 
ATOM     32  H   UNL A   1      31.544  31.150  26.037  1.00  0.00     0.163 HD
ATOM     33  O   UNL A   1      32.599  32.766  27.442  1.00  0.00    -0.269 OA
BRANCH  31  34
ATOM     34  C   UNL A   1      34.446  31.340  27.675  1.00  0.00     0.039 A 
ATOM     35  C   UNL A   1      35.410  32.346  27.801  1.00  0.00     0.014 A 
ATOM     36  C   UNL A   1      34.772  30.035  28.034  1.00  0.00     0.014 A 
ATOM     37  C   UNL A   1      36.649  32.055  28.383  1.00  0.00     0.010 A 
ATOM     38  C   UNL A   1      35.935  29.781  28.747  1.00  0.00     0.010 A 
ATOM     39  C   UNL A   1      36.899  30.783  28.919  1.00  0.00    -0.014 A 
BRANCH  39  40
ATOM     40  C   UNL A   1      38.148  30.459  29.661  1.00  0.00     0.031 A 
ATOM     41  C   UNL A   1      39.150  29.496  29.071  1.00  0.00     0.074 A 
ATOM     42  C   UNL A   1      38.322  30.923  30.915  1.00  0.00     0.049 A 
ATOM     43  N   UNL A   1      40.224  28.985  29.615  1.00  0.00    -0.248 NA
ATOM     44  C   UNL A   1      38.884  29.002  27.708  1.00  0.00     0.031 C 
ATOM     45  C   UNL A   1      37.380  31.777  31.645  1.00  0.00     0.029 A 
ATOM     46  N   UNL A   1      39.337  30.714  31.816  1.00  0.00    -0.354 N 
ATOM     47  C   UNL A   1      40.721  28.071  28.691  1.00  0.00     0.074 A 
ATOM     48  C   UNL A   1      39.809  28.064  27.571  1.00  0.00     0.031 C 
ATOM     49  C   UNL A   1      37.865  32.027  32.870  1.00  0.00     0.029 A 
ATOM     50  C   UNL A   1      39.133  31.325  33.032  1.00  0.00     0.049 A 
ATOM     51  H   UNL A   1      40.137  30.178  31.611  1.00  0.00     0.167 HD
ATOM     52  C   UNL A   1      41.854  27.331  28.750  1.00  0.00     0.034 A 
ATOM     53  C   UNL A   1      39.878  31.313  34.156  1.00  0.00     0.034 A 
ATOM     54  C   UNL A   1      42.800  27.403  29.829  1.00  0.00     0.049 A 
ATOM     55  C   UNL A   1      41.174  30.551  34.162  1.00  0.00     0.074 A 
ATOM     56  C   UNL A   1      44.037  26.792  29.929  1.00  0.00     0.029 A 
ATOM     57  N   UNL A   1      42.616  28.132  30.993  1.00  0.00    -0.354 N 
ATOM     58  N   UNL A   1      41.711  29.829  33.209  1.00  0.00    -0.248 NA
ATOM     59  C   UNL A   1      41.988  30.632  35.384  1.00  0.00     0.031 C 
ATOM     60  C   UNL A   1      44.593  27.136  31.165  1.00  0.00     0.029 A 
ATOM     61  C   UNL A   1      43.714  27.982  31.821  1.00  0.00     0.049 A 
ATOM     62  H   UNL A   1      41.823  28.676  31.199  1.00  0.00     0.167 HD
ATOM     63  C   UNL A   1      42.938  29.399  33.702  1.00  0.00     0.074 A 
ATOM     64  C   UNL A   1      43.076  29.963  35.029  1.00  0.00     0.031 C 
ATOM     65  C   UNL A   1      43.860  28.596  33.116  1.00  0.00     0.034 A 
BRANCH  52  66
ATOM     66  C   UNL A   1      42.166  26.431  27.582  1.00  0.00     0.023 A 
ATOM     67  C   UNL A   1      42.905  26.935  26.491  1.00  0.00     0.012 A 
ATOM     68  C   UNL A   1      41.781  25.076  27.585  1.00  0.00     0.148 A 
ATOM     69  C   UNL A   1      43.219  26.120  25.406  1.00  0.00     0.002 A 
ATOM     70  C   UNL A   1      42.140  24.256  26.522  1.00  0.00     0.091 A 
ATOM     71  F   UNL A   1      41.062  24.618  28.620  1.00  0.00    -0.205 F 
ATOM     72  C   UNL A   1      42.847  24.779  25.426  1.00  0.00     0.022 A 
BRANCH  70  73
ATOM     73  S   UNL A   1      41.782  22.496  26.490  1.00  0.00     0.127 S 
ATOM     74  O   UNL A   1      40.319  22.493  26.465  1.00  0.00    -0.237 OA
ATOM     75  O   UNL A   1      42.414  22.077  25.238  1.00  0.00    -0.237 OA
ATOM     76  O   UNL A   1      42.387  21.940  27.692  1.00  0.00    -0.744 OA
ENDBRANCH  70  73
ENDBRANCH  52  66
BRANCH  53  77
ATOM     77  C   UNL A   1      39.450  32.109  35.343  1.00  0.00     0.023 A 
ATOM     78  C   UNL A   1      38.652  31.498  36.330  1.00  0.00     0.012 A 
ATOM     79  C   UNL A   1      39.850  33.448  35.516  1.00  0.00     0.148 A 
ATOM     80  C   UNL A   1      38.230  32.215  37.450  1.00  0.00     0.002 A 
ATOM     81  C   UNL A   1      39.473  34.139  36.662  1.00  0.00     0.091 A 
ATOM     82  F   UNL A   1      40.601  34.016  34.562  1.00  0.00    -0.205 F 
ATOM     83  C   UNL A   1      38.648  33.532  37.621  1.00  0.00     0.022 A 
BRANCH  81  84
ATOM     84  S   UNL A   1      40.077  35.791  37.033  1.00  0.00     0.127 S 
ATOM     85  O   UNL A   1      39.670  36.533  35.843  1.00  0.00    -0.237 OA
ATOM     86  O   UNL A   1      39.333  36.118  38.249  1.00  0.00    -0.237 OA
ATOM     87  O   UNL A   1      41.513  35.645  37.231  1.00  0.00    -0.744 OA
ENDBRANCH  81  84
ENDBRANCH  53  77
BRANCH  65  88
ATOM     88  C   UNL A   1      45.123  28.306  33.884  1.00  0.00     0.023 A 
ATOM     89  C   UNL A   1      46.232  29.164  33.758  1.00  0.00     0.012 A 
ATOM     90  C   UNL A   1      45.178  27.228  34.789  1.00  0.00     0.148 A 
ATOM     91  C   UNL A   1      47.391  28.934  34.498  1.00  0.00     0.002 A 
ATOM     92  C   UNL A   1      46.317  27.035  35.560  1.00  0.00     0.091 A 
ATOM     93  F   UNL A   1      44.117  26.413  34.880  1.00  0.00    -0.205 F 
ATOM     94  C   UNL A   1      47.430  27.879  35.407  1.00  0.00     0.022 A 
BRANCH  92  95
ATOM     95  S   UNL A   1      46.417  25.764  36.826  1.00  0.00     0.127 S 
ATOM     96  O   UNL A   1      47.736  26.022  37.402  1.00  0.00    -0.237 OA
ATOM     97  O   UNL A   1      45.293  26.105  37.698  1.00  0.00    -0.237 OA
ATOM     98  O   UNL A   1      46.275  24.493  36.130  1.00  0.00    -0.744 OA
ENDBRANCH  92  95
ENDBRANCH  65  88
ENDBRANCH  39  40
ENDBRANCH  31  34
ENDBRANCH  29  30
ENDBRANCH  28  29
ENDBRANCH   1  28
TORSDOF 19
ENDMDL
MODEL 3
REMARK VINA RESULT:     -11.7      4.562      6.960
REMARK SMILES CC(=O)N[C@@H](Cc1c(OCC(C)C)ccc2ccccc12)C(=O)NCCCNC(=O)c1ccc(-c2c3nc(c(-c4cccc(S(=O)(=O)[O-])c4F)c4ccc([nH]4)c(-c4cccc(S(=O)(=O)[O-])c4F)c4nc(c(-c5cccc(S(=O)(=O)[O-])c5F)c5ccc2[nH]5)C=C4)C=C3)cc1
REMARK SMILES IDX 25 1 24 2 22 3 23 4 5 6 4 7 1 8 2 9 3 10 6 12 7 13 8 14
REMARK SMILES IDX 21 15 14 16 16 17 20 18 15 19 17 20 19 21 18 22 9 23 10 24
REMARK SMILES IDX 11 25 12 26 13 27 26 28 27 29 28 30 29 31 30 33 31 34 32 35
REMARK SMILES IDX 93 36 33 37 92 38 34 39 35 40 36 41 86 42 37 43 91 44 85 45
REMARK SMILES IDX 87 46 38 47 90 48 84 49 83 50 39 52 71 53 51 54 70 55 52 56
REMARK SMILES IDX 55 57 69 58 88 59 53 60 54 61 68 63 89 64 56 65 40 66 41 67
REMARK SMILES IDX 49 68 42 69 44 70 50 71 43 72 45 73 46 74 47 75 48 76 72 77
REMARK SMILES IDX 73 78 81 79 74 80 76 81 82 82 75 83 77 84 78 85 79 86 80 87
REMARK SMILES IDX 57 88 58 89 66 90 59 91 61 92 67 93 60 94 62 95 63 96 64 97
REMARK SMILES IDX 65 98
REMARK H PARENT 24 5 4 11 28 32 87 51 55 62
REMARK Flexibility Score: inf
ROOT
ATOM      1  C   UNL A   1      32.048  26.905  26.554  1.00  0.00     0.117 C 
ENDROOT
BRANCH   1   2
ATOM      2  N   UNL A   1      30.700  26.395  26.712  1.00  0.00    -0.354 N 
ATOM      3  C   UNL A   1      30.117  25.317  26.114  1.00  0.00     0.242 C 
ATOM      4  O   UNL A   1      29.117  24.843  26.669  1.00  0.00    -0.273 OA
ATOM      5  H   UNL A   1      30.128  26.896  27.338  1.00  0.00     0.163 HD
BRANCH   3   6
ATOM      6  C   UNL A   1      30.716  24.610  24.878  1.00  0.00     0.175 C 
BRANCH   6   7
ATOM      7  N   UNL A   1      30.701  23.150  24.949  1.00  0.00    -0.344 N 
ATOM      8  C   UNL A   1      32.566  22.908  26.543  1.00  0.00     0.114 C 
ATOM      9  C   UNL A   1      31.462  22.319  25.712  1.00  0.00     0.217 C 
ATOM     10  O   UNL A   1      31.257  21.108  25.675  1.00  0.00    -0.275 OA
ATOM     11  H   UNL A   1      30.048  22.705  24.361  1.00  0.00     0.164 HD
ENDBRANCH   6   7
BRANCH   6  12
ATOM     12  C   UNL A   1      30.230  25.156  23.520  1.00  0.00     0.075 C 
BRANCH  12  13
ATOM     13  C   UNL A   1      30.548  26.596  23.131  1.00  0.00     0.005 A 
ATOM     14  C   UNL A   1      31.841  26.918  22.644  1.00  0.00     0.123 A 
ATOM     15  C   UNL A   1      29.547  27.622  23.211  1.00  0.00    -0.011 A 
ATOM     16  C   UNL A   1      32.185  28.249  22.430  1.00  0.00     0.047 A 
ATOM     17  C   UNL A   1      29.896  28.942  22.828  1.00  0.00    -0.018 A 
ATOM     18  C   UNL A   1      28.190  27.405  23.562  1.00  0.00     0.009 A 
ATOM     19  C   UNL A   1      31.218  29.246  22.499  1.00  0.00     0.012 A 
ATOM     20  C   UNL A   1      28.920  29.945  22.730  1.00  0.00     0.009 A 
ATOM     21  C   UNL A   1      27.225  28.412  23.460  1.00  0.00     0.001 A 
ATOM     22  C   UNL A   1      27.588  29.678  23.026  1.00  0.00     0.001 A 
BRANCH  14  23
ATOM     23  O   UNL A   1      32.654  25.863  22.325  1.00  0.00    -0.493 OA
BRANCH  23  24
ATOM     24  C   UNL A   1      33.795  25.535  23.136  1.00  0.00     0.232 C 
BRANCH  24  25
ATOM     25  C   UNL A   1      33.965  24.028  23.440  1.00  0.00     0.020 C 
ATOM     26  C   UNL A   1      33.343  23.098  22.398  1.00  0.00     0.011 C 
ATOM     27  C   UNL A   1      35.457  23.688  23.541  1.00  0.00     0.011 C 
ENDBRANCH  24  25
ENDBRANCH  23  24
ENDBRANCH  14  23
ENDBRANCH  12  13
ENDBRANCH   6  12
ENDBRANCH   3   6
ENDBRANCH   1   2
BRANCH   1  28
ATOM     28  C   UNL A   1      32.275  28.272  27.161  1.00  0.00     0.042 C 
BRANCH  28  29
ATOM     29  C   UNL A   1      32.793  29.288  26.156  1.00  0.00     0.118 C 
BRANCH  29  30
ATOM     30  N   UNL A   1      32.507  30.677  26.519  1.00  0.00    -0.352 N 
ATOM     31  C   UNL A   1      33.210  31.604  27.259  1.00  0.00     0.251 C 
ATOM     32  H   UNL A   1      31.650  31.013  26.170  1.00  0.00     0.163 HD
ATOM     33  O   UNL A   1      32.678  32.669  27.548  1.00  0.00    -0.269 OA
BRANCH  31  34
ATOM     34  C   UNL A   1      34.583  31.313  27.736  1.00  0.00     0.039 A 
ATOM     35  C   UNL A   1      35.519  32.350  27.814  1.00  0.00     0.014 A 
ATOM     36  C   UNL A   1      34.959  30.026  28.110  1.00  0.00     0.014 A 
ATOM     37  C   UNL A   1      36.782  32.108  28.365  1.00  0.00     0.010 A 
ATOM     38  C   UNL A   1      36.149  29.821  28.793  1.00  0.00     0.010 A 
ATOM     39  C   UNL A   1      37.086  30.855  28.918  1.00  0.00    -0.014 A 
BRANCH  39  40
ATOM     40  C   UNL A   1      38.366  30.584  29.629  1.00  0.00     0.031 A 
ATOM     41  C   UNL A   1      39.402  29.680  29.003  1.00  0.00     0.074 A 
ATOM     42  C   UNL A   1      38.543  31.038  30.886  1.00  0.00     0.049 A 
ATOM     43  N   UNL A   1      40.511  29.217  29.517  1.00  0.00    -0.248 NA
ATOM     44  C   UNL A   1      39.131  29.193  27.639  1.00  0.00     0.031 C 
ATOM     45  C   UNL A   1      37.576  31.833  31.648  1.00  0.00     0.029 A 
ATOM     46  N   UNL A   1      39.587  30.868  31.762  1.00  0.00    -0.354 N 
ATOM     47  C   UNL A   1      41.033  28.341  28.570  1.00  0.00     0.074 A 
ATOM     48  C   UNL A   1      40.098  28.304  27.469  1.00  0.00     0.031 C 
ATOM     49  C   UNL A   1      38.074  32.091  32.866  1.00  0.00     0.029 A 
ATOM     50  C   UNL A   1      39.378  31.450  32.992  1.00  0.00     0.049 A 
ATOM     51  H   UNL A   1      40.408  30.375  31.532  1.00  0.00     0.167 HD
ATOM     52  C   UNL A   1      42.202  27.658  28.595  1.00  0.00     0.034 A 
ATOM     53  C   UNL A   1      40.147  31.460  34.099  1.00  0.00     0.034 A 
ATOM     54  C   UNL A   1      43.166  27.762  29.654  1.00  0.00     0.049 A 
ATOM     55  C   UNL A   1      41.479  30.764  34.067  1.00  0.00     0.074 A 
ATOM     56  C   UNL A   1      44.434  27.212  29.720  1.00  0.00     0.029 A 
ATOM     57  N   UNL A   1      42.972  28.465  30.833  1.00  0.00    -0.354 N 
ATOM     58  N   UNL A   1      42.031  30.084  33.092  1.00  0.00    -0.248 NA
ATOM     59  C   UNL A   1      42.314  30.869  35.273  1.00  0.00     0.031 C 
ATOM     60  C   UNL A   1      44.999  27.567  30.949  1.00  0.00     0.029 A 
ATOM     61  C   UNL A   1      44.093  28.359  31.636  1.00  0.00     0.049 A 
ATOM     62  H   UNL A   1      42.156  28.966  31.063  1.00  0.00     0.167 HD
ATOM     63  C   UNL A   1      43.288  29.708  33.553  1.00  0.00     0.074 A 
ATOM     64  C   UNL A   1      43.426  30.260  34.886  1.00  0.00     0.031 C 
ATOM     65  C   UNL A   1      44.236  28.961  32.936  1.00  0.00     0.034 A 
BRANCH  52  66
ATOM     66  C   UNL A   1      42.534  26.791  27.407  1.00  0.00     0.023 A 
ATOM     67  C   UNL A   1      43.213  27.350  26.304  1.00  0.00     0.012 A 
ATOM     68  C   UNL A   1      42.227  25.416  27.403  1.00  0.00     0.148 A 
ATOM     69  C   UNL A   1      43.543  26.566  25.199  1.00  0.00     0.002 A 
ATOM     70  C   UNL A   1      42.604  24.631  26.320  1.00  0.00     0.091 A 
ATOM     71  F   UNL A   1      41.564  24.906  28.450  1.00  0.00    -0.205 F 
ATOM     72  C   UNL A   1      43.249  25.206  25.213  1.00  0.00     0.022 A 
BRANCH  70  73
ATOM     73  S   UNL A   1      42.346  22.853  26.274  1.00  0.00     0.127 S 
ATOM     74  O   UNL A   1      40.891  22.763  26.391  1.00  0.00    -0.237 OA
ATOM     75  O   UNL A   1      42.874  22.500  24.955  1.00  0.00    -0.237 OA
ATOM     76  O   UNL A   1      43.099  22.309  27.395  1.00  0.00    -0.744 OA
ENDBRANCH  70  73
ENDBRANCH  52  66
BRANCH  53  77
ATOM     77  C   UNL A   1      39.706  32.217  35.306  1.00  0.00     0.023 A 
ATOM     78  C   UNL A   1      40.067  33.572  35.440  1.00  0.00     0.012 A 
ATOM     79  C   UNL A   1      38.910  31.618  36.302  1.00  0.00     0.148 A 
ATOM     80  C   UNL A   1      39.676  34.307  36.559  1.00  0.00     0.002 A 
ATOM     81  C   UNL A   1      38.476  32.372  37.387  1.00  0.00     0.091 A 
ATOM     82  F   UNL A   1      38.583  30.325  36.163  1.00  0.00    -0.205 F 
ATOM     83  C   UNL A   1      38.872  33.711  37.528  1.00  0.00     0.022 A 
BRANCH  81  84
ATOM     84  S   UNL A   1      37.327  31.729  38.610  1.00  0.00     0.127 S 
ATOM     85  O   UNL A   1      36.178  32.614  38.436  1.00  0.00    -0.237 OA
ATOM     86  O   UNL A   1      37.126  30.357  38.142  1.00  0.00    -0.237 OA
ATOM     87  O   UNL A   1      38.020  31.830  39.887  1.00  0.00    -0.744 OA
ENDBRANCH  81  84
ENDBRANCH  53  77
BRANCH  65  88
ATOM     88  C   UNL A   1      45.528  28.723  33.674  1.00  0.00     0.023 A 
ATOM     89  C   UNL A   1      45.672  27.579  34.482  1.00  0.00     0.012 A 
ATOM     90  C   UNL A   1      46.621  29.593  33.500  1.00  0.00     0.148 A 
ATOM     91  C   UNL A   1      46.877  27.322  35.134  1.00  0.00     0.002 A 
ATOM     92  C   UNL A   1      47.834  29.304  34.112  1.00  0.00     0.091 A 
ATOM     93  F   UNL A   1      46.456  30.686  32.740  1.00  0.00    -0.205 F 
ATOM     94  C   UNL A   1      47.961  28.176  34.940  1.00  0.00     0.022 A 
BRANCH  92  95
ATOM     95  S   UNL A   1      49.310  30.291  33.837  1.00  0.00     0.127 S 
ATOM     96  O   UNL A   1      50.330  29.499  34.522  1.00  0.00    -0.237 OA
ATOM     97  O   UNL A   1      49.416  30.293  32.378  1.00  0.00    -0.237 OA
ATOM     98  O   UNL A   1      49.033  31.596  34.423  1.00  0.00    -0.744 OA
ENDBRANCH  92  95
ENDBRANCH  65  88
ENDBRANCH  39  40
ENDBRANCH  31  34
ENDBRANCH  29  30
ENDBRANCH  28  29
ENDBRANCH   1  28
TORSDOF 19
ENDMDL
