MODEL 1
REMARK VINA RESULT:     -12.2      0.000      0.000
REMARK SMILES O=C(NCCCNC(=O)[C@@H]1CCCN(C(=O)Nc2ccccc2)C1)c1ccc(-c2c3nc(c(-c4cccc(S(=O)(=O)[O-])c4F)c4ccc([nH]4)c(-c4cccc(S(=O)(=O)[O-])c4F)c4nc(c(-c5cccc(S(=O)(=O)[O-])c5F)c5ccc2[nH]5)C=C4)C=C3)cc1
REMARK SMILES IDX 4 1 3 2 1 3 2 4 25 6 26 7 87 8 27 9 86 10 28 11 29 12 30 13
REMARK SMILES IDX 80 14 31 15 85 16 79 17 81 18 32 19 84 20 78 21 77 22 33 24
REMARK SMILES IDX 65 25 45 26 64 27 46 28 49 29 63 30 82 31 47 32 48 33 62 35
REMARK SMILES IDX 83 36 50 37 34 38 35 39 43 40 36 41 38 42 44 43 37 44 39 45
REMARK SMILES IDX 40 46 41 47 42 48 66 49 67 50 75 51 68 52 70 53 76 54 69 55
REMARK SMILES IDX 71 56 72 57 73 58 74 59 51 60 52 61 60 62 53 63 55 64 61 65
REMARK SMILES IDX 54 66 56 67 57 68 58 69 59 70 5 71 6 72 7 73 8 74 9 76 10 77
REMARK SMILES IDX 11 78 24 79 12 80 14 81 13 82 15 83 16 84 17 85 18 87 19 88
REMARK SMILES IDX 23 89 20 90 22 91 21 92
REMARK H PARENT 3 5 81 23 49 34 7 75 17 86
REMARK Flexibility Score: inf
ROOT
ATOM      1  C   UNL A   1      36.011  22.243  25.500  1.00  0.00     0.118 C 
ENDROOT
BRANCH   1   2
ATOM      2  N   UNL A   1      37.008  21.179  25.481  1.00  0.00    -0.352 N 
ATOM      3  O   UNL A   1      39.037  20.211  25.494  1.00  0.00    -0.269 OA
ATOM      4  C   UNL A   1      38.357  21.204  25.746  1.00  0.00     0.251 C 
ATOM      5  H   UNL A   1      36.657  20.292  25.237  1.00  0.00     0.163 HD
BRANCH   4   6
ATOM      6  C   UNL A   1      38.996  22.419  26.296  1.00  0.00     0.039 A 
ATOM      7  C   UNL A   1      38.529  23.689  25.962  1.00  0.00     0.014 A 
ATOM      8  C   UNL A   1      40.076  22.288  27.176  1.00  0.00     0.014 A 
ATOM      9  C   UNL A   1      39.256  24.813  26.333  1.00  0.00     0.010 A 
ATOM     10  C   UNL A   1      40.736  23.428  27.646  1.00  0.00     0.010 A 
ATOM     11  C   UNL A   1      40.365  24.701  27.186  1.00  0.00    -0.014 A 
BRANCH  11  12
ATOM     12  C   UNL A   1      41.080  25.936  27.609  1.00  0.00     0.031 A 
ATOM     13  C   UNL A   1      42.484  26.227  27.150  1.00  0.00     0.074 A 
ATOM     14  C   UNL A   1      40.432  26.821  28.393  1.00  0.00     0.049 A 
ATOM     15  N   UNL A   1      43.213  27.293  27.364  1.00  0.00    -0.248 NA
ATOM     16  C   UNL A   1      43.168  25.189  26.360  1.00  0.00     0.031 C 
ATOM     17  C   UNL A   1      39.087  26.631  28.943  1.00  0.00     0.029 A 
ATOM     18  N   UNL A   1      40.801  28.061  28.849  1.00  0.00    -0.354 N 
ATOM     19  C   UNL A   1      44.450  27.038  26.784  1.00  0.00     0.074 A 
ATOM     20  C   UNL A   1      44.378  25.712  26.211  1.00  0.00     0.031 C 
ATOM     21  C   UNL A   1      38.725  27.731  29.616  1.00  0.00     0.029 A 
ATOM     22  C   UNL A   1      39.828  28.684  29.594  1.00  0.00     0.049 A 
ATOM     23  H   UNL A   1      41.679  28.465  28.662  1.00  0.00     0.167 HD
ATOM     24  C   UNL A   1      45.540  27.840  26.721  1.00  0.00     0.034 A 
ATOM     25  C   UNL A   1      39.820  29.889  30.195  1.00  0.00     0.034 A 
ATOM     26  C   UNL A   1      45.589  29.180  27.244  1.00  0.00     0.049 A 
ATOM     27  C   UNL A   1      41.024  30.775  30.064  1.00  0.00     0.074 A 
ATOM     28  C   UNL A   1      46.620  30.101  27.157  1.00  0.00     0.029 A 
ATOM     29  N   UNL A   1      44.569  29.792  27.956  1.00  0.00    -0.354 N 
ATOM     30  N   UNL A   1      42.130  30.568  29.391  1.00  0.00    -0.248 NA
ATOM     31  C   UNL A   1      40.969  32.073  30.749  1.00  0.00     0.031 C 
ATOM     32  C   UNL A   1      46.229  31.262  27.834  1.00  0.00     0.029 A 
ATOM     33  C   UNL A   1      44.947  31.073  28.323  1.00  0.00     0.049 A 
ATOM     34  H   UNL A   1      43.702  29.377  28.168  1.00  0.00     0.167 HD
ATOM     35  C   UNL A   1      42.892  31.719  29.550  1.00  0.00     0.074 A 
ATOM     36  C   UNL A   1      42.108  32.629  30.359  1.00  0.00     0.031 C 
ATOM     37  C   UNL A   1      44.136  31.989  29.083  1.00  0.00     0.034 A 
BRANCH  24  38
ATOM     38  C   UNL A   1      46.769  27.308  26.027  1.00  0.00     0.023 A 
ATOM     39  C   UNL A   1      46.923  27.496  24.638  1.00  0.00     0.012 A 
ATOM     40  C   UNL A   1      47.800  26.686  26.757  1.00  0.00     0.148 A 
ATOM     41  C   UNL A   1      48.069  27.047  23.983  1.00  0.00     0.002 A 
ATOM     42  C   UNL A   1      48.958  26.277  26.104  1.00  0.00     0.091 A 
ATOM     43  F   UNL A   1      47.628  26.495  28.073  1.00  0.00    -0.205 F 
ATOM     44  C   UNL A   1      49.090  26.448  24.716  1.00  0.00     0.022 A 
BRANCH  42  45
ATOM     45  S   UNL A   1      50.359  25.567  26.978  1.00  0.00     0.127 S 
ATOM     46  O   UNL A   1      49.773  24.350  27.536  1.00  0.00    -0.237 OA
ATOM     47  O   UNL A   1      51.318  25.339  25.895  1.00  0.00    -0.237 OA
ATOM     48  O   UNL A   1      50.773  26.570  27.948  1.00  0.00    -0.744 OA
ENDBRANCH  42  45
ENDBRANCH  24  38
BRANCH  25  49
ATOM     49  C   UNL A   1      38.600  30.346  30.919  1.00  0.00     0.023 A 
ATOM     50  C   UNL A   1      38.492  30.115  32.304  1.00  0.00     0.012 A 
ATOM     51  C   UNL A   1      37.574  31.049  30.258  1.00  0.00     0.148 A 
ATOM     52  C   UNL A   1      37.375  30.555  33.014  1.00  0.00     0.002 A 
ATOM     53  C   UNL A   1      36.492  31.537  30.981  1.00  0.00     0.091 A 
ATOM     54  F   UNL A   1      37.687  31.244  28.936  1.00  0.00    -0.205 F 
ATOM     55  C   UNL A   1      36.382  31.277  32.356  1.00  0.00     0.022 A 
BRANCH  53  56
ATOM     56  S   UNL A   1      35.248  32.598  30.239  1.00  0.00     0.127 S 
ATOM     57  O   UNL A   1      34.328  32.805  31.354  1.00  0.00    -0.237 OA
ATOM     58  O   UNL A   1      36.035  33.773  29.862  1.00  0.00    -0.237 OA
ATOM     59  O   UNL A   1      34.720  31.845  29.108  1.00  0.00    -0.744 OA
ENDBRANCH  53  56
ENDBRANCH  25  49
BRANCH  37  60
ATOM     60  C   UNL A   1      44.718  33.337  29.411  1.00  0.00     0.023 A 
ATOM     61  C   UNL A   1      45.455  33.510  30.601  1.00  0.00     0.012 A 
ATOM     62  C   UNL A   1      44.585  34.417  28.517  1.00  0.00     0.148 A 
ATOM     63  C   UNL A   1      46.017  34.747  30.911  1.00  0.00     0.002 A 
ATOM     64  C   UNL A   1      45.188  35.634  28.812  1.00  0.00     0.091 A 
ATOM     65  F   UNL A   1      43.861  34.240  27.402  1.00  0.00    -0.205 F 
ATOM     66  C   UNL A   1      45.894  35.805  30.013  1.00  0.00     0.022 A 
BRANCH  64  67
ATOM     67  S   UNL A   1      45.156  37.016  27.665  1.00  0.00     0.127 S 
ATOM     68  O   UNL A   1      45.815  38.065  28.440  1.00  0.00    -0.237 OA
ATOM     69  O   UNL A   1      45.938  36.507  26.538  1.00  0.00    -0.237 OA
ATOM     70  O   UNL A   1      43.749  37.245  27.362  1.00  0.00    -0.744 OA
ENDBRANCH  64  67
ENDBRANCH  37  60
ENDBRANCH  11  12
ENDBRANCH   4   6
ENDBRANCH   1   2
BRANCH   1  71
ATOM     71  C   UNL A   1      34.712  21.858  24.802  1.00  0.00     0.042 C 
BRANCH  71  72
ATOM     72  C   UNL A   1      33.591  22.870  24.984  1.00  0.00     0.117 C 
BRANCH  72  73
ATOM     73  N   UNL A   1      33.913  24.144  24.376  1.00  0.00    -0.356 N 
ATOM     74  C   UNL A   1      33.311  24.889  23.423  1.00  0.00     0.224 C 
ATOM     75  H   UNL A   1      34.738  24.550  24.727  1.00  0.00     0.163 HD
ATOM     76  O   UNL A   1      33.990  25.830  22.992  1.00  0.00    -0.275 OA
BRANCH  74  77
ATOM     77  C   UNL A   1      31.931  24.561  22.837  1.00  0.00     0.098 C 
ATOM     78  C   UNL A   1      31.451  25.745  21.968  1.00  0.00     0.017 C 
ATOM     79  C   UNL A   1      30.807  24.289  23.840  1.00  0.00     0.134 C 
ATOM     80  C   UNL A   1      31.158  26.976  22.828  1.00  0.00     0.022 C 
ATOM     81  N   UNL A   1      30.563  25.421  24.727  1.00  0.00    -0.324 N 
ATOM     82  C   UNL A   1      30.271  26.683  24.037  1.00  0.00     0.121 C 
BRANCH  81  83
ATOM     83  C   UNL A   1      30.676  25.198  26.084  1.00  0.00     0.321 C 
ATOM     84  O   UNL A   1      30.016  24.324  26.659  1.00  0.00    -0.248 OA
ATOM     85  N   UNL A   1      31.601  25.845  26.838  1.00  0.00    -0.308 N 
ATOM     86  H   UNL A   1      31.886  25.344  27.637  1.00  0.00     0.171 HD
BRANCH  85  87
ATOM     87  C   UNL A   1      32.221  27.087  26.696  1.00  0.00     0.042 A 
ATOM     88  C   UNL A   1      31.530  28.205  27.168  1.00  0.00     0.026 A 
ATOM     89  C   UNL A   1      33.501  27.233  26.158  1.00  0.00     0.026 A 
ATOM     90  C   UNL A   1      32.177  29.438  27.239  1.00  0.00     0.002 A 
ATOM     91  C   UNL A   1      34.140  28.471  26.212  1.00  0.00     0.002 A 
ATOM     92  C   UNL A   1      33.488  29.566  26.779  1.00  0.00     0.000 A 
ENDBRANCH  85  87
ENDBRANCH  81  83
ENDBRANCH  74  77
ENDBRANCH  72  73
ENDBRANCH  71  72
ENDBRANCH   1  71
TORSDOF 15
ENDMDL
MODEL 2
REMARK VINA RESULT:     -12.2      4.924      9.941
REMARK SMILES O=C(NCCCNC(=O)[C@@H]1CCCN(C(=O)Nc2ccccc2)C1)c1ccc(-c2c3nc(c(-c4cccc(S(=O)(=O)[O-])c4F)c4ccc([nH]4)c(-c4cccc(S(=O)(=O)[O-])c4F)c4nc(c(-c5cccc(S(=O)(=O)[O-])c5F)c5ccc2[nH]5)C=C4)C=C3)cc1
REMARK SMILES IDX 4 1 3 2 1 3 2 4 25 6 26 7 87 8 27 9 86 10 28 11 29 12 30 13
REMARK SMILES IDX 80 14 31 15 85 16 79 17 81 18 32 19 84 20 78 21 77 22 33 24
REMARK SMILES IDX 65 25 45 26 64 27 46 28 49 29 63 30 82 31 47 32 48 33 62 35
REMARK SMILES IDX 83 36 50 37 34 38 35 39 43 40 36 41 38 42 44 43 37 44 39 45
REMARK SMILES IDX 40 46 41 47 42 48 66 49 67 50 75 51 68 52 70 53 76 54 69 55
REMARK SMILES IDX 71 56 72 57 73 58 74 59 51 60 52 61 60 62 53 63 55 64 61 65
REMARK SMILES IDX 54 66 56 67 57 68 58 69 59 70 5 71 6 72 7 73 8 74 9 76 10 77
REMARK SMILES IDX 11 78 24 79 12 80 14 81 13 82 15 83 16 84 17 85 18 87 19 88
REMARK SMILES IDX 23 89 20 90 22 91 21 92
REMARK H PARENT 3 5 81 23 49 34 7 75 17 86
REMARK Flexibility Score: inf
ROOT
ATOM      1  C   UNL A   1      32.896  29.754  26.604  1.00  0.00     0.118 C 
ENDROOT
BRANCH   1   2
ATOM      2  N   UNL A   1      32.814  31.182  26.886  1.00  0.00    -0.352 N 
ATOM      3  O   UNL A   1      33.277  33.153  27.862  1.00  0.00    -0.269 OA
ATOM      4  C   UNL A   1      33.642  32.006  27.611  1.00  0.00     0.251 C 
ATOM      5  H   UNL A   1      32.033  31.633  26.490  1.00  0.00     0.163 HD
BRANCH   4   6
ATOM      6  C   UNL A   1      34.943  31.515  28.116  1.00  0.00     0.039 A 
ATOM      7  C   UNL A   1      35.086  30.208  28.577  1.00  0.00     0.014 A 
ATOM      8  C   UNL A   1      36.048  32.373  28.114  1.00  0.00     0.014 A 
ATOM      9  C   UNL A   1      36.257  29.825  29.221  1.00  0.00     0.010 A 
ATOM     10  C   UNL A   1      37.265  31.945  28.655  1.00  0.00     0.010 A 
ATOM     11  C   UNL A   1      37.366  30.685  29.263  1.00  0.00    -0.014 A 
BRANCH  11  12
ATOM     12  C   UNL A   1      38.621  30.214  29.908  1.00  0.00     0.031 A 
ATOM     13  C   UNL A   1      39.004  30.656  31.296  1.00  0.00     0.074 A 
ATOM     14  C   UNL A   1      39.406  29.346  29.238  1.00  0.00     0.049 A 
ATOM     15  N   UNL A   1      40.021  30.274  32.026  1.00  0.00    -0.248 NA
ATOM     16  C   UNL A   1      38.150  31.663  31.947  1.00  0.00     0.031 C 
ATOM     17  C   UNL A   1      39.168  28.881  27.870  1.00  0.00     0.029 A 
ATOM     18  N   UNL A   1      40.548  28.687  29.616  1.00  0.00    -0.354 N 
ATOM     19  C   UNL A   1      39.960  31.025  33.195  1.00  0.00     0.074 A 
ATOM     20  C   UNL A   1      38.807  31.890  33.077  1.00  0.00     0.031 C 
ATOM     21  C   UNL A   1      40.099  27.976  27.542  1.00  0.00     0.029 A 
ATOM     22  C   UNL A   1      41.033  27.834  28.652  1.00  0.00     0.049 A 
ATOM     23  H   UNL A   1      40.979  28.812  30.492  1.00  0.00     0.167 HD
ATOM     24  C   UNL A   1      40.779  30.985  34.274  1.00  0.00     0.034 A 
ATOM     25  C   UNL A   1      42.111  27.027  28.657  1.00  0.00     0.034 A 
ATOM     26  C   UNL A   1      41.892  30.083  34.411  1.00  0.00     0.049 A 
ATOM     27  C   UNL A   1      42.970  26.968  29.886  1.00  0.00     0.074 A 
ATOM     28  C   UNL A   1      42.732  29.911  35.499  1.00  0.00     0.029 A 
ATOM     29  N   UNL A   1      42.327  29.205  33.430  1.00  0.00    -0.354 N 
ATOM     30  N   UNL A   1      42.811  27.584  31.033  1.00  0.00    -0.248 NA
ATOM     31  C   UNL A   1      44.140  26.082  29.835  1.00  0.00     0.031 C 
ATOM     32  C   UNL A   1      43.686  28.942  35.168  1.00  0.00     0.029 A 
ATOM     33  C   UNL A   1      43.428  28.496  33.881  1.00  0.00     0.049 A 
ATOM     34  H   UNL A   1      41.915  29.101  32.543  1.00  0.00     0.167 HD
ATOM     35  C   UNL A   1      43.844  27.140  31.848  1.00  0.00     0.074 A 
ATOM     36  C   UNL A   1      44.605  26.183  31.072  1.00  0.00     0.031 C 
ATOM     37  C   UNL A   1      44.145  27.508  33.119  1.00  0.00     0.034 A 
BRANCH  24  38
ATOM     38  C   UNL A   1      40.483  31.921  35.419  1.00  0.00     0.023 A 
ATOM     39  C   UNL A   1      41.282  33.066  35.610  1.00  0.00     0.012 A 
ATOM     40  C   UNL A   1      39.374  31.706  36.262  1.00  0.00     0.148 A 
ATOM     41  C   UNL A   1      41.002  33.966  36.639  1.00  0.00     0.002 A 
ATOM     42  C   UNL A   1      39.077  32.627  37.259  1.00  0.00     0.091 A 
ATOM     43  F   UNL A   1      38.638  30.600  36.080  1.00  0.00    -0.205 F 
ATOM     44  C   UNL A   1      39.895  33.752  37.455  1.00  0.00     0.022 A 
BRANCH  42  45
ATOM     45  S   UNL A   1      37.625  32.479  38.309  1.00  0.00     0.127 S 
ATOM     46  O   UNL A   1      36.558  32.878  37.393  1.00  0.00    -0.237 OA
ATOM     47  O   UNL A   1      37.633  31.055  38.649  1.00  0.00    -0.237 OA
ATOM     48  O   UNL A   1      37.855  33.370  39.436  1.00  0.00    -0.744 OA
ENDBRANCH  42  45
ENDBRANCH  24  38
BRANCH  25  49
ATOM     49  C   UNL A   1      42.393  26.163  27.476  1.00  0.00     0.023 A 
ATOM     50  C   UNL A   1      43.157  26.678  26.410  1.00  0.00     0.012 A 
ATOM     51  C   UNL A   1      41.955  24.826  27.423  1.00  0.00     0.148 A 
ATOM     52  C   UNL A   1      43.460  25.884  25.304  1.00  0.00     0.002 A 
ATOM     53  C   UNL A   1      42.311  24.022  26.347  1.00  0.00     0.091 A 
ATOM     54  F   UNL A   1      41.214  24.359  28.439  1.00  0.00    -0.205 F 
ATOM     55  C   UNL A   1      43.048  24.555  25.278  1.00  0.00     0.022 A 
BRANCH  53  56
ATOM     56  S   UNL A   1      41.947  22.264  26.305  1.00  0.00     0.127 S 
ATOM     57  O   UNL A   1      42.653  21.842  25.099  1.00  0.00    -0.237 OA
ATOM     58  O   UNL A   1      42.539  21.801  27.560  1.00  0.00    -0.237 OA
ATOM     59  O   UNL A   1      40.493  22.170  26.260  1.00  0.00    -0.744 OA
ENDBRANCH  53  56
ENDBRANCH  25  49
BRANCH  37  60
ATOM     60  C   UNL A   1      45.335  26.849  33.763  1.00  0.00     0.023 A 
ATOM     61  C   UNL A   1      46.601  27.464  33.686  1.00  0.00     0.012 A 
ATOM     62  C   UNL A   1      45.191  25.652  34.490  1.00  0.00     0.148 A 
ATOM     63  C   UNL A   1      47.711  26.879  34.293  1.00  0.00     0.002 A 
ATOM     64  C   UNL A   1      46.292  25.099  35.132  1.00  0.00     0.091 A 
ATOM     65  F   UNL A   1      43.984  25.068  34.532  1.00  0.00    -0.205 F 
ATOM     66  C   UNL A   1      47.556  25.703  35.025  1.00  0.00     0.022 A 
BRANCH  64  67
ATOM     67  S   UNL A   1      46.157  23.639  36.171  1.00  0.00     0.127 S 
ATOM     68  O   UNL A   1      45.755  22.620  35.204  1.00  0.00    -0.237 OA
ATOM     69  O   UNL A   1      47.520  23.491  36.683  1.00  0.00    -0.237 OA
ATOM     70  O   UNL A   1      45.167  23.969  37.188  1.00  0.00    -0.744 OA
ENDBRANCH  64  67
ENDBRANCH  37  60
ENDBRANCH  11  12
ENDBRANCH   4   6
ENDBRANCH   1   2
BRANCH   1  71
ATOM     71  C   UNL A   1      31.786  28.947  27.268  1.00  0.00     0.042 C 
BRANCH  71  72
ATOM     72  C   UNL A   1      31.925  27.444  27.089  1.00  0.00     0.117 C 
BRANCH  72  73
ATOM     73  N   UNL A   1      30.757  26.867  26.456  1.00  0.00    -0.356 N 
ATOM     74  C   UNL A   1      30.549  26.303  25.247  1.00  0.00     0.224 C 
ATOM     75  H   UNL A   1      29.952  26.891  27.021  1.00  0.00     0.163 HD
ATOM     76  O   UNL A   1      29.360  26.114  24.959  1.00  0.00    -0.275 OA
BRANCH  74  77
ATOM     77  C   UNL A   1      31.673  25.995  24.249  1.00  0.00     0.098 C 
ATOM     78  C   UNL A   1      31.091  25.224  23.044  1.00  0.00     0.017 C 
ATOM     79  C   UNL A   1      32.839  25.151  24.769  1.00  0.00     0.134 C 
ATOM     80  C   UNL A   1      30.628  23.825  23.458  1.00  0.00     0.022 C 
ATOM     81  N   UNL A   1      32.412  23.840  25.246  1.00  0.00    -0.324 N 
ATOM     82  C   UNL A   1      31.670  23.046  24.260  1.00  0.00     0.121 C 
BRANCH  81  83
ATOM     83  C   UNL A   1      32.703  23.516  26.556  1.00  0.00     0.321 C 
ATOM     84  O   UNL A   1      31.950  23.824  27.486  1.00  0.00    -0.248 OA
ATOM     85  N   UNL A   1      33.771  22.743  26.878  1.00  0.00    -0.308 N 
ATOM     86  H   UNL A   1      33.659  22.236  27.715  1.00  0.00     0.171 HD
BRANCH  85  87
ATOM     87  C   UNL A   1      34.998  22.533  26.247  1.00  0.00     0.042 A 
ATOM     88  C   UNL A   1      35.250  21.253  25.747  1.00  0.00     0.026 A 
ATOM     89  C   UNL A   1      35.933  23.552  26.059  1.00  0.00     0.026 A 
ATOM     90  C   UNL A   1      36.362  21.035  24.934  1.00  0.00     0.002 A 
ATOM     91  C   UNL A   1      37.055  23.327  25.261  1.00  0.00     0.002 A 
ATOM     92  C   UNL A   1      37.252  22.078  24.675  1.00  0.00     0.000 A 
ENDBRANCH  85  87
ENDBRANCH  81  83
ENDBRANCH  74  77
ENDBRANCH  72  73
ENDBRANCH  71  72
ENDBRANCH   1  71
TORSDOF 15
ENDMDL
MODEL 3
REMARK VINA RESULT:     -12.2      4.602      9.858
REMARK SMILES O=C(NCCCNC(=O)[C@@H]1CCCN(C(=O)Nc2ccccc2)C1)c1ccc(-c2c3nc(c(-c4cccc(S(=O)(=O)[O-])c4F)c4ccc([nH]4)c(-c4cccc(S(=O)(=O)[O-])c4F)c4nc(c(-c5cccc(S(=O)(=O)[O-])c5F)c5ccc2[nH]5)C=C4)C=C3)cc1
REMARK SMILES IDX 4 1 3 2 1 3 2 4 25 6 26 7 87 8 27 9 86 10 28 11 29 12 30 13
REMARK SMILES IDX 80 14 31 15 85 16 79 17 81 18 32 19 84 20 78 21 77 22 33 24
REMARK SMILES IDX 65 25 45 26 64 27 46 28 49 29 63 30 82 31 47 32 48 33 62 35
REMARK SMILES IDX 83 36 50 37 34 38 35 39 43 40 36 41 38 42 44 43 37 44 39 45
REMARK SMILES IDX 40 46 41 47 42 48 66 49 67 50 75 51 68 52 70 53 76 54 69 55
REMARK SMILES IDX 71 56 72 57 73 58 74 59 51 60 52 61 60 62 53 63 55 64 61 65
REMARK SMILES IDX 54 66 56 67 57 68 58 69 59 70 5 71 6 72 7 73 8 74 9 76 10 77
REMARK SMILES IDX 11 78 24 79 12 80 14 81 13 82 15 83 16 84 17 85 18 87 19 88
REMARK SMILES IDX 23 89 20 90 22 91 21 92
REMARK H PARENT 3 5 81 23 49 34 7 75 17 86
REMARK Flexibility Score: inf
ROOT
ATOM      1  C   UNL A   1      32.777  29.293  25.485  1.00  0.00     0.118 C 
ENDROOT
BRANCH   1   2
ATOM      2  N   UNL A   1      32.400  30.621  25.955  1.00  0.00    -0.352 N 
ATOM      3  O   UNL A   1      32.374  32.450  27.261  1.00  0.00    -0.269 OA
ATOM      4  C   UNL A   1      32.972  31.437  26.902  1.00  0.00     0.251 C 
ATOM      5  H   UNL A   1      31.601  30.997  25.521  1.00  0.00     0.163 HD
BRANCH   4   6
ATOM      6  C   UNL A   1      34.274  31.089  27.512  1.00  0.00     0.039 A 
ATOM      7  C   UNL A   1      34.581  29.771  27.844  1.00  0.00     0.014 A 
ATOM      8  C   UNL A   1      35.214  32.098  27.745  1.00  0.00     0.014 A 
ATOM      9  C   UNL A   1      35.723  29.492  28.586  1.00  0.00     0.010 A 
ATOM     10  C   UNL A   1      36.420  31.796  28.387  1.00  0.00     0.010 A 
ATOM     11  C   UNL A   1      36.662  30.498  28.862  1.00  0.00    -0.014 A 
BRANCH  11  12
ATOM     12  C   UNL A   1      37.901  30.145  29.607  1.00  0.00     0.031 A 
ATOM     13  C   UNL A   1      38.126  30.610  31.022  1.00  0.00     0.074 A 
ATOM     14  C   UNL A   1      38.818  29.363  29.002  1.00  0.00     0.049 A 
ATOM     15  N   UNL A   1      39.113  30.322  31.832  1.00  0.00    -0.248 NA
ATOM     16  C   UNL A   1      37.128  31.523  31.602  1.00  0.00     0.031 C 
ATOM     17  C   UNL A   1      38.738  28.889  27.619  1.00  0.00     0.029 A 
ATOM     18  N   UNL A   1      39.984  28.814  29.471  1.00  0.00    -0.354 N 
ATOM     19  C   UNL A   1      38.884  31.053  32.993  1.00  0.00     0.074 A 
ATOM     20  C   UNL A   1      37.666  31.803  32.781  1.00  0.00     0.031 C 
ATOM     21  C   UNL A   1      39.776  28.081  27.367  1.00  0.00     0.029 A 
ATOM     22  C   UNL A   1      40.627  28.021  28.549  1.00  0.00     0.049 A 
ATOM     23  H   UNL A   1      40.329  28.973  30.380  1.00  0.00     0.167 HD
ATOM     24  C   UNL A   1      39.613  31.083  34.135  1.00  0.00     0.034 A 
ATOM     25  C   UNL A   1      41.774  27.322  28.641  1.00  0.00     0.034 A 
ATOM     26  C   UNL A   1      40.794  30.292  34.361  1.00  0.00     0.049 A 
ATOM     27  C   UNL A   1      42.532  27.335  29.937  1.00  0.00     0.074 A 
ATOM     28  C   UNL A   1      41.555  30.192  35.514  1.00  0.00     0.029 A 
ATOM     29  N   UNL A   1      41.390  29.469  33.418  1.00  0.00    -0.354 N 
ATOM     30  N   UNL A   1      42.221  27.923  31.067  1.00  0.00    -0.248 NA
ATOM     31  C   UNL A   1      43.783  26.567  29.980  1.00  0.00     0.031 C 
ATOM     32  C   UNL A   1      42.623  29.324  35.261  1.00  0.00     0.029 A 
ATOM     33  C   UNL A   1      42.515  28.865  33.957  1.00  0.00     0.049 A 
ATOM     34  H   UNL A   1      41.063  29.333  32.500  1.00  0.00     0.167 HD
ATOM     35  C   UNL A   1      43.223  27.574  31.964  1.00  0.00     0.074 A 
ATOM     36  C   UNL A   1      44.134  26.701  31.252  1.00  0.00     0.031 C 
ATOM     37  C   UNL A   1      43.384  27.958  33.255  1.00  0.00     0.034 A 
BRANCH  24  38
ATOM     38  C   UNL A   1      39.136  31.976  35.253  1.00  0.00     0.023 A 
ATOM     39  C   UNL A   1      38.200  31.486  36.186  1.00  0.00     0.012 A 
ATOM     40  C   UNL A   1      39.664  33.271  35.421  1.00  0.00     0.148 A 
ATOM     41  C   UNL A   1      37.775  32.281  37.251  1.00  0.00     0.002 A 
ATOM     42  C   UNL A   1      39.267  34.043  36.507  1.00  0.00     0.091 A 
ATOM     43  F   UNL A   1      40.537  33.729  34.511  1.00  0.00    -0.205 F 
ATOM     44  C   UNL A   1      38.316  33.554  37.417  1.00  0.00     0.022 A 
BRANCH  42  45
ATOM     45  S   UNL A   1      39.968  35.662  36.848  1.00  0.00     0.127 S 
ATOM     46  O   UNL A   1      41.390  35.348  36.971  1.00  0.00    -0.237 OA
ATOM     47  O   UNL A   1      39.614  36.414  35.643  1.00  0.00    -0.237 OA
ATOM     48  O   UNL A   1      39.319  36.130  38.063  1.00  0.00    -0.744 OA
ENDBRANCH  42  45
ENDBRANCH  24  38
BRANCH  25  49
ATOM     49  C   UNL A   1      42.233  26.499  27.486  1.00  0.00     0.023 A 
ATOM     50  C   UNL A   1      43.060  27.085  26.508  1.00  0.00     0.012 A 
ATOM     51  C   UNL A   1      41.899  25.135  27.378  1.00  0.00     0.148 A 
ATOM     52  C   UNL A   1      43.528  26.332  25.431  1.00  0.00     0.002 A 
ATOM     53  C   UNL A   1      42.417  24.377  26.335  1.00  0.00     0.091 A 
ATOM     54  F   UNL A   1      41.096  24.602  28.310  1.00  0.00    -0.205 F 
ATOM     55  C   UNL A   1      43.217  24.977  25.351  1.00  0.00     0.022 A 
BRANCH  53  56
ATOM     56  S   UNL A   1      42.186  22.599  26.240  1.00  0.00     0.127 S 
ATOM     57  O   UNL A   1      42.852  22.145  27.457  1.00  0.00    -0.237 OA
ATOM     58  O   UNL A   1      40.727  22.480  26.255  1.00  0.00    -0.237 OA
ATOM     59  O   UNL A   1      42.805  22.193  24.985  1.00  0.00    -0.744 OA
ENDBRANCH  53  56
ENDBRANCH  25  49
BRANCH  37  60
ATOM     60  C   UNL A   1      44.576  27.412  33.993  1.00  0.00     0.023 A 
ATOM     61  C   UNL A   1      45.801  28.108  33.955  1.00  0.00     0.012 A 
ATOM     62  C   UNL A   1      44.469  26.242  34.769  1.00  0.00     0.148 A 
ATOM     63  C   UNL A   1      46.910  27.628  34.648  1.00  0.00     0.002 A 
ATOM     64  C   UNL A   1      45.567  25.794  35.496  1.00  0.00     0.091 A 
ATOM     65  F   UNL A   1      43.303  25.579  34.774  1.00  0.00    -0.205 F 
ATOM     66  C   UNL A   1      46.792  26.478  35.427  1.00  0.00     0.022 A 
BRANCH  64  67
ATOM     67  S   UNL A   1      45.469  24.377  36.595  1.00  0.00     0.127 S 
ATOM     68  O   UNL A   1      46.816  24.341  37.159  1.00  0.00    -0.237 OA
ATOM     69  O   UNL A   1      44.424  24.782  37.536  1.00  0.00    -0.237 OA
ATOM     70  O   UNL A   1      45.108  23.246  35.750  1.00  0.00    -0.744 OA
ENDBRANCH  64  67
ENDBRANCH  37  60
ENDBRANCH  11  12
ENDBRANCH   4   6
ENDBRANCH   1   2
BRANCH   1  71
ATOM     71  C   UNL A   1      31.727  28.230  25.788  1.00  0.00     0.042 C 
BRANCH  71  72
ATOM     72  C   UNL A   1      31.951  26.917  25.055  1.00  0.00     0.117 C 
BRANCH  72  73
ATOM     73  N   UNL A   1      32.363  25.861  25.955  1.00  0.00    -0.356 N 
ATOM     74  C   UNL A   1      31.893  24.617  26.193  1.00  0.00     0.224 C 
ATOM     75  H   UNL A   1      33.143  26.097  26.506  1.00  0.00     0.163 HD
ATOM     76  O   UNL A   1      32.363  24.067  27.197  1.00  0.00    -0.275 OA
BRANCH  74  77
ATOM     77  C   UNL A   1      30.795  23.950  25.354  1.00  0.00     0.098 C 
ATOM     78  C   UNL A   1      30.748  22.441  25.679  1.00  0.00     0.017 C 
ATOM     79  C   UNL A   1      30.937  24.052  23.833  1.00  0.00     0.134 C 
ATOM     80  C   UNL A   1      32.013  21.733  25.186  1.00  0.00     0.022 C 
ATOM     81  N   UNL A   1      32.176  23.455  23.346  1.00  0.00    -0.324 N 
ATOM     82  C   UNL A   1      32.370  22.054  23.735  1.00  0.00     0.121 C 
BRANCH  81  83
ATOM     83  C   UNL A   1      33.031  24.267  22.629  1.00  0.00     0.321 C 
ATOM     84  O   UNL A   1      32.666  24.856  21.605  1.00  0.00    -0.248 OA
ATOM     85  N   UNL A   1      34.281  24.554  23.073  1.00  0.00    -0.308 N 
ATOM     86  H   UNL A   1      34.629  25.419  22.756  1.00  0.00     0.171 HD
BRANCH  85  87
ATOM     87  C   UNL A   1      35.166  23.853  23.894  1.00  0.00     0.042 A 
ATOM     88  C   UNL A   1      35.939  22.855  23.298  1.00  0.00     0.026 A 
ATOM     89  C   UNL A   1      35.335  24.151  25.248  1.00  0.00     0.026 A 
ATOM     90  C   UNL A   1      36.978  22.263  24.015  1.00  0.00     0.002 A 
ATOM     91  C   UNL A   1      36.363  23.545  25.969  1.00  0.00     0.002 A 
ATOM     92  C   UNL A   1      37.201  22.623  25.344  1.00  0.00     0.000 A 
ENDBRANCH  85  87
ENDBRANCH  81  83
ENDBRANCH  74  77
ENDBRANCH  72  73
ENDBRANCH  71  72
ENDBRANCH   1  71
TORSDOF 15
ENDMDL
