MODEL 1
REMARK VINA RESULT:     -14.7      0.000      0.000
REMARK SMILES Cc1c(NC(=O)[C@@H]2CC=CC[C@@H]2C(=O)NCCCNC(=O)c2ccc(-c3c4nc(c(-c5cccc(S(=O)(=O)[O-])c5F)c5ccc([nH]5)c(-c5cccc(S(=O)(=O)[O-])c5F)c5nc(c(-c6cccc(S(=O)(=O)[O-])c6F)c6ccc3[nH]6)C=C5)C=C4)cc2)cccc1C(=O)N1CCOCC1
REMARK SMILES IDX 17 1 16 2 15 3 13 4 14 5 12 7 7 8 8 9 9 10 11 11 10 12 5 13
REMARK SMILES IDX 4 14 6 16 3 17 1 18 2 19 88 20 85 21 87 22 86 23 89 24 90 25
REMARK SMILES IDX 91 26 92 27 96 28 93 29 95 30 94 31 18 32 19 33 20 34 21 36
REMARK SMILES IDX 22 37 23 38 84 39 24 40 83 41 25 42 26 43 27 44 77 45 28 46
REMARK SMILES IDX 82 47 76 48 78 49 29 50 81 51 75 52 74 53 30 55 62 56 42 57
REMARK SMILES IDX 61 58 43 59 46 60 60 61 79 62 44 63 45 64 59 66 80 67 47 68
REMARK SMILES IDX 31 69 32 70 40 71 33 72 35 73 41 74 34 75 36 76 37 77 38 78
REMARK SMILES IDX 39 79 63 80 64 81 72 82 65 83 67 84 73 85 66 86 68 87 69 88
REMARK SMILES IDX 70 89 71 90 48 91 49 92 57 93 50 94 52 95 58 96 51 97 53 98
REMARK SMILES IDX 54 99 55 100 56 101
REMARK H PARENT 15 6 4 15 19 35 78 54 46 65
REMARK Flexibility Score: inf
ROOT
ATOM      1  C   UNL A   1      33.040  30.864  26.879  1.00  0.00     0.042 C 
ENDROOT
BRANCH   1   2
ATOM      2  C   UNL A   1      32.387  29.964  25.833  1.00  0.00     0.117 C 
BRANCH   2   3
ATOM      3  N   UNL A   1      33.278  29.565  24.751  1.00  0.00    -0.356 N 
ATOM      4  C   UNL A   1      33.712  28.417  24.178  1.00  0.00     0.224 C 
ATOM      5  O   UNL A   1      34.311  28.613  23.108  1.00  0.00    -0.275 OA
ATOM      6  H   UNL A   1      33.677  30.352  24.314  1.00  0.00     0.163 HD
BRANCH   4   7
ATOM      7  C   UNL A   1      33.468  26.950  24.631  1.00  0.00     0.095 C 
ATOM      8  C   UNL A   1      32.646  25.974  23.749  1.00  0.00     0.095 C 
ATOM      9  C   UNL A   1      31.288  26.621  23.472  1.00  0.00     0.041 C 
ATOM     10  C   UNL A   1      30.580  26.963  24.754  1.00  0.00    -0.030 C 
ATOM     11  C   UNL A   1      32.744  26.982  26.019  1.00  0.00     0.041 C 
ATOM     12  C   UNL A   1      31.242  27.113  25.911  1.00  0.00    -0.030 C 
BRANCH   8  13
ATOM     13  C   UNL A   1      33.515  25.401  22.641  1.00  0.00     0.228 C 
ATOM     14  N   UNL A   1      34.210  24.242  22.702  1.00  0.00    -0.326 N 
ATOM     15  H   UNL A   1      34.368  23.859  21.810  1.00  0.00     0.169 HD
ATOM     16  O   UNL A   1      33.654  26.022  21.577  1.00  0.00    -0.274 OA
BRANCH  14  17
ATOM     17  C   UNL A   1      34.762  23.451  23.721  1.00  0.00     0.044 A 
ATOM     18  C   UNL A   1      32.461  22.448  23.997  1.00  0.00     0.047 C 
ATOM     19  C   UNL A   1      33.945  22.422  24.272  1.00  0.00    -0.015 A 
ATOM     20  C   UNL A   1      34.532  21.452  25.114  1.00  0.00     0.045 A 
ATOM     21  C   UNL A   1      36.096  23.569  24.110  1.00  0.00     0.026 A 
ATOM     22  C   UNL A   1      35.871  21.620  25.510  1.00  0.00     0.014 A 
ATOM     23  C   UNL A   1      36.638  22.681  25.034  1.00  0.00     0.003 A 
BRANCH  20  24
ATOM     24  C   UNL A   1      33.802  20.331  25.786  1.00  0.00     0.254 C 
ATOM     25  O   UNL A   1      33.230  20.594  26.847  1.00  0.00    -0.269 OA
ATOM     26  N   UNL A   1      33.728  19.058  25.230  1.00  0.00    -0.334 N 
ATOM     27  C   UNL A   1      34.770  18.371  24.457  1.00  0.00     0.148 C 
ATOM     28  C   UNL A   1      32.661  18.173  25.703  1.00  0.00     0.148 C 
ATOM     29  C   UNL A   1      34.163  17.442  23.386  1.00  0.00     0.181 C 
ATOM     30  C   UNL A   1      32.106  17.347  24.542  1.00  0.00     0.181 C 
ATOM     31  O   UNL A   1      33.158  16.576  23.937  1.00  0.00    -0.378 OA
ENDBRANCH  20  24
ENDBRANCH  14  17
ENDBRANCH   8  13
ENDBRANCH   4   7
ENDBRANCH   2   3
ENDBRANCH   1   2
BRANCH   1  32
ATOM     32  C   UNL A   1      34.360  30.339  27.419  1.00  0.00     0.118 C 
BRANCH  32  33
ATOM     33  N   UNL A   1      35.252  31.393  27.884  1.00  0.00    -0.352 N 
ATOM     34  C   UNL A   1      36.542  31.288  28.395  1.00  0.00     0.251 C 
ATOM     35  H   UNL A   1      34.890  32.307  27.830  1.00  0.00     0.163 HD
ATOM     36  O   UNL A   1      37.104  32.270  28.814  1.00  0.00    -0.269 OA
BRANCH  34  37
ATOM     37  C   UNL A   1      37.223  29.970  28.279  1.00  0.00     0.039 A 
ATOM     38  C   UNL A   1      37.317  29.189  29.434  1.00  0.00     0.014 A 
ATOM     39  C   UNL A   1      38.005  29.686  27.165  1.00  0.00     0.014 A 
ATOM     40  C   UNL A   1      38.384  28.305  29.569  1.00  0.00     0.010 A 
ATOM     41  C   UNL A   1      39.125  28.901  27.340  1.00  0.00     0.010 A 
ATOM     42  C   UNL A   1      39.349  28.264  28.568  1.00  0.00    -0.014 A 
BRANCH  42  43
ATOM     43  C   UNL A   1      40.644  27.609  28.690  1.00  0.00     0.031 A 
ATOM     44  C   UNL A   1      40.743  26.156  28.460  1.00  0.00     0.074 A 
ATOM     45  C   UNL A   1      41.758  28.348  28.880  1.00  0.00     0.049 A 
ATOM     46  N   UNL A   1      41.804  25.455  28.656  1.00  0.00    -0.248 NA
ATOM     47  C   UNL A   1      39.602  25.370  28.012  1.00  0.00     0.031 C 
ATOM     48  C   UNL A   1      43.146  27.946  28.674  1.00  0.00     0.029 A 
ATOM     49  N   UNL A   1      41.853  29.578  29.524  1.00  0.00    -0.354 N 
ATOM     50  C   UNL A   1      41.561  24.175  28.211  1.00  0.00     0.074 A 
ATOM     51  C   UNL A   1      40.167  24.173  27.839  1.00  0.00     0.031 C 
ATOM     52  C   UNL A   1      43.945  28.757  29.384  1.00  0.00     0.029 A 
ATOM     53  C   UNL A   1      43.088  29.597  30.200  1.00  0.00     0.049 A 
ATOM     54  H   UNL A   1      41.183  30.299  29.510  1.00  0.00     0.167 HD
ATOM     55  C   UNL A   1      42.603  23.299  28.145  1.00  0.00     0.034 A 
ATOM     56  C   UNL A   1      43.114  29.654  31.566  1.00  0.00     0.034 A 
ATOM     57  C   UNL A   1      43.780  23.841  28.841  1.00  0.00     0.049 A 
ATOM     58  C   UNL A   1      43.703  28.421  32.236  1.00  0.00     0.074 A 
ATOM     59  C   UNL A   1      44.911  24.548  28.466  1.00  0.00     0.029 A 
ATOM     60  N   UNL A   1      43.722  23.920  30.220  1.00  0.00    -0.354 N 
ATOM     61  N   UNL A   1      44.186  27.383  31.605  1.00  0.00    -0.248 NA
ATOM     62  C   UNL A   1      43.716  28.236  33.691  1.00  0.00     0.031 C 
ATOM     63  C   UNL A   1      45.471  25.136  29.644  1.00  0.00     0.029 A 
ATOM     64  C   UNL A   1      44.696  24.759  30.729  1.00  0.00     0.049 A 
ATOM     65  H   UNL A   1      43.066  23.437  30.773  1.00  0.00     0.167 HD
ATOM     66  C   UNL A   1      44.383  26.366  32.505  1.00  0.00     0.074 A 
ATOM     67  C   UNL A   1      44.130  26.964  33.802  1.00  0.00     0.031 C 
ATOM     68  C   UNL A   1      44.665  25.078  32.150  1.00  0.00     0.034 A 
BRANCH  55  69
ATOM     69  C   UNL A   1      42.644  22.018  27.332  1.00  0.00     0.023 A 
ATOM     70  C   UNL A   1      41.731  21.001  27.696  1.00  0.00     0.012 A 
ATOM     71  C   UNL A   1      43.549  21.689  26.297  1.00  0.00     0.148 A 
ATOM     72  C   UNL A   1      41.764  19.723  27.127  1.00  0.00     0.002 A 
ATOM     73  C   UNL A   1      43.625  20.397  25.772  1.00  0.00     0.091 A 
ATOM     74  F   UNL A   1      44.307  22.631  25.743  1.00  0.00    -0.205 F 
ATOM     75  C   UNL A   1      42.731  19.409  26.186  1.00  0.00     0.022 A 
BRANCH  73  76
ATOM     76  S   UNL A   1      44.914  19.903  24.610  1.00  0.00     0.127 S 
ATOM     77  O   UNL A   1      46.132  20.285  25.328  1.00  0.00    -0.237 OA
ATOM     78  O   UNL A   1      44.702  18.461  24.498  1.00  0.00    -0.237 OA
ATOM     79  O   UNL A   1      44.683  20.665  23.388  1.00  0.00    -0.744 OA
ENDBRANCH  73  76
ENDBRANCH  55  69
BRANCH  56  80
ATOM     80  C   UNL A   1      41.994  30.485  32.113  1.00  0.00     0.023 A 
ATOM     81  C   UNL A   1      41.954  31.847  31.718  1.00  0.00     0.012 A 
ATOM     82  C   UNL A   1      40.839  29.914  32.672  1.00  0.00     0.148 A 
ATOM     83  C   UNL A   1      40.757  32.565  31.728  1.00  0.00     0.002 A 
ATOM     84  C   UNL A   1      39.658  30.651  32.716  1.00  0.00     0.091 A 
ATOM     85  F   UNL A   1      40.883  28.648  33.106  1.00  0.00    -0.205 F 
ATOM     86  C   UNL A   1      39.600  31.954  32.197  1.00  0.00     0.022 A 
BRANCH  84  87
ATOM     87  S   UNL A   1      38.137  29.928  33.347  1.00  0.00     0.127 S 
ATOM     88  O   UNL A   1      37.130  30.723  32.651  1.00  0.00    -0.237 OA
ATOM     89  O   UNL A   1      38.236  28.538  32.902  1.00  0.00    -0.237 OA
ATOM     90  O   UNL A   1      38.216  30.098  34.790  1.00  0.00    -0.744 OA
ENDBRANCH  84  87
ENDBRANCH  56  80
BRANCH  68  91
ATOM     91  C   UNL A   1      44.952  24.011  33.175  1.00  0.00     0.023 A 
ATOM     92  C   UNL A   1      43.909  23.173  33.618  1.00  0.00     0.012 A 
ATOM     93  C   UNL A   1      46.193  23.923  33.845  1.00  0.00     0.148 A 
ATOM     94  C   UNL A   1      44.094  22.275  34.673  1.00  0.00     0.002 A 
ATOM     95  C   UNL A   1      46.340  23.107  34.960  1.00  0.00     0.091 A 
ATOM     96  F   UNL A   1      47.249  24.599  33.371  1.00  0.00    -0.205 F 
ATOM     97  C   UNL A   1      45.300  22.263  35.364  1.00  0.00     0.022 A 
BRANCH  95  98
ATOM     98  S   UNL A   1      47.784  23.223  36.025  1.00  0.00     0.127 S 
ATOM     99  O   UNL A   1      47.789  24.643  36.383  1.00  0.00    -0.237 OA
ATOM    100  O   UNL A   1      47.429  22.322  37.118  1.00  0.00    -0.237 OA
ATOM    101  O   UNL A   1      48.906  22.818  35.191  1.00  0.00    -0.744 OA
ENDBRANCH  95  98
ENDBRANCH  68  91
ENDBRANCH  42  43
ENDBRANCH  34  37
ENDBRANCH  32  33
ENDBRANCH   1  32
TORSDOF 16
ENDMDL
MODEL 2
REMARK VINA RESULT:     -14.7      1.240      2.150
REMARK SMILES Cc1c(NC(=O)[C@@H]2CC=CC[C@@H]2C(=O)NCCCNC(=O)c2ccc(-c3c4nc(c(-c5cccc(S(=O)(=O)[O-])c5F)c5ccc([nH]5)c(-c5cccc(S(=O)(=O)[O-])c5F)c5nc(c(-c6cccc(S(=O)(=O)[O-])c6F)c6ccc3[nH]6)C=C5)C=C4)cc2)cccc1C(=O)N1CCOCC1
REMARK SMILES IDX 17 1 16 2 15 3 13 4 14 5 12 7 7 8 8 9 9 10 11 11 10 12 5 13
REMARK SMILES IDX 4 14 6 16 3 17 1 18 2 19 88 20 85 21 87 22 86 23 89 24 90 25
REMARK SMILES IDX 91 26 92 27 96 28 93 29 95 30 94 31 18 32 19 33 20 34 21 36
REMARK SMILES IDX 22 37 23 38 84 39 24 40 83 41 25 42 26 43 27 44 77 45 28 46
REMARK SMILES IDX 82 47 76 48 78 49 29 50 81 51 75 52 74 53 30 55 62 56 42 57
REMARK SMILES IDX 61 58 43 59 46 60 60 61 79 62 44 63 45 64 59 66 80 67 47 68
REMARK SMILES IDX 31 69 32 70 40 71 33 72 35 73 41 74 34 75 36 76 37 77 38 78
REMARK SMILES IDX 39 79 63 80 64 81 72 82 65 83 67 84 73 85 66 86 68 87 69 88
REMARK SMILES IDX 70 89 71 90 48 91 49 92 57 93 50 94 52 95 58 96 51 97 53 98
REMARK SMILES IDX 54 99 55 100 56 101
REMARK H PARENT 15 6 4 15 19 35 78 54 46 65
REMARK Flexibility Score: inf
ROOT
ATOM      1  C   UNL A   1      33.885  30.154  26.544  1.00  0.00     0.042 C 
ENDROOT
BRANCH   1   2
ATOM      2  C   UNL A   1      34.400  28.786  26.102  1.00  0.00     0.117 C 
BRANCH   2   3
ATOM      3  N   UNL A   1      34.359  28.572  24.661  1.00  0.00    -0.356 N 
ATOM      4  C   UNL A   1      33.507  28.052  23.746  1.00  0.00     0.224 C 
ATOM      5  O   UNL A   1      33.843  28.310  22.579  1.00  0.00    -0.275 OA
ATOM      6  H   UNL A   1      35.184  28.896  24.233  1.00  0.00     0.163 HD
BRANCH   4   7
ATOM      7  C   UNL A   1      32.169  27.297  23.981  1.00  0.00     0.095 C 
ATOM      8  C   UNL A   1      31.160  27.089  22.820  1.00  0.00     0.095 C 
ATOM      9  C   UNL A   1      30.838  28.461  22.226  1.00  0.00     0.041 C 
ATOM     10  C   UNL A   1      30.307  29.394  23.279  1.00  0.00    -0.030 C 
ATOM     11  C   UNL A   1      31.375  28.047  25.103  1.00  0.00     0.041 C 
ATOM     12  C   UNL A   1      30.542  29.196  24.585  1.00  0.00    -0.030 C 
BRANCH   8  13
ATOM     13  C   UNL A   1      31.582  25.909  21.959  1.00  0.00     0.228 C 
ATOM     14  N   UNL A   1      31.522  24.607  22.321  1.00  0.00    -0.326 N 
ATOM     15  H   UNL A   1      31.452  24.010  21.541  1.00  0.00     0.169 HD
ATOM     16  O   UNL A   1      32.049  26.101  20.827  1.00  0.00    -0.274 OA
BRANCH  14  17
ATOM     17  C   UNL A   1      31.537  23.895  23.530  1.00  0.00     0.044 A 
ATOM     18  C   UNL A   1      33.558  22.679  22.630  1.00  0.00     0.047 C 
ATOM     19  C   UNL A   1      32.649  23.041  23.778  1.00  0.00    -0.015 A 
ATOM     20  C   UNL A   1      32.829  22.503  25.072  1.00  0.00     0.045 A 
ATOM     21  C   UNL A   1      30.572  24.094  24.517  1.00  0.00     0.026 A 
ATOM     22  C   UNL A   1      31.821  22.698  26.034  1.00  0.00     0.014 A 
ATOM     23  C   UNL A   1      30.692  23.463  25.752  1.00  0.00     0.003 A 
BRANCH  20  24
ATOM     24  C   UNL A   1      33.930  21.573  25.479  1.00  0.00     0.254 C 
ATOM     25  O   UNL A   1      33.626  20.390  25.651  1.00  0.00    -0.269 OA
ATOM     26  N   UNL A   1      35.246  22.001  25.620  1.00  0.00    -0.334 N 
ATOM     27  C   UNL A   1      35.702  23.305  26.115  1.00  0.00     0.148 C 
ATOM     28  C   UNL A   1      36.297  20.983  25.579  1.00  0.00     0.148 C 
ATOM     29  C   UNL A   1      37.015  23.743  25.438  1.00  0.00     0.181 C 
ATOM     30  C   UNL A   1      37.523  21.517  24.838  1.00  0.00     0.181 C 
ATOM     31  O   UNL A   1      38.010  22.707  25.481  1.00  0.00    -0.378 OA
ENDBRANCH  20  24
ENDBRANCH  14  17
ENDBRANCH   8  13
ENDBRANCH   4   7
ENDBRANCH   2   3
ENDBRANCH   1   2
BRANCH   1  32
ATOM     32  C   UNL A   1      34.142  30.475  28.007  1.00  0.00     0.118 C 
BRANCH  32  33
ATOM     33  N   UNL A   1      35.099  31.558  28.198  1.00  0.00    -0.352 N 
ATOM     34  C   UNL A   1      36.457  31.486  28.491  1.00  0.00     0.251 C 
ATOM     35  H   UNL A   1      34.732  32.467  28.108  1.00  0.00     0.163 HD
ATOM     36  O   UNL A   1      37.080  32.497  28.701  1.00  0.00    -0.269 OA
BRANCH  34  37
ATOM     37  C   UNL A   1      37.110  30.152  28.404  1.00  0.00     0.039 A 
ATOM     38  C   UNL A   1      37.252  29.424  29.588  1.00  0.00     0.014 A 
ATOM     39  C   UNL A   1      37.829  29.802  27.266  1.00  0.00     0.014 A 
ATOM     40  C   UNL A   1      38.311  28.528  29.710  1.00  0.00     0.010 A 
ATOM     41  C   UNL A   1      38.944  29.006  27.420  1.00  0.00     0.010 A 
ATOM     42  C   UNL A   1      39.221  28.423  28.664  1.00  0.00    -0.014 A 
BRANCH  42  43
ATOM     43  C   UNL A   1      40.511  27.750  28.751  1.00  0.00     0.031 A 
ATOM     44  C   UNL A   1      40.586  26.299  28.504  1.00  0.00     0.074 A 
ATOM     45  C   UNL A   1      41.637  28.474  28.924  1.00  0.00     0.049 A 
ATOM     46  N   UNL A   1      41.642  25.583  28.669  1.00  0.00    -0.248 NA
ATOM     47  C   UNL A   1      39.426  25.532  28.073  1.00  0.00     0.031 C 
ATOM     48  C   UNL A   1      43.016  28.058  28.683  1.00  0.00     0.029 A 
ATOM     49  N   UNL A   1      41.762  29.696  29.579  1.00  0.00    -0.354 N 
ATOM     50  C   UNL A   1      41.374  24.311  28.217  1.00  0.00     0.074 A 
ATOM     51  C   UNL A   1      39.973  24.330  27.876  1.00  0.00     0.031 C 
ATOM     52  C   UNL A   1      43.840  28.851  29.384  1.00  0.00     0.029 A 
ATOM     53  C   UNL A   1      43.011  29.693  30.227  1.00  0.00     0.049 A 
ATOM     54  H   UNL A   1      41.101  30.425  29.587  1.00  0.00     0.167 HD
ATOM     55  C   UNL A   1      42.404  23.424  28.118  1.00  0.00     0.034 A 
ATOM     56  C   UNL A   1      43.068  29.735  31.593  1.00  0.00     0.034 A 
ATOM     57  C   UNL A   1      43.602  23.943  28.794  1.00  0.00     0.049 A 
ATOM     58  C   UNL A   1      43.657  28.488  32.237  1.00  0.00     0.074 A 
ATOM     59  C   UNL A   1      44.733  24.641  28.402  1.00  0.00     0.029 A 
ATOM     60  N   UNL A   1      43.575  24.008  30.175  1.00  0.00    -0.354 N 
ATOM     61  N   UNL A   1      44.112  27.451  31.585  1.00  0.00    -0.248 NA
ATOM     62  C   UNL A   1      43.699  28.287  33.689  1.00  0.00     0.031 C 
ATOM     63  C   UNL A   1      45.326  25.209  29.573  1.00  0.00     0.029 A 
ATOM     64  C   UNL A   1      44.571  24.830  30.671  1.00  0.00     0.049 A 
ATOM     65  H   UNL A   1      42.925  23.527  30.737  1.00  0.00     0.167 HD
ATOM     66  C   UNL A   1      44.317  26.422  32.469  1.00  0.00     0.074 A 
ATOM     67  C   UNL A   1      44.099  27.009  33.779  1.00  0.00     0.031 C 
ATOM     68  C   UNL A   1      44.575  25.135  32.095  1.00  0.00     0.034 A 
BRANCH  55  69
ATOM     69  C   UNL A   1      42.411  22.151  27.291  1.00  0.00     0.023 A 
ATOM     70  C   UNL A   1      41.398  21.204  27.569  1.00  0.00     0.012 A 
ATOM     71  C   UNL A   1      43.366  21.763  26.324  1.00  0.00     0.148 A 
ATOM     72  C   UNL A   1      41.378  19.932  26.984  1.00  0.00     0.002 A 
ATOM     73  C   UNL A   1      43.385  20.474  25.788  1.00  0.00     0.091 A 
ATOM     74  F   UNL A   1      44.234  22.649  25.845  1.00  0.00    -0.205 F 
ATOM     75  C   UNL A   1      42.390  19.553  26.116  1.00  0.00     0.022 A 
BRANCH  73  76
ATOM     76  S   UNL A   1      44.720  19.894  24.721  1.00  0.00     0.127 S 
ATOM     77  O   UNL A   1      44.481  20.657  23.494  1.00  0.00    -0.237 OA
ATOM     78  O   UNL A   1      45.914  20.296  25.463  1.00  0.00    -0.237 OA
ATOM     79  O   UNL A   1      44.535  18.456  24.571  1.00  0.00    -0.744 OA
ENDBRANCH  73  76
ENDBRANCH  55  69
BRANCH  56  80
ATOM     80  C   UNL A   1      41.970  30.574  32.173  1.00  0.00     0.023 A 
ATOM     81  C   UNL A   1      41.932  31.938  31.785  1.00  0.00     0.012 A 
ATOM     82  C   UNL A   1      40.826  30.011  32.761  1.00  0.00     0.148 A 
ATOM     83  C   UNL A   1      40.742  32.666  31.829  1.00  0.00     0.002 A 
ATOM     84  C   UNL A   1      39.653  30.758  32.839  1.00  0.00     0.091 A 
ATOM     85  F   UNL A   1      40.870  28.743  33.189  1.00  0.00    -0.205 F 
ATOM     86  C   UNL A   1      39.593  32.064  32.327  1.00  0.00     0.022 A 
BRANCH  84  87
ATOM     87  S   UNL A   1      38.144  30.046  33.508  1.00  0.00     0.127 S 
ATOM     88  O   UNL A   1      38.208  28.686  32.980  1.00  0.00    -0.237 OA
ATOM     89  O   UNL A   1      38.352  30.154  34.951  1.00  0.00    -0.237 OA
ATOM     90  O   UNL A   1      37.076  30.891  32.995  1.00  0.00    -0.744 OA
ENDBRANCH  84  87
ENDBRANCH  56  80
BRANCH  68  91
ATOM     91  C   UNL A   1      44.870  24.053  33.102  1.00  0.00     0.023 A 
ATOM     92  C   UNL A   1      43.831  23.211  33.545  1.00  0.00     0.012 A 
ATOM     93  C   UNL A   1      46.118  23.955  33.758  1.00  0.00     0.148 A 
ATOM     94  C   UNL A   1      44.026  22.299  34.586  1.00  0.00     0.002 A 
ATOM     95  C   UNL A   1      46.275  23.123  34.860  1.00  0.00     0.091 A 
ATOM     96  F   UNL A   1      47.170  24.635  33.283  1.00  0.00    -0.205 F 
ATOM     97  C   UNL A   1      45.238  22.275  35.264  1.00  0.00     0.022 A 
BRANCH  95  98
ATOM     98  S   UNL A   1      47.731  23.223  35.912  1.00  0.00     0.127 S 
ATOM     99  O   UNL A   1      48.787  22.731  35.024  1.00  0.00    -0.237 OA
ATOM    100  O   UNL A   1      47.797  24.652  36.204  1.00  0.00    -0.237 OA
ATOM    101  O   UNL A   1      47.448  22.345  37.039  1.00  0.00    -0.744 OA
ENDBRANCH  95  98
ENDBRANCH  68  91
ENDBRANCH  42  43
ENDBRANCH  34  37
ENDBRANCH  32  33
ENDBRANCH   1  32
TORSDOF 16
ENDMDL
MODEL 3
REMARK VINA RESULT:     -14.2      1.787      2.235
REMARK SMILES Cc1c(NC(=O)[C@@H]2CC=CC[C@@H]2C(=O)NCCCNC(=O)c2ccc(-c3c4nc(c(-c5cccc(S(=O)(=O)[O-])c5F)c5ccc([nH]5)c(-c5cccc(S(=O)(=O)[O-])c5F)c5nc(c(-c6cccc(S(=O)(=O)[O-])c6F)c6ccc3[nH]6)C=C5)C=C4)cc2)cccc1C(=O)N1CCOCC1
REMARK SMILES IDX 17 1 16 2 15 3 13 4 14 5 12 7 7 8 8 9 9 10 11 11 10 12 5 13
REMARK SMILES IDX 4 14 6 16 3 17 1 18 2 19 88 20 85 21 87 22 86 23 89 24 90 25
REMARK SMILES IDX 91 26 92 27 96 28 93 29 95 30 94 31 18 32 19 33 20 34 21 36
REMARK SMILES IDX 22 37 23 38 84 39 24 40 83 41 25 42 26 43 27 44 77 45 28 46
REMARK SMILES IDX 82 47 76 48 78 49 29 50 81 51 75 52 74 53 30 55 62 56 42 57
REMARK SMILES IDX 61 58 43 59 46 60 60 61 79 62 44 63 45 64 59 66 80 67 47 68
REMARK SMILES IDX 31 69 32 70 40 71 33 72 35 73 41 74 34 75 36 76 37 77 38 78
REMARK SMILES IDX 39 79 63 80 64 81 72 82 65 83 67 84 73 85 66 86 68 87 69 88
REMARK SMILES IDX 70 89 71 90 48 91 49 92 57 93 50 94 52 95 58 96 51 97 53 98
REMARK SMILES IDX 54 99 55 100 56 101
REMARK H PARENT 15 6 4 15 19 35 78 54 46 65
REMARK Flexibility Score: inf
ROOT
ATOM      1  C   UNL A   1      32.537  30.601  26.161  1.00  0.00     0.042 C 
ENDROOT
BRANCH   1   2
ATOM      2  C   UNL A   1      32.043  29.412  25.340  1.00  0.00     0.117 C 
BRANCH   2   3
ATOM      3  N   UNL A   1      32.935  29.028  24.253  1.00  0.00    -0.356 N 
ATOM      4  C   UNL A   1      33.363  27.888  23.659  1.00  0.00     0.224 C 
ATOM      5  O   UNL A   1      33.967  28.101  22.595  1.00  0.00    -0.275 OA
ATOM      6  H   UNL A   1      33.341  29.820  23.833  1.00  0.00     0.163 HD
BRANCH   4   7
ATOM      7  C   UNL A   1      33.107  26.415  24.083  1.00  0.00     0.095 C 
ATOM      8  C   UNL A   1      32.254  25.471  23.194  1.00  0.00     0.095 C 
ATOM      9  C   UNL A   1      30.900  26.143  22.959  1.00  0.00     0.041 C 
ATOM     10  C   UNL A   1      30.222  26.464  24.263  1.00  0.00    -0.030 C 
ATOM     11  C   UNL A   1      32.411  26.424  25.485  1.00  0.00     0.041 C 
ATOM     12  C   UNL A   1      30.909  26.578  25.410  1.00  0.00    -0.030 C 
BRANCH   8  13
ATOM     13  C   UNL A   1      33.093  24.913  22.057  1.00  0.00     0.228 C 
ATOM     14  N   UNL A   1      33.875  23.811  22.119  1.00  0.00    -0.326 N 
ATOM     15  H   UNL A   1      34.006  23.400  21.235  1.00  0.00     0.169 HD
ATOM     16  O   UNL A   1      33.118  25.492  20.962  1.00  0.00    -0.274 OA
BRANCH  14  17
ATOM     17  C   UNL A   1      34.547  23.108  23.131  1.00  0.00     0.044 A 
ATOM     18  C   UNL A   1      32.304  22.125  23.745  1.00  0.00     0.047 C 
ATOM     19  C   UNL A   1      33.809  22.126  23.853  1.00  0.00    -0.015 A 
ATOM     20  C   UNL A   1      34.498  21.231  24.701  1.00  0.00     0.045 A 
ATOM     21  C   UNL A   1      35.914  23.262  23.357  1.00  0.00     0.026 A 
ATOM     22  C   UNL A   1      35.871  21.435  24.929  1.00  0.00     0.014 A 
ATOM     23  C   UNL A   1      36.567  22.456  24.284  1.00  0.00     0.003 A 
BRANCH  20  24
ATOM     24  C   UNL A   1      33.861  20.167  25.540  1.00  0.00     0.254 C 
ATOM     25  O   UNL A   1      33.384  20.521  26.621  1.00  0.00    -0.269 OA
ATOM     26  N   UNL A   1      33.768  18.846  25.115  1.00  0.00    -0.334 N 
ATOM     27  C   UNL A   1      34.750  18.105  24.314  1.00  0.00     0.148 C 
ATOM     28  C   UNL A   1      32.771  17.994  25.766  1.00  0.00     0.148 C 
ATOM     29  C   UNL A   1      34.071  17.070  23.396  1.00  0.00     0.181 C 
ATOM     30  C   UNL A   1      32.133  17.052  24.745  1.00  0.00     0.181 C 
ATOM     31  O   UNL A   1      33.143  16.244  24.118  1.00  0.00    -0.378 OA
ENDBRANCH  20  24
ENDBRANCH  14  17
ENDBRANCH   8  13
ENDBRANCH   4   7
ENDBRANCH   2   3
ENDBRANCH   1   2
BRANCH   1  32
ATOM     32  C   UNL A   1      33.481  30.230  27.292  1.00  0.00     0.118 C 
BRANCH  32  33
ATOM     33  N   UNL A   1      34.100  31.386  27.927  1.00  0.00    -0.352 N 
ATOM     34  C   UNL A   1      35.294  31.461  28.639  1.00  0.00     0.251 C 
ATOM     35  H   UNL A   1      33.604  32.232  27.840  1.00  0.00     0.163 HD
ATOM     36  O   UNL A   1      35.610  32.496  29.173  1.00  0.00    -0.269 OA
BRANCH  34  37
ATOM     37  C   UNL A   1      36.194  30.277  28.599  1.00  0.00     0.039 A 
ATOM     38  C   UNL A   1      36.375  29.564  29.788  1.00  0.00     0.014 A 
ATOM     39  C   UNL A   1      37.056  30.094  27.524  1.00  0.00     0.014 A 
ATOM     40  C   UNL A   1      37.572  28.883  29.993  1.00  0.00     0.010 A 
ATOM     41  C   UNL A   1      38.286  29.521  27.766  1.00  0.00     0.010 A 
ATOM     42  C   UNL A   1      38.568  28.975  29.026  1.00  0.00    -0.014 A 
BRANCH  42  43
ATOM     43  C   UNL A   1      39.950  28.558  29.217  1.00  0.00     0.031 A 
ATOM     44  C   UNL A   1      40.355  27.195  28.824  1.00  0.00     0.074 A 
ATOM     45  C   UNL A   1      40.874  29.454  29.625  1.00  0.00     0.049 A 
ATOM     46  N   UNL A   1      41.511  26.681  29.054  1.00  0.00    -0.248 NA
ATOM     47  C   UNL A   1      39.437  26.286  28.153  1.00  0.00     0.031 C 
ATOM     48  C   UNL A   1      42.328  29.347  29.533  1.00  0.00     0.029 A 
ATOM     49  N   UNL A   1      40.666  30.576  30.421  1.00  0.00    -0.354 N 
ATOM     50  C   UNL A   1      41.567  25.455  28.431  1.00  0.00     0.074 A 
ATOM     51  C   UNL A   1      40.240  25.250  27.902  1.00  0.00     0.031 C 
ATOM     52  C   UNL A   1      42.883  30.181  30.425  1.00  0.00     0.029 A 
ATOM     53  C   UNL A   1      41.807  30.725  31.233  1.00  0.00     0.049 A 
ATOM     54  H   UNL A   1      39.871  31.156  30.417  1.00  0.00     0.167 HD
ATOM     55  C   UNL A   1      42.763  24.804  28.379  1.00  0.00     0.034 A 
ATOM     56  C   UNL A   1      41.697  30.590  32.589  1.00  0.00     0.034 A 
ATOM     57  C   UNL A   1      43.742  25.447  29.269  1.00  0.00     0.049 A 
ATOM     58  C   UNL A   1      42.455  29.403  33.167  1.00  0.00     0.074 A 
ATOM     59  C   UNL A   1      44.740  26.396  29.117  1.00  0.00     0.029 A 
ATOM     60  N   UNL A   1      43.544  25.317  30.631  1.00  0.00    -0.354 N 
ATOM     61  N   UNL A   1      43.188  28.573  32.475  1.00  0.00    -0.248 NA
ATOM     62  C   UNL A   1      42.372  29.018  34.580  1.00  0.00     0.031 C 
ATOM     63  C   UNL A   1      45.064  26.902  30.416  1.00  0.00     0.029 A 
ATOM     64  C   UNL A   1      44.284  26.239  31.349  1.00  0.00     0.049 A 
ATOM     65  H   UNL A   1      42.949  24.647  31.040  1.00  0.00     0.167 HD
ATOM     66  C   UNL A   1      43.500  27.492  33.259  1.00  0.00     0.074 A 
ATOM     67  C   UNL A   1      43.017  27.841  34.582  1.00  0.00     0.031 C 
ATOM     68  C   UNL A   1      44.062  26.341  32.785  1.00  0.00     0.034 A 
BRANCH  55  69
ATOM     69  C   UNL A   1      43.129  23.681  27.426  1.00  0.00     0.023 A 
ATOM     70  C   UNL A   1      44.012  24.003  26.369  1.00  0.00     0.012 A 
ATOM     71  C   UNL A   1      42.623  22.361  27.422  1.00  0.00     0.148 A 
ATOM     72  C   UNL A   1      44.313  23.103  25.340  1.00  0.00     0.002 A 
ATOM     73  C   UNL A   1      42.870  21.484  26.364  1.00  0.00     0.091 A 
ATOM     74  F   UNL A   1      41.952  21.897  28.472  1.00  0.00    -0.205 F 
ATOM     75  C   UNL A   1      43.717  21.852  25.319  1.00  0.00     0.022 A 
BRANCH  73  76
ATOM     76  S   UNL A   1      42.059  19.877  26.236  1.00  0.00     0.127 S 
ATOM     77  O   UNL A   1      40.651  20.257  26.100  1.00  0.00    -0.237 OA
ATOM     78  O   UNL A   1      42.656  19.318  25.024  1.00  0.00    -0.237 OA
ATOM     79  O   UNL A   1      42.363  19.160  27.468  1.00  0.00    -0.744 OA
ENDBRANCH  73  76
ENDBRANCH  55  69
BRANCH  56  80
ATOM     80  C   UNL A   1      40.389  31.115  33.100  1.00  0.00     0.023 A 
ATOM     81  C   UNL A   1      39.338  30.176  33.255  1.00  0.00     0.012 A 
ATOM     82  C   UNL A   1      40.279  32.359  33.743  1.00  0.00     0.148 A 
ATOM     83  C   UNL A   1      38.294  30.405  34.153  1.00  0.00     0.002 A 
ATOM     84  C   UNL A   1      39.212  32.596  34.606  1.00  0.00     0.091 A 
ATOM     85  F   UNL A   1      41.235  33.277  33.553  1.00  0.00    -0.205 F 
ATOM     86  C   UNL A   1      38.250  31.604  34.854  1.00  0.00     0.022 A 
BRANCH  84  87
ATOM     87  S   UNL A   1      39.080  34.142  35.513  1.00  0.00     0.127 S 
ATOM     88  O   UNL A   1      37.906  33.890  36.343  1.00  0.00    -0.237 OA
ATOM     89  O   UNL A   1      40.347  34.194  36.243  1.00  0.00    -0.237 OA
ATOM     90  O   UNL A   1      38.942  35.164  34.486  1.00  0.00    -0.744 OA
ENDBRANCH  84  87
ENDBRANCH  56  80
BRANCH  68  91
ATOM     91  C   UNL A   1      44.459  25.209  33.697  1.00  0.00     0.023 A 
ATOM     92  C   UNL A   1      43.719  24.011  33.683  1.00  0.00     0.012 A 
ATOM     93  C   UNL A   1      45.445  25.360  34.699  1.00  0.00     0.148 A 
ATOM     94  C   UNL A   1      43.956  22.997  34.616  1.00  0.00     0.002 A 
ATOM     95  C   UNL A   1      45.604  24.395  35.686  1.00  0.00     0.091 A 
ATOM     96  F   UNL A   1      46.264  26.420  34.666  1.00  0.00    -0.205 F 
ATOM     97  C   UNL A   1      44.877  23.201  35.636  1.00  0.00     0.022 A 
BRANCH  95  98
ATOM     98  S   UNL A   1      46.602  24.705  37.150  1.00  0.00     0.127 S 
ATOM     99  O   UNL A   1      47.935  24.904  36.576  1.00  0.00    -0.237 OA
ATOM    100  O   UNL A   1      45.984  25.913  37.689  1.00  0.00    -0.237 OA
ATOM    101  O   UNL A   1      46.479  23.500  37.957  1.00  0.00    -0.744 OA
ENDBRANCH  95  98
ENDBRANCH  68  91
ENDBRANCH  42  43
ENDBRANCH  34  37
ENDBRANCH  32  33
ENDBRANCH   1  32
TORSDOF 16
ENDMDL
