MODEL 1
REMARK VINA RESULT:     -13.7      0.000      0.000
REMARK SMILES Cc1ccc(N2C(=O)C[C@H](Sc3ccccc3C(=O)NCCCNC(=O)c3ccc(-c4c5nc(c(-c6cccc(S(=O)(=O)[O-])c6F)c6ccc([nH]6)c(-c6cccc(S(=O)(=O)[O-])c6F)c6nc(c(-c7cccc(S(=O)(=O)[O-])c7F)c7ccc4[nH]7)C=C6)C=C5)cc3)C2=O)cc1
REMARK SMILES IDX 22 1 21 2 20 3 18 4 19 5 17 7 12 8 13 9 14 10 16 11 15 12
REMARK SMILES IDX 11 13 10 14 6 15 7 16 90 17 8 18 9 19 91 20 5 21 1 22 2 23
REMARK SMILES IDX 3 24 93 25 4 26 92 27 23 28 24 29 25 30 26 32 27 33 28 34
REMARK SMILES IDX 89 35 29 36 88 37 30 38 31 39 32 40 82 41 33 42 87 43 81 44
REMARK SMILES IDX 83 45 34 46 86 47 80 48 79 49 35 51 67 52 47 53 66 54 48 55
REMARK SMILES IDX 51 56 65 57 84 58 49 59 50 60 64 62 85 63 52 64 36 65 37 66
REMARK SMILES IDX 45 67 38 68 40 69 46 70 39 71 41 72 42 73 43 74 44 75 68 76
REMARK SMILES IDX 69 77 77 78 70 79 72 80 78 81 71 82 73 83 74 84 75 85 76 86
REMARK SMILES IDX 53 87 54 88 62 89 55 90 57 91 63 92 56 93 58 94 59 95 60 96
REMARK SMILES IDX 61 97
REMARK H PARENT 20 6 24 31 83 50 51 61
REMARK Flexibility Score: inf
ROOT
ATOM      1  C   UNL A   1      33.575  30.010  26.388  1.00  0.00     0.042 C 
ENDROOT
BRANCH   1   2
ATOM      2  C   UNL A   1      32.278  30.018  25.596  1.00  0.00     0.118 C 
BRANCH   2   3
ATOM      3  N   UNL A   1      32.365  29.326  24.324  1.00  0.00    -0.352 N 
ATOM      4  C   UNL A   1      31.498  29.121  23.279  1.00  0.00     0.252 C 
ATOM      5  O   UNL A   1      32.039  28.847  22.207  1.00  0.00    -0.269 OA
ATOM      6  H   UNL A   1      33.244  28.910  24.177  1.00  0.00     0.163 HD
BRANCH   4   7
ATOM      7  C   UNL A   1      29.997  29.174  23.362  1.00  0.00     0.053 A 
ATOM      8  C   UNL A   1      29.227  27.982  23.466  1.00  0.00     0.021 A 
ATOM      9  C   UNL A   1      27.821  28.058  23.341  1.00  0.00     0.016 A 
ATOM     10  C   UNL A   1      27.168  29.276  23.177  1.00  0.00     0.001 A 
ATOM     11  C   UNL A   1      29.303  30.390  23.236  1.00  0.00     0.015 A 
ATOM     12  C   UNL A   1      27.908  30.445  23.149  1.00  0.00     0.001 A 
BRANCH   8  13
ATOM     13  S   UNL A   1      29.834  26.287  23.549  1.00  0.00    -0.111 SA
BRANCH  13  14
ATOM     14  C   UNL A   1      31.233  26.319  24.730  1.00  0.00     0.151 C 
ATOM     15  N   UNL A   1      32.634  24.541  25.310  1.00  0.00    -0.250 N 
ATOM     16  C   UNL A   1      31.708  24.629  26.318  1.00  0.00     0.235 C 
ATOM     17  C   UNL A   1      32.405  25.465  24.313  1.00  0.00     0.247 C 
ATOM     18  O   UNL A   1      31.541  23.869  27.273  1.00  0.00    -0.274 OA
ATOM     19  C   UNL A   1      30.953  25.908  26.158  1.00  0.00     0.126 C 
ATOM     20  O   UNL A   1      33.000  25.582  23.248  1.00  0.00    -0.273 OA
BRANCH  15  21
ATOM     21  C   UNL A   1      33.721  23.633  25.313  1.00  0.00     0.052 A 
ATOM     22  C   UNL A   1      37.085  20.931  25.056  1.00  0.00     0.044 C 
ATOM     23  C   UNL A   1      35.914  21.860  25.173  1.00  0.00    -0.051 A 
ATOM     24  C   UNL A   1      34.672  21.496  24.644  1.00  0.00     0.005 A 
ATOM     25  C   UNL A   1      36.054  23.119  25.765  1.00  0.00     0.005 A 
ATOM     26  C   UNL A   1      33.579  22.363  24.738  1.00  0.00     0.027 A 
ATOM     27  C   UNL A   1      34.972  24.005  25.815  1.00  0.00     0.027 A 
ENDBRANCH  15  21
ENDBRANCH  13  14
ENDBRANCH   8  13
ENDBRANCH   4   7
ENDBRANCH   2   3
ENDBRANCH   1   2
BRANCH   1  28
ATOM     28  C   UNL A   1      33.473  30.861  27.647  1.00  0.00     0.118 C 
BRANCH  28  29
ATOM     29  N   UNL A   1      34.576  31.817  27.743  1.00  0.00    -0.352 N 
ATOM     30  C   UNL A   1      35.856  31.677  28.251  1.00  0.00     0.251 C 
ATOM     31  H   UNL A   1      34.373  32.712  27.387  1.00  0.00     0.163 HD
ATOM     32  O   UNL A   1      36.527  32.685  28.451  1.00  0.00    -0.269 OA
BRANCH  30  33
ATOM     33  C   UNL A   1      36.459  30.327  28.342  1.00  0.00     0.039 A 
ATOM     34  C   UNL A   1      36.650  29.858  29.650  1.00  0.00     0.014 A 
ATOM     35  C   UNL A   1      37.240  29.851  27.299  1.00  0.00     0.014 A 
ATOM     36  C   UNL A   1      37.846  29.242  29.969  1.00  0.00     0.010 A 
ATOM     37  C   UNL A   1      38.472  29.351  27.623  1.00  0.00     0.010 A 
ATOM     38  C   UNL A   1      38.798  29.149  28.968  1.00  0.00    -0.014 A 
BRANCH  38  39
ATOM     39  C   UNL A   1      40.162  28.730  29.170  1.00  0.00     0.031 A 
ATOM     40  C   UNL A   1      40.439  27.302  28.974  1.00  0.00     0.074 A 
ATOM     41  C   UNL A   1      41.118  29.685  29.217  1.00  0.00     0.049 A 
ATOM     42  N   UNL A   1      41.581  26.758  29.173  1.00  0.00    -0.248 NA
ATOM     43  C   UNL A   1      39.412  26.355  28.542  1.00  0.00     0.031 C 
ATOM     44  C   UNL A   1      42.523  29.547  28.853  1.00  0.00     0.029 A 
ATOM     45  N   UNL A   1      41.056  31.011  29.626  1.00  0.00    -0.354 N 
ATOM     46  C   UNL A   1      41.538  25.504  28.604  1.00  0.00     0.074 A 
ATOM     47  C   UNL A   1      40.141  25.252  28.362  1.00  0.00     0.031 C 
ATOM     48  C   UNL A   1      43.201  30.609  29.322  1.00  0.00     0.029 A 
ATOM     49  C   UNL A   1      42.296  31.330  30.195  1.00  0.00     0.049 A 
ATOM     50  H   UNL A   1      40.285  31.615  29.534  1.00  0.00     0.167 HD
ATOM     51  C   UNL A   1      42.724  24.928  28.267  1.00  0.00     0.034 A 
ATOM     52  C   UNL A   1      42.486  31.468  31.548  1.00  0.00     0.034 A 
ATOM     53  C   UNL A   1      43.839  25.754  28.777  1.00  0.00     0.049 A 
ATOM     54  C   UNL A   1      43.387  30.379  32.152  1.00  0.00     0.074 A 
ATOM     55  C   UNL A   1      44.699  26.683  28.212  1.00  0.00     0.029 A 
ATOM     56  N   UNL A   1      43.937  25.943  30.149  1.00  0.00    -0.354 N 
ATOM     57  N   UNL A   1      43.968  29.423  31.473  1.00  0.00    -0.248 NA
ATOM     58  C   UNL A   1      43.635  30.245  33.587  1.00  0.00     0.031 C 
ATOM     59  C   UNL A   1      45.283  27.452  29.270  1.00  0.00     0.029 A 
ATOM     60  C   UNL A   1      44.814  26.966  30.478  1.00  0.00     0.049 A 
ATOM     61  H   UNL A   1      43.440  25.412  30.813  1.00  0.00     0.167 HD
ATOM     62  C   UNL A   1      44.497  28.484  32.326  1.00  0.00     0.074 A 
ATOM     63  C   UNL A   1      44.284  29.070  33.643  1.00  0.00     0.031 C 
ATOM     64  C   UNL A   1      45.006  27.281  31.894  1.00  0.00     0.034 A 
BRANCH  51  65
ATOM     65  C   UNL A   1      42.918  23.770  27.295  1.00  0.00     0.023 A 
ATOM     66  C   UNL A   1      43.667  24.049  26.130  1.00  0.00     0.012 A 
ATOM     67  C   UNL A   1      42.385  22.458  27.377  1.00  0.00     0.148 A 
ATOM     68  C   UNL A   1      43.826  23.124  25.091  1.00  0.00     0.002 A 
ATOM     69  C   UNL A   1      42.531  21.534  26.336  1.00  0.00     0.091 A 
ATOM     70  F   UNL A   1      41.743  22.055  28.470  1.00  0.00    -0.205 F 
ATOM     71  C   UNL A   1      43.247  21.869  25.186  1.00  0.00     0.022 A 
BRANCH  69  72
ATOM     72  S   UNL A   1      41.796  19.884  26.375  1.00  0.00     0.127 S 
ATOM     73  O   UNL A   1      40.366  20.185  26.273  1.00  0.00    -0.237 OA
ATOM     74  O   UNL A   1      42.368  19.257  25.185  1.00  0.00    -0.237 OA
ATOM     75  O   UNL A   1      42.191  19.280  27.641  1.00  0.00    -0.744 OA
ENDBRANCH  69  72
ENDBRANCH  51  65
BRANCH  52  76
ATOM     76  C   UNL A   1      41.302  32.086  32.227  1.00  0.00     0.023 A 
ATOM     77  C   UNL A   1      40.885  33.352  31.744  1.00  0.00     0.012 A 
ATOM     78  C   UNL A   1      40.381  31.298  32.938  1.00  0.00     0.148 A 
ATOM     79  C   UNL A   1      39.536  33.710  31.761  1.00  0.00     0.002 A 
ATOM     80  C   UNL A   1      39.039  31.672  32.966  1.00  0.00     0.091 A 
ATOM     81  F   UNL A   1      40.807  30.170  33.519  1.00  0.00    -0.205 F 
ATOM     82  C   UNL A   1      38.606  32.842  32.323  1.00  0.00     0.022 A 
BRANCH  80  83
ATOM     83  S   UNL A   1      37.795  30.606  33.706  1.00  0.00     0.127 S 
ATOM     84  O   UNL A   1      37.970  30.892  35.125  1.00  0.00    -0.237 OA
ATOM     85  O   UNL A   1      36.554  31.119  33.127  1.00  0.00    -0.237 OA
ATOM     86  O   UNL A   1      38.145  29.262  33.271  1.00  0.00    -0.744 OA
ENDBRANCH  80  83
ENDBRANCH  52  76
BRANCH  64  87
ATOM     87  C   UNL A   1      45.660  26.231  32.798  1.00  0.00     0.023 A 
ATOM     88  C   UNL A   1      47.039  25.962  32.741  1.00  0.00     0.012 A 
ATOM     89  C   UNL A   1      44.909  25.401  33.678  1.00  0.00     0.148 A 
ATOM     90  C   UNL A   1      47.662  25.064  33.618  1.00  0.00     0.002 A 
ATOM     91  C   UNL A   1      45.521  24.495  34.538  1.00  0.00     0.091 A 
ATOM     92  F   UNL A   1      43.575  25.421  33.654  1.00  0.00    -0.205 F 
ATOM     93  C   UNL A   1      46.907  24.351  34.537  1.00  0.00     0.022 A 
BRANCH  91  94
ATOM     94  S   UNL A   1      44.581  23.443  35.657  1.00  0.00     0.127 S 
ATOM     95  O   UNL A   1      43.806  24.433  36.403  1.00  0.00    -0.237 OA
ATOM     96  O   UNL A   1      43.801  22.634  34.722  1.00  0.00    -0.237 OA
ATOM     97  O   UNL A   1      45.556  22.700  36.439  1.00  0.00    -0.744 OA
ENDBRANCH  91  94
ENDBRANCH  64  87
ENDBRANCH  38  39
ENDBRANCH  30  33
ENDBRANCH  28  29
ENDBRANCH   1  28
TORSDOF 16
ENDMDL
MODEL 2
REMARK VINA RESULT:     -13.7      1.109      1.677
REMARK SMILES Cc1ccc(N2C(=O)C[C@H](Sc3ccccc3C(=O)NCCCNC(=O)c3ccc(-c4c5nc(c(-c6cccc(S(=O)(=O)[O-])c6F)c6ccc([nH]6)c(-c6cccc(S(=O)(=O)[O-])c6F)c6nc(c(-c7cccc(S(=O)(=O)[O-])c7F)c7ccc4[nH]7)C=C6)C=C5)cc3)C2=O)cc1
REMARK SMILES IDX 22 1 21 2 20 3 18 4 19 5 17 7 12 8 13 9 14 10 16 11 15 12
REMARK SMILES IDX 11 13 10 14 6 15 7 16 90 17 8 18 9 19 91 20 5 21 1 22 2 23
REMARK SMILES IDX 3 24 93 25 4 26 92 27 23 28 24 29 25 30 26 32 27 33 28 34
REMARK SMILES IDX 89 35 29 36 88 37 30 38 31 39 32 40 82 41 33 42 87 43 81 44
REMARK SMILES IDX 83 45 34 46 86 47 80 48 79 49 35 51 67 52 47 53 66 54 48 55
REMARK SMILES IDX 51 56 65 57 84 58 49 59 50 60 64 62 85 63 52 64 36 65 37 66
REMARK SMILES IDX 45 67 38 68 40 69 46 70 39 71 41 72 42 73 43 74 44 75 68 76
REMARK SMILES IDX 69 77 77 78 70 79 72 80 78 81 71 82 73 83 74 84 75 85 76 86
REMARK SMILES IDX 53 87 54 88 62 89 55 90 57 91 63 92 56 93 58 94 59 95 60 96
REMARK SMILES IDX 61 97
REMARK H PARENT 20 6 24 31 83 50 51 61
REMARK Flexibility Score: inf
ROOT
ATOM      1  C   UNL A   1      33.558  30.190  26.491  1.00  0.00     0.042 C 
ENDROOT
BRANCH   1   2
ATOM      2  C   UNL A   1      33.483  28.703  26.799  1.00  0.00     0.118 C 
BRANCH   2   3
ATOM      3  N   UNL A   1      33.802  27.853  25.667  1.00  0.00    -0.352 N 
ATOM      4  C   UNL A   1      33.253  27.660  24.424  1.00  0.00     0.252 C 
ATOM      5  O   UNL A   1      34.019  27.173  23.592  1.00  0.00    -0.269 OA
ATOM      6  H   UNL A   1      34.591  27.288  25.828  1.00  0.00     0.163 HD
BRANCH   4   7
ATOM      7  C   UNL A   1      31.830  27.961  24.038  1.00  0.00     0.053 A 
ATOM      8  C   UNL A   1      30.770  27.088  24.411  1.00  0.00     0.021 A 
ATOM      9  C   UNL A   1      29.483  27.294  23.865  1.00  0.00     0.016 A 
ATOM     10  C   UNL A   1      29.214  28.365  23.016  1.00  0.00     0.001 A 
ATOM     11  C   UNL A   1      31.514  29.053  23.211  1.00  0.00     0.015 A 
ATOM     12  C   UNL A   1      30.225  29.258  22.709  1.00  0.00     0.001 A 
BRANCH   8  13
ATOM     13  S   UNL A   1      30.886  25.572  25.380  1.00  0.00    -0.111 SA
BRANCH  13  14
ATOM     14  C   UNL A   1      30.859  24.203  24.164  1.00  0.00     0.151 C 
ATOM     15  N   UNL A   1      32.373  22.431  23.998  1.00  0.00    -0.250 N 
ATOM     16  C   UNL A   1      32.761  23.341  23.048  1.00  0.00     0.235 C 
ATOM     17  C   UNL A   1      31.292  22.873  24.731  1.00  0.00     0.247 C 
ATOM     18  O   UNL A   1      33.764  23.322  22.334  1.00  0.00    -0.274 OA
ATOM     19  C   UNL A   1      31.684  24.368  22.908  1.00  0.00     0.126 C 
ATOM     20  O   UNL A   1      30.771  22.333  25.699  1.00  0.00    -0.273 OA
BRANCH  15  21
ATOM     21  C   UNL A   1      32.987  21.168  24.178  1.00  0.00     0.052 A 
ATOM     22  C   UNL A   1      34.942  17.322  24.460  1.00  0.00     0.044 C 
ATOM     23  C   UNL A   1      34.256  18.654  24.391  1.00  0.00    -0.051 A 
ATOM     24  C   UNL A   1      32.989  18.762  23.812  1.00  0.00     0.005 A 
ATOM     25  C   UNL A   1      34.888  19.812  24.855  1.00  0.00     0.005 A 
ATOM     26  C   UNL A   1      32.348  20.003  23.731  1.00  0.00     0.027 A 
ATOM     27  C   UNL A   1      34.268  21.059  24.731  1.00  0.00     0.027 A 
ENDBRANCH  15  21
ENDBRANCH  13  14
ENDBRANCH   8  13
ENDBRANCH   4   7
ENDBRANCH   2   3
ENDBRANCH   1   2
BRANCH   1  28
ATOM     28  C   UNL A   1      33.576  31.029  27.760  1.00  0.00     0.118 C 
BRANCH  28  29
ATOM     29  N   UNL A   1      34.705  31.960  27.777  1.00  0.00    -0.352 N 
ATOM     30  C   UNL A   1      36.003  31.803  28.231  1.00  0.00     0.251 C 
ATOM     31  H   UNL A   1      34.508  32.848  27.402  1.00  0.00     0.163 HD
ATOM     32  O   UNL A   1      36.707  32.799  28.369  1.00  0.00    -0.269 OA
BRANCH  30  33
ATOM     33  C   UNL A   1      36.577  30.441  28.338  1.00  0.00     0.039 A 
ATOM     34  C   UNL A   1      36.752  29.982  29.651  1.00  0.00     0.014 A 
ATOM     35  C   UNL A   1      37.351  29.939  27.303  1.00  0.00     0.014 A 
ATOM     36  C   UNL A   1      37.934  29.343  29.982  1.00  0.00     0.010 A 
ATOM     37  C   UNL A   1      38.572  29.416  27.637  1.00  0.00     0.010 A 
ATOM     38  C   UNL A   1      38.887  29.220  28.986  1.00  0.00    -0.014 A 
BRANCH  38  39
ATOM     39  C   UNL A   1      40.241  28.775  29.198  1.00  0.00     0.031 A 
ATOM     40  C   UNL A   1      40.493  27.342  28.997  1.00  0.00     0.074 A 
ATOM     41  C   UNL A   1      41.215  29.711  29.257  1.00  0.00     0.049 A 
ATOM     42  N   UNL A   1      41.623  26.776  29.204  1.00  0.00    -0.248 NA
ATOM     43  C   UNL A   1      39.453  26.417  28.552  1.00  0.00     0.031 C 
ATOM     44  C   UNL A   1      42.620  29.548  28.905  1.00  0.00     0.029 A 
ATOM     45  N   UNL A   1      41.175  31.036  29.673  1.00  0.00    -0.354 N 
ATOM     46  C   UNL A   1      41.561  25.526  28.629  1.00  0.00     0.074 A 
ATOM     47  C   UNL A   1      40.162  25.301  28.373  1.00  0.00     0.031 C 
ATOM     48  C   UNL A   1      43.314  30.595  29.386  1.00  0.00     0.029 A 
ATOM     49  C   UNL A   1      42.416  31.329  30.254  1.00  0.00     0.049 A 
ATOM     50  H   UNL A   1      40.416  31.655  29.577  1.00  0.00     0.167 HD
ATOM     51  C   UNL A   1      42.739  24.929  28.299  1.00  0.00     0.034 A 
ATOM     52  C   UNL A   1      42.596  31.457  31.610  1.00  0.00     0.034 A 
ATOM     53  C   UNL A   1      43.865  25.731  28.824  1.00  0.00     0.049 A 
ATOM     54  C   UNL A   1      43.470  30.348  32.216  1.00  0.00     0.074 A 
ATOM     55  C   UNL A   1      44.747  26.646  28.270  1.00  0.00     0.029 A 
ATOM     56  N   UNL A   1      43.954  25.912  30.197  1.00  0.00    -0.354 N 
ATOM     57  N   UNL A   1      44.040  29.385  31.538  1.00  0.00    -0.248 NA
ATOM     58  C   UNL A   1      43.703  30.203  33.652  1.00  0.00     0.031 C 
ATOM     59  C   UNL A   1      45.337  27.399  29.337  1.00  0.00     0.029 A 
ATOM     60  C   UNL A   1      44.848  26.916  30.538  1.00  0.00     0.049 A 
ATOM     61  H   UNL A   1      43.441  25.387  30.854  1.00  0.00     0.167 HD
ATOM     62  C   UNL A   1      44.542  28.432  32.391  1.00  0.00     0.074 A 
ATOM     63  C   UNL A   1      44.329  29.015  33.708  1.00  0.00     0.031 C 
ATOM     64  C   UNL A   1      45.032  27.221  31.958  1.00  0.00     0.034 A 
BRANCH  51  65
ATOM     65  C   UNL A   1      42.919  23.772  27.324  1.00  0.00     0.023 A 
ATOM     66  C   UNL A   1      43.708  24.034  26.181  1.00  0.00     0.012 A 
ATOM     67  C   UNL A   1      42.341  22.478  27.381  1.00  0.00     0.148 A 
ATOM     68  C   UNL A   1      43.864  23.111  25.139  1.00  0.00     0.002 A 
ATOM     69  C   UNL A   1      42.484  21.557  26.337  1.00  0.00     0.091 A 
ATOM     70  F   UNL A   1      41.657  22.089  28.454  1.00  0.00    -0.205 F 
ATOM     71  C   UNL A   1      43.240  21.876  25.209  1.00  0.00     0.022 A 
BRANCH  69  72
ATOM     72  S   UNL A   1      41.692  19.933  26.344  1.00  0.00     0.127 S 
ATOM     73  O   UNL A   1      42.121  19.390  27.634  1.00  0.00    -0.237 OA
ATOM     74  O   UNL A   1      40.273  20.275  26.273  1.00  0.00    -0.237 OA
ATOM     75  O   UNL A   1      42.211  19.210  25.188  1.00  0.00    -0.744 OA
ENDBRANCH  69  72
ENDBRANCH  51  65
BRANCH  52  76
ATOM     76  C   UNL A   1      41.417  32.094  32.281  1.00  0.00     0.023 A 
ATOM     77  C   UNL A   1      41.038  33.377  31.810  1.00  0.00     0.012 A 
ATOM     78  C   UNL A   1      40.468  31.319  32.968  1.00  0.00     0.148 A 
ATOM     79  C   UNL A   1      39.698  33.768  31.814  1.00  0.00     0.002 A 
ATOM     80  C   UNL A   1      39.135  31.725  32.983  1.00  0.00     0.091 A 
ATOM     81  F   UNL A   1      40.858  30.172  33.538  1.00  0.00    -0.205 F 
ATOM     82  C   UNL A   1      38.740  32.915  32.351  1.00  0.00     0.022 A 
BRANCH  80  83
ATOM     83  S   UNL A   1      37.855  30.680  33.690  1.00  0.00     0.127 S 
ATOM     84  O   UNL A   1      37.924  31.046  35.100  1.00  0.00    -0.237 OA
ATOM     85  O   UNL A   1      36.653  31.139  32.997  1.00  0.00    -0.237 OA
ATOM     86  O   UNL A   1      38.254  29.321  33.356  1.00  0.00    -0.744 OA
ENDBRANCH  80  83
ENDBRANCH  52  76
BRANCH  64  87
ATOM     87  C   UNL A   1      45.659  26.155  32.863  1.00  0.00     0.023 A 
ATOM     88  C   UNL A   1      47.028  25.841  32.797  1.00  0.00     0.012 A 
ATOM     89  C   UNL A   1      44.887  25.354  33.752  1.00  0.00     0.148 A 
ATOM     90  C   UNL A   1      47.627  24.928  33.675  1.00  0.00     0.002 A 
ATOM     91  C   UNL A   1      45.476  24.433  34.612  1.00  0.00     0.091 A 
ATOM     92  F   UNL A   1      43.554  25.416  33.736  1.00  0.00    -0.205 F 
ATOM     93  C   UNL A   1      46.856  24.244  34.602  1.00  0.00     0.022 A 
BRANCH  91  94
ATOM     94  S   UNL A   1      44.510  23.417  35.742  1.00  0.00     0.127 S 
ATOM     95  O   UNL A   1      44.073  24.409  36.723  1.00  0.00    -0.237 OA
ATOM     96  O   UNL A   1      43.451  22.917  34.865  1.00  0.00    -0.237 OA
ATOM     97  O   UNL A   1      45.412  22.395  36.251  1.00  0.00    -0.744 OA
ENDBRANCH  91  94
ENDBRANCH  64  87
ENDBRANCH  38  39
ENDBRANCH  30  33
ENDBRANCH  28  29
ENDBRANCH   1  28
TORSDOF 16
ENDMDL
MODEL 3
REMARK VINA RESULT:     -13.5      3.693      9.506
REMARK SMILES Cc1ccc(N2C(=O)C[C@H](Sc3ccccc3C(=O)NCCCNC(=O)c3ccc(-c4c5nc(c(-c6cccc(S(=O)(=O)[O-])c6F)c6ccc([nH]6)c(-c6cccc(S(=O)(=O)[O-])c6F)c6nc(c(-c7cccc(S(=O)(=O)[O-])c7F)c7ccc4[nH]7)C=C6)C=C5)cc3)C2=O)cc1
REMARK SMILES IDX 22 1 21 2 20 3 18 4 19 5 17 7 12 8 13 9 14 10 16 11 15 12
REMARK SMILES IDX 11 13 10 14 6 15 7 16 90 17 8 18 9 19 91 20 5 21 1 22 2 23
REMARK SMILES IDX 3 24 93 25 4 26 92 27 23 28 24 29 25 30 26 32 27 33 28 34
REMARK SMILES IDX 89 35 29 36 88 37 30 38 31 39 32 40 82 41 33 42 87 43 81 44
REMARK SMILES IDX 83 45 34 46 86 47 80 48 79 49 35 51 67 52 47 53 66 54 48 55
REMARK SMILES IDX 51 56 65 57 84 58 49 59 50 60 64 62 85 63 52 64 36 65 37 66
REMARK SMILES IDX 45 67 38 68 40 69 46 70 39 71 41 72 42 73 43 74 44 75 68 76
REMARK SMILES IDX 69 77 77 78 70 79 72 80 78 81 71 82 73 83 74 84 75 85 76 86
REMARK SMILES IDX 53 87 54 88 62 89 55 90 57 91 63 92 56 93 58 94 59 95 60 96
REMARK SMILES IDX 61 97
REMARK H PARENT 20 6 24 31 83 50 51 61
REMARK Flexibility Score: inf
ROOT
ATOM      1  C   UNL A   1      37.930  20.813  25.348  1.00  0.00     0.042 C 
ENDROOT
BRANCH   1   2
ATOM      2  C   UNL A   1      36.463  20.790  24.952  1.00  0.00     0.118 C 
BRANCH   2   3
ATOM      3  N   UNL A   1      35.554  21.034  26.055  1.00  0.00    -0.352 N 
ATOM      4  C   UNL A   1      34.201  21.246  26.158  1.00  0.00     0.252 C 
ATOM      5  O   UNL A   1      33.725  21.006  27.268  1.00  0.00    -0.269 OA
ATOM      6  H   UNL A   1      36.010  21.049  26.927  1.00  0.00     0.163 HD
BRANCH   4   7
ATOM      7  C   UNL A   1      33.309  21.761  25.062  1.00  0.00     0.053 A 
ATOM      8  C   UNL A   1      32.470  22.891  25.271  1.00  0.00     0.021 A 
ATOM      9  C   UNL A   1      31.505  23.223  24.293  1.00  0.00     0.016 A 
ATOM     10  C   UNL A   1      31.394  22.505  23.105  1.00  0.00     0.001 A 
ATOM     11  C   UNL A   1      33.196  21.084  23.835  1.00  0.00     0.015 A 
ATOM     12  C   UNL A   1      32.257  21.451  22.866  1.00  0.00     0.001 A 
BRANCH   8  13
ATOM     13  S   UNL A   1      32.331  23.893  26.763  1.00  0.00    -0.111 SA
BRANCH  13  14
ATOM     14  C   UNL A   1      32.744  25.603  26.252  1.00  0.00     0.151 C 
ATOM     15  N   UNL A   1      31.622  26.918  24.681  1.00  0.00    -0.250 N 
ATOM     16  C   UNL A   1      32.708  26.399  24.023  1.00  0.00     0.235 C 
ATOM     17  C   UNL A   1      31.539  26.468  25.981  1.00  0.00     0.247 C 
ATOM     18  O   UNL A   1      32.991  26.481  22.827  1.00  0.00    -0.274 OA
ATOM     19  C   UNL A   1      33.618  25.775  25.031  1.00  0.00     0.126 C 
ATOM     20  O   UNL A   1      30.645  26.680  26.792  1.00  0.00    -0.273 OA
BRANCH  15  21
ATOM     21  C   UNL A   1      30.715  27.839  24.102  1.00  0.00     0.052 A 
ATOM     22  C   UNL A   1      27.787  30.622  22.563  1.00  0.00     0.044 C 
ATOM     23  C   UNL A   1      28.819  29.660  23.073  1.00  0.00    -0.051 A 
ATOM     24  C   UNL A   1      28.595  28.283  22.994  1.00  0.00     0.005 A 
ATOM     25  C   UNL A   1      29.993  30.121  23.676  1.00  0.00     0.005 A 
ATOM     26  C   UNL A   1      29.547  27.380  23.480  1.00  0.00     0.027 A 
ATOM     27  C   UNL A   1      30.922  29.219  24.205  1.00  0.00     0.027 A 
ENDBRANCH  15  21
ENDBRANCH  13  14
ENDBRANCH   8  13
ENDBRANCH   4   7
ENDBRANCH   2   3
ENDBRANCH   1   2
BRANCH   1  28
ATOM     28  C   UNL A   1      38.404  22.222  25.678  1.00  0.00     0.118 C 
BRANCH  28  29
ATOM     29  N   UNL A   1      39.497  22.211  26.650  1.00  0.00    -0.352 N 
ATOM     30  C   UNL A   1      40.270  23.241  27.157  1.00  0.00     0.251 C 
ATOM     31  H   UNL A   1      39.721  21.320  27.003  1.00  0.00     0.163 HD
ATOM     32  O   UNL A   1      41.293  22.964  27.777  1.00  0.00    -0.269 OA
BRANCH  30  33
ATOM     33  C   UNL A   1      39.748  24.627  27.126  1.00  0.00     0.039 A 
ATOM     34  C   UNL A   1      40.550  25.539  26.426  1.00  0.00     0.014 A 
ATOM     35  C   UNL A   1      38.890  25.061  28.126  1.00  0.00     0.014 A 
ATOM     36  C   UNL A   1      40.786  26.783  26.983  1.00  0.00     0.010 A 
ATOM     37  C   UNL A   1      39.206  26.239  28.748  1.00  0.00     0.010 A 
ATOM     38  C   UNL A   1      40.226  27.039  28.222  1.00  0.00    -0.014 A 
BRANCH  38  39
ATOM     39  C   UNL A   1      40.530  28.187  29.038  1.00  0.00     0.031 A 
ATOM     40  C   UNL A   1      39.635  29.341  28.895  1.00  0.00     0.074 A 
ATOM     41  C   UNL A   1      41.392  28.023  30.067  1.00  0.00     0.049 A 
ATOM     42  N   UNL A   1      39.802  30.458  29.499  1.00  0.00    -0.248 NA
ATOM     43  C   UNL A   1      38.463  29.323  28.021  1.00  0.00     0.031 C 
ATOM     44  C   UNL A   1      41.438  28.783  31.311  1.00  0.00     0.029 A 
ATOM     45  N   UNL A   1      42.453  27.142  30.230  1.00  0.00    -0.354 N 
ATOM     46  C   UNL A   1      38.630  31.171  29.364  1.00  0.00     0.074 A 
ATOM     47  C   UNL A   1      37.898  30.492  28.326  1.00  0.00     0.031 C 
ATOM     48  C   UNL A   1      42.605  28.533  31.931  1.00  0.00     0.029 A 
ATOM     49  C   UNL A   1      43.428  27.798  30.992  1.00  0.00     0.049 A 
ATOM     50  H   UNL A   1      42.510  26.225  29.876  1.00  0.00     0.167 HD
ATOM     51  C   UNL A   1      38.380  32.145  30.281  1.00  0.00     0.034 A 
ATOM     52  C   UNL A   1      44.597  28.283  30.456  1.00  0.00     0.034 A 
ATOM     53  C   UNL A   1      39.568  32.332  31.143  1.00  0.00     0.049 A 
ATOM     54  C   UNL A   1      44.687  29.817  30.478  1.00  0.00     0.074 A 
ATOM     55  C   UNL A   1      39.919  31.916  32.417  1.00  0.00     0.029 A 
ATOM     56  N   UNL A   1      40.753  32.733  30.542  1.00  0.00    -0.354 N 
ATOM     57  N   UNL A   1      43.784  30.616  30.985  1.00  0.00    -0.248 NA
ATOM     58  C   UNL A   1      45.778  30.566  29.855  1.00  0.00     0.031 C 
ATOM     59  C   UNL A   1      41.340  32.044  32.552  1.00  0.00     0.029 A 
ATOM     60  C   UNL A   1      41.847  32.575  31.380  1.00  0.00     0.049 A 
ATOM     61  H   UNL A   1      40.811  33.090  29.625  1.00  0.00     0.167 HD
ATOM     62  C   UNL A   1      44.045  31.918  30.632  1.00  0.00     0.074 A 
ATOM     63  C   UNL A   1      45.328  31.829  29.948  1.00  0.00     0.031 C 
ATOM     64  C   UNL A   1      43.166  32.950  30.868  1.00  0.00     0.034 A 
BRANCH  51  65
ATOM     65  C   UNL A   1      37.025  32.775  30.578  1.00  0.00     0.023 A 
ATOM     66  C   UNL A   1      36.545  32.634  31.900  1.00  0.00     0.012 A 
ATOM     67  C   UNL A   1      36.146  33.432  29.679  1.00  0.00     0.148 A 
ATOM     68  C   UNL A   1      35.267  33.052  32.292  1.00  0.00     0.002 A 
ATOM     69  C   UNL A   1      34.864  33.841  30.062  1.00  0.00     0.091 A 
ATOM     70  F   UNL A   1      36.531  33.704  28.435  1.00  0.00    -0.205 F 
ATOM     71  C   UNL A   1      34.418  33.643  31.370  1.00  0.00     0.022 A 
BRANCH  69  72
ATOM     72  S   UNL A   1      33.693  34.606  28.919  1.00  0.00     0.127 S 
ATOM     73  O   UNL A   1      33.399  33.504  28.001  1.00  0.00    -0.237 OA
ATOM     74  O   UNL A   1      32.585  34.970  29.801  1.00  0.00    -0.237 OA
ATOM     75  O   UNL A   1      34.385  35.731  28.302  1.00  0.00    -0.744 OA
ENDBRANCH  69  72
ENDBRANCH  51  65
BRANCH  52  76
ATOM     76  C   UNL A   1      45.132  27.399  29.371  1.00  0.00     0.023 A 
ATOM     77  C   UNL A   1      45.404  26.054  29.727  1.00  0.00     0.012 A 
ATOM     78  C   UNL A   1      44.930  27.712  28.016  1.00  0.00     0.148 A 
ATOM     79  C   UNL A   1      45.241  25.026  28.796  1.00  0.00     0.002 A 
ATOM     80  C   UNL A   1      44.786  26.681  27.090  1.00  0.00     0.091 A 
ATOM     81  F   UNL A   1      44.815  28.996  27.658  1.00  0.00    -0.205 F 
ATOM     82  C   UNL A   1      44.877  25.338  27.491  1.00  0.00     0.022 A 
BRANCH  80  83
ATOM     83  S   UNL A   1      44.347  27.023  25.381  1.00  0.00     0.127 S 
ATOM     84  O   UNL A   1      43.730  25.763  24.980  1.00  0.00    -0.237 OA
ATOM     85  O   UNL A   1      43.419  28.144  25.511  1.00  0.00    -0.237 OA
ATOM     86  O   UNL A   1      45.605  27.361  24.731  1.00  0.00    -0.744 OA
ENDBRANCH  80  83
ENDBRANCH  52  76
BRANCH  64  87
ATOM     87  C   UNL A   1      43.439  34.424  30.550  1.00  0.00     0.023 A 
ATOM     88  C   UNL A   1      43.642  35.375  31.566  1.00  0.00     0.012 A 
ATOM     89  C   UNL A   1      43.409  34.940  29.223  1.00  0.00     0.148 A 
ATOM     90  C   UNL A   1      43.973  36.707  31.286  1.00  0.00     0.002 A 
ATOM     91  C   UNL A   1      43.719  36.266  28.942  1.00  0.00     0.091 A 
ATOM     92  F   UNL A   1      43.012  34.172  28.206  1.00  0.00    -0.205 F 
ATOM     93  C   UNL A   1      44.040  37.148  29.973  1.00  0.00     0.022 A 
BRANCH  91  94
ATOM     94  S   UNL A   1      43.687  36.928  27.268  1.00  0.00     0.127 S 
ATOM     95  O   UNL A   1      44.739  36.142  26.625  1.00  0.00    -0.237 OA
ATOM     96  O   UNL A   1      42.329  36.597  26.840  1.00  0.00    -0.237 OA
ATOM     97  O   UNL A   1      43.960  38.353  27.383  1.00  0.00    -0.744 OA
ENDBRANCH  91  94
ENDBRANCH  64  87
ENDBRANCH  38  39
ENDBRANCH  30  33
ENDBRANCH  28  29
ENDBRANCH   1  28
TORSDOF 16
ENDMDL
