MODEL 1
REMARK VINA RESULT:     -13.5      0.000      0.000
REMARK SMILES O=C(NCCCNC(=O)[C@@H](c1ccccc1)N1C(=O)/C(=C\c2ccc(-c3ccc(F)cc3)o2)SC1=S)c1ccc(-c2c3nc(c(-c4cccc(S(=O)(=O)[O-])c4F)c4ccc([nH]4)c(-c4cccc(S(=O)(=O)[O-])c4F)c4nc(c(-c5cccc(S(=O)(=O)[O-])c5F)c5ccc2[nH]5)C=C4)C=C3)cc1
REMARK SMILES IDX 5 1 4 2 3 3 1 4 2 5 37 7 38 8 99 9 39 10 98 11 40 12 41 13
REMARK SMILES IDX 42 14 92 15 43 16 97 17 91 18 93 19 44 20 96 21 90 22 89 23
REMARK SMILES IDX 45 25 77 26 57 27 76 28 58 29 61 30 75 31 94 32 59 33 60 34
REMARK SMILES IDX 74 36 95 37 62 38 46 39 47 40 55 41 48 42 50 43 56 44 49 45
REMARK SMILES IDX 51 46 52 47 53 48 54 49 78 50 79 51 87 52 80 53 82 54 88 55
REMARK SMILES IDX 81 56 83 57 84 58 85 59 86 60 63 61 64 62 72 63 65 64 67 65
REMARK SMILES IDX 73 66 66 67 68 68 69 69 70 70 71 71 6 72 7 73 8 74 9 76
REMARK SMILES IDX 10 77 11 78 12 79 16 80 13 81 15 82 14 83 17 84 18 85 35 86
REMARK SMILES IDX 19 87 20 88 34 89 36 90 21 91 22 92 23 93 33 94 24 95 25 96
REMARK SMILES IDX 26 97 27 98 32 99 28 100 31 101 29 102 30 103
REMARK H PARENT 3 6 93 24 61 35 7 75
REMARK Flexibility Score: inf
ROOT
ATOM      1  C   UNL A   1      33.131  27.624  25.835  1.00  0.00     0.042 C 
ENDROOT
BRANCH   1   2
ATOM      2  C   UNL A   1      33.791  28.862  25.272  1.00  0.00     0.118 C 
BRANCH   2   3
ATOM      3  N   UNL A   1      33.217  30.100  25.785  1.00  0.00    -0.352 N 
ATOM      4  O   UNL A   1      32.811  31.821  27.164  1.00  0.00    -0.269 OA
ATOM      5  C   UNL A   1      33.579  30.922  26.832  1.00  0.00     0.251 C 
ATOM      6  H   UNL A   1      32.422  30.406  25.292  1.00  0.00     0.163 HD
BRANCH   5   7
ATOM      7  C   UNL A   1      34.841  30.710  27.583  1.00  0.00     0.039 A 
ATOM      8  C   UNL A   1      35.128  29.485  28.169  1.00  0.00     0.014 A 
ATOM      9  C   UNL A   1      35.783  31.742  27.679  1.00  0.00     0.014 A 
ATOM     10  C   UNL A   1      36.193  29.363  29.047  1.00  0.00     0.010 A 
ATOM     11  C   UNL A   1      36.958  31.559  28.425  1.00  0.00     0.010 A 
ATOM     12  C   UNL A   1      37.154  30.381  29.156  1.00  0.00    -0.014 A 
BRANCH  12  13
ATOM     13  C   UNL A   1      38.374  30.098  29.964  1.00  0.00     0.031 A 
ATOM     14  C   UNL A   1      38.540  30.609  31.368  1.00  0.00     0.074 A 
ATOM     15  C   UNL A   1      39.312  29.287  29.427  1.00  0.00     0.049 A 
ATOM     16  N   UNL A   1      39.496  30.345  32.224  1.00  0.00    -0.248 NA
ATOM     17  C   UNL A   1      37.524  31.542  31.880  1.00  0.00     0.031 C 
ATOM     18  C   UNL A   1      39.296  28.782  28.050  1.00  0.00     0.029 A 
ATOM     19  N   UNL A   1      40.433  28.714  29.970  1.00  0.00    -0.354 N 
ATOM     20  C   UNL A   1      39.222  31.105  33.355  1.00  0.00     0.074 A 
ATOM     21  C   UNL A   1      38.012  31.851  33.075  1.00  0.00     0.031 C 
ATOM     22  C   UNL A   1      40.300  27.913  27.882  1.00  0.00     0.029 A 
ATOM     23  C   UNL A   1      41.085  27.861  29.108  1.00  0.00     0.049 A 
ATOM     24  H   UNL A   1      40.743  28.894  30.886  1.00  0.00     0.167 HD
ATOM     25  C   UNL A   1      39.904  31.162  34.525  1.00  0.00     0.034 A 
ATOM     26  C   UNL A   1      42.197  27.121  29.273  1.00  0.00     0.034 A 
ATOM     27  C   UNL A   1      41.084  30.387  34.811  1.00  0.00     0.049 A 
ATOM     28  C   UNL A   1      42.892  27.156  30.600  1.00  0.00     0.074 A 
ATOM     29  C   UNL A   1      41.830  30.354  35.978  1.00  0.00     0.029 A 
ATOM     30  N   UNL A   1      41.690  29.505  33.929  1.00  0.00    -0.354 N 
ATOM     31  N   UNL A   1      42.553  27.805  31.687  1.00  0.00    -0.248 NA
ATOM     32  C   UNL A   1      44.106  26.342  30.734  1.00  0.00     0.031 C 
ATOM     33  C   UNL A   1      42.889  29.457  35.797  1.00  0.00     0.029 A 
ATOM     34  C   UNL A   1      42.795  28.920  34.524  1.00  0.00     0.049 A 
ATOM     35  H   UNL A   1      41.379  29.321  33.013  1.00  0.00     0.167 HD
ATOM     36  C   UNL A   1      43.513  27.482  32.635  1.00  0.00     0.074 A 
ATOM     37  C   UNL A   1      44.414  26.534  32.009  1.00  0.00     0.031 C 
ATOM     38  C   UNL A   1      43.658  27.952  33.898  1.00  0.00     0.034 A 
BRANCH  25  39
ATOM     39  C   UNL A   1      39.369  32.059  35.612  1.00  0.00     0.023 A 
ATOM     40  C   UNL A   1      38.452  31.539  36.547  1.00  0.00     0.012 A 
ATOM     41  C   UNL A   1      39.832  33.381  35.762  1.00  0.00     0.148 A 
ATOM     42  C   UNL A   1      37.988  32.324  37.602  1.00  0.00     0.002 A 
ATOM     43  C   UNL A   1      39.394  34.147  36.838  1.00  0.00     0.091 A 
ATOM     44  F   UNL A   1      40.689  33.866  34.852  1.00  0.00    -0.205 F 
ATOM     45  C   UNL A   1      38.467  33.623  37.754  1.00  0.00     0.022 A 
BRANCH  43  46
ATOM     46  S   UNL A   1      40.003  35.806  37.163  1.00  0.00     0.127 S 
ATOM     47  O   UNL A   1      39.288  36.146  38.393  1.00  0.00    -0.237 OA
ATOM     48  O   UNL A   1      41.438  35.580  37.336  1.00  0.00    -0.237 OA
ATOM     49  O   UNL A   1      39.649  36.600  35.996  1.00  0.00    -0.744 OA
ENDBRANCH  43  46
ENDBRANCH  25  39
BRANCH  26  50
ATOM     50  C   UNL A   1      42.695  26.274  28.151  1.00  0.00     0.023 A 
ATOM     51  C   UNL A   1      43.730  26.745  27.322  1.00  0.00     0.012 A 
ATOM     52  C   UNL A   1      42.187  24.977  27.943  1.00  0.00     0.148 A 
ATOM     53  C   UNL A   1      44.233  25.947  26.292  1.00  0.00     0.002 A 
ATOM     54  C   UNL A   1      42.740  24.163  26.963  1.00  0.00     0.091 A 
ATOM     55  F   UNL A   1      41.184  24.551  28.724  1.00  0.00    -0.205 F 
ATOM     56  C   UNL A   1      43.751  24.651  26.123  1.00  0.00     0.022 A 
BRANCH  54  57
ATOM     57  S   UNL A   1      42.285  22.431  26.819  1.00  0.00     0.127 S 
ATOM     58  O   UNL A   1      43.142  21.985  25.724  1.00  0.00    -0.237 OA
ATOM     59  O   UNL A   1      42.643  21.904  28.136  1.00  0.00    -0.237 OA
ATOM     60  O   UNL A   1      40.852  22.439  26.555  1.00  0.00    -0.744 OA
ENDBRANCH  54  57
ENDBRANCH  26  50
BRANCH  38  61
ATOM     61  C   UNL A   1      44.840  27.445  34.679  1.00  0.00     0.023 A 
ATOM     62  C   UNL A   1      46.059  28.148  34.622  1.00  0.00     0.012 A 
ATOM     63  C   UNL A   1      44.738  26.298  35.487  1.00  0.00     0.148 A 
ATOM     64  C   UNL A   1      47.174  27.693  35.325  1.00  0.00     0.002 A 
ATOM     65  C   UNL A   1      45.840  25.875  36.221  1.00  0.00     0.091 A 
ATOM     66  F   UNL A   1      43.576  25.629  35.510  1.00  0.00    -0.205 F 
ATOM     67  C   UNL A   1      47.061  26.564  36.132  1.00  0.00     0.022 A 
BRANCH  65  68
ATOM     68  S   UNL A   1      45.756  24.479  37.347  1.00  0.00     0.127 S 
ATOM     69  O   UNL A   1      47.121  24.431  37.867  1.00  0.00    -0.237 OA
ATOM     70  O   UNL A   1      44.749  24.915  38.316  1.00  0.00    -0.237 OA
ATOM     71  O   UNL A   1      45.351  23.341  36.534  1.00  0.00    -0.744 OA
ENDBRANCH  65  68
ENDBRANCH  38  61
ENDBRANCH  12  13
ENDBRANCH   5   7
ENDBRANCH   2   3
ENDBRANCH   1   2
BRANCH   1  72
ATOM     72  C   UNL A   1      31.687  27.837  26.231  1.00  0.00     0.117 C 
BRANCH  72  73
ATOM     73  N   UNL A   1      30.972  26.641  26.625  1.00  0.00    -0.354 N 
ATOM     74  C   UNL A   1      30.219  25.805  25.851  1.00  0.00     0.247 C 
ATOM     75  H   UNL A   1      31.037  26.399  27.576  1.00  0.00     0.163 HD
ATOM     76  O   UNL A   1      29.669  24.865  26.435  1.00  0.00    -0.272 OA
BRANCH  74  77
ATOM     77  C   UNL A   1      30.030  26.003  24.310  1.00  0.00     0.211 C 
BRANCH  77  78
ATOM     78  C   UNL A   1      29.269  27.297  23.964  1.00  0.00    -0.016 A 
ATOM     79  C   UNL A   1      27.920  27.324  23.575  1.00  0.00     0.006 A 
ATOM     80  C   UNL A   1      29.936  28.539  24.046  1.00  0.00     0.006 A 
ATOM     81  C   UNL A   1      27.327  28.499  23.103  1.00  0.00     0.000 A 
ATOM     82  C   UNL A   1      29.333  29.721  23.608  1.00  0.00     0.000 A 
ATOM     83  C   UNL A   1      28.039  29.693  23.101  1.00  0.00     0.000 A 
ENDBRANCH  77  78
BRANCH  77  84
ATOM     84  N   UNL A   1      31.290  25.660  23.572  1.00  0.00    -0.276 N 
ATOM     85  C   UNL A   1      31.961  24.466  23.747  1.00  0.00     0.267 C 
ATOM     86  C   UNL A   1      31.826  26.476  22.589  1.00  0.00     0.149 C 
ATOM     87  O   UNL A   1      31.595  23.503  24.394  1.00  0.00    -0.268 OA
ATOM     88  C   UNL A   1      33.263  24.452  23.033  1.00  0.00     0.084 C 
ATOM     89  S   UNL A   1      33.317  25.774  21.945  1.00  0.00    -0.054 SA
ATOM     90  S   UNL A   1      31.266  27.935  22.004  1.00  0.00    -0.052 S 
ATOM     91  C   UNL A   1      34.278  23.604  23.258  1.00  0.00     0.068 C 
BRANCH  91  92
ATOM     92  C   UNL A   1      34.227  22.597  24.265  1.00  0.00     0.128 A 
ATOM     93  C   UNL A   1      34.449  22.694  25.634  1.00  0.00     0.051 A 
ATOM     94  O   UNL A   1      33.961  21.274  23.982  1.00  0.00    -0.457 OA
ATOM     95  C   UNL A   1      34.382  21.393  26.180  1.00  0.00     0.051 A 
ATOM     96  C   UNL A   1      34.066  20.553  25.136  1.00  0.00     0.134 A 
BRANCH  96  97
ATOM     97  C   UNL A   1      33.805  19.124  25.045  1.00  0.00     0.017 A 
ATOM     98  C   UNL A   1      34.630  18.275  24.292  1.00  0.00     0.015 A 
ATOM     99  C   UNL A   1      32.709  18.570  25.727  1.00  0.00     0.015 A 
ATOM    100  C   UNL A   1      34.358  16.907  24.213  1.00  0.00     0.040 A 
ATOM    101  C   UNL A   1      32.430  17.205  25.641  1.00  0.00     0.040 A 
ATOM    102  C   UNL A   1      33.255  16.387  24.882  1.00  0.00     0.123 A 
ATOM    103  F   UNL A   1      32.984  15.077  24.789  1.00  0.00    -0.207 F 
ENDBRANCH  96  97
ENDBRANCH  91  92
ENDBRANCH  77  84
ENDBRANCH  74  77
ENDBRANCH  72  73
ENDBRANCH   1  72
TORSDOF 17
ENDMDL
MODEL 2
REMARK VINA RESULT:     -13.4      3.003      7.956
REMARK SMILES O=C(NCCCNC(=O)[C@@H](c1ccccc1)N1C(=O)/C(=C\c2ccc(-c3ccc(F)cc3)o2)SC1=S)c1ccc(-c2c3nc(c(-c4cccc(S(=O)(=O)[O-])c4F)c4ccc([nH]4)c(-c4cccc(S(=O)(=O)[O-])c4F)c4nc(c(-c5cccc(S(=O)(=O)[O-])c5F)c5ccc2[nH]5)C=C4)C=C3)cc1
REMARK SMILES IDX 5 1 4 2 3 3 1 4 2 5 37 7 38 8 99 9 39 10 98 11 40 12 41 13
REMARK SMILES IDX 42 14 92 15 43 16 97 17 91 18 93 19 44 20 96 21 90 22 89 23
REMARK SMILES IDX 45 25 77 26 57 27 76 28 58 29 61 30 75 31 94 32 59 33 60 34
REMARK SMILES IDX 74 36 95 37 62 38 46 39 47 40 55 41 48 42 50 43 56 44 49 45
REMARK SMILES IDX 51 46 52 47 53 48 54 49 78 50 79 51 87 52 80 53 82 54 88 55
REMARK SMILES IDX 81 56 83 57 84 58 85 59 86 60 63 61 64 62 72 63 65 64 67 65
REMARK SMILES IDX 73 66 66 67 68 68 69 69 70 70 71 71 6 72 7 73 8 74 9 76
REMARK SMILES IDX 10 77 11 78 12 79 16 80 13 81 15 82 14 83 17 84 18 85 35 86
REMARK SMILES IDX 19 87 20 88 34 89 36 90 21 91 22 92 23 93 33 94 24 95 25 96
REMARK SMILES IDX 26 97 27 98 32 99 28 100 31 101 29 102 30 103
REMARK H PARENT 3 6 93 24 61 35 7 75
REMARK Flexibility Score: inf
ROOT
ATOM      1  C   UNL A   1      33.461  27.688  26.523  1.00  0.00     0.042 C 
ENDROOT
BRANCH   1   2
ATOM      2  C   UNL A   1      34.400  28.779  26.064  1.00  0.00     0.118 C 
BRANCH   2   3
ATOM      3  N   UNL A   1      34.163  30.055  26.728  1.00  0.00    -0.352 N 
ATOM      4  O   UNL A   1      34.319  31.705  28.240  1.00  0.00    -0.269 OA
ATOM      5  C   UNL A   1      34.838  30.710  27.738  1.00  0.00     0.251 C 
ATOM      6  H   UNL A   1      33.374  30.539  26.394  1.00  0.00     0.163 HD
BRANCH   5   7
ATOM      7  C   UNL A   1      36.138  30.214  28.250  1.00  0.00     0.039 A 
ATOM      8  C   UNL A   1      37.316  30.439  27.550  1.00  0.00     0.014 A 
ATOM      9  C   UNL A   1      36.200  29.538  29.475  1.00  0.00     0.014 A 
ATOM     10  C   UNL A   1      38.482  29.788  27.917  1.00  0.00     0.010 A 
ATOM     11  C   UNL A   1      37.422  29.029  29.940  1.00  0.00     0.010 A 
ATOM     12  C   UNL A   1      38.571  29.109  29.143  1.00  0.00    -0.014 A 
BRANCH  12  13
ATOM     13  C   UNL A   1      39.910  28.607  29.562  1.00  0.00     0.031 A 
ATOM     14  C   UNL A   1      40.594  27.468  28.857  1.00  0.00     0.074 A 
ATOM     15  C   UNL A   1      40.547  29.262  30.557  1.00  0.00     0.049 A 
ATOM     16  N   UNL A   1      41.805  27.004  29.042  1.00  0.00    -0.248 NA
ATOM     17  C   UNL A   1      39.831  26.745  27.828  1.00  0.00     0.031 C 
ATOM     18  C   UNL A   1      39.960  30.340  31.361  1.00  0.00     0.029 A 
ATOM     19  N   UNL A   1      41.826  29.156  31.040  1.00  0.00    -0.354 N 
ATOM     20  C   UNL A   1      41.936  25.916  28.188  1.00  0.00     0.074 A 
ATOM     21  C   UNL A   1      40.676  25.780  27.487  1.00  0.00     0.031 C 
ATOM     22  C   UNL A   1      40.894  30.851  32.172  1.00  0.00     0.029 A 
ATOM     23  C   UNL A   1      42.123  30.085  32.012  1.00  0.00     0.049 A 
ATOM     24  H   UNL A   1      42.468  28.482  30.723  1.00  0.00     0.167 HD
ATOM     25  C   UNL A   1      43.012  25.116  27.993  1.00  0.00     0.034 A 
ATOM     26  C   UNL A   1      43.254  30.299  32.710  1.00  0.00     0.034 A 
ATOM     27  C   UNL A   1      44.275  25.282  28.664  1.00  0.00     0.049 A 
ATOM     28  C   UNL A   1      44.447  29.439  32.423  1.00  0.00     0.074 A 
ATOM     29  C   UNL A   1      45.435  24.539  28.512  1.00  0.00     0.029 A 
ATOM     30  N   UNL A   1      44.551  26.257  29.611  1.00  0.00    -0.354 N 
ATOM     31  N   UNL A   1      44.576  28.482  31.537  1.00  0.00    -0.248 NA
ATOM     32  C   UNL A   1      45.656  29.699  33.214  1.00  0.00     0.031 C 
ATOM     33  C   UNL A   1      46.408  25.063  29.371  1.00  0.00     0.029 A 
ATOM     34  C   UNL A   1      45.860  26.140  30.048  1.00  0.00     0.049 A 
ATOM     35  H   UNL A   1      43.910  26.935  29.925  1.00  0.00     0.167 HD
ATOM     36  C   UNL A   1      45.879  28.023  31.663  1.00  0.00     0.074 A 
ATOM     37  C   UNL A   1      46.515  28.846  32.673  1.00  0.00     0.031 C 
ATOM     38  C   UNL A   1      46.486  26.991  31.027  1.00  0.00     0.034 A 
BRANCH  25  39
ATOM     39  C   UNL A   1      42.895  24.011  26.974  1.00  0.00     0.023 A 
ATOM     40  C   UNL A   1      43.484  24.176  25.704  1.00  0.00     0.012 A 
ATOM     41  C   UNL A   1      42.283  22.783  27.296  1.00  0.00     0.148 A 
ATOM     42  C   UNL A   1      43.448  23.147  24.763  1.00  0.00     0.002 A 
ATOM     43  C   UNL A   1      42.283  21.748  26.366  1.00  0.00     0.091 A 
ATOM     44  F   UNL A   1      41.711  22.649  28.501  1.00  0.00    -0.205 F 
ATOM     45  C   UNL A   1      42.859  21.931  25.098  1.00  0.00     0.022 A 
BRANCH  43  46
ATOM     46  S   UNL A   1      41.613  20.119  26.722  1.00  0.00     0.127 S 
ATOM     47  O   UNL A   1      40.210  20.431  26.993  1.00  0.00    -0.237 OA
ATOM     48  O   UNL A   1      41.847  19.407  25.466  1.00  0.00    -0.237 OA
ATOM     49  O   UNL A   1      42.370  19.613  27.857  1.00  0.00    -0.744 OA
ENDBRANCH  43  46
ENDBRANCH  25  39
BRANCH  26  50
ATOM     50  C   UNL A   1      43.302  31.390  33.725  1.00  0.00     0.023 A 
ATOM     51  C   UNL A   1      43.781  32.663  33.364  1.00  0.00     0.012 A 
ATOM     52  C   UNL A   1      42.816  31.185  35.031  1.00  0.00     0.148 A 
ATOM     53  C   UNL A   1      43.795  33.705  34.293  1.00  0.00     0.002 A 
ATOM     54  C   UNL A   1      42.766  32.245  35.928  1.00  0.00     0.091 A 
ATOM     55  F   UNL A   1      42.387  29.961  35.367  1.00  0.00    -0.205 F 
ATOM     56  C   UNL A   1      43.272  33.502  35.569  1.00  0.00     0.022 A 
BRANCH  54  57
ATOM     57  S   UNL A   1      41.943  32.087  37.517  1.00  0.00     0.127 S 
ATOM     58  O   UNL A   1      42.030  33.449  38.036  1.00  0.00    -0.237 OA
ATOM     59  O   UNL A   1      40.598  31.659  37.130  1.00  0.00    -0.237 OA
ATOM     60  O   UNL A   1      42.702  31.072  38.235  1.00  0.00    -0.744 OA
ENDBRANCH  54  57
ENDBRANCH  26  50
BRANCH  38  61
ATOM     61  C   UNL A   1      47.910  26.699  31.414  1.00  0.00     0.023 A 
ATOM     62  C   UNL A   1      48.170  25.787  32.456  1.00  0.00     0.012 A 
ATOM     63  C   UNL A   1      48.986  27.300  30.733  1.00  0.00     0.148 A 
ATOM     64  C   UNL A   1      49.480  25.508  32.843  1.00  0.00     0.002 A 
ATOM     65  C   UNL A   1      50.290  26.983  31.095  1.00  0.00     0.091 A 
ATOM     66  F   UNL A   1      48.717  28.183  29.760  1.00  0.00    -0.205 F 
ATOM     67  C   UNL A   1      50.539  26.098  32.157  1.00  0.00     0.022 A 
BRANCH  65  68
ATOM     68  S   UNL A   1      51.709  27.635  30.209  1.00  0.00     0.127 S 
ATOM     69  O   UNL A   1      52.819  26.985  30.903  1.00  0.00    -0.237 OA
ATOM     70  O   UNL A   1      51.477  27.155  28.846  1.00  0.00    -0.237 OA
ATOM     71  O   UNL A   1      51.633  29.082  30.355  1.00  0.00    -0.744 OA
ENDBRANCH  65  68
ENDBRANCH  38  61
ENDBRANCH  12  13
ENDBRANCH   5   7
ENDBRANCH   2   3
ENDBRANCH   1   2
BRANCH   1  72
ATOM     72  C   UNL A   1      32.010  28.115  26.558  1.00  0.00     0.117 C 
BRANCH  72  73
ATOM     73  N   UNL A   1      31.056  27.048  26.777  1.00  0.00    -0.354 N 
ATOM     74  C   UNL A   1      30.330  26.352  25.854  1.00  0.00     0.247 C 
ATOM     75  H   UNL A   1      30.913  26.790  27.716  1.00  0.00     0.163 HD
ATOM     76  O   UNL A   1      29.544  25.508  26.299  1.00  0.00    -0.272 OA
BRANCH  74  77
ATOM     77  C   UNL A   1      30.451  26.590  24.312  1.00  0.00     0.211 C 
BRANCH  77  78
ATOM     78  C   UNL A   1      29.797  27.911  23.860  1.00  0.00    -0.016 A 
ATOM     79  C   UNL A   1      30.301  29.179  24.191  1.00  0.00     0.006 A 
ATOM     80  C   UNL A   1      28.635  27.872  23.060  1.00  0.00     0.006 A 
ATOM     81  C   UNL A   1      29.576  30.340  23.907  1.00  0.00     0.000 A 
ATOM     82  C   UNL A   1      27.928  29.035  22.745  1.00  0.00     0.000 A 
ATOM     83  C   UNL A   1      28.381  30.268  23.202  1.00  0.00     0.000 A 
ENDBRANCH  77  78
BRANCH  77  84
ATOM     84  N   UNL A   1      31.824  26.235  23.826  1.00  0.00    -0.276 N 
ATOM     85  C   UNL A   1      32.396  24.994  24.030  1.00  0.00     0.267 C 
ATOM     86  C   UNL A   1      32.588  27.094  23.053  1.00  0.00     0.149 C 
ATOM     87  O   UNL A   1      31.862  24.006  24.499  1.00  0.00    -0.268 OA
ATOM     88  C   UNL A   1      33.817  24.962  23.604  1.00  0.00     0.084 C 
ATOM     89  S   UNL A   1      34.154  26.360  22.673  1.00  0.00    -0.054 SA
ATOM     90  S   UNL A   1      32.223  28.624  22.495  1.00  0.00    -0.052 S 
ATOM     91  C   UNL A   1      34.728  24.042  23.960  1.00  0.00     0.068 C 
BRANCH  91  92
ATOM     92  C   UNL A   1      34.424  22.965  24.841  1.00  0.00     0.128 A 
ATOM     93  C   UNL A   1      34.305  22.952  26.227  1.00  0.00     0.051 A 
ATOM     94  O   UNL A   1      34.226  21.674  24.398  1.00  0.00    -0.457 OA
ATOM     95  C   UNL A   1      34.097  21.616  26.634  1.00  0.00     0.051 A 
ATOM     96  C   UNL A   1      34.039  20.866  25.482  1.00  0.00     0.134 A 
BRANCH  96  97
ATOM     97  C   UNL A   1      33.799  19.454  25.217  1.00  0.00     0.017 A 
ATOM     98  C   UNL A   1      32.701  18.782  25.774  1.00  0.00     0.015 A 
ATOM     99  C   UNL A   1      34.675  18.743  24.382  1.00  0.00     0.015 A 
ATOM    100  C   UNL A   1      32.492  17.425  25.512  1.00  0.00     0.040 A 
ATOM    101  C   UNL A   1      34.474  17.384  24.127  1.00  0.00     0.040 A 
ATOM    102  C   UNL A   1      33.386  16.738  24.697  1.00  0.00     0.123 A 
ATOM    103  F   UNL A   1      33.195  15.432  24.463  1.00  0.00    -0.207 F 
ENDBRANCH  96  97
ENDBRANCH  91  92
ENDBRANCH  77  84
ENDBRANCH  74  77
ENDBRANCH  72  73
ENDBRANCH   1  72
TORSDOF 17
ENDMDL
MODEL 3
REMARK VINA RESULT:     -13.4      5.390     10.559
REMARK SMILES O=C(NCCCNC(=O)[C@@H](c1ccccc1)N1C(=O)/C(=C\c2ccc(-c3ccc(F)cc3)o2)SC1=S)c1ccc(-c2c3nc(c(-c4cccc(S(=O)(=O)[O-])c4F)c4ccc([nH]4)c(-c4cccc(S(=O)(=O)[O-])c4F)c4nc(c(-c5cccc(S(=O)(=O)[O-])c5F)c5ccc2[nH]5)C=C4)C=C3)cc1
REMARK SMILES IDX 5 1 4 2 3 3 1 4 2 5 37 7 38 8 99 9 39 10 98 11 40 12 41 13
REMARK SMILES IDX 42 14 92 15 43 16 97 17 91 18 93 19 44 20 96 21 90 22 89 23
REMARK SMILES IDX 45 25 77 26 57 27 76 28 58 29 61 30 75 31 94 32 59 33 60 34
REMARK SMILES IDX 74 36 95 37 62 38 46 39 47 40 55 41 48 42 50 43 56 44 49 45
REMARK SMILES IDX 51 46 52 47 53 48 54 49 78 50 79 51 87 52 80 53 82 54 88 55
REMARK SMILES IDX 81 56 83 57 84 58 85 59 86 60 63 61 64 62 72 63 65 64 67 65
REMARK SMILES IDX 73 66 66 67 68 68 69 69 70 70 71 71 6 72 7 73 8 74 9 76
REMARK SMILES IDX 10 77 11 78 12 79 16 80 13 81 15 82 14 83 17 84 18 85 35 86
REMARK SMILES IDX 19 87 20 88 34 89 36 90 21 91 22 92 23 93 33 94 24 95 25 96
REMARK SMILES IDX 26 97 27 98 32 99 28 100 31 101 29 102 30 103
REMARK H PARENT 3 6 93 24 61 35 7 75
REMARK Flexibility Score: inf
ROOT
ATOM      1  C   UNL A   1      36.457  23.168  24.471  1.00  0.00     0.042 C 
ENDROOT
BRANCH   1   2
ATOM      2  C   UNL A   1      36.651  22.619  25.866  1.00  0.00     0.118 C 
BRANCH   2   3
ATOM      3  N   UNL A   1      37.668  21.577  25.935  1.00  0.00    -0.352 N 
ATOM      4  O   UNL A   1      39.688  20.608  26.061  1.00  0.00    -0.269 OA
ATOM      5  C   UNL A   1      39.010  21.615  26.253  1.00  0.00     0.251 C 
ATOM      6  H   UNL A   1      37.335  20.678  25.712  1.00  0.00     0.163 HD
BRANCH   5   7
ATOM      7  C   UNL A   1      39.648  22.849  26.773  1.00  0.00     0.039 A 
ATOM      8  C   UNL A   1      39.290  24.100  26.287  1.00  0.00     0.014 A 
ATOM      9  C   UNL A   1      40.603  22.770  27.795  1.00  0.00     0.014 A 
ATOM     10  C   UNL A   1      40.040  25.218  26.614  1.00  0.00     0.010 A 
ATOM     11  C   UNL A   1      41.240  23.933  28.257  1.00  0.00     0.010 A 
ATOM     12  C   UNL A   1      40.997  25.165  27.639  1.00  0.00    -0.014 A 
BRANCH  12  13
ATOM     13  C   UNL A   1      41.619  26.449  28.072  1.00  0.00     0.031 A 
ATOM     14  C   UNL A   1      43.010  26.844  27.658  1.00  0.00     0.074 A 
ATOM     15  C   UNL A   1      40.863  27.305  28.792  1.00  0.00     0.049 A 
ATOM     16  N   UNL A   1      43.632  27.977  27.867  1.00  0.00    -0.248 NA
ATOM     17  C   UNL A   1      43.816  25.848  26.934  1.00  0.00     0.031 C 
ATOM     18  C   UNL A   1      39.522  27.009  29.310  1.00  0.00     0.029 A 
ATOM     19  N   UNL A   1      41.082  28.602  29.181  1.00  0.00    -0.354 N 
ATOM     20  C   UNL A   1      44.908  27.820  27.340  1.00  0.00     0.074 A 
ATOM     21  C   UNL A   1      44.978  26.475  26.808  1.00  0.00     0.031 C 
ATOM     22  C   UNL A   1      39.007  28.110  29.870  1.00  0.00     0.029 A 
ATOM     23  C   UNL A   1      40.008  29.168  29.830  1.00  0.00     0.049 A 
ATOM     24  H   UNL A   1      41.924  29.081  29.013  1.00  0.00     0.167 HD
ATOM     25  C   UNL A   1      45.922  28.719  27.289  1.00  0.00     0.034 A 
ATOM     26  C   UNL A   1      39.840  30.399  30.349  1.00  0.00     0.034 A 
ATOM     27  C   UNL A   1      45.831  30.068  27.785  1.00  0.00     0.049 A 
ATOM     28  C   UNL A   1      40.955  31.391  30.217  1.00  0.00     0.074 A 
ATOM     29  C   UNL A   1      46.794  31.064  27.752  1.00  0.00     0.029 A 
ATOM     30  N   UNL A   1      44.715  30.617  28.398  1.00  0.00    -0.354 N 
ATOM     31  N   UNL A   1      42.115  31.248  29.623  1.00  0.00    -0.248 NA
ATOM     32  C   UNL A   1      40.735  32.718  30.805  1.00  0.00     0.031 C 
ATOM     33  C   UNL A   1      46.261  32.211  28.351  1.00  0.00     0.029 A 
ATOM     34  C   UNL A   1      44.962  31.935  28.744  1.00  0.00     0.049 A 
ATOM     35  H   UNL A   1      43.870  30.139  28.563  1.00  0.00     0.167 HD
ATOM     36  C   UNL A   1      42.765  32.465  29.767  1.00  0.00     0.074 A 
ATOM     37  C   UNL A   1      41.846  33.351  30.455  1.00  0.00     0.031 C 
ATOM     38  C   UNL A   1      44.022  32.811  29.395  1.00  0.00     0.034 A 
BRANCH  25  39
ATOM     39  C   UNL A   1      47.209  28.295  26.629  1.00  0.00     0.023 A 
ATOM     40  C   UNL A   1      48.306  27.921  27.430  1.00  0.00     0.012 A 
ATOM     41  C   UNL A   1      47.309  28.183  25.228  1.00  0.00     0.148 A 
ATOM     42  C   UNL A   1      49.489  27.463  26.850  1.00  0.00     0.002 A 
ATOM     43  C   UNL A   1      48.477  27.690  24.657  1.00  0.00     0.091 A 
ATOM     44  F   UNL A   1      46.262  28.561  24.479  1.00  0.00    -0.205 F 
ATOM     45  C   UNL A   1      49.570  27.337  25.465  1.00  0.00     0.022 A 
BRANCH  43  46
ATOM     46  S   UNL A   1      48.660  27.422  22.889  1.00  0.00     0.127 S 
ATOM     47  O   UNL A   1      47.533  28.187  22.357  1.00  0.00    -0.237 OA
ATOM     48  O   UNL A   1      49.973  28.009  22.622  1.00  0.00    -0.237 OA
ATOM     49  O   UNL A   1      48.586  25.982  22.691  1.00  0.00    -0.744 OA
ENDBRANCH  43  46
ENDBRANCH  25  39
BRANCH  26  50
ATOM     50  C   UNL A   1      38.553  30.752  31.014  1.00  0.00     0.023 A 
ATOM     51  C   UNL A   1      38.398  30.542  32.397  1.00  0.00     0.012 A 
ATOM     52  C   UNL A   1      37.505  31.352  30.290  1.00  0.00     0.148 A 
ATOM     53  C   UNL A   1      37.213  30.904  33.041  1.00  0.00     0.002 A 
ATOM     54  C   UNL A   1      36.357  31.775  30.950  1.00  0.00     0.091 A 
ATOM     55  F   UNL A   1      37.657  31.523  28.969  1.00  0.00    -0.205 F 
ATOM     56  C   UNL A   1      36.200  31.536  32.322  1.00  0.00     0.022 A 
BRANCH  54  57
ATOM     57  S   UNL A   1      35.102  32.750  30.113  1.00  0.00     0.127 S 
ATOM     58  O   UNL A   1      35.882  33.879  29.615  1.00  0.00    -0.237 OA
ATOM     59  O   UNL A   1      34.626  31.826  29.082  1.00  0.00    -0.237 OA
ATOM     60  O   UNL A   1      34.112  33.051  31.139  1.00  0.00    -0.744 OA
ENDBRANCH  54  57
ENDBRANCH  26  50
BRANCH  38  61
ATOM     61  C   UNL A   1      44.469  34.207  29.732  1.00  0.00     0.023 A 
ATOM     62  C   UNL A   1      45.142  34.443  30.948  1.00  0.00     0.012 A 
ATOM     63  C   UNL A   1      44.252  35.275  28.841  1.00  0.00     0.148 A 
ATOM     64  C   UNL A   1      45.556  35.729  31.291  1.00  0.00     0.002 A 
ATOM     65  C   UNL A   1      44.707  36.546  29.170  1.00  0.00     0.091 A 
ATOM     66  F   UNL A   1      43.589  35.034  27.701  1.00  0.00    -0.205 F 
ATOM     67  C   UNL A   1      45.348  36.778  30.399  1.00  0.00     0.022 A 
BRANCH  65  68
ATOM     68  S   UNL A   1      44.552  37.934  28.042  1.00  0.00     0.127 S 
ATOM     69  O   UNL A   1      45.263  37.442  26.863  1.00  0.00    -0.237 OA
ATOM     70  O   UNL A   1      43.102  38.046  27.878  1.00  0.00    -0.237 OA
ATOM     71  O   UNL A   1      45.167  39.066  28.723  1.00  0.00    -0.744 OA
ENDBRANCH  65  68
ENDBRANCH  38  61
ENDBRANCH  12  13
ENDBRANCH   5   7
ENDBRANCH   2   3
ENDBRANCH   1   2
BRANCH   1  72
ATOM     72  C   UNL A   1      35.127  23.861  24.274  1.00  0.00     0.117 C 
BRANCH  72  73
ATOM     73  N   UNL A   1      34.598  23.814  22.928  1.00  0.00    -0.354 N 
ATOM     74  C   UNL A   1      33.480  23.176  22.473  1.00  0.00     0.247 C 
ATOM     75  H   UNL A   1      35.112  24.308  22.250  1.00  0.00     0.163 HD
ATOM     76  O   UNL A   1      33.262  23.251  21.259  1.00  0.00    -0.272 OA
BRANCH  74  77
ATOM     77  C   UNL A   1      32.514  22.372  23.406  1.00  0.00     0.211 C 
BRANCH  77  78
ATOM     78  C   UNL A   1      32.940  20.901  23.581  1.00  0.00    -0.016 A 
ATOM     79  C   UNL A   1      32.186  19.814  23.111  1.00  0.00     0.006 A 
ATOM     80  C   UNL A   1      34.156  20.603  24.233  1.00  0.00     0.006 A 
ATOM     81  C   UNL A   1      32.526  18.500  23.448  1.00  0.00     0.000 A 
ATOM     82  C   UNL A   1      34.515  19.288  24.540  1.00  0.00     0.000 A 
ATOM     83  C   UNL A   1      33.679  18.238  24.179  1.00  0.00     0.000 A 
ENDBRANCH  77  78
BRANCH  77  84
ATOM     84  N   UNL A   1      32.138  23.185  24.608  1.00  0.00    -0.276 N 
ATOM     85  C   UNL A   1      31.758  24.511  24.529  1.00  0.00     0.267 C 
ATOM     86  C   UNL A   1      32.052  22.643  25.880  1.00  0.00     0.149 C 
ATOM     87  O   UNL A   1      31.558  25.160  23.520  1.00  0.00    -0.268 OA
ATOM     88  C   UNL A   1      31.608  25.126  25.872  1.00  0.00     0.084 C 
ATOM     89  S   UNL A   1      31.600  23.887  27.056  1.00  0.00    -0.054 SA
ATOM     90  S   UNL A   1      32.316  21.074  26.381  1.00  0.00    -0.052 S 
ATOM     91  C   UNL A   1      31.575  26.441  26.139  1.00  0.00     0.068 C 
BRANCH  91  92
ATOM     92  C   UNL A   1      31.712  27.432  25.126  1.00  0.00     0.128 A 
ATOM     93  C   UNL A   1      32.850  27.882  24.465  1.00  0.00     0.051 A 
ATOM     94  O   UNL A   1      30.643  28.164  24.653  1.00  0.00    -0.457 OA
ATOM     95  C   UNL A   1      32.472  28.952  23.624  1.00  0.00     0.051 A 
ATOM     96  C   UNL A   1      31.109  29.083  23.756  1.00  0.00     0.134 A 
BRANCH  96  97
ATOM     97  C   UNL A   1      30.121  29.950  23.129  1.00  0.00     0.017 A 
ATOM     98  C   UNL A   1      29.842  29.870  21.757  1.00  0.00     0.015 A 
ATOM     99  C   UNL A   1      29.422  30.887  23.908  1.00  0.00     0.015 A 
ATOM    100  C   UNL A   1      28.895  30.717  21.175  1.00  0.00     0.040 A 
ATOM    101  C   UNL A   1      28.483  31.741  23.326  1.00  0.00     0.040 A 
ATOM    102  C   UNL A   1      28.230  31.649  21.964  1.00  0.00     0.123 A 
ATOM    103  F   UNL A   1      27.337  32.474  21.400  1.00  0.00    -0.207 F 
ENDBRANCH  96  97
ENDBRANCH  91  92
ENDBRANCH  77  84
ENDBRANCH  74  77
ENDBRANCH  72  73
ENDBRANCH   1  72
TORSDOF 17
ENDMDL
