MODEL 1
REMARK VINA RESULT:     -11.2      0.000      0.000
REMARK SMILES C[C@@H](C(=O)NCCCNC(=O)c1ccc(-c2c3nc(c(-c4cccc(S(=O)(=O)[O-])c4F)c4ccc([nH]4)c(-c4cccc(S(=O)(=O)[O-])c4F)c4nc(c(-c5cccc(S(=O)(=O)[O-])c5F)c5ccc2[nH]5)C=C4)C=C3)cc1)c1ccc(C[C@H]2CCC[C@@H]2O)cc1Br
REMARK SMILES IDX 6 1 5 2 3 3 4 4 2 6 1 7 75 8 76 9 87 10 77 11 86 12 88 13
REMARK SMILES IDX 78 14 79 15 80 16 81 17 84 18 82 19 83 20 85 21 7 23 8 24
REMARK SMILES IDX 9 25 10 26 11 28 12 29 13 30 74 31 14 32 73 33 15 34 16 35
REMARK SMILES IDX 17 36 67 37 18 38 72 39 66 40 68 41 19 42 71 43 65 44 64 45
REMARK SMILES IDX 20 47 52 48 32 49 51 50 33 51 36 52 50 53 69 54 34 55 35 56
REMARK SMILES IDX 49 58 70 59 37 60 21 61 22 62 30 63 23 64 25 65 31 66 24 67
REMARK SMILES IDX 26 68 27 69 28 70 29 71 53 72 54 73 62 74 55 75 57 76 63 77
REMARK SMILES IDX 56 78 58 79 59 80 60 81 61 82 38 83 39 84 47 85 40 86 42 87
REMARK SMILES IDX 48 88 41 89 43 90 44 91 45 92 46 93
REMARK H PARENT 5 5 85 22 9 27 68 46 36 57
REMARK Flexibility Score: inf
ROOT
ATOM      1  C   UNL A   1      36.559  20.397  25.347  1.00  0.00     0.117 C 
ENDROOT
BRANCH   1   2
ATOM      2  N   UNL A   1      36.750  21.698  25.955  1.00  0.00    -0.356 N 
ATOM      3  C   UNL A   1      36.267  22.924  25.605  1.00  0.00     0.227 C 
ATOM      4  O   UNL A   1      36.896  23.871  26.080  1.00  0.00    -0.274 OA
ATOM      5  H   UNL A   1      37.324  21.697  26.754  1.00  0.00     0.163 HD
BRANCH   3   6
ATOM      6  C   UNL A   1      35.045  23.051  24.667  1.00  0.00     0.106 C 
ATOM      7  C   UNL A   1      35.552  23.147  23.223  1.00  0.00     0.023 C 
BRANCH   6   8
ATOM      8  C   UNL A   1      34.053  24.196  24.945  1.00  0.00    -0.022 A 
ATOM      9  C   UNL A   1      34.041  25.372  24.173  1.00  0.00     0.006 A 
ATOM     10  C   UNL A   1      33.063  24.101  25.947  1.00  0.00     0.022 A 
ATOM     11  C   UNL A   1      33.111  26.394  24.377  1.00  0.00     0.004 A 
ATOM     12  C   UNL A   1      32.112  25.120  26.135  1.00  0.00     0.019 A 
ATOM     13  Br  UNL A   1      32.946  22.641  27.168  1.00  0.00    -0.051 Br
ATOM     14  C   UNL A   1      32.146  26.290  25.371  1.00  0.00    -0.047 A 
BRANCH  14  15
ATOM     15  C   UNL A   1      31.198  27.430  25.646  1.00  0.00     0.041 C 
BRANCH  15  16
ATOM     16  C   UNL A   1      31.855  28.815  25.790  1.00  0.00     0.022 C 
ATOM     17  C   UNL A   1      31.221  29.941  24.954  1.00  0.00     0.007 C 
ATOM     18  C   UNL A   1      31.920  29.375  27.216  1.00  0.00     0.117 C 
ATOM     19  C   UNL A   1      31.222  31.186  25.842  1.00  0.00     0.003 C 
ATOM     20  C   UNL A   1      32.155  30.861  26.994  1.00  0.00     0.032 C 
BRANCH  18  21
ATOM     21  O   UNL A   1      32.991  28.812  27.953  1.00  0.00    -0.393 OA
ATOM     22  H   UNL A   1      33.127  29.322  28.767  1.00  0.00     0.210 HD
ENDBRANCH  18  21
ENDBRANCH  15  16
ENDBRANCH  14  15
ENDBRANCH   6   8
ENDBRANCH   3   6
ENDBRANCH   1   2
BRANCH   1  23
ATOM     23  C   UNL A   1      37.894  19.752  24.973  1.00  0.00     0.042 C 
BRANCH  23  24
ATOM     24  C   UNL A   1      39.100  20.280  25.747  1.00  0.00     0.118 C 
BRANCH  24  25
ATOM     25  N   UNL A   1      40.149  19.284  25.902  1.00  0.00    -0.352 N 
ATOM     26  C   UNL A   1      41.492  19.458  26.125  1.00  0.00     0.251 C 
ATOM     27  H   UNL A   1      39.851  18.348  25.838  1.00  0.00     0.163 HD
ATOM     28  O   UNL A   1      42.250  18.491  26.033  1.00  0.00    -0.269 OA
BRANCH  26  29
ATOM     29  C   UNL A   1      42.035  20.795  26.453  1.00  0.00     0.039 A 
ATOM     30  C   UNL A   1      42.306  21.687  25.412  1.00  0.00     0.014 A 
ATOM     31  C   UNL A   1      42.292  21.167  27.775  1.00  0.00     0.014 A 
ATOM     32  C   UNL A   1      42.771  22.972  25.702  1.00  0.00     0.010 A 
ATOM     33  C   UNL A   1      42.680  22.473  28.066  1.00  0.00     0.010 A 
ATOM     34  C   UNL A   1      42.928  23.390  27.034  1.00  0.00    -0.014 A 
BRANCH  34  35
ATOM     35  C   UNL A   1      43.327  24.783  27.364  1.00  0.00     0.031 A 
ATOM     36  C   UNL A   1      42.328  25.745  27.951  1.00  0.00     0.074 A 
ATOM     37  C   UNL A   1      44.567  25.212  27.052  1.00  0.00     0.049 A 
ATOM     38  N   UNL A   1      42.476  27.012  28.241  1.00  0.00    -0.248 NA
ATOM     39  C   UNL A   1      40.979  25.223  28.226  1.00  0.00     0.031 C 
ATOM     40  C   UNL A   1      45.606  24.400  26.413  1.00  0.00     0.029 A 
ATOM     41  N   UNL A   1      45.157  26.444  27.201  1.00  0.00    -0.354 N 
ATOM     42  C   UNL A   1      41.235  27.448  28.692  1.00  0.00     0.074 A 
ATOM     43  C   UNL A   1      40.337  26.316  28.612  1.00  0.00     0.031 C 
ATOM     44  C   UNL A   1      46.701  25.153  26.226  1.00  0.00     0.029 A 
ATOM     45  C   UNL A   1      46.434  26.509  26.694  1.00  0.00     0.049 A 
ATOM     46  H   UNL A   1      44.707  27.207  27.630  1.00  0.00     0.167 HD
ATOM     47  C   UNL A   1      40.880  28.672  29.151  1.00  0.00     0.034 A 
ATOM     48  C   UNL A   1      47.289  27.547  26.597  1.00  0.00     0.034 A 
ATOM     49  C   UNL A   1      41.784  29.784  29.264  1.00  0.00     0.049 A 
ATOM     50  C   UNL A   1      46.875  28.889  27.138  1.00  0.00     0.074 A 
ATOM     51  C   UNL A   1      41.545  31.034  29.809  1.00  0.00     0.029 A 
ATOM     52  N   UNL A   1      43.093  29.791  28.810  1.00  0.00    -0.354 N 
ATOM     53  N   UNL A   1      45.750  29.236  27.714  1.00  0.00    -0.248 NA
ATOM     54  C   UNL A   1      47.860  29.977  27.045  1.00  0.00     0.031 C 
ATOM     55  C   UNL A   1      42.697  31.809  29.649  1.00  0.00     0.029 A 
ATOM     56  C   UNL A   1      43.669  31.029  29.043  1.00  0.00     0.049 A 
ATOM     57  H   UNL A   1      43.548  29.029  28.386  1.00  0.00     0.167 HD
ATOM     58  C   UNL A   1      45.905  30.567  28.084  1.00  0.00     0.074 A 
ATOM     59  C   UNL A   1      47.241  30.959  27.687  1.00  0.00     0.031 C 
ATOM     60  C   UNL A   1      45.016  31.394  28.688  1.00  0.00     0.034 A 
BRANCH  47  61
ATOM     61  C   UNL A   1      39.456  28.868  29.605  1.00  0.00     0.023 A 
ATOM     62  C   UNL A   1      39.078  28.495  30.911  1.00  0.00     0.012 A 
ATOM     63  C   UNL A   1      38.510  29.488  28.764  1.00  0.00     0.148 A 
ATOM     64  C   UNL A   1      37.775  28.701  31.361  1.00  0.00     0.002 A 
ATOM     65  C   UNL A   1      37.226  29.734  29.236  1.00  0.00     0.091 A 
ATOM     66  F   UNL A   1      38.881  29.821  27.520  1.00  0.00    -0.205 F 
ATOM     67  C   UNL A   1      36.854  29.330  30.529  1.00  0.00     0.022 A 
BRANCH  65  68
ATOM     68  S   UNL A   1      35.991  30.613  28.274  1.00  0.00     0.127 S 
ATOM     69  O   UNL A   1      36.741  31.791  27.838  1.00  0.00    -0.237 OA
ATOM     70  O   UNL A   1      35.692  29.655  27.209  1.00  0.00    -0.237 OA
ATOM     71  O   UNL A   1      34.885  30.879  29.182  1.00  0.00    -0.744 OA
ENDBRANCH  65  68
ENDBRANCH  47  61
BRANCH  48  72
ATOM     72  C   UNL A   1      48.642  27.350  26.002  1.00  0.00     0.023 A 
ATOM     73  C   UNL A   1      48.790  27.347  24.601  1.00  0.00     0.012 A 
ATOM     74  C   UNL A   1      49.780  27.183  26.813  1.00  0.00     0.148 A 
ATOM     75  C   UNL A   1      50.041  27.140  24.018  1.00  0.00     0.002 A 
ATOM     76  C   UNL A   1      51.032  27.036  26.227  1.00  0.00     0.091 A 
ATOM     77  F   UNL A   1      49.618  27.179  28.143  1.00  0.00    -0.205 F 
ATOM     78  C   UNL A   1      51.163  26.995  24.831  1.00  0.00     0.022 A 
BRANCH  76  79
ATOM     79  S   UNL A   1      52.546  26.976  27.193  1.00  0.00     0.127 S 
ATOM     80  O   UNL A   1      52.293  25.839  28.074  1.00  0.00    -0.237 OA
ATOM     81  O   UNL A   1      53.554  26.741  26.157  1.00  0.00    -0.237 OA
ATOM     82  O   UNL A   1      52.649  28.273  27.844  1.00  0.00    -0.744 OA
ENDBRANCH  76  79
ENDBRANCH  48  72
BRANCH  60  83
ATOM     83  C   UNL A   1      45.464  32.798  29.002  1.00  0.00     0.023 A 
ATOM     84  C   UNL A   1      46.140  33.069  30.208  1.00  0.00     0.012 A 
ATOM     85  C   UNL A   1      45.286  33.832  28.061  1.00  0.00     0.148 A 
ATOM     86  C   UNL A   1      46.603  34.355  30.487  1.00  0.00     0.002 A 
ATOM     87  C   UNL A   1      45.797  35.097  28.323  1.00  0.00     0.091 A 
ATOM     88  F   UNL A   1      44.626  33.557  26.927  1.00  0.00    -0.205 F 
ATOM     89  C   UNL A   1      46.443  35.364  29.541  1.00  0.00     0.022 A 
BRANCH  87  90
ATOM     90  S   UNL A   1      45.727  36.433  27.124  1.00  0.00     0.127 S 
ATOM     91  O   UNL A   1      46.477  37.485  27.806  1.00  0.00    -0.237 OA
ATOM     92  O   UNL A   1      46.410  35.847  25.970  1.00  0.00    -0.237 OA
ATOM     93  O   UNL A   1      44.314  36.713  26.913  1.00  0.00    -0.744 OA
ENDBRANCH  87  90
ENDBRANCH  60  83
ENDBRANCH  34  35
ENDBRANCH  26  29
ENDBRANCH  24  25
ENDBRANCH  23  24
ENDBRANCH   1  23
TORSDOF 17
ENDMDL
MODEL 2
REMARK VINA RESULT:     -11.1      2.973      8.678
REMARK SMILES C[C@@H](C(=O)NCCCNC(=O)c1ccc(-c2c3nc(c(-c4cccc(S(=O)(=O)[O-])c4F)c4ccc([nH]4)c(-c4cccc(S(=O)(=O)[O-])c4F)c4nc(c(-c5cccc(S(=O)(=O)[O-])c5F)c5ccc2[nH]5)C=C4)C=C3)cc1)c1ccc(C[C@H]2CCC[C@@H]2O)cc1Br
REMARK SMILES IDX 6 1 5 2 3 3 4 4 2 6 1 7 75 8 76 9 87 10 77 11 86 12 88 13
REMARK SMILES IDX 78 14 79 15 80 16 81 17 84 18 82 19 83 20 85 21 7 23 8 24
REMARK SMILES IDX 9 25 10 26 11 28 12 29 13 30 74 31 14 32 73 33 15 34 16 35
REMARK SMILES IDX 17 36 67 37 18 38 72 39 66 40 68 41 19 42 71 43 65 44 64 45
REMARK SMILES IDX 20 47 52 48 32 49 51 50 33 51 36 52 50 53 69 54 34 55 35 56
REMARK SMILES IDX 49 58 70 59 37 60 21 61 22 62 30 63 23 64 25 65 31 66 24 67
REMARK SMILES IDX 26 68 27 69 28 70 29 71 53 72 54 73 62 74 55 75 57 76 63 77
REMARK SMILES IDX 56 78 58 79 59 80 60 81 61 82 38 83 39 84 47 85 40 86 42 87
REMARK SMILES IDX 48 88 41 89 43 90 44 91 45 92 46 93
REMARK H PARENT 5 5 85 22 9 27 68 46 36 57
REMARK Flexibility Score: inf
ROOT
ATOM      1  C   UNL A   1      35.217  22.790  23.747  1.00  0.00     0.117 C 
ENDROOT
BRANCH   1   2
ATOM      2  N   UNL A   1      34.622  21.825  24.650  1.00  0.00    -0.356 N 
ATOM      3  C   UNL A   1      33.316  21.570  24.945  1.00  0.00     0.227 C 
ATOM      4  O   UNL A   1      33.145  20.967  26.006  1.00  0.00    -0.274 OA
ATOM      5  H   UNL A   1      35.269  21.260  25.130  1.00  0.00     0.163 HD
BRANCH   3   6
ATOM      6  C   UNL A   1      32.187  22.045  24.003  1.00  0.00     0.106 C 
ATOM      7  C   UNL A   1      32.538  21.616  22.573  1.00  0.00     0.023 C 
BRANCH   6   8
ATOM      8  C   UNL A   1      31.831  23.544  24.020  1.00  0.00    -0.022 A 
ATOM      9  C   UNL A   1      32.217  24.411  22.982  1.00  0.00     0.006 A 
ATOM     10  C   UNL A   1      31.047  24.115  25.046  1.00  0.00     0.022 A 
ATOM     11  C   UNL A   1      31.854  25.760  22.957  1.00  0.00     0.004 A 
ATOM     12  C   UNL A   1      30.661  25.467  25.007  1.00  0.00     0.019 A 
ATOM     13  Br  UNL A   1      30.486  23.152  26.593  1.00  0.00    -0.051 Br
ATOM     14  C   UNL A   1      31.087  26.310  23.976  1.00  0.00    -0.047 A 
BRANCH  14  15
ATOM     15  C   UNL A   1      30.768  27.783  23.990  1.00  0.00     0.041 C 
BRANCH  15  16
ATOM     16  C   UNL A   1      29.736  28.246  22.946  1.00  0.00     0.022 C 
ATOM     17  C   UNL A   1      28.263  27.980  23.305  1.00  0.00     0.007 C 
ATOM     18  C   UNL A   1      29.787  29.732  22.573  1.00  0.00     0.117 C 
ATOM     19  C   UNL A   1      27.482  29.213  22.849  1.00  0.00     0.003 C 
ATOM     20  C   UNL A   1      28.426  29.976  21.938  1.00  0.00     0.032 C 
BRANCH  18  21
ATOM     21  O   UNL A   1      30.820  30.006  21.644  1.00  0.00    -0.393 OA
ATOM     22  H   UNL A   1      31.591  29.453  21.844  1.00  0.00     0.210 HD
ENDBRANCH  18  21
ENDBRANCH  15  16
ENDBRANCH  14  15
ENDBRANCH   6   8
ENDBRANCH   3   6
ENDBRANCH   1   2
BRANCH   1  23
ATOM     23  C   UNL A   1      36.557  23.302  24.276  1.00  0.00     0.042 C 
BRANCH  23  24
ATOM     24  C   UNL A   1      36.772  23.102  25.775  1.00  0.00     0.118 C 
BRANCH  24  25
ATOM     25  N   UNL A   1      37.916  22.254  26.071  1.00  0.00    -0.352 N 
ATOM     26  C   UNL A   1      39.182  22.604  26.469  1.00  0.00     0.251 C 
ATOM     27  H   UNL A   1      37.759  21.288  25.972  1.00  0.00     0.163 HD
ATOM     28  O   UNL A   1      40.070  21.749  26.481  1.00  0.00    -0.269 OA
BRANCH  26  29
ATOM     29  C   UNL A   1      39.493  23.997  26.860  1.00  0.00     0.039 A 
ATOM     30  C   UNL A   1      39.250  24.398  28.177  1.00  0.00     0.014 A 
ATOM     31  C   UNL A   1      40.005  24.911  25.936  1.00  0.00     0.014 A 
ATOM     32  C   UNL A   1      39.584  25.694  28.580  1.00  0.00     0.010 A 
ATOM     33  C   UNL A   1      40.410  26.175  26.359  1.00  0.00     0.010 A 
ATOM     34  C   UNL A   1      40.201  26.583  27.685  1.00  0.00    -0.014 A 
BRANCH  34  35
ATOM     35  C   UNL A   1      40.652  27.931  28.122  1.00  0.00     0.031 A 
ATOM     36  C   UNL A   1      42.119  28.267  28.166  1.00  0.00     0.074 A 
ATOM     37  C   UNL A   1      39.745  28.824  28.566  1.00  0.00     0.049 A 
ATOM     38  N   UNL A   1      42.700  29.364  28.579  1.00  0.00    -0.248 NA
ATOM     39  C   UNL A   1      43.057  27.230  27.707  1.00  0.00     0.031 C 
ATOM     40  C   UNL A   1      38.300  28.594  28.645  1.00  0.00     0.029 A 
ATOM     41  N   UNL A   1      39.903  30.094  29.066  1.00  0.00    -0.354 N 
ATOM     42  C   UNL A   1      44.068  29.135  28.471  1.00  0.00     0.074 A 
ATOM     43  C   UNL A   1      44.230  27.784  27.977  1.00  0.00     0.031 C 
ATOM     44  C   UNL A   1      37.707  29.683  29.160  1.00  0.00     0.029 A 
ATOM     45  C   UNL A   1      38.728  30.674  29.484  1.00  0.00     0.049 A 
ATOM     46  H   UNL A   1      40.776  30.546  29.119  1.00  0.00     0.167 HD
ATOM     47  C   UNL A   1      45.094  29.977  28.738  1.00  0.00     0.034 A 
ATOM     48  C   UNL A   1      38.497  31.860  30.081  1.00  0.00     0.034 A 
ATOM     49  C   UNL A   1      44.928  31.331  29.193  1.00  0.00     0.049 A 
ATOM     50  C   UNL A   1      39.655  32.786  30.342  1.00  0.00     0.074 A 
ATOM     51  C   UNL A   1      45.901  32.295  29.396  1.00  0.00     0.029 A 
ATOM     52  N   UNL A   1      43.716  31.910  29.535  1.00  0.00    -0.354 N 
ATOM     53  N   UNL A   1      40.927  32.612  30.077  1.00  0.00    -0.248 NA
ATOM     54  C   UNL A   1      39.343  34.084  30.957  1.00  0.00     0.031 C 
ATOM     55  C   UNL A   1      45.281  33.443  29.897  1.00  0.00     0.029 A 
ATOM     56  C   UNL A   1      43.917  33.211  29.967  1.00  0.00     0.049 A 
ATOM     57  H   UNL A   1      42.841  31.464  29.477  1.00  0.00     0.167 HD
ATOM     58  C   UNL A   1      41.560  33.791  30.456  1.00  0.00     0.074 A 
ATOM     59  C   UNL A   1      40.529  34.679  30.950  1.00  0.00     0.031 C 
ATOM     60  C   UNL A   1      42.878  34.104  30.410  1.00  0.00     0.034 A 
BRANCH  47  61
ATOM     61  C   UNL A   1      46.497  29.475  28.508  1.00  0.00     0.023 A 
ATOM     62  C   UNL A   1      47.150  29.754  27.291  1.00  0.00     0.012 A 
ATOM     63  C   UNL A   1      47.192  28.789  29.523  1.00  0.00     0.148 A 
ATOM     64  C   UNL A   1      48.460  29.328  27.072  1.00  0.00     0.002 A 
ATOM     65  C   UNL A   1      48.513  28.409  29.317  1.00  0.00     0.091 A 
ATOM     66  F   UNL A   1      46.549  28.516  30.667  1.00  0.00    -0.205 F 
ATOM     67  C   UNL A   1      49.144  28.667  28.089  1.00  0.00     0.022 A 
BRANCH  65  68
ATOM     68  S   UNL A   1      49.508  27.628  30.592  1.00  0.00     0.127 S 
ATOM     69  O   UNL A   1      48.788  26.372  30.798  1.00  0.00    -0.237 OA
ATOM     70  O   UNL A   1      50.803  27.484  29.925  1.00  0.00    -0.237 OA
ATOM     71  O   UNL A   1      49.505  28.543  31.724  1.00  0.00    -0.744 OA
ENDBRANCH  65  68
ENDBRANCH  47  61
BRANCH  48  72
ATOM     72  C   UNL A   1      37.106  32.263  30.434  1.00  0.00     0.023 A 
ATOM     73  C   UNL A   1      36.622  32.021  31.735  1.00  0.00     0.012 A 
ATOM     74  C   UNL A   1      36.268  32.896  29.496  1.00  0.00     0.148 A 
ATOM     75  C   UNL A   1      35.315  32.366  32.083  1.00  0.00     0.002 A 
ATOM     76  C   UNL A   1      34.987  33.290  29.866  1.00  0.00     0.091 A 
ATOM     77  F   UNL A   1      36.743  33.108  28.261  1.00  0.00    -0.205 F 
ATOM     78  C   UNL A   1      34.502  33.009  31.153  1.00  0.00     0.022 A 
BRANCH  76  79
ATOM     79  S   UNL A   1      33.920  34.240  28.778  1.00  0.00     0.127 S 
ATOM     80  O   UNL A   1      33.536  33.238  27.787  1.00  0.00    -0.237 OA
ATOM     81  O   UNL A   1      32.849  34.648  29.689  1.00  0.00    -0.237 OA
ATOM     82  O   UNL A   1      34.738  35.339  28.286  1.00  0.00    -0.744 OA
ENDBRANCH  76  79
ENDBRANCH  48  72
BRANCH  60  83
ATOM     83  C   UNL A   1      43.289  35.480  30.865  1.00  0.00     0.023 A 
ATOM     84  C   UNL A   1      43.697  35.690  32.197  1.00  0.00     0.012 A 
ATOM     85  C   UNL A   1      43.348  36.548  29.947  1.00  0.00     0.148 A 
ATOM     86  C   UNL A   1      44.127  36.949  32.617  1.00  0.00     0.002 A 
ATOM     87  C   UNL A   1      43.828  37.785  30.359  1.00  0.00     0.091 A 
ATOM     88  F   UNL A   1      42.940  36.332  28.688  1.00  0.00    -0.205 F 
ATOM     89  C   UNL A   1      44.204  37.991  31.697  1.00  0.00     0.022 A 
BRANCH  87  90
ATOM     90  S   UNL A   1      44.057  39.158  29.224  1.00  0.00     0.127 S 
ATOM     91  O   UNL A   1      44.952  38.574  28.228  1.00  0.00    -0.237 OA
ATOM     92  O   UNL A   1      42.693  39.398  28.751  1.00  0.00    -0.237 OA
ATOM     93  O   UNL A   1      44.624  40.244  30.011  1.00  0.00    -0.744 OA
ENDBRANCH  87  90
ENDBRANCH  60  83
ENDBRANCH  34  35
ENDBRANCH  26  29
ENDBRANCH  24  25
ENDBRANCH  23  24
ENDBRANCH   1  23
TORSDOF 17
ENDMDL
MODEL 3
REMARK VINA RESULT:     -11.1      2.774      8.762
REMARK SMILES C[C@@H](C(=O)NCCCNC(=O)c1ccc(-c2c3nc(c(-c4cccc(S(=O)(=O)[O-])c4F)c4ccc([nH]4)c(-c4cccc(S(=O)(=O)[O-])c4F)c4nc(c(-c5cccc(S(=O)(=O)[O-])c5F)c5ccc2[nH]5)C=C4)C=C3)cc1)c1ccc(C[C@H]2CCC[C@@H]2O)cc1Br
REMARK SMILES IDX 6 1 5 2 3 3 4 4 2 6 1 7 75 8 76 9 87 10 77 11 86 12 88 13
REMARK SMILES IDX 78 14 79 15 80 16 81 17 84 18 82 19 83 20 85 21 7 23 8 24
REMARK SMILES IDX 9 25 10 26 11 28 12 29 13 30 74 31 14 32 73 33 15 34 16 35
REMARK SMILES IDX 17 36 67 37 18 38 72 39 66 40 68 41 19 42 71 43 65 44 64 45
REMARK SMILES IDX 20 47 52 48 32 49 51 50 33 51 36 52 50 53 69 54 34 55 35 56
REMARK SMILES IDX 49 58 70 59 37 60 21 61 22 62 30 63 23 64 25 65 31 66 24 67
REMARK SMILES IDX 26 68 27 69 28 70 29 71 53 72 54 73 62 74 55 75 57 76 63 77
REMARK SMILES IDX 56 78 58 79 59 80 60 81 61 82 38 83 39 84 47 85 40 86 42 87
REMARK SMILES IDX 48 88 41 89 43 90 44 91 45 92 46 93
REMARK H PARENT 5 5 85 22 9 27 68 46 36 57
REMARK Flexibility Score: inf
ROOT
ATOM      1  C   UNL A   1      35.755  23.634  23.780  1.00  0.00     0.117 C 
ENDROOT
BRANCH   1   2
ATOM      2  N   UNL A   1      35.337  24.349  24.969  1.00  0.00    -0.356 N 
ATOM      3  C   UNL A   1      34.113  24.822  25.338  1.00  0.00     0.227 C 
ATOM      4  O   UNL A   1      34.149  25.697  26.205  1.00  0.00    -0.274 OA
ATOM      5  H   UNL A   1      36.056  24.522  25.618  1.00  0.00     0.163 HD
BRANCH   3   6
ATOM      6  C   UNL A   1      32.826  24.286  24.670  1.00  0.00     0.106 C 
ATOM      7  C   UNL A   1      31.621  24.774  25.483  1.00  0.00     0.023 C 
BRANCH   6   8
ATOM      8  C   UNL A   1      32.722  22.765  24.450  1.00  0.00    -0.022 A 
ATOM      9  C   UNL A   1      32.642  21.863  25.527  1.00  0.00     0.006 A 
ATOM     10  C   UNL A   1      32.638  22.200  23.159  1.00  0.00     0.022 A 
ATOM     11  C   UNL A   1      32.490  20.486  25.342  1.00  0.00     0.004 A 
ATOM     12  C   UNL A   1      32.460  20.817  22.976  1.00  0.00     0.019 A 
ATOM     13  Br  UNL A   1      32.811  23.219  21.557  1.00  0.00    -0.051 Br
ATOM     14  C   UNL A   1      32.415  19.943  24.066  1.00  0.00    -0.047 A 
BRANCH  14  15
ATOM     15  C   UNL A   1      32.337  18.450  23.868  1.00  0.00     0.041 C 
BRANCH  15  16
ATOM     16  C   UNL A   1      33.148  17.609  24.870  1.00  0.00     0.022 C 
ATOM     17  C   UNL A   1      32.546  16.237  25.224  1.00  0.00     0.007 C 
ATOM     18  C   UNL A   1      34.597  17.309  24.468  1.00  0.00     0.117 C 
ATOM     19  C   UNL A   1      33.721  15.261  25.303  1.00  0.00     0.003 C 
ATOM     20  C   UNL A   1      34.965  16.129  25.355  1.00  0.00     0.032 C 
BRANCH  18  21
ATOM     21  O   UNL A   1      35.452  18.407  24.730  1.00  0.00    -0.393 OA
ATOM     22  H   UNL A   1      35.450  18.600  25.680  1.00  0.00     0.210 HD
ENDBRANCH  18  21
ENDBRANCH  15  16
ENDBRANCH  14  15
ENDBRANCH   6   8
ENDBRANCH   3   6
ENDBRANCH   1   2
BRANCH   1  23
ATOM     23  C   UNL A   1      36.113  22.182  24.096  1.00  0.00     0.042 C 
BRANCH  23  24
ATOM     24  C   UNL A   1      36.464  21.911  25.557  1.00  0.00     0.118 C 
BRANCH  24  25
ATOM     25  N   UNL A   1      37.499  20.901  25.709  1.00  0.00    -0.352 N 
ATOM     26  C   UNL A   1      38.831  21.054  26.003  1.00  0.00     0.251 C 
ATOM     27  H   UNL A   1      37.201  19.972  25.584  1.00  0.00     0.163 HD
ATOM     28  O   UNL A   1      39.589  20.088  25.896  1.00  0.00    -0.269 OA
BRANCH  26  29
ATOM     29  C   UNL A   1      39.366  22.369  26.423  1.00  0.00     0.039 A 
ATOM     30  C   UNL A   1      40.454  22.406  27.298  1.00  0.00     0.014 A 
ATOM     31  C   UNL A   1      38.792  23.560  25.971  1.00  0.00     0.014 A 
ATOM     32  C   UNL A   1      41.007  23.636  27.667  1.00  0.00     0.010 A 
ATOM     33  C   UNL A   1      39.393  24.780  26.277  1.00  0.00     0.010 A 
ATOM     34  C   UNL A   1      40.505  24.833  27.131  1.00  0.00    -0.014 A 
BRANCH  34  35
ATOM     35  C   UNL A   1      41.140  26.142  27.434  1.00  0.00     0.031 A 
ATOM     36  C   UNL A   1      42.551  26.426  26.990  1.00  0.00     0.074 A 
ATOM     37  C   UNL A   1      40.480  27.043  28.189  1.00  0.00     0.049 A 
ATOM     38  N   UNL A   1      43.290  27.481  27.219  1.00  0.00    -0.248 NA
ATOM     39  C   UNL A   1      43.229  25.381  26.206  1.00  0.00     0.031 C 
ATOM     40  C   UNL A   1      39.137  26.859  28.744  1.00  0.00     0.029 A 
ATOM     41  N   UNL A   1      40.859  28.282  28.648  1.00  0.00    -0.354 N 
ATOM     42  C   UNL A   1      44.528  27.212  26.646  1.00  0.00     0.074 A 
ATOM     43  C   UNL A   1      44.450  25.882  26.082  1.00  0.00     0.031 C 
ATOM     44  C   UNL A   1      38.806  27.941  29.466  1.00  0.00     0.029 A 
ATOM     45  C   UNL A   1      39.923  28.880  29.459  1.00  0.00     0.049 A 
ATOM     46  H   UNL A   1      41.719  28.701  28.418  1.00  0.00     0.167 HD
ATOM     47  C   UNL A   1      45.624  28.005  26.578  1.00  0.00     0.034 A 
ATOM     48  C   UNL A   1      39.963  30.044  30.138  1.00  0.00     0.034 A 
ATOM     49  C   UNL A   1      45.686  29.341  27.108  1.00  0.00     0.049 A 
ATOM     50  C   UNL A   1      41.185  30.916  30.022  1.00  0.00     0.074 A 
ATOM     51  C   UNL A   1      46.715  30.260  27.002  1.00  0.00     0.029 A 
ATOM     52  N   UNL A   1      44.689  29.943  27.859  1.00  0.00    -0.354 N 
ATOM     53  N   UNL A   1      42.283  30.713  29.336  1.00  0.00    -0.248 NA
ATOM     54  C   UNL A   1      41.161  32.194  30.750  1.00  0.00     0.031 C 
ATOM     55  C   UNL A   1      46.356  31.403  27.721  1.00  0.00     0.029 A 
ATOM     56  C   UNL A   1      45.086  31.214  28.241  1.00  0.00     0.049 A 
ATOM     57  H   UNL A   1      43.825  29.530  28.086  1.00  0.00     0.167 HD
ATOM     58  C   UNL A   1      43.062  31.850  29.518  1.00  0.00     0.074 A 
ATOM     59  C   UNL A   1      42.302  32.748  30.362  1.00  0.00     0.031 C 
ATOM     60  C   UNL A   1      44.301  32.120  29.039  1.00  0.00     0.034 A 
BRANCH  47  61
ATOM     61  C   UNL A   1      46.841  27.467  25.870  1.00  0.00     0.023 A 
ATOM     62  C   UNL A   1      47.692  26.559  26.530  1.00  0.00     0.012 A 
ATOM     63  C   UNL A   1      47.101  27.805  24.527  1.00  0.00     0.148 A 
ATOM     64  C   UNL A   1      48.803  26.023  25.879  1.00  0.00     0.002 A 
ATOM     65  C   UNL A   1      48.182  27.231  23.869  1.00  0.00     0.091 A 
ATOM     66  F   UNL A   1      46.291  28.685  23.920  1.00  0.00    -0.205 F 
ATOM     67  C   UNL A   1      49.040  26.350  24.548  1.00  0.00     0.022 A 
BRANCH  65  68
ATOM     68  S   UNL A   1      48.526  27.520  22.130  1.00  0.00     0.127 S 
ATOM     69  O   UNL A   1      49.600  28.510  22.204  1.00  0.00    -0.237 OA
ATOM     70  O   UNL A   1      48.950  26.196  21.677  1.00  0.00    -0.237 OA
ATOM     71  O   UNL A   1      47.279  27.994  21.546  1.00  0.00    -0.744 OA
ENDBRANCH  65  68
ENDBRANCH  47  61
BRANCH  48  72
ATOM     72  C   UNL A   1      38.793  30.476  30.954  1.00  0.00     0.023 A 
ATOM     73  C   UNL A   1      38.778  30.215  32.339  1.00  0.00     0.012 A 
ATOM     74  C   UNL A   1      37.706  31.156  30.372  1.00  0.00     0.148 A 
ATOM     75  C   UNL A   1      37.684  30.587  33.121  1.00  0.00     0.002 A 
ATOM     76  C   UNL A   1      36.646  31.576  31.167  1.00  0.00     0.091 A 
ATOM     77  F   UNL A   1      37.735  31.387  29.053  1.00  0.00    -0.205 F 
ATOM     78  C   UNL A   1      36.623  31.276  32.537  1.00  0.00     0.022 A 
BRANCH  76  79
ATOM     79  S   UNL A   1      35.304  32.584  30.527  1.00  0.00     0.127 S 
ATOM     80  O   UNL A   1      34.904  31.831  29.341  1.00  0.00    -0.237 OA
ATOM     81  O   UNL A   1      34.346  32.546  31.634  1.00  0.00    -0.237 OA
ATOM     82  O   UNL A   1      35.881  33.897  30.280  1.00  0.00    -0.744 OA
ENDBRANCH  76  79
ENDBRANCH  48  72
BRANCH  60  83
ATOM     83  C   UNL A   1      44.907  33.458  29.374  1.00  0.00     0.023 A 
ATOM     84  C   UNL A   1      45.667  33.613  30.550  1.00  0.00     0.012 A 
ATOM     85  C   UNL A   1      44.789  34.540  28.479  1.00  0.00     0.148 A 
ATOM     86  C   UNL A   1      46.275  34.834  30.845  1.00  0.00     0.002 A 
ATOM     87  C   UNL A   1      45.440  35.736  28.754  1.00  0.00     0.091 A 
ATOM     88  F   UNL A   1      44.047  34.377  27.374  1.00  0.00    -0.205 F 
ATOM     89  C   UNL A   1      46.172  35.890  29.942  1.00  0.00     0.022 A 
BRANCH  87  90
ATOM     90  S   UNL A   1      45.447  37.117  27.604  1.00  0.00     0.127 S 
ATOM     91  O   UNL A   1      46.074  36.520  26.426  1.00  0.00    -0.237 OA
ATOM     92  O   UNL A   1      44.020  37.402  27.456  1.00  0.00    -0.237 OA
ATOM     93  O   UNL A   1      46.213  38.175  28.248  1.00  0.00    -0.744 OA
ENDBRANCH  87  90
ENDBRANCH  60  83
ENDBRANCH  34  35
ENDBRANCH  26  29
ENDBRANCH  24  25
ENDBRANCH  23  24
ENDBRANCH   1  23
TORSDOF 17
ENDMDL
