MODEL 1
REMARK VINA RESULT:     -11.8      0.000      0.000
REMARK SMILES Cn1cc(/C=C/C(=O)N(CC(=O)NCCCNC(=O)c2ccc(-c3c4nc(c(-c5cccc(S(=O)(=O)[O-])c5F)c5ccc([nH]5)c(-c5cccc(S(=O)(=O)[O-])c5F)c5nc(c(-c6cccc(S(=O)(=O)[O-])c6F)c6ccc3[nH]6)C=C5)C=C4)cc2)C(C)(C)C)cn1
REMARK SMILES IDX 14 1 13 2 11 3 12 4 10 6 9 7 7 8 8 9 6 10 5 11 4 12 1 13
REMARK SMILES IDX 2 14 3 15 88 16 87 17 83 18 84 19 85 20 86 21 15 22 16 23
REMARK SMILES IDX 17 24 18 25 19 27 20 28 21 29 82 30 22 31 81 32 23 33 24 34
REMARK SMILES IDX 25 35 75 36 26 37 80 38 74 39 76 40 27 41 79 42 73 43 72 44
REMARK SMILES IDX 28 46 60 47 40 48 59 49 41 50 44 51 58 52 77 53 42 54 43 55
REMARK SMILES IDX 57 57 78 58 45 59 29 60 30 61 38 62 31 63 33 64 39 65 32 66
REMARK SMILES IDX 34 67 35 68 36 69 37 70 61 71 62 72 70 73 63 74 65 75 71 76
REMARK SMILES IDX 64 77 66 78 67 79 68 80 69 81 46 82 47 83 55 84 48 85 50 86
REMARK SMILES IDX 56 87 49 88 51 89 52 90 53 91 54 92
REMARK H PARENT 13 5 17 26 76 45 44 56
REMARK Flexibility Score: inf
ROOT
ATOM      1  C   UNL A   1      31.579  30.499  26.370  1.00  0.00     0.117 C 
ENDROOT
BRANCH   1   2
ATOM      2  N   UNL A   1      32.493  30.135  25.306  1.00  0.00    -0.354 N 
ATOM      3  C   UNL A   1      32.641  28.995  24.577  1.00  0.00     0.239 C 
ATOM      4  O   UNL A   1      33.253  29.115  23.507  1.00  0.00    -0.273 OA
ATOM      5  H   UNL A   1      33.129  30.847  25.066  1.00  0.00     0.163 HD
BRANCH   3   6
ATOM      6  C   UNL A   1      31.977  27.643  24.913  1.00  0.00     0.220 C 
BRANCH   6   7
ATOM      7  N   UNL A   1      31.145  27.001  23.892  1.00  0.00    -0.325 N 
BRANCH   7   8
ATOM      8  C   UNL A   1      29.833  27.375  23.591  1.00  0.00     0.247 C 
ATOM      9  O   UNL A   1      28.882  26.611  23.786  1.00  0.00    -0.270 OA
BRANCH   8  10
ATOM     10  C   UNL A   1      29.411  28.692  22.982  1.00  0.00     0.072 C 
ATOM     11  C   UNL A   1      29.504  29.966  23.395  1.00  0.00     0.017 C 
BRANCH  11  12
ATOM     12  C   UNL A   1      28.921  31.119  22.801  1.00  0.00     0.013 A 
ATOM     13  C   UNL A   1      27.556  32.935  20.016  1.00  0.00     0.173 C 
ATOM     14  N   UNL A   1      28.062  32.416  21.264  1.00  0.00    -0.275 N 
ATOM     15  C   UNL A   1      28.443  31.132  21.510  1.00  0.00     0.116 A 
ATOM     16  N   UNL A   1      28.235  33.238  22.316  1.00  0.00    -0.181 NA
ATOM     17  C   UNL A   1      28.772  32.444  23.252  1.00  0.00     0.143 A 
ENDBRANCH  11  12
ENDBRANCH   8  10
ENDBRANCH   7   8
BRANCH   7  18
ATOM     18  C   UNL A   1      31.802  25.891  23.066  1.00  0.00     0.035 C 
ATOM     19  C   UNL A   1      31.156  24.517  23.334  1.00  0.00     0.034 C 
ATOM     20  C   UNL A   1      31.722  26.218  21.554  1.00  0.00     0.034 C 
ATOM     21  C   UNL A   1      33.319  25.691  23.355  1.00  0.00     0.034 C 
ENDBRANCH   7  18
ENDBRANCH   6   7
ENDBRANCH   3   6
ENDBRANCH   1   2
BRANCH   1  22
ATOM     22  C   UNL A   1      31.462  31.985  26.653  1.00  0.00     0.042 C 
BRANCH  22  23
ATOM     23  C   UNL A   1      32.705  32.602  27.267  1.00  0.00     0.118 C 
BRANCH  23  24
ATOM     24  N   UNL A   1      32.514  34.009  27.593  1.00  0.00    -0.352 N 
ATOM     25  C   UNL A   1      33.105  34.764  28.577  1.00  0.00     0.251 C 
ATOM     26  H   UNL A   1      31.867  34.487  27.025  1.00  0.00     0.163 HD
ATOM     27  O   UNL A   1      32.659  35.879  28.832  1.00  0.00    -0.269 OA
BRANCH  25  28
ATOM     28  C   UNL A   1      34.265  34.236  29.330  1.00  0.00     0.039 A 
ATOM     29  C   UNL A   1      34.037  33.505  30.500  1.00  0.00     0.014 A 
ATOM     30  C   UNL A   1      35.573  34.478  28.904  1.00  0.00     0.014 A 
ATOM     31  C   UNL A   1      35.118  32.973  31.209  1.00  0.00     0.010 A 
ATOM     32  C   UNL A   1      36.643  33.882  29.567  1.00  0.00     0.010 A 
ATOM     33  C   UNL A   1      36.429  33.133  30.733  1.00  0.00    -0.014 A 
BRANCH  33  34
ATOM     34  C   UNL A   1      37.590  32.527  31.438  1.00  0.00     0.031 A 
ATOM     35  C   UNL A   1      38.350  31.389  30.808  1.00  0.00     0.074 A 
ATOM     36  C   UNL A   1      37.903  32.939  32.684  1.00  0.00     0.049 A 
ATOM     37  N   UNL A   1      39.346  30.695  31.296  1.00  0.00    -0.248 NA
ATOM     38  C   UNL A   1      37.921  30.953  29.468  1.00  0.00     0.031 C 
ATOM     39  C   UNL A   1      37.193  33.976  33.436  1.00  0.00     0.029 A 
ATOM     40  N   UNL A   1      38.880  32.513  33.550  1.00  0.00    -0.354 N 
ATOM     41  C   UNL A   1      39.629  29.715  30.351  1.00  0.00     0.074 A 
ATOM     42  C   UNL A   1      38.689  29.891  29.267  1.00  0.00     0.031 C 
ATOM     43  C   UNL A   1      37.757  34.105  34.650  1.00  0.00     0.029 A 
ATOM     44  C   UNL A   1      38.845  33.142  34.774  1.00  0.00     0.049 A 
ATOM     45  H   UNL A   1      39.542  31.824  33.318  1.00  0.00     0.167 HD
ATOM     46  C   UNL A   1      40.597  28.770  30.373  1.00  0.00     0.034 A 
ATOM     47  C   UNL A   1      39.598  32.955  35.876  1.00  0.00     0.034 A 
ATOM     48  C   UNL A   1      41.572  28.639  31.421  1.00  0.00     0.049 A 
ATOM     49  C   UNL A   1      40.703  31.932  35.844  1.00  0.00     0.074 A 
ATOM     50  C   UNL A   1      42.667  27.794  31.474  1.00  0.00     0.029 A 
ATOM     51  N   UNL A   1      41.568  29.362  32.602  1.00  0.00    -0.354 N 
ATOM     52  N   UNL A   1      41.071  31.145  34.863  1.00  0.00    -0.248 NA
ATOM     53  C   UNL A   1      41.519  31.796  37.060  1.00  0.00     0.031 C 
ATOM     54  C   UNL A   1      43.308  27.984  32.701  1.00  0.00     0.029 A 
ATOM     55  C   UNL A   1      42.630  28.971  33.398  1.00  0.00     0.049 A 
ATOM     56  H   UNL A   1      40.908  30.052  32.840  1.00  0.00     0.167 HD
ATOM     57  C   UNL A   1      42.186  30.455  35.326  1.00  0.00     0.074 A 
ATOM     58  C   UNL A   1      42.446  30.932  36.668  1.00  0.00     0.031 C 
ATOM     59  C   UNL A   1      42.920  29.501  34.704  1.00  0.00     0.034 A 
BRANCH  46  60
ATOM     60  C   UNL A   1      40.697  27.821  29.208  1.00  0.00     0.023 A 
ATOM     61  C   UNL A   1      39.837  26.707  29.138  1.00  0.00     0.012 A 
ATOM     62  C   UNL A   1      41.563  28.096  28.132  1.00  0.00     0.148 A 
ATOM     63  C   UNL A   1      39.850  25.870  28.023  1.00  0.00     0.002 A 
ATOM     64  C   UNL A   1      41.539  27.283  27.004  1.00  0.00     0.091 A 
ATOM     65  F   UNL A   1      42.385  29.151  28.227  1.00  0.00    -0.205 F 
ATOM     66  C   UNL A   1      40.690  26.165  26.952  1.00  0.00     0.022 A 
BRANCH  64  67
ATOM     67  S   UNL A   1      42.520  27.624  25.538  1.00  0.00     0.127 S 
ATOM     68  O   UNL A   1      43.873  27.656  26.090  1.00  0.00    -0.237 OA
ATOM     69  O   UNL A   1      42.230  26.460  24.700  1.00  0.00    -0.237 OA
ATOM     70  O   UNL A   1      42.035  28.892  25.013  1.00  0.00    -0.744 OA
ENDBRANCH  64  67
ENDBRANCH  46  60
BRANCH  47  71
ATOM     71  C   UNL A   1      39.377  33.787  37.095  1.00  0.00     0.023 A 
ATOM     72  C   UNL A   1      39.878  35.103  37.133  1.00  0.00     0.012 A 
ATOM     73  C   UNL A   1      38.691  33.282  38.216  1.00  0.00     0.148 A 
ATOM     74  C   UNL A   1      39.744  35.884  38.282  1.00  0.00     0.002 A 
ATOM     75  C   UNL A   1      38.512  34.084  39.336  1.00  0.00     0.091 A 
ATOM     76  F   UNL A   1      38.235  32.022  38.170  1.00  0.00    -0.205 F 
ATOM     77  C   UNL A   1      39.054  35.378  39.380  1.00  0.00     0.022 A 
BRANCH  75  78
ATOM     78  S   UNL A   1      37.527  33.555  40.742  1.00  0.00     0.127 S 
ATOM     79  O   UNL A   1      36.323  33.047  40.090  1.00  0.00    -0.237 OA
ATOM     80  O   UNL A   1      38.380  32.531  41.346  1.00  0.00    -0.237 OA
ATOM     81  O   UNL A   1      37.354  34.747  41.562  1.00  0.00    -0.744 OA
ENDBRANCH  75  78
ENDBRANCH  47  71
BRANCH  59  82
ATOM     82  C   UNL A   1      44.108  28.937  35.437  1.00  0.00     0.023 A 
ATOM     83  C   UNL A   1      45.373  29.544  35.300  1.00  0.00     0.012 A 
ATOM     84  C   UNL A   1      43.954  27.851  36.321  1.00  0.00     0.148 A 
ATOM     85  C   UNL A   1      46.471  29.058  36.008  1.00  0.00     0.002 A 
ATOM     86  C   UNL A   1      45.041  27.406  37.062  1.00  0.00     0.091 A 
ATOM     87  F   UNL A   1      42.746  27.276  36.423  1.00  0.00    -0.205 F 
ATOM     88  C   UNL A   1      46.303  27.999  36.897  1.00  0.00     0.022 A 
BRANCH  86  89
ATOM     89  S   UNL A   1      44.895  26.116  38.304  1.00  0.00     0.127 S 
ATOM     90  O   UNL A   1      44.166  26.806  39.367  1.00  0.00    -0.237 OA
ATOM     91  O   UNL A   1      44.121  25.094  37.599  1.00  0.00    -0.237 OA
ATOM     92  O   UNL A   1      46.257  25.720  38.634  1.00  0.00    -0.744 OA
ENDBRANCH  86  89
ENDBRANCH  59  82
ENDBRANCH  33  34
ENDBRANCH  25  28
ENDBRANCH  23  24
ENDBRANCH  22  23
ENDBRANCH   1  22
TORSDOF 18
ENDMDL
MODEL 2
REMARK VINA RESULT:     -11.4      1.484      1.816
REMARK SMILES Cn1cc(/C=C/C(=O)N(CC(=O)NCCCNC(=O)c2ccc(-c3c4nc(c(-c5cccc(S(=O)(=O)[O-])c5F)c5ccc([nH]5)c(-c5cccc(S(=O)(=O)[O-])c5F)c5nc(c(-c6cccc(S(=O)(=O)[O-])c6F)c6ccc3[nH]6)C=C5)C=C4)cc2)C(C)(C)C)cn1
REMARK SMILES IDX 14 1 13 2 11 3 12 4 10 6 9 7 7 8 8 9 6 10 5 11 4 12 1 13
REMARK SMILES IDX 2 14 3 15 88 16 87 17 83 18 84 19 85 20 86 21 15 22 16 23
REMARK SMILES IDX 17 24 18 25 19 27 20 28 21 29 82 30 22 31 81 32 23 33 24 34
REMARK SMILES IDX 25 35 75 36 26 37 80 38 74 39 76 40 27 41 79 42 73 43 72 44
REMARK SMILES IDX 28 46 60 47 40 48 59 49 41 50 44 51 58 52 77 53 42 54 43 55
REMARK SMILES IDX 57 57 78 58 45 59 29 60 30 61 38 62 31 63 33 64 39 65 32 66
REMARK SMILES IDX 34 67 35 68 36 69 37 70 61 71 62 72 70 73 63 74 65 75 71 76
REMARK SMILES IDX 64 77 66 78 67 79 68 80 69 81 46 82 47 83 55 84 48 85 50 86
REMARK SMILES IDX 56 87 49 88 51 89 52 90 53 91 54 92
REMARK H PARENT 13 5 17 26 76 45 44 56
REMARK Flexibility Score: inf
ROOT
ATOM      1  C   UNL A   1      31.408  30.381  25.989  1.00  0.00     0.117 C 
ENDROOT
BRANCH   1   2
ATOM      2  N   UNL A   1      32.436  30.073  25.014  1.00  0.00    -0.354 N 
ATOM      3  C   UNL A   1      32.824  28.905  24.432  1.00  0.00     0.239 C 
ATOM      4  O   UNL A   1      33.470  29.016  23.381  1.00  0.00    -0.273 OA
ATOM      5  H   UNL A   1      32.952  30.857  24.718  1.00  0.00     0.163 HD
BRANCH   3   6
ATOM      6  C   UNL A   1      32.385  27.501  24.898  1.00  0.00     0.220 C 
BRANCH   6   7
ATOM      7  N   UNL A   1      31.510  26.717  24.022  1.00  0.00    -0.325 N 
BRANCH   7   8
ATOM      8  C   UNL A   1      30.126  26.883  23.932  1.00  0.00     0.247 C 
ATOM      9  O   UNL A   1      29.347  25.954  24.167  1.00  0.00    -0.270 OA
BRANCH   8  10
ATOM     10  C   UNL A   1      29.418  28.154  23.522  1.00  0.00     0.072 C 
ATOM     11  C   UNL A   1      29.730  29.146  22.674  1.00  0.00     0.017 C 
BRANCH  11  12
ATOM     12  C   UNL A   1      29.050  30.381  22.491  1.00  0.00     0.013 A 
ATOM     13  C   UNL A   1      27.648  32.983  20.445  1.00  0.00     0.173 C 
ATOM     14  N   UNL A   1      28.136  32.080  21.459  1.00  0.00    -0.275 N 
ATOM     15  C   UNL A   1      28.653  30.837  21.253  1.00  0.00     0.116 A 
ATOM     16  N   UNL A   1      28.144  32.457  22.751  1.00  0.00    -0.181 NA
ATOM     17  C   UNL A   1      28.714  31.420  23.379  1.00  0.00     0.143 A 
ENDBRANCH  11  12
ENDBRANCH   8  10
ENDBRANCH   7   8
BRANCH   7  18
ATOM     18  C   UNL A   1      32.191  25.696  23.104  1.00  0.00     0.035 C 
ATOM     19  C   UNL A   1      32.089  26.101  21.620  1.00  0.00     0.034 C 
ATOM     20  C   UNL A   1      33.679  25.522  23.494  1.00  0.00     0.034 C 
ATOM     21  C   UNL A   1      31.584  24.264  23.179  1.00  0.00     0.034 C 
ENDBRANCH   7  18
ENDBRANCH   6   7
ENDBRANCH   3   6
ENDBRANCH   1   2
BRANCH   1  22
ATOM     22  C   UNL A   1      31.311  31.838  26.400  1.00  0.00     0.042 C 
BRANCH  22  23
ATOM     23  C   UNL A   1      32.621  32.442  26.871  1.00  0.00     0.118 C 
BRANCH  23  24
ATOM     24  N   UNL A   1      32.462  33.821  27.310  1.00  0.00    -0.352 N 
ATOM     25  C   UNL A   1      33.075  34.483  28.346  1.00  0.00     0.251 C 
ATOM     26  H   UNL A   1      31.821  34.356  26.788  1.00  0.00     0.163 HD
ATOM     27  O   UNL A   1      32.654  35.582  28.693  1.00  0.00    -0.269 OA
BRANCH  25  28
ATOM     28  C   UNL A   1      34.229  33.873  29.045  1.00  0.00     0.039 A 
ATOM     29  C   UNL A   1      34.028  32.712  29.797  1.00  0.00     0.014 A 
ATOM     30  C   UNL A   1      35.499  34.452  28.983  1.00  0.00     0.014 A 
ATOM     31  C   UNL A   1      35.110  32.105  30.441  1.00  0.00     0.010 A 
ATOM     32  C   UNL A   1      36.588  33.803  29.557  1.00  0.00     0.010 A 
ATOM     33  C   UNL A   1      36.406  32.629  30.303  1.00  0.00    -0.014 A 
BRANCH  33  34
ATOM     34  C   UNL A   1      37.581  31.968  30.929  1.00  0.00     0.031 A 
ATOM     35  C   UNL A   1      38.368  30.935  30.163  1.00  0.00     0.074 A 
ATOM     36  C   UNL A   1      37.886  32.229  32.216  1.00  0.00     0.049 A 
ATOM     37  N   UNL A   1      39.381  30.210  30.562  1.00  0.00    -0.248 NA
ATOM     38  C   UNL A   1      37.947  30.659  28.778  1.00  0.00     0.031 C 
ATOM     39  C   UNL A   1      37.153  33.147  33.091  1.00  0.00     0.029 A 
ATOM     40  N   UNL A   1      38.874  31.722  33.024  1.00  0.00    -0.354 N 
ATOM     41  C   UNL A   1      39.685  29.362  29.503  1.00  0.00     0.074 A 
ATOM     42  C   UNL A   1      38.740  29.649  28.448  1.00  0.00     0.031 C 
ATOM     43  C   UNL A   1      37.715  33.137  34.312  1.00  0.00     0.029 A 
ATOM     44  C   UNL A   1      38.826  32.192  34.317  1.00  0.00     0.049 A 
ATOM     45  H   UNL A   1      39.552  31.082  32.709  1.00  0.00     0.167 HD
ATOM     46  C   UNL A   1      40.676  28.445  29.409  1.00  0.00     0.034 A 
ATOM     47  C   UNL A   1      39.585  31.888  35.389  1.00  0.00     0.034 A 
ATOM     48  C   UNL A   1      41.655  28.208  30.435  1.00  0.00     0.049 A 
ATOM     49  C   UNL A   1      40.713  30.903  35.231  1.00  0.00     0.074 A 
ATOM     50  C   UNL A   1      42.769  27.389  30.383  1.00  0.00     0.029 A 
ATOM     51  N   UNL A   1      41.635  28.778  31.697  1.00  0.00    -0.354 N 
ATOM     52  N   UNL A   1      41.099  30.253  34.161  1.00  0.00    -0.248 NA
ATOM     53  C   UNL A   1      41.534  30.635  36.422  1.00  0.00     0.031 C 
ATOM     54  C   UNL A   1      43.407  27.440  31.626  1.00  0.00     0.029 A 
ATOM     55  C   UNL A   1      42.707  28.315  32.439  1.00  0.00     0.049 A 
ATOM     56  H   UNL A   1      40.959  29.417  32.017  1.00  0.00     0.167 HD
ATOM     57  C   UNL A   1      42.230  29.538  34.537  1.00  0.00     0.074 A 
ATOM     58  C   UNL A   1      42.481  29.850  35.928  1.00  0.00     0.031 C 
ATOM     59  C   UNL A   1      42.986  28.686  33.801  1.00  0.00     0.034 A 
BRANCH  46  60
ATOM     60  C   UNL A   1      40.796  27.651  28.135  1.00  0.00     0.023 A 
ATOM     61  C   UNL A   1      41.454  28.212  27.023  1.00  0.00     0.012 A 
ATOM     62  C   UNL A   1      40.358  26.313  28.079  1.00  0.00     0.148 A 
ATOM     63  C   UNL A   1      41.658  27.460  25.866  1.00  0.00     0.002 A 
ATOM     64  C   UNL A   1      40.604  25.556  26.940  1.00  0.00     0.091 A 
ATOM     65  F   UNL A   1      39.719  25.805  29.143  1.00  0.00    -0.205 F 
ATOM     66  C   UNL A   1      41.246  26.130  25.830  1.00  0.00     0.022 A 
BRANCH  64  67
ATOM     67  S   UNL A   1      40.190  23.812  26.823  1.00  0.00     0.127 S 
ATOM     68  O   UNL A   1      41.088  23.367  25.759  1.00  0.00    -0.237 OA
ATOM     69  O   UNL A   1      40.536  23.325  28.158  1.00  0.00    -0.237 OA
ATOM     70  O   UNL A   1      38.771  23.755  26.499  1.00  0.00    -0.744 OA
ENDBRANCH  64  67
ENDBRANCH  46  60
BRANCH  47  71
ATOM     71  C   UNL A   1      39.346  32.556  36.701  1.00  0.00     0.023 A 
ATOM     72  C   UNL A   1      40.087  33.705  37.037  1.00  0.00     0.012 A 
ATOM     73  C   UNL A   1      38.404  32.055  37.621  1.00  0.00     0.148 A 
ATOM     74  C   UNL A   1      39.933  34.314  38.283  1.00  0.00     0.002 A 
ATOM     75  C   UNL A   1      38.214  32.701  38.837  1.00  0.00     0.091 A 
ATOM     76  F   UNL A   1      37.717  30.952  37.293  1.00  0.00    -0.205 F 
ATOM     77  C   UNL A   1      38.991  33.818  39.179  1.00  0.00     0.022 A 
BRANCH  75  78
ATOM     78  S   UNL A   1      36.934  32.202  39.993  1.00  0.00     0.127 S 
ATOM     79  O   UNL A   1      37.396  30.876  40.398  1.00  0.00    -0.237 OA
ATOM     80  O   UNL A   1      37.036  33.231  41.028  1.00  0.00    -0.237 OA
ATOM     81  O   UNL A   1      35.692  32.240  39.233  1.00  0.00    -0.744 OA
ENDBRANCH  75  78
ENDBRANCH  47  71
BRANCH  59  82
ATOM     82  C   UNL A   1      44.188  28.064  34.460  1.00  0.00     0.023 A 
ATOM     83  C   UNL A   1      45.428  28.734  34.440  1.00  0.00     0.012 A 
ATOM     84  C   UNL A   1      44.069  26.849  35.166  1.00  0.00     0.148 A 
ATOM     85  C   UNL A   1      46.537  28.188  35.086  1.00  0.00     0.002 A 
ATOM     86  C   UNL A   1      45.165  26.339  35.849  1.00  0.00     0.091 A 
ATOM     87  F   UNL A   1      42.885  26.218  35.157  1.00  0.00    -0.205 F 
ATOM     88  C   UNL A   1      46.403  27.000  35.798  1.00  0.00     0.022 A 
BRANCH  86  89
ATOM     89  S   UNL A   1      45.058  24.869  36.876  1.00  0.00     0.127 S 
ATOM     90  O   UNL A   1      44.040  25.259  37.850  1.00  0.00    -0.237 OA
ATOM     91  O   UNL A   1      44.627  23.852  35.917  1.00  0.00    -0.237 OA
ATOM     92  O   UNL A   1      46.394  24.659  37.417  1.00  0.00    -0.744 OA
ENDBRANCH  86  89
ENDBRANCH  59  82
ENDBRANCH  33  34
ENDBRANCH  25  28
ENDBRANCH  23  24
ENDBRANCH  22  23
ENDBRANCH   1  22
TORSDOF 18
ENDMDL
MODEL 3
REMARK VINA RESULT:     -11.4      6.670     12.748
REMARK SMILES Cn1cc(/C=C/C(=O)N(CC(=O)NCCCNC(=O)c2ccc(-c3c4nc(c(-c5cccc(S(=O)(=O)[O-])c5F)c5ccc([nH]5)c(-c5cccc(S(=O)(=O)[O-])c5F)c5nc(c(-c6cccc(S(=O)(=O)[O-])c6F)c6ccc3[nH]6)C=C5)C=C4)cc2)C(C)(C)C)cn1
REMARK SMILES IDX 14 1 13 2 11 3 12 4 10 6 9 7 7 8 8 9 6 10 5 11 4 12 1 13
REMARK SMILES IDX 2 14 3 15 88 16 87 17 83 18 84 19 85 20 86 21 15 22 16 23
REMARK SMILES IDX 17 24 18 25 19 27 20 28 21 29 82 30 22 31 81 32 23 33 24 34
REMARK SMILES IDX 25 35 75 36 26 37 80 38 74 39 76 40 27 41 79 42 73 43 72 44
REMARK SMILES IDX 28 46 60 47 40 48 59 49 41 50 44 51 58 52 77 53 42 54 43 55
REMARK SMILES IDX 57 57 78 58 45 59 29 60 30 61 38 62 31 63 33 64 39 65 32 66
REMARK SMILES IDX 34 67 35 68 36 69 37 70 61 71 62 72 70 73 63 74 65 75 71 76
REMARK SMILES IDX 64 77 66 78 67 79 68 80 69 81 46 82 47 83 55 84 48 85 50 86
REMARK SMILES IDX 56 87 49 88 51 89 52 90 53 91 54 92
REMARK H PARENT 13 5 17 26 76 45 44 56
REMARK Flexibility Score: inf
ROOT
ATOM      1  C   UNL A   1      36.715  20.971  25.229  1.00  0.00     0.117 C 
ENDROOT
BRANCH   1   2
ATOM      2  N   UNL A   1      36.381  21.729  24.039  1.00  0.00    -0.354 N 
ATOM      3  C   UNL A   1      35.575  22.807  23.838  1.00  0.00     0.239 C 
ATOM      4  O   UNL A   1      35.780  23.446  22.798  1.00  0.00    -0.273 OA
ATOM      5  H   UNL A   1      36.821  21.402  23.221  1.00  0.00     0.163 HD
BRANCH   3   6
ATOM      6  C   UNL A   1      34.565  23.355  24.869  1.00  0.00     0.220 C 
BRANCH   6   7
ATOM      7  N   UNL A   1      33.214  22.787  24.893  1.00  0.00    -0.325 N 
BRANCH   7   8
ATOM      8  C   UNL A   1      32.686  21.960  23.898  1.00  0.00     0.247 C 
ATOM      9  O   UNL A   1      32.131  22.426  22.898  1.00  0.00    -0.270 OA
BRANCH   8  10
ATOM     10  C   UNL A   1      32.688  20.449  23.917  1.00  0.00     0.072 C 
ATOM     11  C   UNL A   1      33.287  19.542  24.705  1.00  0.00     0.017 C 
BRANCH  11  12
ATOM     12  C   UNL A   1      33.343  18.133  24.524  1.00  0.00     0.013 A 
ATOM     13  C   UNL A   1      32.696  14.752  25.557  1.00  0.00     0.173 C 
ATOM     14  N   UNL A   1      33.066  16.004  24.944  1.00  0.00    -0.275 N 
ATOM     15  C   UNL A   1      32.704  17.248  25.364  1.00  0.00     0.116 A 
ATOM     16  N   UNL A   1      33.877  16.015  23.869  1.00  0.00    -0.181 NA
ATOM     17  C   UNL A   1      34.054  17.320  23.621  1.00  0.00     0.143 A 
ENDBRANCH  11  12
ENDBRANCH   8  10
ENDBRANCH   7   8
BRANCH   7  18
ATOM     18  C   UNL A   1      32.366  23.080  26.134  1.00  0.00     0.035 C 
ATOM     19  C   UNL A   1      32.968  22.447  27.404  1.00  0.00     0.034 C 
ATOM     20  C   UNL A   1      32.211  24.607  26.338  1.00  0.00     0.034 C 
ATOM     21  C   UNL A   1      30.910  22.533  26.058  1.00  0.00     0.034 C 
ENDBRANCH   7  18
ENDBRANCH   6   7
ENDBRANCH   3   6
ENDBRANCH   1   2
BRANCH   1  22
ATOM     22  C   UNL A   1      37.897  20.029  25.095  1.00  0.00     0.042 C 
BRANCH  22  23
ATOM     23  C   UNL A   1      39.169  20.527  25.755  1.00  0.00     0.118 C 
BRANCH  23  24
ATOM     24  N   UNL A   1      40.139  19.459  25.950  1.00  0.00    -0.352 N 
ATOM     25  C   UNL A   1      41.498  19.538  26.143  1.00  0.00     0.251 C 
ATOM     26  H   UNL A   1      39.767  18.547  25.943  1.00  0.00     0.163 HD
ATOM     27  O   UNL A   1      42.177  18.519  26.075  1.00  0.00    -0.269 OA
BRANCH  25  28
ATOM     28  C   UNL A   1      42.138  20.844  26.419  1.00  0.00     0.039 A 
ATOM     29  C   UNL A   1      42.427  21.697  25.350  1.00  0.00     0.014 A 
ATOM     30  C   UNL A   1      42.477  21.220  27.722  1.00  0.00     0.014 A 
ATOM     31  C   UNL A   1      43.006  22.946  25.594  1.00  0.00     0.010 A 
ATOM     32  C   UNL A   1      42.979  22.495  27.970  1.00  0.00     0.010 A 
ATOM     33  C   UNL A   1      43.261  23.368  26.909  1.00  0.00    -0.014 A 
BRANCH  33  34
ATOM     34  C   UNL A   1      43.821  24.715  27.197  1.00  0.00     0.031 A 
ATOM     35  C   UNL A   1      42.929  25.811  27.720  1.00  0.00     0.074 A 
ATOM     36  C   UNL A   1      45.110  24.978  26.902  1.00  0.00     0.049 A 
ATOM     37  N   UNL A   1      43.222  27.062  27.970  1.00  0.00    -0.248 NA
ATOM     38  C   UNL A   1      41.517  25.469  27.970  1.00  0.00     0.031 C 
ATOM     39  C   UNL A   1      46.057  24.026  26.315  1.00  0.00     0.029 A 
ATOM     40  N   UNL A   1      45.840  26.135  27.026  1.00  0.00    -0.354 N 
ATOM     41  C   UNL A   1      42.030  27.664  28.356  1.00  0.00     0.074 A 
ATOM     42  C   UNL A   1      41.003  26.648  28.292  1.00  0.00     0.031 C 
ATOM     43  C   UNL A   1      47.239  24.637  26.129  1.00  0.00     0.029 A 
ATOM     44  C   UNL A   1      47.128  26.029  26.553  1.00  0.00     0.049 A 
ATOM     45  H   UNL A   1      45.476  26.962  27.415  1.00  0.00     0.167 HD
ATOM     46  C   UNL A   1      41.814  28.941  28.750  1.00  0.00     0.034 A 
ATOM     47  C   UNL A   1      48.107  26.951  26.461  1.00  0.00     0.034 A 
ATOM     48  C   UNL A   1      42.848  29.931  28.877  1.00  0.00     0.049 A 
ATOM     49  C   UNL A   1      47.846  28.347  26.962  1.00  0.00     0.074 A 
ATOM     50  C   UNL A   1      42.749  31.214  29.386  1.00  0.00     0.029 A 
ATOM     51  N   UNL A   1      44.165  29.757  28.484  1.00  0.00    -0.354 N 
ATOM     52  N   UNL A   1      46.760  28.842  27.501  1.00  0.00    -0.248 NA
ATOM     53  C   UNL A   1      48.960  29.304  26.874  1.00  0.00     0.031 C 
ATOM     54  C   UNL A   1      44.000  31.827  29.273  1.00  0.00     0.029 A 
ATOM     55  C   UNL A   1      44.884  30.914  28.723  1.00  0.00     0.049 A 
ATOM     56  H   UNL A   1      44.534  28.932  28.094  1.00  0.00     0.167 HD
ATOM     57  C   UNL A   1      47.071  30.150  27.856  1.00  0.00     0.074 A 
ATOM     58  C   UNL A   1      48.456  30.364  27.491  1.00  0.00     0.031 C 
ATOM     59  C   UNL A   1      46.279  31.094  28.419  1.00  0.00     0.034 A 
BRANCH  46  60
ATOM     60  C   UNL A   1      40.414  29.345  29.128  1.00  0.00     0.023 A 
ATOM     61  C   UNL A   1      39.498  29.715  28.123  1.00  0.00     0.012 A 
ATOM     62  C   UNL A   1      39.975  29.250  30.463  1.00  0.00     0.148 A 
ATOM     63  C   UNL A   1      38.172  30.003  28.443  1.00  0.00     0.002 A 
ATOM     64  C   UNL A   1      38.641  29.494  30.769  1.00  0.00     0.091 A 
ATOM     65  F   UNL A   1      40.867  28.912  31.406  1.00  0.00    -0.205 F 
ATOM     66  C   UNL A   1      37.741  29.879  29.761  1.00  0.00     0.022 A 
BRANCH  64  67
ATOM     67  S   UNL A   1      37.966  29.282  32.420  1.00  0.00     0.127 S 
ATOM     68  O   UNL A   1      38.456  27.949  32.769  1.00  0.00    -0.237 OA
ATOM     69  O   UNL A   1      38.602  30.376  33.153  1.00  0.00    -0.237 OA
ATOM     70  O   UNL A   1      36.520  29.394  32.283  1.00  0.00    -0.744 OA
ENDBRANCH  64  67
ENDBRANCH  46  60
BRANCH  47  71
ATOM     71  C   UNL A   1      49.448  26.582  25.922  1.00  0.00     0.023 A 
ATOM     72  C   UNL A   1      50.323  25.811  26.711  1.00  0.00     0.012 A 
ATOM     73  C   UNL A   1      49.866  27.000  24.644  1.00  0.00     0.148 A 
ATOM     74  C   UNL A   1      51.608  25.505  26.261  1.00  0.00     0.002 A 
ATOM     75  C   UNL A   1      51.127  26.643  24.178  1.00  0.00     0.091 A 
ATOM     76  F   UNL A   1      49.028  27.746  23.911  1.00  0.00    -0.205 F 
ATOM     77  C   UNL A   1      52.007  25.913  24.991  1.00  0.00     0.022 A 
BRANCH  75  78
ATOM     78  S   UNL A   1      51.669  27.020  22.508  1.00  0.00     0.127 S 
ATOM     79  O   UNL A   1      50.515  26.602  21.716  1.00  0.00    -0.237 OA
ATOM     80  O   UNL A   1      51.880  28.467  22.573  1.00  0.00    -0.237 OA
ATOM     81  O   UNL A   1      52.889  26.247  22.315  1.00  0.00    -0.744 OA
ENDBRANCH  75  78
ENDBRANCH  47  71
BRANCH  59  82
ATOM     82  C   UNL A   1      46.892  32.434  28.728  1.00  0.00     0.023 A 
ATOM     83  C   UNL A   1      47.484  32.665  29.986  1.00  0.00     0.012 A 
ATOM     84  C   UNL A   1      46.950  33.439  27.742  1.00  0.00     0.148 A 
ATOM     85  C   UNL A   1      48.094  33.886  30.268  1.00  0.00     0.002 A 
ATOM     86  C   UNL A   1      47.605  34.634  28.012  1.00  0.00     0.091 A 
ATOM     87  F   UNL A   1      46.364  33.206  26.557  1.00  0.00    -0.205 F 
ATOM     88  C   UNL A   1      48.165  34.864  29.279  1.00  0.00     0.022 A 
BRANCH  86  89
ATOM     89  S   UNL A   1      47.833  35.908  26.767  1.00  0.00     0.127 S 
ATOM     90  O   UNL A   1      48.072  35.111  25.565  1.00  0.00    -0.237 OA
ATOM     91  O   UNL A   1      46.545  36.602  26.794  1.00  0.00    -0.237 OA
ATOM     92  O   UNL A   1      48.961  36.712  27.218  1.00  0.00    -0.744 OA
ENDBRANCH  86  89
ENDBRANCH  59  82
ENDBRANCH  33  34
ENDBRANCH  25  28
ENDBRANCH  23  24
ENDBRANCH  22  23
ENDBRANCH   1  22
TORSDOF 18
ENDMDL
