MODEL 1
REMARK VINA RESULT:     -10.5      0.000      0.000
REMARK SMILES CC[C@](C)(C(=O)NCCCNC(=O)c1ccc(-c2c3nc(c(-c4cccc(S(=O)(=O)[O-])c4F)c4ccc([nH]4)c(-c4cccc(S(=O)(=O)[O-])c4F)c4nc(c(-c5cccc(S(=O)(=O)[O-])c5F)c5ccc2[nH]5)C=C4)C=C3)cc1)[C@@H]1CCC[C@@H]1O
REMARK SMILES IDX 9 1 8 2 7 3 5 4 6 5 3 7 4 8 2 9 1 10 77 11 78 12 81 13 79 14
REMARK SMILES IDX 80 15 82 16 10 18 11 19 12 20 13 22 14 23 15 24 76 25 16 26
REMARK SMILES IDX 75 27 17 28 18 29 19 30 69 31 20 32 74 33 68 34 70 35 21 36
REMARK SMILES IDX 73 37 67 38 66 39 22 41 54 42 34 43 53 44 35 45 38 46 52 47
REMARK SMILES IDX 71 48 36 49 37 50 51 52 72 53 39 54 23 55 24 56 32 57 25 58
REMARK SMILES IDX 27 59 33 60 26 61 28 62 29 63 30 64 31 65 55 66 56 67 64 68
REMARK SMILES IDX 57 69 59 70 65 71 58 72 60 73 61 74 62 75 63 76 40 77 41 78
REMARK SMILES IDX 49 79 42 80 44 81 50 82 43 83 45 84 46 85 47 86 48 87
REMARK H PARENT 7 6 82 17 11 21 70 40 38 51
REMARK Flexibility Score: inf
ROOT
ATOM      1  C   UNL A   1      34.058  28.140  25.996  1.00  0.00     0.042 C 
ENDROOT
BRANCH   1   2
ATOM      2  C   UNL A   1      33.681  26.723  25.584  1.00  0.00     0.117 C 
BRANCH   2   3
ATOM      3  N   UNL A   1      34.038  26.394  24.212  1.00  0.00    -0.356 N 
ATOM      4  C   UNL A   1      33.290  26.235  23.083  1.00  0.00     0.226 C 
ATOM      5  O   UNL A   1      33.924  26.151  22.022  1.00  0.00    -0.274 OA
ATOM      6  H   UNL A   1      35.003  26.262  24.073  1.00  0.00     0.163 HD
BRANCH   4   7
ATOM      7  C   UNL A   1      31.738  26.194  23.096  1.00  0.00     0.051 C 
ATOM      8  C   UNL A   1      31.218  26.039  21.649  1.00  0.00     0.022 C 
BRANCH   7   9
ATOM      9  C   UNL A   1      31.313  24.949  23.953  1.00  0.00     0.013 C 
ATOM     10  C   UNL A   1      30.683  23.771  23.214  1.00  0.00     0.005 C 
ENDBRANCH   7   9
BRANCH   7  11
ATOM     11  C   UNL A   1      31.178  27.540  23.719  1.00  0.00     0.033 C 
ATOM     12  C   UNL A   1      29.636  27.610  23.787  1.00  0.00     0.007 C 
ATOM     13  C   UNL A   1      31.546  28.893  23.070  1.00  0.00     0.118 C 
ATOM     14  C   UNL A   1      29.168  28.669  22.786  1.00  0.00     0.003 C 
ATOM     15  C   UNL A   1      30.413  29.215  22.113  1.00  0.00     0.032 C 
BRANCH  13  16
ATOM     16  O   UNL A   1      32.780  28.935  22.391  1.00  0.00    -0.393 OA
ATOM     17  H   UNL A   1      32.875  29.792  21.948  1.00  0.00     0.210 HD
ENDBRANCH  13  16
ENDBRANCH   7  11
ENDBRANCH   4   7
ENDBRANCH   2   3
ENDBRANCH   1   2
BRANCH   1  18
ATOM     18  C   UNL A   1      33.404  28.625  27.285  1.00  0.00     0.118 C 
BRANCH  18  19
ATOM     19  N   UNL A   1      33.477  30.072  27.446  1.00  0.00    -0.352 N 
ATOM     20  C   UNL A   1      34.426  30.868  28.034  1.00  0.00     0.251 C 
ATOM     21  H   UNL A   1      32.711  30.562  27.068  1.00  0.00     0.163 HD
ATOM     22  O   UNL A   1      34.168  32.058  28.214  1.00  0.00    -0.269 OA
BRANCH  20  23
ATOM     23  C   UNL A   1      35.737  30.327  28.459  1.00  0.00     0.039 A 
ATOM     24  C   UNL A   1      36.815  30.421  27.574  1.00  0.00     0.014 A 
ATOM     25  C   UNL A   1      35.907  29.683  29.688  1.00  0.00     0.014 A 
ATOM     26  C   UNL A   1      38.066  29.918  27.940  1.00  0.00     0.010 A 
ATOM     27  C   UNL A   1      37.174  29.260  30.087  1.00  0.00     0.010 A 
ATOM     28  C   UNL A   1      38.266  29.360  29.214  1.00  0.00    -0.014 A 
BRANCH  28  29
ATOM     29  C   UNL A   1      39.614  28.901  29.636  1.00  0.00     0.031 A 
ATOM     30  C   UNL A   1      40.364  29.604  30.737  1.00  0.00     0.074 A 
ATOM     31  C   UNL A   1      40.192  27.872  28.984  1.00  0.00     0.049 A 
ATOM     32  N   UNL A   1      41.532  29.313  31.253  1.00  0.00    -0.248 NA
ATOM     33  C   UNL A   1      39.739  30.803  31.318  1.00  0.00     0.031 C 
ATOM     34  C   UNL A   1      39.615  27.171  27.834  1.00  0.00     0.029 A 
ATOM     35  N   UNL A   1      41.396  27.244  29.183  1.00  0.00    -0.354 N 
ATOM     36  C   UNL A   1      41.792  30.302  32.194  1.00  0.00     0.074 A 
ATOM     37  C   UNL A   1      40.680  31.226  32.150  1.00  0.00     0.031 C 
ATOM     38  C   UNL A   1      40.454  26.200  27.444  1.00  0.00     0.029 A 
ATOM     39  C   UNL A   1      41.637  26.219  28.298  1.00  0.00     0.049 A 
ATOM     40  H   UNL A   1      42.028  27.503  29.892  1.00  0.00     0.167 HD
ATOM     41  C   UNL A   1      42.842  30.414  33.043  1.00  0.00     0.034 A 
ATOM     42  C   UNL A   1      42.686  25.381  28.192  1.00  0.00     0.034 A 
ATOM     43  C   UNL A   1      43.926  29.471  33.113  1.00  0.00     0.049 A 
ATOM     44  C   UNL A   1      43.806  25.486  29.190  1.00  0.00     0.074 A 
ATOM     45  C   UNL A   1      44.989  29.444  33.999  1.00  0.00     0.029 A 
ATOM     46  N   UNL A   1      44.093  28.392  32.258  1.00  0.00    -0.354 N 
ATOM     47  N   UNL A   1      43.945  26.320  30.192  1.00  0.00    -0.248 NA
ATOM     48  C   UNL A   1      44.895  24.506  29.070  1.00  0.00     0.031 C 
ATOM     49  C   UNL A   1      45.809  28.359  33.668  1.00  0.00     0.029 A 
ATOM     50  C   UNL A   1      45.244  27.697  32.590  1.00  0.00     0.049 A 
ATOM     51  H   UNL A   1      43.482  28.154  31.524  1.00  0.00     0.167 HD
ATOM     52  C   UNL A   1      45.118  25.949  30.838  1.00  0.00     0.074 A 
ATOM     53  C   UNL A   1      45.633  24.793  30.133  1.00  0.00     0.031 C 
ATOM     54  C   UNL A   1      45.725  26.523  31.906  1.00  0.00     0.034 A 
BRANCH  41  55
ATOM     55  C   UNL A   1      42.838  31.568  34.014  1.00  0.00     0.023 A 
ATOM     56  C   UNL A   1      43.379  32.808  33.616  1.00  0.00     0.012 A 
ATOM     57  C   UNL A   1      42.250  31.450  35.288  1.00  0.00     0.148 A 
ATOM     58  C   UNL A   1      43.368  33.902  34.482  1.00  0.00     0.002 A 
ATOM     59  C   UNL A   1      42.202  32.557  36.130  1.00  0.00     0.091 A 
ATOM     60  F   UNL A   1      41.759  30.259  35.659  1.00  0.00    -0.205 F 
ATOM     61  C   UNL A   1      42.771  33.778  35.734  1.00  0.00     0.022 A 
BRANCH  59  62
ATOM     62  S   UNL A   1      41.386  32.525  37.730  1.00  0.00     0.127 S 
ATOM     63  O   UNL A   1      41.480  33.927  38.137  1.00  0.00    -0.237 OA
ATOM     64  O   UNL A   1      40.036  32.084  37.378  1.00  0.00    -0.237 OA
ATOM     65  O   UNL A   1      42.139  31.585  38.547  1.00  0.00    -0.744 OA
ENDBRANCH  59  62
ENDBRANCH  41  55
BRANCH  42  66
ATOM     66  C   UNL A   1      42.682  24.315  27.152  1.00  0.00     0.023 A 
ATOM     67  C   UNL A   1      43.366  24.530  25.939  1.00  0.00     0.012 A 
ATOM     68  C   UNL A   1      42.042  23.080  27.369  1.00  0.00     0.148 A 
ATOM     69  C   UNL A   1      43.383  23.547  24.947  1.00  0.00     0.002 A 
ATOM     70  C   UNL A   1      42.112  22.085  26.401  1.00  0.00     0.091 A 
ATOM     71  F   UNL A   1      41.387  22.899  28.525  1.00  0.00    -0.205 F 
ATOM     72  C   UNL A   1      42.766  22.322  25.182  1.00  0.00     0.022 A 
BRANCH  70  73
ATOM     73  S   UNL A   1      41.466  20.431  26.679  1.00  0.00     0.127 S 
ATOM     74  O   UNL A   1      41.861  19.746  25.449  1.00  0.00    -0.237 OA
ATOM     75  O   UNL A   1      42.202  20.016  27.876  1.00  0.00    -0.237 OA
ATOM     76  O   UNL A   1      40.037  20.597  26.885  1.00  0.00    -0.744 OA
ENDBRANCH  70  73
ENDBRANCH  42  66
BRANCH  54  77
ATOM     77  C   UNL A   1      47.009  25.900  32.390  1.00  0.00     0.023 A 
ATOM     78  C   UNL A   1      48.238  26.313  31.838  1.00  0.00     0.012 A 
ATOM     79  C   UNL A   1      47.004  24.941  33.423  1.00  0.00     0.148 A 
ATOM     80  C   UNL A   1      49.436  25.750  32.273  1.00  0.00     0.002 A 
ATOM     81  C   UNL A   1      48.206  24.421  33.885  1.00  0.00     0.091 A 
ATOM     82  F   UNL A   1      45.824  24.545  33.923  1.00  0.00    -0.205 F 
ATOM     83  C   UNL A   1      49.422  24.813  33.302  1.00  0.00     0.022 A 
BRANCH  81  84
ATOM     84  S   UNL A   1      48.286  23.281  35.271  1.00  0.00     0.127 S 
ATOM     85  O   UNL A   1      49.728  23.093  35.422  1.00  0.00    -0.237 OA
ATOM     86  O   UNL A   1      47.655  24.048  36.346  1.00  0.00    -0.237 OA
ATOM     87  O   UNL A   1      47.538  22.101  34.857  1.00  0.00    -0.744 OA
ENDBRANCH  81  84
ENDBRANCH  54  77
ENDBRANCH  28  29
ENDBRANCH  20  23
ENDBRANCH  18  19
ENDBRANCH   1  18
TORSDOF 16
ENDMDL
MODEL 2
REMARK VINA RESULT:     -10.5      2.144      3.196
REMARK SMILES CC[C@](C)(C(=O)NCCCNC(=O)c1ccc(-c2c3nc(c(-c4cccc(S(=O)(=O)[O-])c4F)c4ccc([nH]4)c(-c4cccc(S(=O)(=O)[O-])c4F)c4nc(c(-c5cccc(S(=O)(=O)[O-])c5F)c5ccc2[nH]5)C=C4)C=C3)cc1)[C@@H]1CCC[C@@H]1O
REMARK SMILES IDX 9 1 8 2 7 3 5 4 6 5 3 7 4 8 2 9 1 10 77 11 78 12 81 13 79 14
REMARK SMILES IDX 80 15 82 16 10 18 11 19 12 20 13 22 14 23 15 24 76 25 16 26
REMARK SMILES IDX 75 27 17 28 18 29 19 30 69 31 20 32 74 33 68 34 70 35 21 36
REMARK SMILES IDX 73 37 67 38 66 39 22 41 54 42 34 43 53 44 35 45 38 46 52 47
REMARK SMILES IDX 71 48 36 49 37 50 51 52 72 53 39 54 23 55 24 56 32 57 25 58
REMARK SMILES IDX 27 59 33 60 26 61 28 62 29 63 30 64 31 65 55 66 56 67 64 68
REMARK SMILES IDX 57 69 59 70 65 71 58 72 60 73 61 74 62 75 63 76 40 77 41 78
REMARK SMILES IDX 49 79 42 80 44 81 50 82 43 83 45 84 46 85 47 86 48 87
REMARK H PARENT 7 6 82 17 11 21 70 40 38 51
REMARK Flexibility Score: inf
ROOT
ATOM      1  C   UNL A   1      32.119  27.671  27.045  1.00  0.00     0.042 C 
ENDROOT
BRANCH   1   2
ATOM      2  C   UNL A   1      31.778  26.533  26.091  1.00  0.00     0.117 C 
BRANCH   2   3
ATOM      3  N   UNL A   1      31.329  25.320  26.758  1.00  0.00    -0.356 N 
ATOM      4  C   UNL A   1      31.811  24.045  26.766  1.00  0.00     0.226 C 
ATOM      5  O   UNL A   1      31.309  23.281  27.602  1.00  0.00    -0.274 OA
ATOM      6  H   UNL A   1      30.524  25.445  27.310  1.00  0.00     0.163 HD
BRANCH   4   7
ATOM      7  C   UNL A   1      32.943  23.564  25.817  1.00  0.00     0.051 C 
ATOM      8  C   UNL A   1      32.369  23.360  24.397  1.00  0.00     0.022 C 
BRANCH   7   9
ATOM      9  C   UNL A   1      34.039  24.689  25.795  1.00  0.00     0.013 C 
ATOM     10  C   UNL A   1      34.506  25.185  24.429  1.00  0.00     0.005 C 
ENDBRANCH   7   9
BRANCH   7  11
ATOM     11  C   UNL A   1      33.535  22.195  26.352  1.00  0.00     0.033 C 
ATOM     12  C   UNL A   1      35.032  21.986  26.028  1.00  0.00     0.007 C 
ATOM     13  C   UNL A   1      32.906  20.860  25.893  1.00  0.00     0.118 C 
ATOM     14  C   UNL A   1      35.140  20.856  25.002  1.00  0.00     0.003 C 
ATOM     15  C   UNL A   1      33.723  20.404  24.699  1.00  0.00     0.032 C 
BRANCH  13  16
ATOM     16  O   UNL A   1      31.539  20.908  25.554  1.00  0.00    -0.393 OA
ATOM     17  H   UNL A   1      31.378  20.345  24.781  1.00  0.00     0.210 HD
ENDBRANCH  13  16
ENDBRANCH   7  11
ENDBRANCH   4   7
ENDBRANCH   2   3
ENDBRANCH   1   2
BRANCH   1  18
ATOM     18  C   UNL A   1      33.490  28.299  26.824  1.00  0.00     0.118 C 
BRANCH  18  19
ATOM     19  N   UNL A   1      33.471  29.752  26.932  1.00  0.00    -0.352 N 
ATOM     20  C   UNL A   1      34.334  30.623  27.546  1.00  0.00     0.251 C 
ATOM     21  H   UNL A   1      32.704  30.182  26.488  1.00  0.00     0.163 HD
ATOM     22  O   UNL A   1      33.998  31.801  27.662  1.00  0.00    -0.269 OA
BRANCH  20  23
ATOM     23  C   UNL A   1      35.643  30.176  28.072  1.00  0.00     0.039 A 
ATOM     24  C   UNL A   1      35.708  29.711  29.390  1.00  0.00     0.014 A 
ATOM     25  C   UNL A   1      36.813  30.260  27.312  1.00  0.00     0.014 A 
ATOM     26  C   UNL A   1      36.928  29.286  29.921  1.00  0.00     0.010 A 
ATOM     27  C   UNL A   1      38.012  29.755  27.814  1.00  0.00     0.010 A 
ATOM     28  C   UNL A   1      38.088  29.273  29.127  1.00  0.00    -0.014 A 
BRANCH  28  29
ATOM     29  C   UNL A   1      39.367  28.743  29.665  1.00  0.00     0.031 A 
ATOM     30  C   UNL A   1      40.004  29.347  30.889  1.00  0.00     0.074 A 
ATOM     31  C   UNL A   1      39.990  27.743  29.011  1.00  0.00     0.049 A 
ATOM     32  N   UNL A   1      41.097  28.985  31.511  1.00  0.00    -0.248 NA
ATOM     33  C   UNL A   1      39.346  30.525  31.479  1.00  0.00     0.031 C 
ATOM     34  C   UNL A   1      39.531  27.139  27.758  1.00  0.00     0.029 A 
ATOM     35  N   UNL A   1      41.148  27.064  29.300  1.00  0.00    -0.354 N 
ATOM     36  C   UNL A   1      41.273  29.900  32.542  1.00  0.00     0.074 A 
ATOM     37  C   UNL A   1      40.196  30.860  32.439  1.00  0.00     0.031 C 
ATOM     38  C   UNL A   1      40.385  26.169  27.397  1.00  0.00     0.029 A 
ATOM     39  C   UNL A   1      41.462  26.093  28.378  1.00  0.00     0.049 A 
ATOM     40  H   UNL A   1      41.701  27.255  30.091  1.00  0.00     0.167 HD
ATOM     41  C   UNL A   1      42.221  29.921  33.510  1.00  0.00     0.034 A 
ATOM     42  C   UNL A   1      42.496  25.230  28.332  1.00  0.00     0.034 A 
ATOM     43  C   UNL A   1      43.267  28.940  33.635  1.00  0.00     0.049 A 
ATOM     44  C   UNL A   1      43.497  25.232  29.454  1.00  0.00     0.074 A 
ATOM     45  C   UNL A   1      44.220  28.820  34.631  1.00  0.00     0.029 A 
ATOM     46  N   UNL A   1      43.503  27.916  32.731  1.00  0.00    -0.354 N 
ATOM     47  N   UNL A   1      43.541  25.992  30.521  1.00  0.00    -0.248 NA
ATOM     48  C   UNL A   1      44.568  24.227  29.388  1.00  0.00     0.031 C 
ATOM     49  C   UNL A   1      45.046  27.733  34.319  1.00  0.00     0.029 A 
ATOM     50  C   UNL A   1      44.591  27.163  33.141  1.00  0.00     0.049 A 
ATOM     51  H   UNL A   1      42.975  27.748  31.917  1.00  0.00     0.167 HD
ATOM     52  C   UNL A   1      44.623  25.541  31.267  1.00  0.00     0.074 A 
ATOM     53  C   UNL A   1      45.187  24.419  30.545  1.00  0.00     0.031 C 
ATOM     54  C   UNL A   1      45.118  26.022  32.434  1.00  0.00     0.034 A 
BRANCH  41  55
ATOM     55  C   UNL A   1      42.134  31.007  34.553  1.00  0.00     0.023 A 
ATOM     56  C   UNL A   1      41.379  30.784  35.722  1.00  0.00     0.012 A 
ATOM     57  C   UNL A   1      42.842  32.216  34.409  1.00  0.00     0.148 A 
ATOM     58  C   UNL A   1      41.300  31.760  36.716  1.00  0.00     0.002 A 
ATOM     59  C   UNL A   1      42.794  33.167  35.424  1.00  0.00     0.091 A 
ATOM     60  F   UNL A   1      43.538  32.421  33.282  1.00  0.00    -0.205 F 
ATOM     61  C   UNL A   1      42.014  32.945  36.571  1.00  0.00     0.022 A 
BRANCH  59  62
ATOM     62  S   UNL A   1      43.742  34.692  35.371  1.00  0.00     0.127 S 
ATOM     63  O   UNL A   1      45.109  34.185  35.257  1.00  0.00    -0.237 OA
ATOM     64  O   UNL A   1      43.228  35.332  34.160  1.00  0.00    -0.237 OA
ATOM     65  O   UNL A   1      43.438  35.397  36.607  1.00  0.00    -0.744 OA
ENDBRANCH  59  62
ENDBRANCH  41  55
BRANCH  42  66
ATOM     66  C   UNL A   1      42.585  24.236  27.225  1.00  0.00     0.023 A 
ATOM     67  C   UNL A   1      43.321  24.555  26.068  1.00  0.00     0.012 A 
ATOM     68  C   UNL A   1      41.980  22.969  27.327  1.00  0.00     0.148 A 
ATOM     69  C   UNL A   1      43.425  23.642  25.017  1.00  0.00     0.002 A 
ATOM     70  C   UNL A   1      42.135  22.044  26.302  1.00  0.00     0.091 A 
ATOM     71  F   UNL A   1      41.273  22.690  28.432  1.00  0.00    -0.205 F 
ATOM     72  C   UNL A   1      42.842  22.384  25.138  1.00  0.00     0.022 A 
BRANCH  70  73
ATOM     73  S   UNL A   1      41.537  20.355  26.437  1.00  0.00     0.127 S 
ATOM     74  O   UNL A   1      41.986  19.986  27.779  1.00  0.00    -0.237 OA
ATOM     75  O   UNL A   1      40.090  20.535  26.301  1.00  0.00    -0.237 OA
ATOM     76  O   UNL A   1      42.154  19.631  25.338  1.00  0.00    -0.744 OA
ENDBRANCH  70  73
ENDBRANCH  42  66
BRANCH  54  77
ATOM     77  C   UNL A   1      46.322  25.327  33.015  1.00  0.00     0.023 A 
ATOM     78  C   UNL A   1      47.614  25.815  32.733  1.00  0.00     0.012 A 
ATOM     79  C   UNL A   1      46.175  24.221  33.875  1.00  0.00     0.148 A 
ATOM     80  C   UNL A   1      48.741  25.187  33.261  1.00  0.00     0.002 A 
ATOM     81  C   UNL A   1      47.300  23.631  34.437  1.00  0.00     0.091 A 
ATOM     82  F   UNL A   1      44.940  23.757  34.117  1.00  0.00    -0.205 F 
ATOM     83  C   UNL A   1      48.584  24.103  34.121  1.00  0.00     0.022 A 
BRANCH  81  84
ATOM     84  S   UNL A   1      47.185  22.291  35.628  1.00  0.00     0.127 S 
ATOM     85  O   UNL A   1      46.327  22.877  36.656  1.00  0.00    -0.237 OA
ATOM     86  O   UNL A   1      46.556  21.227  34.844  1.00  0.00    -0.237 OA
ATOM     87  O   UNL A   1      48.554  22.006  36.038  1.00  0.00    -0.744 OA
ENDBRANCH  81  84
ENDBRANCH  54  77
ENDBRANCH  28  29
ENDBRANCH  20  23
ENDBRANCH  18  19
ENDBRANCH   1  18
TORSDOF 16
ENDMDL
MODEL 3
REMARK VINA RESULT:     -10.5      1.964      2.544
REMARK SMILES CC[C@](C)(C(=O)NCCCNC(=O)c1ccc(-c2c3nc(c(-c4cccc(S(=O)(=O)[O-])c4F)c4ccc([nH]4)c(-c4cccc(S(=O)(=O)[O-])c4F)c4nc(c(-c5cccc(S(=O)(=O)[O-])c5F)c5ccc2[nH]5)C=C4)C=C3)cc1)[C@@H]1CCC[C@@H]1O
REMARK SMILES IDX 9 1 8 2 7 3 5 4 6 5 3 7 4 8 2 9 1 10 77 11 78 12 81 13 79 14
REMARK SMILES IDX 80 15 82 16 10 18 11 19 12 20 13 22 14 23 15 24 76 25 16 26
REMARK SMILES IDX 75 27 17 28 18 29 19 30 69 31 20 32 74 33 68 34 70 35 21 36
REMARK SMILES IDX 73 37 67 38 66 39 22 41 54 42 34 43 53 44 35 45 38 46 52 47
REMARK SMILES IDX 71 48 36 49 37 50 51 52 72 53 39 54 23 55 24 56 32 57 25 58
REMARK SMILES IDX 27 59 33 60 26 61 28 62 29 63 30 64 31 65 55 66 56 67 64 68
REMARK SMILES IDX 57 69 59 70 65 71 58 72 60 73 61 74 62 75 63 76 40 77 41 78
REMARK SMILES IDX 49 79 42 80 44 81 50 82 43 83 45 84 46 85 47 86 48 87
REMARK H PARENT 7 6 82 17 11 21 70 40 38 51
REMARK Flexibility Score: inf
ROOT
ATOM      1  C   UNL A   1      32.738  30.125  25.792  1.00  0.00     0.042 C 
ENDROOT
BRANCH   1   2
ATOM      2  C   UNL A   1      33.604  28.891  25.573  1.00  0.00     0.117 C 
BRANCH   2   3
ATOM      3  N   UNL A   1      33.986  28.679  24.185  1.00  0.00    -0.356 N 
ATOM      4  C   UNL A   1      33.460  27.901  23.196  1.00  0.00     0.226 C 
ATOM      5  O   UNL A   1      33.906  28.098  22.057  1.00  0.00    -0.274 OA
ATOM      6  H   UNL A   1      34.776  29.197  23.906  1.00  0.00     0.163 HD
BRANCH   4   7
ATOM      7  C   UNL A   1      32.346  26.849  23.452  1.00  0.00     0.051 C 
ATOM      8  C   UNL A   1      31.857  26.283  22.099  1.00  0.00     0.022 C 
BRANCH   7   9
ATOM      9  C   UNL A   1      32.980  25.701  24.315  1.00  0.00     0.013 C 
ATOM     10  C   UNL A   1      34.193  24.978  23.737  1.00  0.00     0.005 C 
ENDBRANCH   7   9
BRANCH   7  11
ATOM     11  C   UNL A   1      31.134  27.536  24.208  1.00  0.00     0.033 C 
ATOM     12  C   UNL A   1      29.974  26.572  24.545  1.00  0.00     0.007 C 
ATOM     13  C   UNL A   1      30.399  28.725  23.551  1.00  0.00     0.118 C 
ATOM     14  C   UNL A   1      28.774  26.957  23.678  1.00  0.00     0.003 C 
ATOM     15  C   UNL A   1      29.214  28.126  22.817  1.00  0.00     0.032 C 
BRANCH  13  16
ATOM     16  O   UNL A   1      31.167  29.512  22.669  1.00  0.00    -0.393 OA
ATOM     17  H   UNL A   1      32.026  29.087  22.521  1.00  0.00     0.210 HD
ENDBRANCH  13  16
ENDBRANCH   7  11
ENDBRANCH   4   7
ENDBRANCH   2   3
ENDBRANCH   1   2
BRANCH   1  18
ATOM     18  C   UNL A   1      32.781  30.691  27.206  1.00  0.00     0.118 C 
BRANCH  18  19
ATOM     19  N   UNL A   1      33.039  32.125  27.234  1.00  0.00    -0.352 N 
ATOM     20  C   UNL A   1      34.042  32.851  27.823  1.00  0.00     0.251 C 
ATOM     21  H   UNL A   1      32.377  32.666  26.745  1.00  0.00     0.163 HD
ATOM     22  O   UNL A   1      33.936  34.077  27.864  1.00  0.00    -0.269 OA
BRANCH  20  23
ATOM     23  C   UNL A   1      35.232  32.196  28.410  1.00  0.00     0.039 A 
ATOM     24  C   UNL A   1      36.451  32.880  28.384  1.00  0.00     0.014 A 
ATOM     25  C   UNL A   1      35.179  30.901  28.934  1.00  0.00     0.014 A 
ATOM     26  C   UNL A   1      37.596  32.290  28.925  1.00  0.00     0.010 A 
ATOM     27  C   UNL A   1      36.301  30.349  29.552  1.00  0.00     0.010 A 
ATOM     28  C   UNL A   1      37.525  31.030  29.544  1.00  0.00    -0.014 A 
BRANCH  28  29
ATOM     29  C   UNL A   1      38.723  30.438  30.194  1.00  0.00     0.031 A 
ATOM     30  C   UNL A   1      39.142  30.859  31.578  1.00  0.00     0.074 A 
ATOM     31  C   UNL A   1      39.472  29.552  29.509  1.00  0.00     0.049 A 
ATOM     32  N   UNL A   1      40.137  30.419  32.306  1.00  0.00    -0.248 NA
ATOM     33  C   UNL A   1      38.363  31.930  32.221  1.00  0.00     0.031 C 
ATOM     34  C   UNL A   1      39.232  29.137  28.124  1.00  0.00     0.029 A 
ATOM     35  N   UNL A   1      40.593  28.849  29.875  1.00  0.00    -0.354 N 
ATOM     36  C   UNL A   1      40.121  31.172  33.473  1.00  0.00     0.074 A 
ATOM     37  C   UNL A   1      39.042  32.126  33.342  1.00  0.00     0.031 C 
ATOM     38  C   UNL A   1      40.163  28.240  27.765  1.00  0.00     0.029 A 
ATOM     39  C   UNL A   1      41.077  28.029  28.883  1.00  0.00     0.049 A 
ATOM     40  H   UNL A   1      41.010  28.925  30.763  1.00  0.00     0.167 HD
ATOM     41  C   UNL A   1      40.907  31.058  34.572  1.00  0.00     0.034 A 
ATOM     42  C   UNL A   1      42.133  27.192  28.876  1.00  0.00     0.034 A 
ATOM     43  C   UNL A   1      41.952  30.079  34.716  1.00  0.00     0.049 A 
ATOM     44  C   UNL A   1      42.948  27.036  30.130  1.00  0.00     0.074 A 
ATOM     45  C   UNL A   1      42.743  29.821  35.822  1.00  0.00     0.029 A 
ATOM     46  N   UNL A   1      42.359  29.203  33.722  1.00  0.00    -0.354 N 
ATOM     47  N   UNL A   1      42.801  27.630  31.290  1.00  0.00    -0.248 NA
ATOM     48  C   UNL A   1      44.048  26.062  30.089  1.00  0.00     0.031 C 
ATOM     49  C   UNL A   1      43.642  28.801  35.489  1.00  0.00     0.029 A 
ATOM     50  C   UNL A   1      43.395  28.408  34.184  1.00  0.00     0.049 A 
ATOM     51  H   UNL A   1      41.969  29.153  32.819  1.00  0.00     0.167 HD
ATOM     52  C   UNL A   1      43.769  27.082  32.124  1.00  0.00     0.074 A 
ATOM     53  C   UNL A   1      44.474  26.086  31.344  1.00  0.00     0.031 C 
ATOM     54  C   UNL A   1      44.061  27.390  33.412  1.00  0.00     0.034 A 
BRANCH  41  55
ATOM     55  C   UNL A   1      40.624  31.976  35.734  1.00  0.00     0.023 A 
ATOM     56  C   UNL A   1      41.497  33.053  35.992  1.00  0.00     0.012 A 
ATOM     57  C   UNL A   1      39.474  31.816  36.530  1.00  0.00     0.148 A 
ATOM     58  C   UNL A   1      41.250  33.934  37.044  1.00  0.00     0.002 A 
ATOM     59  C   UNL A   1      39.210  32.725  37.550  1.00  0.00     0.091 A 
ATOM     60  F   UNL A   1      38.666  30.775  36.285  1.00  0.00    -0.205 F 
ATOM     61  C   UNL A   1      40.103  33.776  37.816  1.00  0.00     0.022 A 
BRANCH  59  62
ATOM     62  S   UNL A   1      37.718  32.656  38.549  1.00  0.00     0.127 S 
ATOM     63  O   UNL A   1      37.761  31.282  39.048  1.00  0.00    -0.237 OA
ATOM     64  O   UNL A   1      37.979  33.679  39.562  1.00  0.00    -0.237 OA
ATOM     65  O   UNL A   1      36.617  32.961  37.648  1.00  0.00    -0.744 OA
ENDBRANCH  59  62
ENDBRANCH  41  55
BRANCH  42  66
ATOM     66  C   UNL A   1      42.425  26.374  27.665  1.00  0.00     0.023 A 
ATOM     67  C   UNL A   1      43.168  26.941  26.611  1.00  0.00     0.012 A 
ATOM     68  C   UNL A   1      42.006  25.034  27.566  1.00  0.00     0.148 A 
ATOM     69  C   UNL A   1      43.460  26.197  25.466  1.00  0.00     0.002 A 
ATOM     70  C   UNL A   1      42.349  24.282  26.448  1.00  0.00     0.091 A 
ATOM     71  F   UNL A   1      41.289  24.517  28.575  1.00  0.00    -0.205 F 
ATOM     72  C   UNL A   1      43.060  24.867  25.389  1.00  0.00     0.022 A 
BRANCH  70  73
ATOM     73  S   UNL A   1      41.996  22.524  26.331  1.00  0.00     0.127 S 
ATOM     74  O   UNL A   1      42.617  22.013  27.553  1.00  0.00    -0.237 OA
ATOM     75  O   UNL A   1      40.531  22.509  26.335  1.00  0.00    -0.237 OA
ATOM     76  O   UNL A   1      42.595  22.086  25.082  1.00  0.00    -0.744 OA
ENDBRANCH  70  73
ENDBRANCH  42  66
BRANCH  54  77
ATOM     77  C   UNL A   1      45.183  26.628  34.068  1.00  0.00     0.023 A 
ATOM     78  C   UNL A   1      46.511  27.078  33.927  1.00  0.00     0.012 A 
ATOM     79  C   UNL A   1      44.920  25.494  34.862  1.00  0.00     0.148 A 
ATOM     80  C   UNL A   1      47.563  26.388  34.526  1.00  0.00     0.002 A 
ATOM     81  C   UNL A   1      45.969  24.840  35.497  1.00  0.00     0.091 A 
ATOM     82  F   UNL A   1      43.654  25.066  34.970  1.00  0.00    -0.205 F 
ATOM     83  C   UNL A   1      47.292  25.276  35.319  1.00  0.00     0.022 A 
BRANCH  81  84
ATOM     84  S   UNL A   1      45.700  23.457  36.613  1.00  0.00     0.127 S 
ATOM     85  O   UNL A   1      47.068  23.102  36.985  1.00  0.00    -0.237 OA
ATOM     86  O   UNL A   1      44.915  24.068  37.686  1.00  0.00    -0.237 OA
ATOM     87  O   UNL A   1      44.979  22.457  35.836  1.00  0.00    -0.744 OA
ENDBRANCH  81  84
ENDBRANCH  54  77
ENDBRANCH  28  29
ENDBRANCH  20  23
ENDBRANCH  18  19
ENDBRANCH   1  18
TORSDOF 16
ENDMDL
