MODEL 1
REMARK VINA RESULT:     -11.7      0.000      0.000
REMARK SMILES CN(C)Nc1ncnc(Nc2ccc(C(=O)NCCCNC(=O)c3ccc(-c4c5nc(c(-c6cccc(S(=O)(=O)[O-])c6F)c6ccc([nH]6)c(-c6cccc(S(=O)(=O)[O-])c6F)c6nc(c(-c7cccc(S(=O)(=O)[O-])c7F)c7ccc4[nH]7)C=C6)C=C5)cc3)cc2)c1[N+](=O)[O-]
REMARK SMILES IDX 18 1 17 2 15 3 16 4 14 6 11 7 12 8 88 9 13 10 87 11 10 12
REMARK SMILES IDX 9 14 5 15 6 16 89 17 7 18 8 19 4 20 2 22 1 23 3 24 90 25
REMARK SMILES IDX 91 26 92 27 19 28 20 29 21 30 22 31 23 33 24 34 25 35 86 36
REMARK SMILES IDX 26 37 85 38 27 39 28 40 29 41 79 42 30 43 84 44 78 45 80 46
REMARK SMILES IDX 31 47 83 48 77 49 76 50 32 52 64 53 44 54 63 55 45 56 48 57
REMARK SMILES IDX 62 58 81 59 46 60 47 61 61 63 82 64 49 65 33 66 34 67 42 68
REMARK SMILES IDX 35 69 37 70 43 71 36 72 38 73 39 74 40 75 41 76 65 77 66 78
REMARK SMILES IDX 74 79 67 80 69 81 75 82 68 83 70 84 71 85 72 86 73 87 50 88
REMARK SMILES IDX 51 89 59 90 52 91 54 92 60 93 53 94 55 95 56 96 57 97 58 98
REMARK H PARENT 17 5 10 13 4 21 21 32 80 51 48 62
REMARK Flexibility Score: inf
ROOT
ATOM      1  C   UNL A   1      31.622  30.633  26.305  1.00  0.00     0.118 C 
ENDROOT
BRANCH   1   2
ATOM      2  N   UNL A   1      31.200  30.279  24.961  1.00  0.00    -0.352 N 
ATOM      3  C   UNL A   1      31.350  29.145  24.205  1.00  0.00     0.251 C 
ATOM      4  O   UNL A   1      30.824  29.130  23.092  1.00  0.00    -0.269 OA
ATOM      5  H   UNL A   1      30.708  30.996  24.500  1.00  0.00     0.163 HD
BRANCH   3   6
ATOM      6  C   UNL A   1      32.040  27.920  24.694  1.00  0.00     0.039 A 
ATOM      7  C   UNL A   1      33.251  25.669  25.886  1.00  0.00     0.040 A 
ATOM      8  C   UNL A   1      31.922  25.980  26.167  1.00  0.00     0.027 A 
ATOM      9  C   UNL A   1      33.923  26.411  24.909  1.00  0.00     0.027 A 
ATOM     10  C   UNL A   1      31.329  27.109  25.593  1.00  0.00     0.016 A 
ATOM     11  C   UNL A   1      33.318  27.519  24.303  1.00  0.00     0.016 A 
BRANCH   7  12
ATOM     12  N   UNL A   1      33.856  24.562  26.511  1.00  0.00    -0.334 N 
ATOM     13  H   UNL A   1      34.094  24.644  27.463  1.00  0.00     0.168 HD
BRANCH  12  14
ATOM     14  C   UNL A   1      34.141  23.341  25.864  1.00  0.00     0.215 A 
ATOM     15  C   UNL A   1      33.596  21.168  25.077  1.00  0.00     0.225 A 
ATOM     16  N   UNL A   1      34.856  21.003  24.620  1.00  0.00    -0.212 NA
ATOM     17  C   UNL A   1      33.236  22.294  25.788  1.00  0.00     0.354 A 
ATOM     18  C   UNL A   1      35.698  22.022  24.793  1.00  0.00     0.227 A 
ATOM     19  N   UNL A   1      35.389  23.187  25.365  1.00  0.00    -0.212 NA
BRANCH  15  20
ATOM     20  N   UNL A   1      32.745  20.148  24.636  1.00  0.00    -0.298 N 
ATOM     21  H   UNL A   1      31.820  20.398  24.412  1.00  0.00     0.184 HD
BRANCH  20  22
ATOM     22  N   UNL A   1      33.107  18.777  24.484  1.00  0.00    -0.228 NA
ATOM     23  C   UNL A   1      32.624  17.932  25.593  1.00  0.00     0.130 C 
ATOM     24  C   UNL A   1      32.445  18.300  23.252  1.00  0.00     0.130 C 
ENDBRANCH  20  22
ENDBRANCH  15  20
BRANCH  17  25
ATOM     25  N   UNL A   1      31.993  22.359  26.496  1.00  0.00     0.070 N 
ATOM     26  O   UNL A   1      30.957  22.186  25.834  1.00  0.00    -0.258 OA
ATOM     27  O   UNL A   1      32.026  22.686  27.690  1.00  0.00    -0.258 OA
ENDBRANCH  17  25
ENDBRANCH  12  14
ENDBRANCH   7  12
ENDBRANCH   3   6
ENDBRANCH   1   2
BRANCH   1  28
ATOM     28  C   UNL A   1      31.497  32.137  26.541  1.00  0.00     0.042 C 
BRANCH  28  29
ATOM     29  C   UNL A   1      32.809  32.793  26.970  1.00  0.00     0.118 C 
BRANCH  29  30
ATOM     30  N   UNL A   1      32.591  34.084  27.612  1.00  0.00    -0.352 N 
ATOM     31  C   UNL A   1      33.159  34.610  28.745  1.00  0.00     0.251 C 
ATOM     32  H   UNL A   1      31.935  34.666  27.165  1.00  0.00     0.163 HD
ATOM     33  O   UNL A   1      32.676  35.621  29.247  1.00  0.00    -0.269 OA
BRANCH  31  34
ATOM     34  C   UNL A   1      34.339  33.967  29.365  1.00  0.00     0.039 A 
ATOM     35  C   UNL A   1      35.617  34.363  28.956  1.00  0.00     0.014 A 
ATOM     36  C   UNL A   1      34.193  32.950  30.312  1.00  0.00     0.014 A 
ATOM     37  C   UNL A   1      36.745  33.779  29.536  1.00  0.00     0.010 A 
ATOM     38  C   UNL A   1      35.318  32.414  30.934  1.00  0.00     0.010 A 
ATOM     39  C   UNL A   1      36.606  32.819  30.551  1.00  0.00    -0.014 A 
BRANCH  39  40
ATOM     40  C   UNL A   1      37.788  32.237  31.237  1.00  0.00     0.031 A 
ATOM     41  C   UNL A   1      38.518  31.068  30.632  1.00  0.00     0.074 A 
ATOM     42  C   UNL A   1      38.147  32.705  32.449  1.00  0.00     0.049 A 
ATOM     43  N   UNL A   1      39.507  30.370  31.124  1.00  0.00    -0.248 NA
ATOM     44  C   UNL A   1      38.061  30.611  29.308  1.00  0.00     0.031 C 
ATOM     45  C   UNL A   1      37.480  33.794  33.168  1.00  0.00     0.029 A 
ATOM     46  N   UNL A   1      39.140  32.303  33.307  1.00  0.00    -0.354 N 
ATOM     47  C   UNL A   1      39.772  29.374  30.191  1.00  0.00     0.074 A 
ATOM     48  C   UNL A   1      38.819  29.541  29.114  1.00  0.00     0.031 C 
ATOM     49  C   UNL A   1      38.080  33.971  34.355  1.00  0.00     0.029 A 
ATOM     50  C   UNL A   1      39.151  32.990  34.499  1.00  0.00     0.049 A 
ATOM     51  H   UNL A   1      39.784  31.591  33.090  1.00  0.00     0.167 HD
ATOM     52  C   UNL A   1      40.741  28.427  30.211  1.00  0.00     0.034 A 
ATOM     53  C   UNL A   1      39.926  32.838  35.590  1.00  0.00     0.034 A 
ATOM     54  C   UNL A   1      41.710  28.288  31.265  1.00  0.00     0.049 A 
ATOM     55  C   UNL A   1      41.001  31.785  35.579  1.00  0.00     0.074 A 
ATOM     56  C   UNL A   1      42.770  27.403  31.347  1.00  0.00     0.029 A 
ATOM     57  N   UNL A   1      41.738  29.054  32.420  1.00  0.00    -0.354 N 
ATOM     58  N   UNL A   1      41.327  30.946  34.625  1.00  0.00    -0.248 NA
ATOM     59  C   UNL A   1      41.839  31.679  36.783  1.00  0.00     0.031 C 
ATOM     60  C   UNL A   1      43.430  27.624  32.560  1.00  0.00     0.029 A 
ATOM     61  C   UNL A   1      42.794  28.660  33.224  1.00  0.00     0.049 A 
ATOM     62  H   UNL A   1      41.101  29.773  32.636  1.00  0.00     0.167 HD
ATOM     63  C   UNL A   1      42.427  30.240  35.097  1.00  0.00     0.074 A 
ATOM     64  C   UNL A   1      42.728  30.766  36.413  1.00  0.00     0.031 C 
ATOM     65  C   UNL A   1      43.116  29.234  34.504  1.00  0.00     0.034 A 
BRANCH  52  66
ATOM     66  C   UNL A   1      40.842  27.502  29.026  1.00  0.00     0.023 A 
ATOM     67  C   UNL A   1      39.968  26.398  28.936  1.00  0.00     0.012 A 
ATOM     68  C   UNL A   1      41.744  27.755  27.973  1.00  0.00     0.148 A 
ATOM     69  C   UNL A   1      40.011  25.546  27.835  1.00  0.00     0.002 A 
ATOM     70  C   UNL A   1      41.751  26.925  26.858  1.00  0.00     0.091 A 
ATOM     71  F   UNL A   1      42.579  28.799  28.084  1.00  0.00    -0.205 F 
ATOM     72  C   UNL A   1      40.892  25.814  26.792  1.00  0.00     0.022 A 
BRANCH  70  73
ATOM     73  S   UNL A   1      42.796  27.225  25.428  1.00  0.00     0.127 S 
ATOM     74  O   UNL A   1      44.116  27.332  26.044  1.00  0.00    -0.237 OA
ATOM     75  O   UNL A   1      42.589  26.011  24.637  1.00  0.00    -0.237 OA
ATOM     76  O   UNL A   1      42.293  28.445  24.812  1.00  0.00    -0.744 OA
ENDBRANCH  70  73
ENDBRANCH  52  66
BRANCH  53  77
ATOM     77  C   UNL A   1      39.760  33.744  36.762  1.00  0.00     0.023 A 
ATOM     78  C   UNL A   1      40.219  35.074  36.674  1.00  0.00     0.012 A 
ATOM     79  C   UNL A   1      39.144  33.310  37.952  1.00  0.00     0.148 A 
ATOM     80  C   UNL A   1      40.102  35.941  37.760  1.00  0.00     0.002 A 
ATOM     81  C   UNL A   1      38.980  34.196  39.011  1.00  0.00     0.091 A 
ATOM     82  F   UNL A   1      38.726  32.038  38.024  1.00  0.00    -0.205 F 
ATOM     83  C   UNL A   1      39.475  35.506  38.924  1.00  0.00     0.022 A 
BRANCH  81  84
ATOM     84  S   UNL A   1      38.064  33.759  40.493  1.00  0.00     0.127 S 
ATOM     85  O   UNL A   1      38.972  32.819  41.141  1.00  0.00    -0.237 OA
ATOM     86  O   UNL A   1      37.932  35.053  41.164  1.00  0.00    -0.237 OA
ATOM     87  O   UNL A   1      36.802  33.204  40.019  1.00  0.00    -0.744 OA
ENDBRANCH  81  84
ENDBRANCH  53  77
BRANCH  65  88
ATOM     88  C   UNL A   1      44.287  28.655  35.254  1.00  0.00     0.023 A 
ATOM     89  C   UNL A   1      45.581  29.164  35.028  1.00  0.00     0.012 A 
ATOM     90  C   UNL A   1      44.096  27.656  36.229  1.00  0.00     0.148 A 
ATOM     91  C   UNL A   1      46.672  28.665  35.739  1.00  0.00     0.002 A 
ATOM     92  C   UNL A   1      45.181  27.198  36.967  1.00  0.00     0.091 A 
ATOM     93  F   UNL A   1      42.860  27.172  36.415  1.00  0.00    -0.205 F 
ATOM     94  C   UNL A   1      46.471  27.692  36.715  1.00  0.00     0.022 A 
BRANCH  92  95
ATOM     95  S   UNL A   1      45.003  26.016  38.309  1.00  0.00     0.127 S 
ATOM     96  O   UNL A   1      46.382  25.884  38.774  1.00  0.00    -0.237 OA
ATOM     97  O   UNL A   1      44.113  26.722  39.230  1.00  0.00    -0.237 OA
ATOM     98  O   UNL A   1      44.427  24.817  37.712  1.00  0.00    -0.744 OA
ENDBRANCH  92  95
ENDBRANCH  65  88
ENDBRANCH  39  40
ENDBRANCH  31  34
ENDBRANCH  29  30
ENDBRANCH  28  29
ENDBRANCH   1  28
TORSDOF 18
ENDMDL
MODEL 2
REMARK VINA RESULT:     -11.7      6.250     11.613
REMARK SMILES CN(C)Nc1ncnc(Nc2ccc(C(=O)NCCCNC(=O)c3ccc(-c4c5nc(c(-c6cccc(S(=O)(=O)[O-])c6F)c6ccc([nH]6)c(-c6cccc(S(=O)(=O)[O-])c6F)c6nc(c(-c7cccc(S(=O)(=O)[O-])c7F)c7ccc4[nH]7)C=C6)C=C5)cc3)cc2)c1[N+](=O)[O-]
REMARK SMILES IDX 18 1 17 2 15 3 16 4 14 6 11 7 12 8 88 9 13 10 87 11 10 12
REMARK SMILES IDX 9 14 5 15 6 16 89 17 7 18 8 19 4 20 2 22 1 23 3 24 90 25
REMARK SMILES IDX 91 26 92 27 19 28 20 29 21 30 22 31 23 33 24 34 25 35 86 36
REMARK SMILES IDX 26 37 85 38 27 39 28 40 29 41 79 42 30 43 84 44 78 45 80 46
REMARK SMILES IDX 31 47 83 48 77 49 76 50 32 52 64 53 44 54 63 55 45 56 48 57
REMARK SMILES IDX 62 58 81 59 46 60 47 61 61 63 82 64 49 65 33 66 34 67 42 68
REMARK SMILES IDX 35 69 37 70 43 71 36 72 38 73 39 74 40 75 41 76 65 77 66 78
REMARK SMILES IDX 74 79 67 80 69 81 75 82 68 83 70 84 71 85 72 86 73 87 50 88
REMARK SMILES IDX 51 89 59 90 52 91 54 92 60 93 53 94 55 95 56 96 57 97 58 98
REMARK H PARENT 17 5 10 13 4 21 21 32 80 51 48 62
REMARK Flexibility Score: inf
ROOT
ATOM      1  C   UNL A   1      37.571  20.815  24.836  1.00  0.00     0.118 C 
ENDROOT
BRANCH   1   2
ATOM      2  N   UNL A   1      38.133  21.996  25.467  1.00  0.00    -0.352 N 
ATOM      3  C   UNL A   1      37.616  23.232  25.758  1.00  0.00     0.251 C 
ATOM      4  O   UNL A   1      38.343  24.025  26.357  1.00  0.00    -0.269 OA
ATOM      5  H   UNL A   1      39.072  21.888  25.740  1.00  0.00     0.163 HD
BRANCH   3   6
ATOM      6  C   UNL A   1      36.211  23.624  25.460  1.00  0.00     0.039 A 
ATOM      7  C   UNL A   1      33.661  24.584  24.730  1.00  0.00     0.040 A 
ATOM      8  C   UNL A   1      34.641  24.387  23.758  1.00  0.00     0.027 A 
ATOM      9  C   UNL A   1      33.925  24.173  26.042  1.00  0.00     0.027 A 
ATOM     10  C   UNL A   1      35.911  23.933  24.123  1.00  0.00     0.016 A 
ATOM     11  C   UNL A   1      35.185  23.680  26.402  1.00  0.00     0.016 A 
BRANCH   7  12
ATOM     12  N   UNL A   1      32.402  25.094  24.360  1.00  0.00    -0.334 N 
ATOM     13  H   UNL A   1      31.712  24.452  24.076  1.00  0.00     0.168 HD
BRANCH  12  14
ATOM     14  C   UNL A   1      32.063  26.463  24.373  1.00  0.00     0.215 A 
ATOM     15  C   UNL A   1      31.496  28.528  23.346  1.00  0.00     0.225 A 
ATOM     16  N   UNL A   1      31.458  29.133  24.553  1.00  0.00    -0.212 NA
ATOM     17  C   UNL A   1      31.889  27.211  23.220  1.00  0.00     0.354 A 
ATOM     18  C   UNL A   1      31.710  28.370  25.617  1.00  0.00     0.227 A 
ATOM     19  N   UNL A   1      31.980  27.064  25.582  1.00  0.00    -0.212 NA
BRANCH  15  20
ATOM     20  N   UNL A   1      30.990  29.352  22.335  1.00  0.00    -0.298 N 
ATOM     21  H   UNL A   1      31.587  30.048  21.979  1.00  0.00     0.184 HD
BRANCH  20  22
ATOM     22  N   UNL A   1      29.679  29.267  21.779  1.00  0.00    -0.228 NA
ATOM     23  C   UNL A   1      28.675  28.790  22.748  1.00  0.00     0.130 C 
ATOM     24  C   UNL A   1      29.295  30.642  21.394  1.00  0.00     0.130 C 
ENDBRANCH  20  22
ENDBRANCH  15  20
BRANCH  17  25
ATOM     25  N   UNL A   1      32.184  26.645  21.938  1.00  0.00     0.070 N 
ATOM     26  O   UNL A   1      33.376  26.620  21.592  1.00  0.00    -0.258 OA
ATOM     27  O   UNL A   1      31.230  26.317  21.219  1.00  0.00    -0.258 OA
ENDBRANCH  17  25
ENDBRANCH  12  14
ENDBRANCH   7  12
ENDBRANCH   3   6
ENDBRANCH   1   2
BRANCH   1  28
ATOM     28  C   UNL A   1      38.470  19.598  25.050  1.00  0.00     0.042 C 
BRANCH  28  29
ATOM     29  C   UNL A   1      39.403  19.738  26.252  1.00  0.00     0.118 C 
BRANCH  29  30
ATOM     30  N   UNL A   1      40.650  19.005  26.065  1.00  0.00    -0.352 N 
ATOM     31  C   UNL A   1      41.938  19.469  25.979  1.00  0.00     0.251 C 
ATOM     32  H   UNL A   1      40.552  18.028  25.989  1.00  0.00     0.163 HD
ATOM     33  O   UNL A   1      42.826  18.713  25.595  1.00  0.00    -0.269 OA
BRANCH  31  34
ATOM     34  C   UNL A   1      42.261  20.868  26.336  1.00  0.00     0.039 A 
ATOM     35  C   UNL A   1      42.514  21.182  27.675  1.00  0.00     0.014 A 
ATOM     36  C   UNL A   1      42.274  21.876  25.369  1.00  0.00     0.014 A 
ATOM     37  C   UNL A   1      42.834  22.493  28.035  1.00  0.00     0.010 A 
ATOM     38  C   UNL A   1      42.653  23.170  25.719  1.00  0.00     0.010 A 
ATOM     39  C   UNL A   1      42.934  23.494  27.054  1.00  0.00    -0.014 A 
BRANCH  39  40
ATOM     40  C   UNL A   1      43.345  24.879  27.399  1.00  0.00     0.031 A 
ATOM     41  C   UNL A   1      42.352  25.839  27.997  1.00  0.00     0.074 A 
ATOM     42  C   UNL A   1      44.588  25.297  27.088  1.00  0.00     0.049 A 
ATOM     43  N   UNL A   1      42.498  27.108  28.276  1.00  0.00    -0.248 NA
ATOM     44  C   UNL A   1      41.013  25.307  28.302  1.00  0.00     0.031 C 
ATOM     45  C   UNL A   1      45.622  24.479  26.449  1.00  0.00     0.029 A 
ATOM     46  N   UNL A   1      45.184  26.525  27.235  1.00  0.00    -0.354 N 
ATOM     47  C   UNL A   1      41.266  27.535  28.758  1.00  0.00     0.074 A 
ATOM     48  C   UNL A   1      40.375  26.396  28.707  1.00  0.00     0.031 C 
ATOM     49  C   UNL A   1      46.721  25.225  26.259  1.00  0.00     0.029 A 
ATOM     50  C   UNL A   1      46.462  26.583  26.729  1.00  0.00     0.049 A 
ATOM     51  H   UNL A   1      44.739  27.292  27.663  1.00  0.00     0.167 HD
ATOM     52  C   UNL A   1      40.917  28.756  29.232  1.00  0.00     0.034 A 
ATOM     53  C   UNL A   1      47.322  27.615  26.640  1.00  0.00     0.034 A 
ATOM     54  C   UNL A   1      41.817  29.875  29.317  1.00  0.00     0.049 A 
ATOM     55  C   UNL A   1      46.910  28.956  27.185  1.00  0.00     0.074 A 
ATOM     56  C   UNL A   1      41.577  31.134  29.841  1.00  0.00     0.029 A 
ATOM     57  N   UNL A   1      43.127  29.872  28.867  1.00  0.00    -0.354 N 
ATOM     58  N   UNL A   1      45.788  29.302  27.768  1.00  0.00    -0.248 NA
ATOM     59  C   UNL A   1      47.897  30.043  27.090  1.00  0.00     0.031 C 
ATOM     60  C   UNL A   1      42.740  31.896  29.693  1.00  0.00     0.029 A 
ATOM     61  C   UNL A   1      43.709  31.107  29.096  1.00  0.00     0.049 A 
ATOM     62  H   UNL A   1      43.578  29.105  28.446  1.00  0.00     0.167 HD
ATOM     63  C   UNL A   1      45.946  30.632  28.141  1.00  0.00     0.074 A 
ATOM     64  C   UNL A   1      47.282  31.022  27.741  1.00  0.00     0.031 C 
ATOM     65  C   UNL A   1      45.060  31.461  28.744  1.00  0.00     0.034 A 
BRANCH  52  66
ATOM     66  C   UNL A   1      39.515  28.930  29.756  1.00  0.00     0.023 A 
ATOM     67  C   UNL A   1      39.211  28.504  31.066  1.00  0.00     0.012 A 
ATOM     68  C   UNL A   1      38.520  29.570  28.991  1.00  0.00     0.148 A 
ATOM     69  C   UNL A   1      37.934  28.684  31.594  1.00  0.00     0.002 A 
ATOM     70  C   UNL A   1      37.261  29.784  29.540  1.00  0.00     0.091 A 
ATOM     71  F   UNL A   1      38.822  29.952  27.742  1.00  0.00    -0.205 F 
ATOM     72  C   UNL A   1      36.963  29.333  30.837  1.00  0.00     0.022 A 
BRANCH  70  73
ATOM     73  S   UNL A   1      35.961  30.676  28.677  1.00  0.00     0.127 S 
ATOM     74  O   UNL A   1      35.361  29.616  27.871  1.00  0.00    -0.237 OA
ATOM     75  O   UNL A   1      35.127  31.148  29.783  1.00  0.00    -0.237 OA
ATOM     76  O   UNL A   1      36.628  31.730  27.926  1.00  0.00    -0.744 OA
ENDBRANCH  70  73
ENDBRANCH  52  66
BRANCH  53  77
ATOM     77  C   UNL A   1      48.684  27.411  26.069  1.00  0.00     0.023 A 
ATOM     78  C   UNL A   1      49.736  27.021  26.922  1.00  0.00     0.012 A 
ATOM     79  C   UNL A   1      48.945  27.584  24.696  1.00  0.00     0.148 A 
ATOM     80  C   UNL A   1      51.028  26.846  26.426  1.00  0.00     0.002 A 
ATOM     81  C   UNL A   1      50.223  27.353  24.198  1.00  0.00     0.091 A 
ATOM     82  F   UNL A   1      47.936  27.970  23.901  1.00  0.00    -0.205 F 
ATOM     83  C   UNL A   1      51.270  27.003  25.064  1.00  0.00     0.022 A 
BRANCH  81  84
ATOM     84  S   UNL A   1      50.589  27.400  22.440  1.00  0.00     0.127 S 
ATOM     85  O   UNL A   1      50.438  28.819  22.140  1.00  0.00    -0.237 OA
ATOM     86  O   UNL A   1      51.965  26.903  22.401  1.00  0.00    -0.237 OA
ATOM     87  O   UNL A   1      49.618  26.508  21.818  1.00  0.00    -0.744 OA
ENDBRANCH  81  84
ENDBRANCH  53  77
BRANCH  65  88
ATOM     88  C   UNL A   1      45.513  32.867  29.044  1.00  0.00     0.023 A 
ATOM     89  C   UNL A   1      46.153  33.148  30.266  1.00  0.00     0.012 A 
ATOM     90  C   UNL A   1      45.365  33.890  28.087  1.00  0.00     0.148 A 
ATOM     91  C   UNL A   1      46.612  34.435  30.546  1.00  0.00     0.002 A 
ATOM     92  C   UNL A   1      45.868  35.158  28.353  1.00  0.00     0.091 A 
ATOM     93  F   UNL A   1      44.737  33.606  26.938  1.00  0.00    -0.205 F 
ATOM     94  C   UNL A   1      46.480  35.436  29.586  1.00  0.00     0.022 A 
BRANCH  92  95
ATOM     95  S   UNL A   1      45.828  36.484  27.141  1.00  0.00     0.127 S 
ATOM     96  O   UNL A   1      44.391  36.698  26.982  1.00  0.00    -0.237 OA
ATOM     97  O   UNL A   1      46.533  37.562  27.836  1.00  0.00    -0.237 OA
ATOM     98  O   UNL A   1      46.518  35.972  25.964  1.00  0.00    -0.744 OA
ENDBRANCH  92  95
ENDBRANCH  65  88
ENDBRANCH  39  40
ENDBRANCH  31  34
ENDBRANCH  29  30
ENDBRANCH  28  29
ENDBRANCH   1  28
TORSDOF 18
ENDMDL
MODEL 3
REMARK VINA RESULT:     -11.3      1.743      2.252
REMARK SMILES CN(C)Nc1ncnc(Nc2ccc(C(=O)NCCCNC(=O)c3ccc(-c4c5nc(c(-c6cccc(S(=O)(=O)[O-])c6F)c6ccc([nH]6)c(-c6cccc(S(=O)(=O)[O-])c6F)c6nc(c(-c7cccc(S(=O)(=O)[O-])c7F)c7ccc4[nH]7)C=C6)C=C5)cc3)cc2)c1[N+](=O)[O-]
REMARK SMILES IDX 18 1 17 2 15 3 16 4 14 6 11 7 12 8 88 9 13 10 87 11 10 12
REMARK SMILES IDX 9 14 5 15 6 16 89 17 7 18 8 19 4 20 2 22 1 23 3 24 90 25
REMARK SMILES IDX 91 26 92 27 19 28 20 29 21 30 22 31 23 33 24 34 25 35 86 36
REMARK SMILES IDX 26 37 85 38 27 39 28 40 29 41 79 42 30 43 84 44 78 45 80 46
REMARK SMILES IDX 31 47 83 48 77 49 76 50 32 52 64 53 44 54 63 55 45 56 48 57
REMARK SMILES IDX 62 58 81 59 46 60 47 61 61 63 82 64 49 65 33 66 34 67 42 68
REMARK SMILES IDX 35 69 37 70 43 71 36 72 38 73 39 74 40 75 41 76 65 77 66 78
REMARK SMILES IDX 74 79 67 80 69 81 75 82 68 83 70 84 71 85 72 86 73 87 50 88
REMARK SMILES IDX 51 89 59 90 52 91 54 92 60 93 53 94 55 95 56 96 57 97 58 98
REMARK H PARENT 17 5 10 13 4 21 21 32 80 51 48 62
REMARK Flexibility Score: inf
ROOT
ATOM      1  C   UNL A   1      31.478  30.476  25.790  1.00  0.00     0.118 C 
ENDROOT
BRANCH   1   2
ATOM      2  N   UNL A   1      30.725  30.303  24.561  1.00  0.00    -0.352 N 
ATOM      3  C   UNL A   1      30.345  29.194  23.849  1.00  0.00     0.251 C 
ATOM      4  O   UNL A   1      29.652  29.372  22.847  1.00  0.00    -0.269 OA
ATOM      5  H   UNL A   1      30.430  31.150  24.156  1.00  0.00     0.163 HD
BRANCH   3   6
ATOM      6  C   UNL A   1      30.657  27.802  24.272  1.00  0.00     0.039 A 
ATOM      7  C   UNL A   1      30.978  25.091  24.984  1.00  0.00     0.040 A 
ATOM      8  C   UNL A   1      30.459  25.431  23.736  1.00  0.00     0.027 A 
ATOM      9  C   UNL A   1      31.456  26.113  25.814  1.00  0.00     0.027 A 
ATOM     10  C   UNL A   1      30.279  26.774  23.393  1.00  0.00     0.016 A 
ATOM     11  C   UNL A   1      31.313  27.458  25.454  1.00  0.00     0.016 A 
BRANCH   7  12
ATOM     12  N   UNL A   1      31.105  23.736  25.343  1.00  0.00    -0.334 N 
ATOM     13  H   UNL A   1      30.370  23.126  25.104  1.00  0.00     0.168 HD
BRANCH  12  14
ATOM     14  C   UNL A   1      32.217  23.193  26.021  1.00  0.00     0.215 A 
ATOM     15  C   UNL A   1      34.452  22.403  26.157  1.00  0.00     0.225 A 
ATOM     16  N   UNL A   1      34.278  22.093  27.459  1.00  0.00    -0.212 NA
ATOM     17  C   UNL A   1      33.406  22.869  25.387  1.00  0.00     0.354 A 
ATOM     18  C   UNL A   1      33.083  22.362  27.988  1.00  0.00     0.227 A 
ATOM     19  N   UNL A   1      32.062  22.922  27.337  1.00  0.00    -0.212 NA
BRANCH  15  20
ATOM     20  N   UNL A   1      35.794  22.303  25.774  1.00  0.00    -0.298 N 
ATOM     21  H   UNL A   1      36.434  22.913  26.208  1.00  0.00     0.184 HD
BRANCH  20  22
ATOM     22  N   UNL A   1      36.313  21.391  24.807  1.00  0.00    -0.228 NA
ATOM     23  C   UNL A   1      37.744  21.096  25.010  1.00  0.00     0.130 C 
ATOM     24  C   UNL A   1      35.576  20.123  24.985  1.00  0.00     0.130 C 
ENDBRANCH  20  22
ENDBRANCH  15  20
BRANCH  17  25
ATOM     25  N   UNL A   1      33.512  22.948  23.961  1.00  0.00     0.070 N 
ATOM     26  O   UNL A   1      32.907  22.087  23.301  1.00  0.00    -0.258 OA
ATOM     27  O   UNL A   1      34.279  23.797  23.486  1.00  0.00    -0.258 OA
ENDBRANCH  17  25
ENDBRANCH  12  14
ENDBRANCH   7  12
ENDBRANCH   3   6
ENDBRANCH   1   2
BRANCH   1  28
ATOM     28  C   UNL A   1      31.323  31.895  26.334  1.00  0.00     0.042 C 
BRANCH  28  29
ATOM     29  C   UNL A   1      32.605  32.451  26.952  1.00  0.00     0.118 C 
BRANCH  29  30
ATOM     30  N   UNL A   1      32.445  33.831  27.394  1.00  0.00    -0.352 N 
ATOM     31  C   UNL A   1      33.071  34.507  28.412  1.00  0.00     0.251 C 
ATOM     32  H   UNL A   1      31.788  34.359  26.885  1.00  0.00     0.163 HD
ATOM     33  O   UNL A   1      32.635  35.598  28.768  1.00  0.00    -0.269 OA
BRANCH  31  34
ATOM     34  C   UNL A   1      34.257  33.930  29.082  1.00  0.00     0.039 A 
ATOM     35  C   UNL A   1      34.068  32.966  30.077  1.00  0.00     0.014 A 
ATOM     36  C   UNL A   1      35.548  34.363  28.766  1.00  0.00     0.014 A 
ATOM     37  C   UNL A   1      35.174  32.397  30.715  1.00  0.00     0.010 A 
ATOM     38  C   UNL A   1      36.651  33.752  29.358  1.00  0.00     0.010 A 
ATOM     39  C   UNL A   1      36.477  32.766  30.341  1.00  0.00    -0.014 A 
BRANCH  39  40
ATOM     40  C   UNL A   1      37.669  32.124  30.949  1.00  0.00     0.031 A 
ATOM     41  C   UNL A   1      38.401  31.032  30.217  1.00  0.00     0.074 A 
ATOM     42  C   UNL A   1      38.037  32.462  32.202  1.00  0.00     0.049 A 
ATOM     43  N   UNL A   1      39.400  30.292  30.623  1.00  0.00    -0.248 NA
ATOM     44  C   UNL A   1      37.935  30.715  28.856  1.00  0.00     0.031 C 
ATOM     45  C   UNL A   1      37.369  33.462  33.038  1.00  0.00     0.029 A 
ATOM     46  N   UNL A   1      39.041  31.979  33.003  1.00  0.00    -0.354 N 
ATOM     47  C   UNL A   1      39.662  29.404  29.586  1.00  0.00     0.074 A 
ATOM     48  C   UNL A   1      38.698  29.678  28.542  1.00  0.00     0.031 C 
ATOM     49  C   UNL A   1      37.979  33.517  34.232  1.00  0.00     0.029 A 
ATOM     50  C   UNL A   1      39.059  32.535  34.262  1.00  0.00     0.049 A 
ATOM     51  H   UNL A   1      39.688  31.299  32.705  1.00  0.00     0.167 HD
ATOM     52  C   UNL A   1      40.638  28.468  29.497  1.00  0.00     0.034 A 
ATOM     53  C   UNL A   1      39.846  32.272  35.323  1.00  0.00     0.034 A 
ATOM     54  C   UNL A   1      41.619  28.225  30.521  1.00  0.00     0.049 A 
ATOM     55  C   UNL A   1      40.928  31.235  35.190  1.00  0.00     0.074 A 
ATOM     56  C   UNL A   1      42.685  27.344  30.498  1.00  0.00     0.029 A 
ATOM     57  N   UNL A   1      41.652  28.863  31.750  1.00  0.00    -0.354 N 
ATOM     58  N   UNL A   1      41.250  30.505  34.148  1.00  0.00    -0.248 NA
ATOM     59  C   UNL A   1      41.778  31.007  36.368  1.00  0.00     0.031 C 
ATOM     60  C   UNL A   1      43.356  27.439  31.722  1.00  0.00     0.029 A 
ATOM     61  C   UNL A   1      42.719  28.394  32.498  1.00  0.00     0.049 A 
ATOM     62  H   UNL A   1      41.013  29.549  32.048  1.00  0.00     0.167 HD
ATOM     63  C   UNL A   1      42.359  29.761  34.533  1.00  0.00     0.074 A 
ATOM     64  C   UNL A   1      42.669  30.146  35.894  1.00  0.00     0.031 C 
ATOM     65  C   UNL A   1      43.049  28.830  33.830  1.00  0.00     0.034 A 
BRANCH  52  66
ATOM     66  C   UNL A   1      40.734  27.676  28.218  1.00  0.00     0.023 A 
ATOM     67  C   UNL A   1      41.425  28.224  27.117  1.00  0.00     0.012 A 
ATOM     68  C   UNL A   1      40.208  26.372  28.122  1.00  0.00     0.148 A 
ATOM     69  C   UNL A   1      41.564  27.503  25.933  1.00  0.00     0.002 A 
ATOM     70  C   UNL A   1      40.388  25.642  26.952  1.00  0.00     0.091 A 
ATOM     71  F   UNL A   1      39.539  25.874  29.172  1.00  0.00    -0.205 F 
ATOM     72  C   UNL A   1      41.056  26.209  25.854  1.00  0.00     0.022 A 
BRANCH  70  73
ATOM     73  S   UNL A   1      39.838  23.941  26.773  1.00  0.00     0.127 S 
ATOM     74  O   UNL A   1      39.992  23.436  28.136  1.00  0.00    -0.237 OA
ATOM     75  O   UNL A   1      38.451  24.110  26.338  1.00  0.00    -0.237 OA
ATOM     76  O   UNL A   1      40.717  23.337  25.781  1.00  0.00    -0.744 OA
ENDBRANCH  70  73
ENDBRANCH  52  66
BRANCH  53  77
ATOM     77  C   UNL A   1      39.684  33.047  36.587  1.00  0.00     0.023 A 
ATOM     78  C   UNL A   1      40.378  34.264  36.741  1.00  0.00     0.012 A 
ATOM     79  C   UNL A   1      38.846  32.601  37.626  1.00  0.00     0.148 A 
ATOM     80  C   UNL A   1      40.271  35.001  37.919  1.00  0.00     0.002 A 
ATOM     81  C   UNL A   1      38.699  33.369  38.776  1.00  0.00     0.091 A 
ATOM     82  F   UNL A   1      38.204  31.433  37.470  1.00  0.00    -0.205 F 
ATOM     83  C   UNL A   1      39.425  34.559  38.933  1.00  0.00     0.022 A 
BRANCH  81  84
ATOM     84  S   UNL A   1      37.528  32.942  40.070  1.00  0.00     0.127 S 
ATOM     85  O   UNL A   1      38.080  31.690  40.574  1.00  0.00    -0.237 OA
ATOM     86  O   UNL A   1      37.650  34.082  40.981  1.00  0.00    -0.237 OA
ATOM     87  O   UNL A   1      36.233  32.848  39.406  1.00  0.00    -0.744 OA
ENDBRANCH  81  84
ENDBRANCH  53  77
BRANCH  65  88
ATOM     88  C   UNL A   1      44.231  28.183  34.503  1.00  0.00     0.023 A 
ATOM     89  C   UNL A   1      45.491  28.811  34.455  1.00  0.00     0.012 A 
ATOM     90  C   UNL A   1      44.079  26.991  35.238  1.00  0.00     0.148 A 
ATOM     91  C   UNL A   1      46.589  28.246  35.102  1.00  0.00     0.002 A 
ATOM     92  C   UNL A   1      45.166  26.460  35.921  1.00  0.00     0.091 A 
ATOM     93  F   UNL A   1      42.876  26.400  35.255  1.00  0.00    -0.205 F 
ATOM     94  C   UNL A   1      46.425  27.079  35.844  1.00  0.00     0.022 A 
BRANCH  92  95
ATOM     95  S   UNL A   1      45.027  25.013  36.977  1.00  0.00     0.127 S 
ATOM     96  O   UNL A   1      44.667  23.974  36.013  1.00  0.00    -0.237 OA
ATOM     97  O   UNL A   1      46.379  24.896  37.524  1.00  0.00    -0.237 OA
ATOM     98  O   UNL A   1      44.003  25.333  37.963  1.00  0.00    -0.744 OA
ENDBRANCH  92  95
ENDBRANCH  65  88
ENDBRANCH  39  40
ENDBRANCH  31  34
ENDBRANCH  29  30
ENDBRANCH  28  29
ENDBRANCH   1  28
TORSDOF 18
ENDMDL
