MODEL 1
REMARK VINA RESULT:     -12.7      0.000      0.000
REMARK SMILES O=C(NCCCNC(=O)c1cc(S[C@H]2CCO[C@@]3(CCOC3)C2)cs1)c1ccc(-c2c3nc(c(-c4cccc(S(=O)(=O)[O-])c4F)c4ccc([nH]4)c(-c4cccc(S(=O)(=O)[O-])c4F)c4nc(c(-c5cccc(S(=O)(=O)[O-])c5F)c5ccc2[nH]5)C=C4)C=C3)cc1
REMARK SMILES IDX 4 1 3 2 1 3 2 4 26 6 27 7 88 8 28 9 87 10 29 11 30 12 31 13
REMARK SMILES IDX 81 14 32 15 86 16 80 17 82 18 33 19 85 20 79 21 78 22 34 24
REMARK SMILES IDX 66 25 46 26 65 27 47 28 50 29 64 30 83 31 48 32 49 33 63 35
REMARK SMILES IDX 84 36 51 37 35 38 36 39 44 40 37 41 39 42 45 43 38 44 40 45
REMARK SMILES IDX 41 46 42 47 43 48 67 49 68 50 76 51 69 52 71 53 77 54 70 55
REMARK SMILES IDX 72 56 73 57 74 58 75 59 52 60 53 61 61 62 54 63 56 64 62 65
REMARK SMILES IDX 55 66 57 67 58 68 59 69 60 70 5 71 6 72 7 73 8 74 9 76 10 77
REMARK SMILES IDX 11 78 25 79 12 80 24 81 13 82 14 83 15 84 23 85 16 86 18 87
REMARK SMILES IDX 17 88 19 89 22 90 20 91 21 92
REMARK H PARENT 3 5 82 23 50 34 7 75
REMARK Flexibility Score: inf
ROOT
ATOM      1  C   UNL A   1      37.144  21.911  24.314  1.00  0.00     0.118 C 
ENDROOT
BRANCH   1   2
ATOM      2  N   UNL A   1      37.823  20.844  25.034  1.00  0.00    -0.352 N 
ATOM      3  O   UNL A   1      39.489  19.811  26.125  1.00  0.00    -0.269 OA
ATOM      4  C   UNL A   1      38.974  20.874  25.785  1.00  0.00     0.251 C 
ATOM      5  H   UNL A   1      37.391  19.962  24.973  1.00  0.00     0.163 HD
BRANCH   4   6
ATOM      6  C   UNL A   1      39.598  22.163  26.163  1.00  0.00     0.039 A 
ATOM      7  C   UNL A   1      40.946  22.234  26.519  1.00  0.00     0.014 A 
ATOM      8  C   UNL A   1      38.830  23.331  26.121  1.00  0.00     0.014 A 
ATOM      9  C   UNL A   1      41.483  23.431  26.983  1.00  0.00     0.010 A 
ATOM     10  C   UNL A   1      39.397  24.553  26.496  1.00  0.00     0.010 A 
ATOM     11  C   UNL A   1      40.719  24.608  26.963  1.00  0.00    -0.014 A 
BRANCH  11  12
ATOM     12  C   UNL A   1      41.351  25.892  27.355  1.00  0.00     0.031 A 
ATOM     13  C   UNL A   1      42.749  26.241  26.928  1.00  0.00     0.074 A 
ATOM     14  C   UNL A   1      40.647  26.750  28.120  1.00  0.00     0.049 A 
ATOM     15  N   UNL A   1      43.432  27.330  27.170  1.00  0.00    -0.248 NA
ATOM     16  C   UNL A   1      43.482  25.238  26.139  1.00  0.00     0.031 C 
ATOM     17  C   UNL A   1      39.305  26.494  28.648  1.00  0.00     0.029 A 
ATOM     18  N   UNL A   1      40.958  27.999  28.593  1.00  0.00    -0.354 N 
ATOM     19  C   UNL A   1      44.684  27.131  26.603  1.00  0.00     0.074 A 
ATOM     20  C   UNL A   1      44.671  25.812  26.008  1.00  0.00     0.031 C 
ATOM     21  C   UNL A   1      38.902  27.557  29.359  1.00  0.00     0.029 A 
ATOM     22  C   UNL A   1      39.969  28.551  29.373  1.00  0.00     0.049 A 
ATOM     23  H   UNL A   1      41.807  28.457  28.394  1.00  0.00     0.167 HD
ATOM     24  C   UNL A   1      45.740  27.978  26.565  1.00  0.00     0.034 A 
ATOM     25  C   UNL A   1      39.926  29.719  30.041  1.00  0.00     0.034 A 
ATOM     26  C   UNL A   1      45.731  29.309  27.111  1.00  0.00     0.049 A 
ATOM     27  C   UNL A   1      41.089  30.660  29.938  1.00  0.00     0.074 A 
ATOM     28  C   UNL A   1      46.719  30.277  27.038  1.00  0.00     0.029 A 
ATOM     29  N   UNL A   1      44.686  29.860  27.837  1.00  0.00    -0.354 N 
ATOM     30  N   UNL A   1      42.203  30.516  29.262  1.00  0.00    -0.248 NA
ATOM     31  C   UNL A   1      40.982  31.935  30.661  1.00  0.00     0.031 C 
ATOM     32  C   UNL A   1      46.273  31.410  27.727  1.00  0.00     0.029 A 
ATOM     33  C   UNL A   1      45.008  31.149  28.228  1.00  0.00     0.049 A 
ATOM     34  H   UNL A   1      43.840  29.402  28.045  1.00  0.00     0.167 HD
ATOM     35  C   UNL A   1      42.928  31.683  29.471  1.00  0.00     0.074 A 
ATOM     36  C   UNL A   1      42.111  32.537  30.309  1.00  0.00     0.031 C 
ATOM     37  C   UNL A   1      44.167  32.005  29.026  1.00  0.00     0.034 A 
BRANCH  24  38
ATOM     38  C   UNL A   1      46.984  27.512  25.857  1.00  0.00     0.023 A 
ATOM     39  C   UNL A   1      47.934  26.747  26.564  1.00  0.00     0.012 A 
ATOM     40  C   UNL A   1      47.188  27.773  24.489  1.00  0.00     0.148 A 
ATOM     41  C   UNL A   1      49.078  26.269  25.926  1.00  0.00     0.002 A 
ATOM     42  C   UNL A   1      48.316  27.267  23.851  1.00  0.00     0.091 A 
ATOM     43  F   UNL A   1      46.291  28.527  23.837  1.00  0.00    -0.205 F 
ATOM     44  C   UNL A   1      49.265  26.520  24.569  1.00  0.00     0.022 A 
BRANCH  42  45
ATOM     45  S   UNL A   1      48.591  27.496  22.090  1.00  0.00     0.127 S 
ATOM     46  O   UNL A   1      49.824  28.281  22.082  1.00  0.00    -0.237 OA
ATOM     47  O   UNL A   1      48.743  26.121  21.610  1.00  0.00    -0.237 OA
ATOM     48  O   UNL A   1      47.399  28.172  21.598  1.00  0.00    -0.744 OA
ENDBRANCH  42  45
ENDBRANCH  24  38
BRANCH  25  49
ATOM     49  C   UNL A   1      38.701  30.064  30.814  1.00  0.00     0.023 A 
ATOM     50  C   UNL A   1      38.629  29.734  32.180  1.00  0.00     0.012 A 
ATOM     51  C   UNL A   1      37.658  30.808  30.228  1.00  0.00     0.148 A 
ATOM     52  C   UNL A   1      37.535  30.137  32.948  1.00  0.00     0.002 A 
ATOM     53  C   UNL A   1      36.601  31.256  31.012  1.00  0.00     0.091 A 
ATOM     54  F   UNL A   1      37.736  31.094  28.920  1.00  0.00    -0.205 F 
ATOM     55  C   UNL A   1      36.531  30.911  32.369  1.00  0.00     0.022 A 
BRANCH  53  56
ATOM     56  S   UNL A   1      35.363  32.391  30.374  1.00  0.00     0.127 S 
ATOM     57  O   UNL A   1      34.445  32.501  31.504  1.00  0.00    -0.237 OA
ATOM     58  O   UNL A   1      36.156  33.593  30.104  1.00  0.00    -0.237 OA
ATOM     59  O   UNL A   1      34.834  31.749  29.177  1.00  0.00    -0.744 OA
ENDBRANCH  53  56
ENDBRANCH  25  49
BRANCH  37  60
ATOM     60  C   UNL A   1      44.726  33.337  29.444  1.00  0.00     0.023 A 
ATOM     61  C   UNL A   1      45.488  33.421  30.625  1.00  0.00     0.012 A 
ATOM     62  C   UNL A   1      44.567  34.480  28.637  1.00  0.00     0.148 A 
ATOM     63  C   UNL A   1      46.068  34.630  31.009  1.00  0.00     0.002 A 
ATOM     64  C   UNL A   1      45.178  35.673  29.007  1.00  0.00     0.091 A 
ATOM     65  F   UNL A   1      43.818  34.383  27.529  1.00  0.00    -0.205 F 
ATOM     66  C   UNL A   1      45.924  35.751  30.195  1.00  0.00     0.022 A 
BRANCH  64  67
ATOM     67  S   UNL A   1      45.107  37.141  27.973  1.00  0.00     0.127 S 
ATOM     68  O   UNL A   1      45.727  36.665  26.738  1.00  0.00    -0.237 OA
ATOM     69  O   UNL A   1      43.668  37.391  27.877  1.00  0.00    -0.237 OA
ATOM     70  O   UNL A   1      45.846  38.167  28.695  1.00  0.00    -0.744 OA
ENDBRANCH  64  67
ENDBRANCH  37  60
ENDBRANCH  11  12
ENDBRANCH   4   6
ENDBRANCH   1   2
BRANCH   1  71
ATOM     71  C   UNL A   1      35.629  21.811  24.414  1.00  0.00     0.042 C 
BRANCH  71  72
ATOM     72  C   UNL A   1      35.135  21.181  25.708  1.00  0.00     0.118 C 
BRANCH  72  73
ATOM     73  N   UNL A   1      34.190  20.099  25.466  1.00  0.00    -0.351 N 
ATOM     74  C   UNL A   1      32.834  20.143  25.253  1.00  0.00     0.261 C 
ATOM     75  H   UNL A   1      34.583  19.197  25.453  1.00  0.00     0.163 HD
ATOM     76  O   UNL A   1      32.223  19.068  25.308  1.00  0.00    -0.268 OA
BRANCH  74  77
ATOM     77  C   UNL A   1      32.203  21.407  24.938  1.00  0.00     0.093 A 
ATOM     78  C   UNL A   1      31.661  22.341  25.801  1.00  0.00     0.040 A 
ATOM     79  S   UNL A   1      32.132  21.953  23.319  1.00  0.00    -0.137 S 
ATOM     80  C   UNL A   1      31.134  23.479  25.137  1.00  0.00     0.019 A 
ATOM     81  C   UNL A   1      31.322  23.393  23.775  1.00  0.00     0.080 A 
BRANCH  80  82
ATOM     82  S   UNL A   1      30.358  24.862  25.902  1.00  0.00    -0.122 SA
BRANCH  82  83
ATOM     83  C   UNL A   1      30.914  26.306  24.924  1.00  0.00     0.057 C 
ATOM     84  C   UNL A   1      29.805  26.810  24.000  1.00  0.00     0.043 C 
ATOM     85  C   UNL A   1      31.326  27.443  25.873  1.00  0.00     0.053 C 
ATOM     86  C   UNL A   1      30.313  28.027  23.247  1.00  0.00     0.162 C 
ATOM     87  C   UNL A   1      31.660  28.739  25.099  1.00  0.00     0.095 C 
ATOM     88  O   UNL A   1      30.627  29.066  24.168  1.00  0.00    -0.372 OA
ATOM     89  C   UNL A   1      31.822  29.917  26.047  1.00  0.00     0.066 C 
ATOM     90  C   UNL A   1      33.057  28.718  24.467  1.00  0.00     0.195 C 
ATOM     91  C   UNL A   1      33.253  29.798  26.519  1.00  0.00     0.163 C 
ATOM     92  O   UNL A   1      33.983  29.117  25.489  1.00  0.00    -0.378 OA
ENDBRANCH  82  83
ENDBRANCH  80  82
ENDBRANCH  74  77
ENDBRANCH  72  73
ENDBRANCH  71  72
ENDBRANCH   1  71
TORSDOF 15
ENDMDL
MODEL 2
REMARK VINA RESULT:     -12.7      5.265     10.374
REMARK SMILES O=C(NCCCNC(=O)c1cc(S[C@H]2CCO[C@@]3(CCOC3)C2)cs1)c1ccc(-c2c3nc(c(-c4cccc(S(=O)(=O)[O-])c4F)c4ccc([nH]4)c(-c4cccc(S(=O)(=O)[O-])c4F)c4nc(c(-c5cccc(S(=O)(=O)[O-])c5F)c5ccc2[nH]5)C=C4)C=C3)cc1
REMARK SMILES IDX 4 1 3 2 1 3 2 4 26 6 27 7 88 8 28 9 87 10 29 11 30 12 31 13
REMARK SMILES IDX 81 14 32 15 86 16 80 17 82 18 33 19 85 20 79 21 78 22 34 24
REMARK SMILES IDX 66 25 46 26 65 27 47 28 50 29 64 30 83 31 48 32 49 33 63 35
REMARK SMILES IDX 84 36 51 37 35 38 36 39 44 40 37 41 39 42 45 43 38 44 40 45
REMARK SMILES IDX 41 46 42 47 43 48 67 49 68 50 76 51 69 52 71 53 77 54 70 55
REMARK SMILES IDX 72 56 73 57 74 58 75 59 52 60 53 61 61 62 54 63 56 64 62 65
REMARK SMILES IDX 55 66 57 67 58 68 59 69 60 70 5 71 6 72 7 73 8 74 9 76 10 77
REMARK SMILES IDX 11 78 25 79 12 80 24 81 13 82 14 83 15 84 23 85 16 86 18 87
REMARK SMILES IDX 17 88 19 89 22 90 20 91 21 92
REMARK H PARENT 3 5 82 23 50 34 7 75
REMARK Flexibility Score: inf
ROOT
ATOM      1  C   UNL A   1      33.676  29.537  25.749  1.00  0.00     0.118 C 
ENDROOT
BRANCH   1   2
ATOM      2  N   UNL A   1      33.321  30.848  26.271  1.00  0.00    -0.352 N 
ATOM      3  O   UNL A   1      33.237  32.543  27.739  1.00  0.00    -0.269 OA
ATOM      4  C   UNL A   1      33.832  31.545  27.340  1.00  0.00     0.251 C 
ATOM      5  H   UNL A   1      32.600  31.308  25.784  1.00  0.00     0.163 HD
BRANCH   4   6
ATOM      6  C   UNL A   1      35.070  31.091  28.017  1.00  0.00     0.039 A 
ATOM      7  C   UNL A   1      36.213  31.892  28.041  1.00  0.00     0.014 A 
ATOM      8  C   UNL A   1      35.074  29.858  28.676  1.00  0.00     0.014 A 
ATOM      9  C   UNL A   1      37.398  31.400  28.578  1.00  0.00     0.010 A 
ATOM     10  C   UNL A   1      36.240  29.405  29.300  1.00  0.00     0.010 A 
ATOM     11  C   UNL A   1      37.422  30.156  29.228  1.00  0.00    -0.014 A 
BRANCH  11  12
ATOM     12  C   UNL A   1      38.670  29.706  29.893  1.00  0.00     0.031 A 
ATOM     13  C   UNL A   1      39.074  30.233  31.241  1.00  0.00     0.074 A 
ATOM     14  C   UNL A   1      39.454  28.813  29.256  1.00  0.00     0.049 A 
ATOM     15  N   UNL A   1      40.122  29.923  31.962  1.00  0.00    -0.248 NA
ATOM     16  C   UNL A   1      38.202  31.245  31.858  1.00  0.00     0.031 C 
ATOM     17  C   UNL A   1      39.197  28.279  27.917  1.00  0.00     0.029 A 
ATOM     18  N   UNL A   1      40.622  28.206  29.638  1.00  0.00    -0.354 N 
ATOM     19  C   UNL A   1      40.060  30.726  33.093  1.00  0.00     0.074 A 
ATOM     20  C   UNL A   1      38.873  31.545  32.963  1.00  0.00     0.031 C 
ATOM     21  C   UNL A   1      40.168  27.413  27.595  1.00  0.00     0.029 A 
ATOM     22  C   UNL A   1      41.138  27.362  28.684  1.00  0.00     0.049 A 
ATOM     23  H   UNL A   1      41.051  28.360  30.512  1.00  0.00     0.167 HD
ATOM     24  C   UNL A   1      40.904  30.764  34.151  1.00  0.00     0.034 A 
ATOM     25  C   UNL A   1      42.272  26.636  28.673  1.00  0.00     0.034 A 
ATOM     26  C   UNL A   1      42.052  29.911  34.302  1.00  0.00     0.049 A 
ATOM     27  C   UNL A   1      43.161  26.656  29.882  1.00  0.00     0.074 A 
ATOM     28  C   UNL A   1      42.913  29.807  35.382  1.00  0.00     0.029 A 
ATOM     29  N   UNL A   1      42.507  29.018  33.343  1.00  0.00    -0.354 N 
ATOM     30  N   UNL A   1      42.999  27.305  31.008  1.00  0.00    -0.248 NA
ATOM     31  C   UNL A   1      44.372  25.825  29.832  1.00  0.00     0.031 C 
ATOM     32  C   UNL A   1      43.892  28.857  35.072  1.00  0.00     0.029 A 
ATOM     33  C   UNL A   1      43.641  28.368  33.800  1.00  0.00     0.049 A 
ATOM     34  H   UNL A   1      42.086  28.869  32.465  1.00  0.00     0.167 HD
ATOM     35  C   UNL A   1      44.080  26.957  31.807  1.00  0.00     0.074 A 
ATOM     36  C   UNL A   1      44.874  26.013  31.047  1.00  0.00     0.031 C 
ATOM     37  C   UNL A   1      44.397  27.398  33.049  1.00  0.00     0.034 A 
BRANCH  24  38
ATOM     38  C   UNL A   1      40.584  31.724  35.266  1.00  0.00     0.023 A 
ATOM     39  C   UNL A   1      41.395  32.863  35.447  1.00  0.00     0.012 A 
ATOM     40  C   UNL A   1      39.458  31.539  36.090  1.00  0.00     0.148 A 
ATOM     41  C   UNL A   1      41.103  33.790  36.447  1.00  0.00     0.002 A 
ATOM     42  C   UNL A   1      39.155  32.485  37.064  1.00  0.00     0.091 A 
ATOM     43  F   UNL A   1      38.714  30.437  35.924  1.00  0.00    -0.205 F 
ATOM     44  C   UNL A   1      39.979  33.607  37.248  1.00  0.00     0.022 A 
BRANCH  42  45
ATOM     45  S   UNL A   1      37.687  32.348  38.092  1.00  0.00     0.127 S 
ATOM     46  O   UNL A   1      38.119  33.019  39.317  1.00  0.00    -0.237 OA
ATOM     47  O   UNL A   1      36.686  33.084  37.317  1.00  0.00    -0.237 OA
ATOM     48  O   UNL A   1      37.425  30.920  38.203  1.00  0.00    -0.744 OA
ENDBRANCH  42  45
ENDBRANCH  24  38
BRANCH  25  49
ATOM     49  C   UNL A   1      42.578  25.792  27.485  1.00  0.00     0.023 A 
ATOM     50  C   UNL A   1      43.450  26.281  26.495  1.00  0.00     0.012 A 
ATOM     51  C   UNL A   1      42.094  24.472  27.388  1.00  0.00     0.148 A 
ATOM     52  C   UNL A   1      43.830  25.470  25.425  1.00  0.00     0.002 A 
ATOM     53  C   UNL A   1      42.524  23.652  26.351  1.00  0.00     0.091 A 
ATOM     54  F   UNL A   1      41.248  24.033  28.330  1.00  0.00    -0.205 F 
ATOM     55  C   UNL A   1      43.382  24.152  25.362  1.00  0.00     0.022 A 
BRANCH  53  56
ATOM     56  S   UNL A   1      42.120  21.902  26.300  1.00  0.00     0.127 S 
ATOM     57  O   UNL A   1      40.690  21.933  26.005  1.00  0.00    -0.237 OA
ATOM     58  O   UNL A   1      42.966  21.422  25.204  1.00  0.00    -0.237 OA
ATOM     59  O   UNL A   1      42.494  21.382  27.609  1.00  0.00    -0.744 OA
ENDBRANCH  53  56
ENDBRANCH  25  49
BRANCH  37  60
ATOM     60  C   UNL A   1      45.664  26.873  33.666  1.00  0.00     0.023 A 
ATOM     61  C   UNL A   1      46.853  27.615  33.527  1.00  0.00     0.012 A 
ATOM     62  C   UNL A   1      45.665  25.698  34.442  1.00  0.00     0.148 A 
ATOM     63  C   UNL A   1      48.031  27.184  34.136  1.00  0.00     0.002 A 
ATOM     64  C   UNL A   1      46.834  25.294  35.076  1.00  0.00     0.091 A 
ATOM     65  F   UNL A   1      44.527  24.995  34.541  1.00  0.00    -0.205 F 
ATOM     66  C   UNL A   1      48.019  26.033  34.920  1.00  0.00     0.022 A 
BRANCH  64  67
ATOM     67  S   UNL A   1      46.883  23.868  36.167  1.00  0.00     0.127 S 
ATOM     68  O   UNL A   1      45.837  24.195  37.134  1.00  0.00    -0.237 OA
ATOM     69  O   UNL A   1      46.553  22.766  35.262  1.00  0.00    -0.237 OA
ATOM     70  O   UNL A   1      48.239  23.822  36.696  1.00  0.00    -0.744 OA
ENDBRANCH  64  67
ENDBRANCH  37  60
ENDBRANCH  11  12
ENDBRANCH   4   6
ENDBRANCH   1   2
BRANCH   1  71
ATOM     71  C   UNL A   1      32.743  29.080  24.637  1.00  0.00     0.042 C 
BRANCH  71  72
ATOM     72  C   UNL A   1      31.273  29.363  24.908  1.00  0.00     0.118 C 
BRANCH  72  73
ATOM     73  N   UNL A   1      30.520  29.581  23.679  1.00  0.00    -0.351 N 
ATOM     74  C   UNL A   1      30.328  28.751  22.602  1.00  0.00     0.261 C 
ATOM     75  H   UNL A   1      30.080  30.459  23.611  1.00  0.00     0.163 HD
ATOM     76  O   UNL A   1      29.844  29.260  21.583  1.00  0.00    -0.268 OA
BRANCH  74  77
ATOM     77  C   UNL A   1      30.650  27.345  22.721  1.00  0.00     0.093 A 
ATOM     78  C   UNL A   1      31.685  26.643  22.130  1.00  0.00     0.040 A 
ATOM     79  S   UNL A   1      29.742  26.339  23.762  1.00  0.00    -0.137 S 
ATOM     80  C   UNL A   1      31.703  25.269  22.482  1.00  0.00     0.019 A 
ATOM     81  C   UNL A   1      30.690  24.967  23.366  1.00  0.00     0.080 A 
BRANCH  80  82
ATOM     82  S   UNL A   1      32.859  24.066  21.919  1.00  0.00    -0.122 SA
BRANCH  82  83
ATOM     83  C   UNL A   1      33.323  23.129  23.420  1.00  0.00     0.057 C 
ATOM     84  C   UNL A   1      32.733  21.718  23.397  1.00  0.00     0.043 C 
ATOM     85  C   UNL A   1      34.853  23.026  23.511  1.00  0.00     0.053 C 
ATOM     86  C   UNL A   1      33.182  20.980  24.647  1.00  0.00     0.162 C 
ATOM     87  C   UNL A   1      35.295  22.114  24.680  1.00  0.00     0.095 C 
ATOM     88  O   UNL A   1      34.601  20.866  24.652  1.00  0.00    -0.372 OA
ATOM     89  C   UNL A   1      36.786  21.819  24.611  1.00  0.00     0.066 C 
ATOM     90  C   UNL A   1      35.230  22.811  26.043  1.00  0.00     0.195 C 
ATOM     91  C   UNL A   1      37.416  23.022  25.275  1.00  0.00     0.163 C 
ATOM     92  O   UNL A   1      36.450  23.553  26.192  1.00  0.00    -0.378 OA
ENDBRANCH  82  83
ENDBRANCH  80  82
ENDBRANCH  74  77
ENDBRANCH  72  73
ENDBRANCH  71  72
ENDBRANCH   1  71
TORSDOF 15
ENDMDL
MODEL 3
REMARK VINA RESULT:     -12.7      5.212     10.464
REMARK SMILES O=C(NCCCNC(=O)c1cc(S[C@H]2CCO[C@@]3(CCOC3)C2)cs1)c1ccc(-c2c3nc(c(-c4cccc(S(=O)(=O)[O-])c4F)c4ccc([nH]4)c(-c4cccc(S(=O)(=O)[O-])c4F)c4nc(c(-c5cccc(S(=O)(=O)[O-])c5F)c5ccc2[nH]5)C=C4)C=C3)cc1
REMARK SMILES IDX 4 1 3 2 1 3 2 4 26 6 27 7 88 8 28 9 87 10 29 11 30 12 31 13
REMARK SMILES IDX 81 14 32 15 86 16 80 17 82 18 33 19 85 20 79 21 78 22 34 24
REMARK SMILES IDX 66 25 46 26 65 27 47 28 50 29 64 30 83 31 48 32 49 33 63 35
REMARK SMILES IDX 84 36 51 37 35 38 36 39 44 40 37 41 39 42 45 43 38 44 40 45
REMARK SMILES IDX 41 46 42 47 43 48 67 49 68 50 76 51 69 52 71 53 77 54 70 55
REMARK SMILES IDX 72 56 73 57 74 58 75 59 52 60 53 61 61 62 54 63 56 64 62 65
REMARK SMILES IDX 55 66 57 67 58 68 59 69 60 70 5 71 6 72 7 73 8 74 9 76 10 77
REMARK SMILES IDX 11 78 25 79 12 80 24 81 13 82 14 83 15 84 23 85 16 86 18 87
REMARK SMILES IDX 17 88 19 89 22 90 20 91 21 92
REMARK H PARENT 3 5 82 23 50 34 7 75
REMARK Flexibility Score: inf
ROOT
ATOM      1  C   UNL A   1      32.824  29.147  25.612  1.00  0.00     0.118 C 
ENDROOT
BRANCH   1   2
ATOM      2  N   UNL A   1      32.483  30.523  25.941  1.00  0.00    -0.352 N 
ATOM      3  O   UNL A   1      32.433  32.419  27.140  1.00  0.00    -0.269 OA
ATOM      4  C   UNL A   1      33.019  31.369  26.882  1.00  0.00     0.251 C 
ATOM      5  H   UNL A   1      31.751  30.908  25.406  1.00  0.00     0.163 HD
BRANCH   4   6
ATOM      6  C   UNL A   1      34.270  31.016  27.591  1.00  0.00     0.039 A 
ATOM      7  C   UNL A   1      34.536  29.700  27.972  1.00  0.00     0.014 A 
ATOM      8  C   UNL A   1      35.215  32.015  27.845  1.00  0.00     0.014 A 
ATOM      9  C   UNL A   1      35.660  29.409  28.739  1.00  0.00     0.010 A 
ATOM     10  C   UNL A   1      36.392  31.704  28.534  1.00  0.00     0.010 A 
ATOM     11  C   UNL A   1      36.609  30.406  29.017  1.00  0.00    -0.014 A 
BRANCH  11  12
ATOM     12  C   UNL A   1      37.854  30.044  29.739  1.00  0.00     0.031 A 
ATOM     13  C   UNL A   1      38.132  30.550  31.126  1.00  0.00     0.074 A 
ATOM     14  C   UNL A   1      38.751  29.252  29.119  1.00  0.00     0.049 A 
ATOM     15  N   UNL A   1      39.161  30.307  31.897  1.00  0.00    -0.248 NA
ATOM     16  C   UNL A   1      37.137  31.453  31.726  1.00  0.00     0.031 C 
ATOM     17  C   UNL A   1      38.621  28.751  27.749  1.00  0.00     0.029 A 
ATOM     18  N   UNL A   1      39.947  28.738  29.548  1.00  0.00    -0.354 N 
ATOM     19  C   UNL A   1      38.962  31.055  33.049  1.00  0.00     0.074 A 
ATOM     20  C   UNL A   1      37.714  31.768  32.878  1.00  0.00     0.031 C 
ATOM     21  C   UNL A   1      39.684  27.990  27.455  1.00  0.00     0.029 A 
ATOM     22  C   UNL A   1      40.592  27.983  28.597  1.00  0.00     0.049 A 
ATOM     23  H   UNL A   1      40.311  28.894  30.450  1.00  0.00     0.167 HD
ATOM     24  C   UNL A   1      39.739  31.126  34.157  1.00  0.00     0.034 A 
ATOM     25  C   UNL A   1      41.787  27.363  28.628  1.00  0.00     0.034 A 
ATOM     26  C   UNL A   1      40.951  30.375  34.345  1.00  0.00     0.049 A 
ATOM     27  C   UNL A   1      42.601  27.415  29.887  1.00  0.00     0.074 A 
ATOM     28  C   UNL A   1      41.756  30.306  35.471  1.00  0.00     0.029 A 
ATOM     29  N   UNL A   1      41.540  29.566  33.384  1.00  0.00    -0.354 N 
ATOM     30  N   UNL A   1      42.317  28.000  31.024  1.00  0.00    -0.248 NA
ATOM     31  C   UNL A   1      43.885  26.699  29.880  1.00  0.00     0.031 C 
ATOM     32  C   UNL A   1      42.834  29.461  35.186  1.00  0.00     0.029 A 
ATOM     33  C   UNL A   1      42.702  29.004  33.885  1.00  0.00     0.049 A 
ATOM     34  H   UNL A   1      41.184  29.415  32.478  1.00  0.00     0.167 HD
ATOM     35  C   UNL A   1      43.379  27.719  31.873  1.00  0.00     0.074 A 
ATOM     36  C   UNL A   1      44.299  26.882  31.128  1.00  0.00     0.031 C 
ATOM     37  C   UNL A   1      43.584  28.137  33.146  1.00  0.00     0.034 A 
BRANCH  24  38
ATOM     38  C   UNL A   1      39.270  32.007  35.283  1.00  0.00     0.023 A 
ATOM     39  C   UNL A   1      38.358  31.493  36.227  1.00  0.00     0.012 A 
ATOM     40  C   UNL A   1      39.771  33.313  35.447  1.00  0.00     0.148 A 
ATOM     41  C   UNL A   1      37.933  32.273  37.302  1.00  0.00     0.002 A 
ATOM     42  C   UNL A   1      39.368  34.073  36.540  1.00  0.00     0.091 A 
ATOM     43  F   UNL A   1      40.616  33.798  34.526  1.00  0.00    -0.205 F 
ATOM     44  C   UNL A   1      38.445  33.558  37.465  1.00  0.00     0.022 A 
BRANCH  42  45
ATOM     45  S   UNL A   1      40.034  35.714  36.850  1.00  0.00     0.127 S 
ATOM     46  O   UNL A   1      39.423  36.044  38.136  1.00  0.00    -0.237 OA
ATOM     47  O   UNL A   1      41.476  35.467  36.906  1.00  0.00    -0.237 OA
ATOM     48  O   UNL A   1      39.610  36.522  35.715  1.00  0.00    -0.744 OA
ENDBRANCH  42  45
ENDBRANCH  24  38
BRANCH  25  49
ATOM     49  C   UNL A   1      42.236  26.600  27.431  1.00  0.00     0.023 A 
ATOM     50  C   UNL A   1      43.085  27.217  26.494  1.00  0.00     0.012 A 
ATOM     51  C   UNL A   1      41.911  25.237  27.276  1.00  0.00     0.148 A 
ATOM     52  C   UNL A   1      43.599  26.490  25.419  1.00  0.00     0.002 A 
ATOM     53  C   UNL A   1      42.474  24.506  26.236  1.00  0.00     0.091 A 
ATOM     54  F   UNL A   1      41.084  24.673  28.167  1.00  0.00    -0.205 F 
ATOM     55  C   UNL A   1      43.308  25.133  25.300  1.00  0.00     0.022 A 
BRANCH  53  56
ATOM     56  S   UNL A   1      42.276  22.724  26.118  1.00  0.00     0.127 S 
ATOM     57  O   UNL A   1      43.002  22.422  24.887  1.00  0.00    -0.237 OA
ATOM     58  O   UNL A   1      42.924  22.258  27.346  1.00  0.00    -0.237 OA
ATOM     59  O   UNL A   1      40.837  22.499  26.085  1.00  0.00    -0.744 OA
ENDBRANCH  53  56
ENDBRANCH  25  49
BRANCH  37  60
ATOM     60  C   UNL A   1      44.859  27.704  33.818  1.00  0.00     0.023 A 
ATOM     61  C   UNL A   1      45.988  28.543  33.754  1.00  0.00     0.012 A 
ATOM     62  C   UNL A   1      44.918  26.516  34.572  1.00  0.00     0.148 A 
ATOM     63  C   UNL A   1      47.165  28.197  34.415  1.00  0.00     0.002 A 
ATOM     64  C   UNL A   1      46.084  26.196  35.258  1.00  0.00     0.091 A 
ATOM     65  F   UNL A   1      43.839  25.720  34.600  1.00  0.00    -0.205 F 
ATOM     66  C   UNL A   1      47.210  27.032  35.177  1.00  0.00     0.022 A 
BRANCH  64  67
ATOM     67  S   UNL A   1      46.196  24.754  36.325  1.00  0.00     0.127 S 
ATOM     68  O   UNL A   1      45.112  25.000  37.274  1.00  0.00    -0.237 OA
ATOM     69  O   UNL A   1      45.953  23.652  35.394  1.00  0.00    -0.237 OA
ATOM     70  O   UNL A   1      47.541  24.780  36.883  1.00  0.00    -0.744 OA
ENDBRANCH  64  67
ENDBRANCH  37  60
ENDBRANCH  11  12
ENDBRANCH   4   6
ENDBRANCH   1   2
BRANCH   1  71
ATOM     71  C   UNL A   1      33.133  28.960  24.134  1.00  0.00     0.042 C 
BRANCH  71  72
ATOM     72  C   UNL A   1      33.820  27.641  23.808  1.00  0.00     0.118 C 
BRANCH  72  73
ATOM     73  N   UNL A   1      33.493  27.168  22.469  1.00  0.00    -0.351 N 
ATOM     74  C   UNL A   1      33.261  25.893  22.015  1.00  0.00     0.261 C 
ATOM     75  H   UNL A   1      33.428  27.871  21.783  1.00  0.00     0.163 HD
ATOM     76  O   UNL A   1      33.236  25.731  20.789  1.00  0.00    -0.268 OA
BRANCH  74  77
ATOM     77  C   UNL A   1      33.016  24.832  22.969  1.00  0.00     0.093 A 
ATOM     78  C   UNL A   1      33.902  23.892  23.462  1.00  0.00     0.040 A 
ATOM     79  S   UNL A   1      31.481  24.673  23.705  1.00  0.00    -0.137 S 
ATOM     80  C   UNL A   1      33.314  23.004  24.399  1.00  0.00     0.019 A 
ATOM     81  C   UNL A   1      31.991  23.317  24.620  1.00  0.00     0.080 A 
BRANCH  80  82
ATOM     82  S   UNL A   1      34.126  21.678  25.225  1.00  0.00    -0.122 SA
BRANCH  82  83
ATOM     83  C   UNL A   1      33.225  20.177  24.692  1.00  0.00     0.057 C 
ATOM     84  C   UNL A   1      32.644  20.349  23.287  1.00  0.00     0.043 C 
ATOM     85  C   UNL A   1      34.182  18.975  24.689  1.00  0.00     0.053 C 
ATOM     86  C   UNL A   1      31.943  19.062  22.888  1.00  0.00     0.162 C 
ATOM     87  C   UNL A   1      33.510  17.712  24.101  1.00  0.00     0.095 C 
ATOM     88  O   UNL A   1      32.884  17.995  22.849  1.00  0.00    -0.372 OA
ATOM     89  C   UNL A   1      34.529  16.605  23.873  1.00  0.00     0.066 C 
ATOM     90  C   UNL A   1      32.579  17.009  25.096  1.00  0.00     0.195 C 
ATOM     91  C   UNL A   1      34.645  15.946  25.228  1.00  0.00     0.163 C 
ATOM     92  O   UNL A   1      33.403  16.162  25.912  1.00  0.00    -0.378 OA
ENDBRANCH  82  83
ENDBRANCH  80  82
ENDBRANCH  74  77
ENDBRANCH  72  73
ENDBRANCH  71  72
ENDBRANCH   1  71
TORSDOF 15
ENDMDL
