MODEL 1
REMARK VINA RESULT:     -13.4      0.000      0.000
REMARK SMILES C[C@H](NC(=O)CCN1C(=O)/C(=C/c2ccc([N+](=O)[O-])cc2)SC1=S)C(=O)NCCCNC(=O)c1ccc(-c2c3nc(c(-c4cccc(S(=O)(=O)[O-])c4F)c4ccc([nH]4)c(-c4cccc(S(=O)(=O)[O-])c4F)c4nc(c(-c5cccc(S(=O)(=O)[O-])c5F)c5ccc2[nH]5)C=C4)C=C3)cc1
REMARK SMILES IDX 25 1 26 2 27 3 2 5 1 6 3 7 4 8 5 10 6 11 7 12 8 13 9 14
REMARK SMILES IDX 23 15 10 16 11 17 22 18 24 19 12 20 13 21 14 22 21 23 15 24
REMARK SMILES IDX 20 25 16 26 17 27 18 28 19 29 28 30 29 31 30 32 31 33 32 34
REMARK SMILES IDX 33 36 34 37 35 38 96 39 36 40 95 41 37 42 38 43 39 44 89 45
REMARK SMILES IDX 40 46 94 47 88 48 90 49 41 50 93 51 87 52 86 53 42 55 74 56
REMARK SMILES IDX 54 57 73 58 55 59 58 60 72 61 91 62 56 63 57 64 71 66 92 67
REMARK SMILES IDX 59 68 43 69 44 70 52 71 45 72 47 73 53 74 46 75 48 76 49 77
REMARK SMILES IDX 50 78 51 79 75 80 76 81 84 82 77 83 79 84 85 85 78 86 80 87
REMARK SMILES IDX 81 88 82 89 83 90 60 91 61 92 69 93 62 94 64 95 70 96 63 97
REMARK SMILES IDX 65 98 66 99 67 100 68 101
REMARK H PARENT 27 4 3 9 31 35 90 54 58 65
REMARK Flexibility Score: inf
ROOT
ATOM      1  C   UNL A   1      32.934  19.252  25.121  1.00  0.00     0.242 C 
ATOM      2  O   UNL A   1      32.329  18.464  25.865  1.00  0.00    -0.273 OA
ATOM      3  N   UNL A   1      34.002  19.905  25.683  1.00  0.00    -0.354 N 
ATOM      4  H   UNL A   1      33.950  20.042  26.656  1.00  0.00     0.163 HD
ENDROOT
BRANCH   1   5
ATOM      5  C   UNL A   1      32.433  19.466  23.633  1.00  0.00     0.168 C 
ATOM      6  C   UNL A   1      32.511  18.193  22.775  1.00  0.00     0.041 C 
BRANCH   5   7
ATOM      7  N   UNL A   1      32.719  20.731  22.925  1.00  0.00    -0.345 N 
ATOM      8  C   UNL A   1      32.568  22.063  23.150  1.00  0.00     0.222 C 
ATOM      9  H   UNL A   1      33.133  20.562  22.047  1.00  0.00     0.164 HD
ATOM     10  O   UNL A   1      32.576  22.782  22.142  1.00  0.00    -0.275 OA
BRANCH   8  11
ATOM     11  C   UNL A   1      32.437  22.746  24.511  1.00  0.00     0.122 C 
BRANCH  11  12
ATOM     12  C   UNL A   1      31.071  23.427  24.828  1.00  0.00     0.137 C 
BRANCH  12  13
ATOM     13  N   UNL A   1      31.085  24.916  24.763  1.00  0.00    -0.292 N 
ATOM     14  C   UNL A   1      30.194  25.480  23.919  1.00  0.00     0.266 C 
ATOM     15  C   UNL A   1      31.993  25.816  25.262  1.00  0.00     0.148 C 
ATOM     16  O   UNL A   1      29.472  24.828  23.201  1.00  0.00    -0.268 OA
ATOM     17  C   UNL A   1      30.207  26.943  23.876  1.00  0.00     0.081 C 
ATOM     18  S   UNL A   1      31.540  27.490  24.772  1.00  0.00    -0.054 SA
ATOM     19  S   UNL A   1      33.349  25.493  26.172  1.00  0.00    -0.052 S 
ATOM     20  C   UNL A   1      29.214  27.502  23.172  1.00  0.00     0.029 C 
BRANCH  20  21
ATOM     21  C   UNL A   1      28.847  28.857  22.779  1.00  0.00    -0.024 A 
ATOM     22  C   UNL A   1      29.820  29.632  22.122  1.00  0.00     0.015 A 
ATOM     23  C   UNL A   1      27.694  29.470  23.271  1.00  0.00     0.015 A 
ATOM     24  C   UNL A   1      29.624  30.996  21.910  1.00  0.00     0.086 A 
ATOM     25  C   UNL A   1      27.491  30.841  23.071  1.00  0.00     0.086 A 
ATOM     26  C   UNL A   1      28.450  31.595  22.377  1.00  0.00     0.269 A 
BRANCH  26  27
ATOM     27  N   UNL A   1      28.221  33.024  22.135  1.00  0.00     0.062 N 
ATOM     28  O   UNL A   1      28.727  33.834  22.926  1.00  0.00    -0.258 OA
ATOM     29  O   UNL A   1      27.555  33.341  21.139  1.00  0.00    -0.258 OA
ENDBRANCH  26  27
ENDBRANCH  20  21
ENDBRANCH  12  13
ENDBRANCH  11  12
ENDBRANCH   8  11
ENDBRANCH   5   7
ENDBRANCH   1   5
BRANCH   3  30
ATOM     30  C   UNL A   1      35.200  20.425  25.039  1.00  0.00     0.117 C 
BRANCH  30  31
ATOM     31  C   UNL A   1      35.865  21.555  25.784  1.00  0.00     0.042 C 
BRANCH  31  32
ATOM     32  C   UNL A   1      37.189  21.912  25.133  1.00  0.00     0.118 C 
BRANCH  32  33
ATOM     33  N   UNL A   1      38.243  20.925  25.397  1.00  0.00    -0.352 N 
ATOM     34  C   UNL A   1      39.447  21.088  26.054  1.00  0.00     0.251 C 
ATOM     35  H   UNL A   1      38.067  20.018  25.056  1.00  0.00     0.163 HD
ATOM     36  O   UNL A   1      40.281  20.187  26.071  1.00  0.00    -0.269 OA
BRANCH  34  37
ATOM     37  C   UNL A   1      39.724  22.384  26.703  1.00  0.00     0.039 A 
ATOM     38  C   UNL A   1      40.748  22.488  27.646  1.00  0.00     0.014 A 
ATOM     39  C   UNL A   1      39.058  23.520  26.252  1.00  0.00     0.014 A 
ATOM     40  C   UNL A   1      41.194  23.757  28.032  1.00  0.00     0.010 A 
ATOM     41  C   UNL A   1      39.605  24.765  26.512  1.00  0.00     0.010 A 
ATOM     42  C   UNL A   1      40.675  24.904  27.411  1.00  0.00    -0.014 A 
BRANCH  42  43
ATOM     43  C   UNL A   1      41.207  26.270  27.662  1.00  0.00     0.031 A 
ATOM     44  C   UNL A   1      42.618  26.595  27.239  1.00  0.00     0.074 A 
ATOM     45  C   UNL A   1      40.497  27.159  28.388  1.00  0.00     0.049 A 
ATOM     46  N   UNL A   1      43.347  27.639  27.528  1.00  0.00    -0.248 NA
ATOM     47  C   UNL A   1      43.320  25.582  26.431  1.00  0.00     0.031 C 
ATOM     48  C   UNL A   1      39.152  26.939  28.930  1.00  0.00     0.029 A 
ATOM     49  N   UNL A   1      40.824  28.418  28.829  1.00  0.00    -0.354 N 
ATOM     50  C   UNL A   1      44.605  27.378  26.995  1.00  0.00     0.074 A 
ATOM     51  C   UNL A   1      44.554  26.057  26.413  1.00  0.00     0.031 C 
ATOM     52  C   UNL A   1      38.769  28.028  29.617  1.00  0.00     0.029 A 
ATOM     53  C   UNL A   1      39.853  29.003  29.610  1.00  0.00     0.049 A 
ATOM     54  H   UNL A   1      41.675  28.861  28.606  1.00  0.00     0.167 HD
ATOM     55  C   UNL A   1      45.695  28.176  26.960  1.00  0.00     0.034 A 
ATOM     56  C   UNL A   1      39.844  30.184  30.261  1.00  0.00     0.034 A 
ATOM     57  C   UNL A   1      45.716  29.516  27.477  1.00  0.00     0.049 A 
ATOM     58  C   UNL A   1      41.050  31.081  30.160  1.00  0.00     0.074 A 
ATOM     59  C   UNL A   1      46.735  30.448  27.402  1.00  0.00     0.029 A 
ATOM     60  N   UNL A   1      44.671  30.113  28.162  1.00  0.00    -0.354 N 
ATOM     61  N   UNL A   1      42.182  30.871  29.534  1.00  0.00    -0.248 NA
ATOM     62  C   UNL A   1      40.968  32.389  30.826  1.00  0.00     0.031 C 
ATOM     63  C   UNL A   1      46.314  31.602  28.069  1.00  0.00     0.029 A 
ATOM     64  C   UNL A   1      45.019  31.401  28.520  1.00  0.00     0.049 A 
ATOM     65  H   UNL A   1      43.808  29.683  28.365  1.00  0.00     0.167 HD
ATOM     66  C   UNL A   1      42.926  32.037  29.686  1.00  0.00     0.074 A 
ATOM     67  C   UNL A   1      42.112  32.952  30.460  1.00  0.00     0.031 C 
ATOM     68  C   UNL A   1      44.169  32.321  29.231  1.00  0.00     0.034 A 
BRANCH  55  69
ATOM     69  C   UNL A   1      46.936  27.642  26.295  1.00  0.00     0.023 A 
ATOM     70  C   UNL A   1      47.853  26.869  27.038  1.00  0.00     0.012 A 
ATOM     71  C   UNL A   1      47.173  27.865  24.926  1.00  0.00     0.148 A 
ATOM     72  C   UNL A   1      49.008  26.367  26.442  1.00  0.00     0.002 A 
ATOM     73  C   UNL A   1      48.300  27.316  24.325  1.00  0.00     0.091 A 
ATOM     74  F   UNL A   1      46.303  28.620  24.240  1.00  0.00    -0.205 F 
ATOM     75  C   UNL A   1      49.225  26.581  25.083  1.00  0.00     0.022 A 
BRANCH  73  76
ATOM     76  S   UNL A   1      48.624  27.458  22.564  1.00  0.00     0.127 S 
ATOM     77  O   UNL A   1      49.944  28.090  22.559  1.00  0.00    -0.237 OA
ATOM     78  O   UNL A   1      48.617  26.059  22.138  1.00  0.00    -0.237 OA
ATOM     79  O   UNL A   1      47.544  28.267  22.018  1.00  0.00    -0.744 OA
ENDBRANCH  73  76
ENDBRANCH  55  69
BRANCH  56  80
ATOM     80  C   UNL A   1      38.634  30.618  31.017  1.00  0.00     0.023 A 
ATOM     81  C   UNL A   1      38.546  30.344  32.398  1.00  0.00     0.012 A 
ATOM     82  C   UNL A   1      37.579  31.308  30.388  1.00  0.00     0.148 A 
ATOM     83  C   UNL A   1      37.417  30.715  33.128  1.00  0.00     0.002 A 
ATOM     84  C   UNL A   1      36.481  31.723  31.133  1.00  0.00     0.091 A 
ATOM     85  F   UNL A   1      37.677  31.555  29.075  1.00  0.00    -0.205 F 
ATOM     86  C   UNL A   1      36.389  31.412  32.499  1.00  0.00     0.022 A 
BRANCH  84  87
ATOM     87  S   UNL A   1      35.164  32.729  30.439  1.00  0.00     0.127 S 
ATOM     88  O   UNL A   1      34.736  31.918  29.303  1.00  0.00    -0.237 OA
ATOM     89  O   UNL A   1      34.213  32.787  31.549  1.00  0.00    -0.237 OA
ATOM     90  O   UNL A   1      35.779  34.007  30.105  1.00  0.00    -0.744 OA
ENDBRANCH  84  87
ENDBRANCH  56  80
BRANCH  68  91
ATOM     91  C   UNL A   1      44.718  33.700  29.480  1.00  0.00     0.023 A 
ATOM     92  C   UNL A   1      45.410  33.984  30.672  1.00  0.00     0.012 A 
ATOM     93  C   UNL A   1      44.643  34.680  28.469  1.00  0.00     0.148 A 
ATOM     94  C   UNL A   1      46.005  35.231  30.862  1.00  0.00     0.002 A 
ATOM     95  C   UNL A   1      45.284  35.898  28.642  1.00  0.00     0.091 A 
ATOM     96  F   UNL A   1      43.964  34.390  27.349  1.00  0.00    -0.205 F 
ATOM     97  C   UNL A   1      45.956  36.181  29.843  1.00  0.00     0.022 A 
BRANCH  95  98
ATOM     98  S   UNL A   1      45.365  37.137  27.345  1.00  0.00     0.127 S 
ATOM     99  O   UNL A   1      43.987  37.627  27.314  1.00  0.00    -0.237 OA
ATOM    100  O   UNL A   1      46.338  38.086  27.886  1.00  0.00    -0.237 OA
ATOM    101  O   UNL A   1      45.801  36.438  26.144  1.00  0.00    -0.744 OA
ENDBRANCH  95  98
ENDBRANCH  68  91
ENDBRANCH  42  43
ENDBRANCH  34  37
ENDBRANCH  32  33
ENDBRANCH  31  32
ENDBRANCH  30  31
ENDBRANCH   3  30
TORSDOF 19
ENDMDL
MODEL 2
REMARK VINA RESULT:     -12.2      5.359      9.498
REMARK SMILES C[C@H](NC(=O)CCN1C(=O)/C(=C/c2ccc([N+](=O)[O-])cc2)SC1=S)C(=O)NCCCNC(=O)c1ccc(-c2c3nc(c(-c4cccc(S(=O)(=O)[O-])c4F)c4ccc([nH]4)c(-c4cccc(S(=O)(=O)[O-])c4F)c4nc(c(-c5cccc(S(=O)(=O)[O-])c5F)c5ccc2[nH]5)C=C4)C=C3)cc1
REMARK SMILES IDX 25 1 26 2 27 3 2 5 1 6 3 7 4 8 5 10 6 11 7 12 8 13 9 14
REMARK SMILES IDX 23 15 10 16 11 17 22 18 24 19 12 20 13 21 14 22 21 23 15 24
REMARK SMILES IDX 20 25 16 26 17 27 18 28 19 29 28 30 29 31 30 32 31 33 32 34
REMARK SMILES IDX 33 36 34 37 35 38 96 39 36 40 95 41 37 42 38 43 39 44 89 45
REMARK SMILES IDX 40 46 94 47 88 48 90 49 41 50 93 51 87 52 86 53 42 55 74 56
REMARK SMILES IDX 54 57 73 58 55 59 58 60 72 61 91 62 56 63 57 64 71 66 92 67
REMARK SMILES IDX 59 68 43 69 44 70 52 71 45 72 47 73 53 74 46 75 48 76 49 77
REMARK SMILES IDX 50 78 51 79 75 80 76 81 84 82 77 83 79 84 85 85 78 86 80 87
REMARK SMILES IDX 81 88 82 89 83 90 60 91 61 92 69 93 62 94 64 95 70 96 63 97
REMARK SMILES IDX 65 98 66 99 67 100 68 101
REMARK H PARENT 27 4 3 9 31 35 90 54 58 65
REMARK Flexibility Score: inf
ROOT
ATOM      1  C   UNL A   1      31.885  28.833  26.905  1.00  0.00     0.242 C 
ATOM      2  O   UNL A   1      31.155  27.966  27.413  1.00  0.00    -0.273 OA
ATOM      3  N   UNL A   1      32.980  29.201  27.644  1.00  0.00    -0.354 N 
ATOM      4  H   UNL A   1      32.885  29.106  28.619  1.00  0.00     0.163 HD
ENDROOT
BRANCH   1   5
ATOM      5  C   UNL A   1      31.499  29.456  25.499  1.00  0.00     0.168 C 
ATOM      6  C   UNL A   1      31.105  30.940  25.580  1.00  0.00     0.041 C 
BRANCH   5   7
ATOM      7  N   UNL A   1      30.759  28.652  24.505  1.00  0.00    -0.345 N 
ATOM      8  C   UNL A   1      30.904  27.456  23.875  1.00  0.00     0.222 C 
ATOM      9  H   UNL A   1      29.935  29.109  24.220  1.00  0.00     0.164 HD
ATOM     10  O   UNL A   1      30.265  27.325  22.822  1.00  0.00    -0.275 OA
BRANCH   8  11
ATOM     11  C   UNL A   1      31.731  26.266  24.360  1.00  0.00     0.122 C 
BRANCH  11  12
ATOM     12  C   UNL A   1      32.273  25.294  23.269  1.00  0.00     0.137 C 
BRANCH  12  13
ATOM     13  N   UNL A   1      32.913  24.056  23.797  1.00  0.00    -0.292 N 
ATOM     14  C   UNL A   1      32.251  22.902  23.562  1.00  0.00     0.266 C 
ATOM     15  C   UNL A   1      33.963  23.902  24.667  1.00  0.00     0.148 C 
ATOM     16  O   UNL A   1      31.171  22.868  23.020  1.00  0.00    -0.268 OA
ATOM     17  C   UNL A   1      32.897  21.691  24.071  1.00  0.00     0.081 C 
ATOM     18  S   UNL A   1      34.219  22.155  25.028  1.00  0.00    -0.054 SA
ATOM     19  S   UNL A   1      34.898  25.097  25.352  1.00  0.00    -0.052 S 
ATOM     20  C   UNL A   1      32.329  20.539  23.692  1.00  0.00     0.029 C 
BRANCH  20  21
ATOM     21  C   UNL A   1      32.539  19.125  23.982  1.00  0.00    -0.024 A 
ATOM     22  C   UNL A   1      32.454  18.717  25.325  1.00  0.00     0.015 A 
ATOM     23  C   UNL A   1      33.078  18.259  23.030  1.00  0.00     0.015 A 
ATOM     24  C   UNL A   1      32.853  17.437  25.709  1.00  0.00     0.086 A 
ATOM     25  C   UNL A   1      33.490  16.975  23.407  1.00  0.00     0.086 A 
ATOM     26  C   UNL A   1      33.360  16.564  24.742  1.00  0.00     0.269 A 
BRANCH  26  27
ATOM     27  N   UNL A   1      33.757  15.205  25.130  1.00  0.00     0.062 N 
ATOM     28  O   UNL A   1      32.858  14.375  25.331  1.00  0.00    -0.258 OA
ATOM     29  O   UNL A   1      34.969  14.958  25.208  1.00  0.00    -0.258 OA
ENDBRANCH  26  27
ENDBRANCH  20  21
ENDBRANCH  12  13
ENDBRANCH  11  12
ENDBRANCH   8  11
ENDBRANCH   5   7
ENDBRANCH   1   5
BRANCH   3  30
ATOM     30  C   UNL A   1      34.263  29.715  27.186  1.00  0.00     0.117 C 
BRANCH  30  31
ATOM     31  C   UNL A   1      34.425  31.207  27.339  1.00  0.00     0.042 C 
BRANCH  31  32
ATOM     32  C   UNL A   1      33.297  31.780  28.178  1.00  0.00     0.118 C 
BRANCH  32  33
ATOM     33  N   UNL A   1      33.075  33.211  27.939  1.00  0.00    -0.352 N 
ATOM     34  C   UNL A   1      33.675  34.301  28.538  1.00  0.00     0.251 C 
ATOM     35  H   UNL A   1      32.400  33.425  27.254  1.00  0.00     0.163 HD
ATOM     36  O   UNL A   1      33.275  35.440  28.318  1.00  0.00    -0.269 OA
BRANCH  34  37
ATOM     37  C   UNL A   1      34.785  34.061  29.481  1.00  0.00     0.039 A 
ATOM     38  C   UNL A   1      34.564  33.330  30.649  1.00  0.00     0.014 A 
ATOM     39  C   UNL A   1      36.074  34.438  29.114  1.00  0.00     0.014 A 
ATOM     40  C   UNL A   1      35.661  32.860  31.378  1.00  0.00     0.010 A 
ATOM     41  C   UNL A   1      37.152  33.840  29.746  1.00  0.00     0.010 A 
ATOM     42  C   UNL A   1      36.964  33.049  30.890  1.00  0.00    -0.014 A 
BRANCH  42  43
ATOM     43  C   UNL A   1      38.163  32.448  31.532  1.00  0.00     0.031 A 
ATOM     44  C   UNL A   1      38.856  31.293  30.853  1.00  0.00     0.074 A 
ATOM     45  C   UNL A   1      38.539  32.828  32.771  1.00  0.00     0.049 A 
ATOM     46  N   UNL A   1      39.783  30.498  31.315  1.00  0.00    -0.248 NA
ATOM     47  C   UNL A   1      38.402  30.952  29.493  1.00  0.00     0.031 C 
ATOM     48  C   UNL A   1      37.901  33.875  33.574  1.00  0.00     0.029 A 
ATOM     49  N   UNL A   1      39.531  32.347  33.592  1.00  0.00    -0.354 N 
ATOM     50  C   UNL A   1      39.974  29.532  30.334  1.00  0.00     0.074 A 
ATOM     51  C   UNL A   1      39.030  29.809  29.275  1.00  0.00     0.031 C 
ATOM     52  C   UNL A   1      38.524  33.965  34.761  1.00  0.00     0.029 A 
ATOM     53  C   UNL A   1      39.571  32.951  34.828  1.00  0.00     0.049 A 
ATOM     54  H   UNL A   1      40.156  31.636  33.320  1.00  0.00     0.167 HD
ATOM     55  C   UNL A   1      40.875  28.525  30.296  1.00  0.00     0.034 A 
ATOM     56  C   UNL A   1      40.351  32.705  35.901  1.00  0.00     0.034 A 
ATOM     57  C   UNL A   1      41.858  28.300  31.318  1.00  0.00     0.049 A 
ATOM     58  C   UNL A   1      41.386  31.615  35.813  1.00  0.00     0.074 A 
ATOM     59  C   UNL A   1      42.885  27.374  31.332  1.00  0.00     0.029 A 
ATOM     60  N   UNL A   1      41.938  29.009  32.506  1.00  0.00    -0.354 N 
ATOM     61  N   UNL A   1      41.642  30.800  34.820  1.00  0.00    -0.248 NA
ATOM     62  C   UNL A   1      42.262  31.431  36.980  1.00  0.00     0.031 C 
ATOM     63  C   UNL A   1      43.568  27.504  32.544  1.00  0.00     0.029 A 
ATOM     64  C   UNL A   1      42.993  28.539  33.263  1.00  0.00     0.049 A 
ATOM     65  H   UNL A   1      41.331  29.738  32.771  1.00  0.00     0.167 HD
ATOM     66  C   UNL A   1      42.737  30.042  35.219  1.00  0.00     0.074 A 
ATOM     67  C   UNL A   1      43.100  30.499  36.545  1.00  0.00     0.031 C 
ATOM     68  C   UNL A   1      43.381  29.055  34.551  1.00  0.00     0.034 A 
BRANCH  55  69
ATOM     69  C   UNL A   1      40.875  27.626  29.087  1.00  0.00     0.023 A 
ATOM     70  C   UNL A   1      39.947  26.567  29.001  1.00  0.00     0.012 A 
ATOM     71  C   UNL A   1      41.761  27.856  28.018  1.00  0.00     0.148 A 
ATOM     72  C   UNL A   1      39.932  25.723  27.892  1.00  0.00     0.002 A 
ATOM     73  C   UNL A   1      41.703  27.045  26.891  1.00  0.00     0.091 A 
ATOM     74  F   UNL A   1      42.649  28.854  28.126  1.00  0.00    -0.205 F 
ATOM     75  C   UNL A   1      40.802  25.970  26.833  1.00  0.00     0.022 A 
BRANCH  73  76
ATOM     76  S   UNL A   1      42.719  27.332  25.438  1.00  0.00     0.127 S 
ATOM     77  O   UNL A   1      44.050  27.462  26.031  1.00  0.00    -0.237 OA
ATOM     78  O   UNL A   1      42.511  26.102  24.672  1.00  0.00    -0.237 OA
ATOM     79  O   UNL A   1      42.196  28.536  24.811  1.00  0.00    -0.744 OA
ENDBRANCH  73  76
ENDBRANCH  55  69
BRANCH  56  80
ATOM     80  C   UNL A   1      40.228  33.543  37.129  1.00  0.00     0.023 A 
ATOM     81  C   UNL A   1      40.960  34.744  37.222  1.00  0.00     0.012 A 
ATOM     82  C   UNL A   1      39.385  33.172  38.194  1.00  0.00     0.148 A 
ATOM     83  C   UNL A   1      40.886  35.539  38.366  1.00  0.00     0.002 A 
ATOM     84  C   UNL A   1      39.274  33.995  39.309  1.00  0.00     0.091 A 
ATOM     85  F   UNL A   1      38.700  32.024  38.091  1.00  0.00    -0.205 F 
ATOM     86  C   UNL A   1      40.037  35.169  39.406  1.00  0.00     0.022 A 
BRANCH  84  87
ATOM     87  S   UNL A   1      38.117  33.665  40.644  1.00  0.00     0.127 S 
ATOM     88  O   UNL A   1      38.717  32.493  41.276  1.00  0.00    -0.237 OA
ATOM     89  O   UNL A   1      38.201  34.899  41.426  1.00  0.00    -0.237 OA
ATOM     90  O   UNL A   1      36.827  33.445  40.003  1.00  0.00    -0.744 OA
ENDBRANCH  84  87
ENDBRANCH  56  80
BRANCH  68  91
ATOM     91  C   UNL A   1      44.595  28.439  35.192  1.00  0.00     0.023 A 
ATOM     92  C   UNL A   1      44.473  27.273  35.971  1.00  0.00     0.012 A 
ATOM     93  C   UNL A   1      45.876  28.960  34.917  1.00  0.00     0.148 A 
ATOM     94  C   UNL A   1      45.608  26.645  36.483  1.00  0.00     0.002 A 
ATOM     95  C   UNL A   1      47.003  28.299  35.384  1.00  0.00     0.091 A 
ATOM     96  F   UNL A   1      45.964  30.082  34.186  1.00  0.00    -0.205 F 
ATOM     97  C   UNL A   1      46.872  27.148  36.177  1.00  0.00     0.022 A 
BRANCH  95  98
ATOM     98  S   UNL A   1      48.669  28.812  34.950  1.00  0.00     0.127 S 
ATOM     99  O   UNL A   1      48.762  30.112  35.612  1.00  0.00    -0.237 OA
ATOM    100  O   UNL A   1      49.483  27.758  35.558  1.00  0.00    -0.237 OA
ATOM    101  O   UNL A   1      48.715  28.852  33.495  1.00  0.00    -0.744 OA
ENDBRANCH  95  98
ENDBRANCH  68  91
ENDBRANCH  42  43
ENDBRANCH  34  37
ENDBRANCH  32  33
ENDBRANCH  31  32
ENDBRANCH  30  31
ENDBRANCH   3  30
TORSDOF 19
ENDMDL
MODEL 3
REMARK VINA RESULT:     -12.2      1.828      2.602
REMARK SMILES C[C@H](NC(=O)CCN1C(=O)/C(=C/c2ccc([N+](=O)[O-])cc2)SC1=S)C(=O)NCCCNC(=O)c1ccc(-c2c3nc(c(-c4cccc(S(=O)(=O)[O-])c4F)c4ccc([nH]4)c(-c4cccc(S(=O)(=O)[O-])c4F)c4nc(c(-c5cccc(S(=O)(=O)[O-])c5F)c5ccc2[nH]5)C=C4)C=C3)cc1
REMARK SMILES IDX 25 1 26 2 27 3 2 5 1 6 3 7 4 8 5 10 6 11 7 12 8 13 9 14
REMARK SMILES IDX 23 15 10 16 11 17 22 18 24 19 12 20 13 21 14 22 21 23 15 24
REMARK SMILES IDX 20 25 16 26 17 27 18 28 19 29 28 30 29 31 30 32 31 33 32 34
REMARK SMILES IDX 33 36 34 37 35 38 96 39 36 40 95 41 37 42 38 43 39 44 89 45
REMARK SMILES IDX 40 46 94 47 88 48 90 49 41 50 93 51 87 52 86 53 42 55 74 56
REMARK SMILES IDX 54 57 73 58 55 59 58 60 72 61 91 62 56 63 57 64 71 66 92 67
REMARK SMILES IDX 59 68 43 69 44 70 52 71 45 72 47 73 53 74 46 75 48 76 49 77
REMARK SMILES IDX 50 78 51 79 75 80 76 81 84 82 77 83 79 84 85 85 78 86 80 87
REMARK SMILES IDX 81 88 82 89 83 90 60 91 61 92 69 93 62 94 64 95 70 96 63 97
REMARK SMILES IDX 65 98 66 99 67 100 68 101
REMARK H PARENT 27 4 3 9 31 35 90 54 58 65
REMARK Flexibility Score: inf
ROOT
ATOM      1  C   UNL A   1      35.877  21.964  25.968  1.00  0.00     0.242 C 
ATOM      2  O   UNL A   1      35.135  22.143  26.947  1.00  0.00    -0.273 OA
ATOM      3  N   UNL A   1      37.220  22.124  26.197  1.00  0.00    -0.354 N 
ATOM      4  H   UNL A   1      37.454  22.747  26.922  1.00  0.00     0.163 HD
ENDROOT
BRANCH   1   5
ATOM      5  C   UNL A   1      35.243  21.604  24.560  1.00  0.00     0.168 C 
ATOM      6  C   UNL A   1      35.522  22.661  23.480  1.00  0.00     0.041 C 
BRANCH   5   7
ATOM      7  N   UNL A   1      33.923  20.946  24.483  1.00  0.00    -0.345 N 
ATOM      8  C   UNL A   1      32.618  21.322  24.404  1.00  0.00     0.222 C 
ATOM      9  H   UNL A   1      34.012  19.966  24.493  1.00  0.00     0.164 HD
ATOM     10  O   UNL A   1      31.792  20.468  24.755  1.00  0.00    -0.275 OA
BRANCH   8  11
ATOM     11  C   UNL A   1      32.086  22.659  23.889  1.00  0.00     0.122 C 
BRANCH  11  12
ATOM     12  C   UNL A   1      31.285  23.534  24.901  1.00  0.00     0.137 C 
BRANCH  12  13
ATOM     13  N   UNL A   1      31.497  25.003  24.762  1.00  0.00    -0.292 N 
ATOM     14  C   UNL A   1      30.566  25.670  24.046  1.00  0.00     0.266 C 
ATOM     15  C   UNL A   1      32.593  25.773  25.062  1.00  0.00     0.148 C 
ATOM     16  O   UNL A   1      29.650  25.112  23.487  1.00  0.00    -0.268 OA
ATOM     17  C   UNL A   1      30.776  27.113  23.930  1.00  0.00     0.081 C 
ATOM     18  S   UNL A   1      32.303  27.482  24.570  1.00  0.00    -0.054 SA
ATOM     19  S   UNL A   1      34.023  25.278  25.756  1.00  0.00    -0.052 S 
ATOM     20  C   UNL A   1      29.768  27.793  23.368  1.00  0.00     0.029 C 
BRANCH  20  21
ATOM     21  C   UNL A   1      29.533  29.178  22.974  1.00  0.00    -0.024 A 
ATOM     22  C   UNL A   1      29.669  30.169  23.963  1.00  0.00     0.015 A 
ATOM     23  C   UNL A   1      28.929  29.495  21.757  1.00  0.00     0.015 A 
ATOM     24  C   UNL A   1      29.253  31.478  23.724  1.00  0.00     0.086 A 
ATOM     25  C   UNL A   1      28.500  30.805  21.510  1.00  0.00     0.086 A 
ATOM     26  C   UNL A   1      28.679  31.795  22.488  1.00  0.00     0.269 A 
BRANCH  26  27
ATOM     27  N   UNL A   1      28.264  33.175  22.216  1.00  0.00     0.062 N 
ATOM     28  O   UNL A   1      28.633  34.058  23.005  1.00  0.00    -0.258 OA
ATOM     29  O   UNL A   1      27.590  33.385  21.196  1.00  0.00    -0.258 OA
ENDBRANCH  26  27
ENDBRANCH  20  21
ENDBRANCH  12  13
ENDBRANCH  11  12
ENDBRANCH   8  11
ENDBRANCH   5   7
ENDBRANCH   1   5
BRANCH   3  30
ATOM     30  C   UNL A   1      38.346  21.501  25.516  1.00  0.00     0.117 C 
BRANCH  30  31
ATOM     31  C   UNL A   1      39.694  21.855  26.093  1.00  0.00     0.042 C 
BRANCH  31  32
ATOM     32  C   UNL A   1      40.202  20.734  26.981  1.00  0.00     0.118 C 
BRANCH  32  33
ATOM     33  N   UNL A   1      41.140  19.838  26.293  1.00  0.00    -0.352 N 
ATOM     34  C   UNL A   1      42.403  20.104  25.803  1.00  0.00     0.251 C 
ATOM     35  H   UNL A   1      40.822  18.915  26.162  1.00  0.00     0.163 HD
ATOM     36  O   UNL A   1      43.004  19.273  25.129  1.00  0.00    -0.269 OA
BRANCH  34  37
ATOM     37  C   UNL A   1      42.998  21.427  26.075  1.00  0.00     0.039 A 
ATOM     38  C   UNL A   1      43.104  22.369  25.050  1.00  0.00     0.014 A 
ATOM     39  C   UNL A   1      43.305  21.771  27.388  1.00  0.00     0.014 A 
ATOM     40  C   UNL A   1      43.389  23.700  25.374  1.00  0.00     0.010 A 
ATOM     41  C   UNL A   1      43.428  23.110  27.719  1.00  0.00     0.010 A 
ATOM     42  C   UNL A   1      43.479  24.094  26.718  1.00  0.00    -0.014 A 
BRANCH  42  43
ATOM     43  C   UNL A   1      43.630  25.513  27.137  1.00  0.00     0.031 A 
ATOM     44  C   UNL A   1      45.009  26.122  27.175  1.00  0.00     0.074 A 
ATOM     45  C   UNL A   1      42.573  26.201  27.617  1.00  0.00     0.049 A 
ATOM     46  N   UNL A   1      45.396  27.259  27.687  1.00  0.00    -0.248 NA
ATOM     47  C   UNL A   1      46.107  25.316  26.612  1.00  0.00     0.031 C 
ATOM     48  C   UNL A   1      41.199  25.699  27.715  1.00  0.00     0.029 A 
ATOM     49  N   UNL A   1      42.497  27.464  28.152  1.00  0.00    -0.354 N 
ATOM     50  C   UNL A   1      46.781  27.274  27.566  1.00  0.00     0.074 A 
ATOM     51  C   UNL A   1      47.171  26.011  26.982  1.00  0.00     0.031 C 
ATOM     52  C   UNL A   1      40.419  26.646  28.261  1.00  0.00     0.029 A 
ATOM     53  C   UNL A   1      41.240  27.803  28.601  1.00  0.00     0.049 A 
ATOM     54  H   UNL A   1      43.270  28.072  28.208  1.00  0.00     0.167 HD
ATOM     55  C   UNL A   1      47.651  28.260  27.879  1.00  0.00     0.034 A 
ATOM     56  C   UNL A   1      40.802  28.912  29.231  1.00  0.00     0.034 A 
ATOM     57  C   UNL A   1      47.251  29.540  28.392  1.00  0.00     0.049 A 
ATOM     58  C   UNL A   1      41.780  30.021  29.517  1.00  0.00     0.074 A 
ATOM     59  C   UNL A   1      48.039  30.648  28.646  1.00  0.00     0.029 A 
ATOM     60  N   UNL A   1      45.951  29.884  28.727  1.00  0.00    -0.354 N 
ATOM     61  N   UNL A   1      43.066  30.069  29.270  1.00  0.00    -0.248 NA
ATOM     62  C   UNL A   1      41.244  31.240  30.140  1.00  0.00     0.031 C 
ATOM     63  C   UNL A   1      47.217  31.653  29.163  1.00  0.00     0.029 A 
ATOM     64  C   UNL A   1      45.913  31.185  29.189  1.00  0.00     0.049 A 
ATOM     65  H   UNL A   1      45.170  29.288  28.648  1.00  0.00     0.167 HD
ATOM     66  C   UNL A   1      43.484  31.338  29.657  1.00  0.00     0.074 A 
ATOM     67  C   UNL A   1      42.311  32.029  30.152  1.00  0.00     0.031 C 
ATOM     68  C   UNL A   1      44.724  31.879  29.612  1.00  0.00     0.034 A 
BRANCH  55  69
ATOM     69  C   UNL A   1      49.115  28.013  27.625  1.00  0.00     0.023 A 
ATOM     70  C   UNL A   1      49.943  27.561  28.674  1.00  0.00     0.012 A 
ATOM     71  C   UNL A   1      49.662  28.184  26.339  1.00  0.00     0.148 A 
ATOM     72  C   UNL A   1      51.300  27.328  28.459  1.00  0.00     0.002 A 
ATOM     73  C   UNL A   1      51.004  27.898  26.120  1.00  0.00     0.091 A 
ATOM     74  F   UNL A   1      48.865  28.634  25.359  1.00  0.00    -0.205 F 
ATOM     75  C   UNL A   1      51.827  27.486  27.180  1.00  0.00     0.022 A 
BRANCH  73  76
ATOM     76  S   UNL A   1      51.759  27.983  24.492  1.00  0.00     0.127 S 
ATOM     77  O   UNL A   1      53.179  27.851  24.819  1.00  0.00    -0.237 OA
ATOM     78  O   UNL A   1      51.177  26.819  23.824  1.00  0.00    -0.237 OA
ATOM     79  O   UNL A   1      51.366  29.268  23.931  1.00  0.00    -0.744 OA
ENDBRANCH  73  76
ENDBRANCH  55  69
BRANCH  56  80
ATOM     80  C   UNL A   1      39.359  29.059  29.580  1.00  0.00     0.023 A 
ATOM     81  C   UNL A   1      38.921  28.703  30.872  1.00  0.00     0.012 A 
ATOM     82  C   UNL A   1      38.424  29.561  28.654  1.00  0.00     0.148 A 
ATOM     83  C   UNL A   1      37.575  28.806  31.222  1.00  0.00     0.002 A 
ATOM     84  C   UNL A   1      37.093  29.712  29.027  1.00  0.00     0.091 A 
ATOM     85  F   UNL A   1      38.857  29.889  27.429  1.00  0.00    -0.205 F 
ATOM     86  C   UNL A   1      36.662  29.319  30.304  1.00  0.00     0.022 A 
BRANCH  84  87
ATOM     87  S   UNL A   1      35.868  30.475  27.956  1.00  0.00     0.127 S 
ATOM     88  O   UNL A   1      34.640  30.285  28.724  1.00  0.00    -0.237 OA
ATOM     89  O   UNL A   1      36.346  31.856  27.889  1.00  0.00    -0.237 OA
ATOM     90  O   UNL A   1      35.942  29.751  26.695  1.00  0.00    -0.744 OA
ENDBRANCH  84  87
ENDBRANCH  56  80
BRANCH  68  91
ATOM     91  C   UNL A   1      44.888  33.314  30.035  1.00  0.00     0.023 A 
ATOM     92  C   UNL A   1      45.290  33.626  31.347  1.00  0.00     0.012 A 
ATOM     93  C   UNL A   1      44.756  34.346  29.083  1.00  0.00     0.148 A 
ATOM     94  C   UNL A   1      45.539  34.950  31.711  1.00  0.00     0.002 A 
ATOM     95  C   UNL A   1      45.058  35.653  29.439  1.00  0.00     0.091 A 
ATOM     96  F   UNL A   1      44.357  34.023  27.844  1.00  0.00    -0.205 F 
ATOM     97  C   UNL A   1      45.439  35.959  30.755  1.00  0.00     0.022 A 
BRANCH  95  98
ATOM     98  S   UNL A   1      45.061  36.998  28.249  1.00  0.00     0.127 S 
ATOM     99  O   UNL A   1      46.023  36.518  27.258  1.00  0.00    -0.237 OA
ATOM    100  O   UNL A   1      43.671  37.010  27.794  1.00  0.00    -0.237 OA
ATOM    101  O   UNL A   1      45.470  38.188  28.984  1.00  0.00    -0.744 OA
ENDBRANCH  95  98
ENDBRANCH  68  91
ENDBRANCH  42  43
ENDBRANCH  34  37
ENDBRANCH  32  33
ENDBRANCH  31  32
ENDBRANCH  30  31
ENDBRANCH   3  30
TORSDOF 19
ENDMDL
