MODEL 1
REMARK VINA RESULT:     -11.7      0.000      0.000
REMARK SMILES O=C(COCC(=O)/[NH+]=C1\S[C@@H]2CS(=O)(=O)C[C@H]2N1c1ccc(Cl)cc1)NCCCNC(=O)c1ccc(-c2c3nc(c(-c4cccc(S(=O)(=O)[O-])c4F)c4ccc([nH]4)c(-c4cccc(S(=O)(=O)[O-])c4F)c4nc(c(-c5cccc(S(=O)(=O)[O-])c5F)c5ccc2[nH]5)C=C4)C=C3)cc1
REMARK SMILES IDX 27 1 26 2 2 3 1 4 3 6 4 7 5 8 6 9 7 10 8 11 9 12 10 14 18 15
REMARK SMILES IDX 11 16 17 17 12 18 16 19 13 20 14 21 15 22 19 23 20 24 25 25
REMARK SMILES IDX 21 26 24 27 22 28 23 29 28 30 29 31 30 32 31 33 32 35 33 36
REMARK SMILES IDX 34 37 95 38 35 39 94 40 36 41 37 42 38 43 88 44 39 45 93 46
REMARK SMILES IDX 87 47 89 48 40 49 92 50 86 51 85 52 41 54 73 55 53 56 72 57
REMARK SMILES IDX 54 58 57 59 71 60 90 61 55 62 56 63 70 65 91 66 58 67 42 68
REMARK SMILES IDX 43 69 51 70 44 71 46 72 52 73 45 74 47 75 48 76 49 77 50 78
REMARK SMILES IDX 74 79 75 80 83 81 76 82 78 83 84 84 77 85 79 86 80 87 81 88
REMARK SMILES IDX 82 89 59 90 60 91 68 92 61 93 63 94 69 95 62 96 64 97 65 98
REMARK SMILES IDX 66 99 67 100
REMARK H PARENT 26 5 8 13 30 34 89 53 57 64
REMARK Flexibility Score: inf
ROOT
ATOM      1  C   UNL A   1      33.200  27.385  24.223  1.00  0.00     0.117 C 
ENDROOT
BRANCH   1   2
ATOM      2  N   UNL A   1      32.002  27.832  23.533  1.00  0.00    -0.354 N 
ATOM      3  C   UNL A   1      31.102  27.085  22.826  1.00  0.00     0.246 C 
ATOM      4  O   UNL A   1      30.099  27.630  22.364  1.00  0.00    -0.272 OA
ATOM      5  H   UNL A   1      31.814  28.798  23.582  1.00  0.00     0.163 HD
BRANCH   3   6
ATOM      6  C   UNL A   1      31.368  25.592  22.625  1.00  0.00     0.260 C 
BRANCH   6   7
ATOM      7  O   UNL A   1      30.901  24.791  23.697  1.00  0.00    -0.359 OA
BRANCH   7   8
ATOM      8  C   UNL A   1      31.697  23.628  23.901  1.00  0.00     0.288 C 
BRANCH   8   9
ATOM      9  C   UNL A   1      32.898  23.751  24.861  1.00  0.00     0.333 C 
ATOM     10  O   UNL A   1      32.925  24.666  25.683  1.00  0.00    -0.244 OA
ATOM     11  N   UNL A   1      33.956  22.882  24.743  1.00  0.00    -0.202 N 
ATOM     12  C   UNL A   1      33.825  21.600  24.829  1.00  0.00     0.319 C 
ATOM     13  H   UNL A   1      34.855  23.252  24.584  1.00  0.00     0.316 HD
ATOM     14  S   UNL A   1      32.270  20.717  24.966  1.00  0.00    -0.029 SA
ATOM     15  N   UNL A   1      34.868  20.660  24.786  1.00  0.00    -0.217 N 
ATOM     16  C   UNL A   1      33.044  19.288  24.187  1.00  0.00     0.120 C 
ATOM     17  C   UNL A   1      34.383  19.275  24.936  1.00  0.00     0.212 C 
ATOM     18  C   UNL A   1      32.435  17.914  24.291  1.00  0.00     0.156 C 
ATOM     19  C   UNL A   1      35.135  18.122  24.320  1.00  0.00     0.188 C 
ATOM     20  S   UNL A   1      33.879  16.847  24.204  1.00  0.00     0.155 S 
ATOM     21  O   UNL A   1      33.969  16.265  22.880  1.00  0.00    -0.229 OA
ATOM     22  O   UNL A   1      33.943  16.051  25.408  1.00  0.00    -0.229 OA
BRANCH  15  23
ATOM     23  C   UNL A   1      36.199  20.964  25.116  1.00  0.00     0.128 A 
ATOM     24  C   UNL A   1      36.546  22.204  25.676  1.00  0.00     0.053 A 
ATOM     25  C   UNL A   1      37.236  20.033  24.924  1.00  0.00     0.053 A 
ATOM     26  C   UNL A   1      37.872  22.518  26.001  1.00  0.00     0.025 A 
ATOM     27  C   UNL A   1      38.563  20.338  25.252  1.00  0.00     0.025 A 
ATOM     28  C   UNL A   1      38.875  21.583  25.784  1.00  0.00     0.041 A 
ATOM     29  Cl  UNL A   1      40.503  21.967  26.189  1.00  0.00    -0.084 Cl
ENDBRANCH  15  23
ENDBRANCH   8   9
ENDBRANCH   7   8
ENDBRANCH   6   7
ENDBRANCH   3   6
ENDBRANCH   1   2
BRANCH   1  30
ATOM     30  C   UNL A   1      33.963  28.520  24.897  1.00  0.00     0.042 C 
BRANCH  30  31
ATOM     31  C   UNL A   1      33.474  28.882  26.298  1.00  0.00     0.118 C 
BRANCH  31  32
ATOM     32  N   UNL A   1      33.269  30.312  26.480  1.00  0.00    -0.352 N 
ATOM     33  C   UNL A   1      33.892  31.209  27.308  1.00  0.00     0.251 C 
ATOM     34  H   UNL A   1      32.563  30.699  25.912  1.00  0.00     0.163 HD
ATOM     35  O   UNL A   1      33.431  32.347  27.399  1.00  0.00    -0.269 OA
BRANCH  33  36
ATOM     36  C   UNL A   1      35.088  30.834  28.097  1.00  0.00     0.039 A 
ATOM     37  C   UNL A   1      36.190  31.694  28.081  1.00  0.00     0.014 A 
ATOM     38  C   UNL A   1      35.159  29.632  28.806  1.00  0.00     0.014 A 
ATOM     39  C   UNL A   1      37.338  31.371  28.810  1.00  0.00     0.010 A 
ATOM     40  C   UNL A   1      36.271  29.354  29.601  1.00  0.00     0.010 A 
ATOM     41  C   UNL A   1      37.381  30.211  29.601  1.00  0.00    -0.014 A 
BRANCH  41  42
ATOM     42  C   UNL A   1      38.575  29.900  30.430  1.00  0.00     0.031 A 
ATOM     43  C   UNL A   1      38.768  30.540  31.780  1.00  0.00     0.074 A 
ATOM     44  C   UNL A   1      39.519  29.068  29.943  1.00  0.00     0.049 A 
ATOM     45  N   UNL A   1      39.739  30.372  32.640  1.00  0.00    -0.248 NA
ATOM     46  C   UNL A   1      37.752  31.514  32.212  1.00  0.00     0.031 C 
ATOM     47  C   UNL A   1      39.494  28.446  28.618  1.00  0.00     0.029 A 
ATOM     48  N   UNL A   1      40.689  28.615  30.499  1.00  0.00    -0.354 N 
ATOM     49  C   UNL A   1      39.471  31.235  33.695  1.00  0.00     0.074 A 
ATOM     50  C   UNL A   1      38.265  31.955  33.351  1.00  0.00     0.031 C 
ATOM     51  C   UNL A   1      40.586  27.679  28.470  1.00  0.00     0.029 A 
ATOM     52  C   UNL A   1      41.404  27.778  29.674  1.00  0.00     0.049 A 
ATOM     53  H   UNL A   1      40.989  28.864  31.404  1.00  0.00     0.167 HD
ATOM     54  C   UNL A   1      40.147  31.397  34.859  1.00  0.00     0.034 A 
ATOM     55  C   UNL A   1      42.587  27.162  29.861  1.00  0.00     0.034 A 
ATOM     56  C   UNL A   1      41.333  30.661  35.211  1.00  0.00     0.049 A 
ATOM     57  C   UNL A   1      43.298  27.328  31.177  1.00  0.00     0.074 A 
ATOM     58  C   UNL A   1      42.047  30.695  36.396  1.00  0.00     0.029 A 
ATOM     59  N   UNL A   1      41.989  29.768  34.377  1.00  0.00    -0.354 N 
ATOM     60  N   UNL A   1      42.945  28.033  32.223  1.00  0.00    -0.248 NA
ATOM     61  C   UNL A   1      44.549  26.576  31.353  1.00  0.00     0.031 C 
ATOM     62  C   UNL A   1      43.155  29.851  36.265  1.00  0.00     0.029 A 
ATOM     63  C   UNL A   1      43.104  29.253  35.017  1.00  0.00     0.049 A 
ATOM     64  H   UNL A   1      41.704  29.534  33.464  1.00  0.00     0.167 HD
ATOM     65  C   UNL A   1      43.904  27.776  33.196  1.00  0.00     0.074 A 
ATOM     66  C   UNL A   1      44.840  26.834  32.620  1.00  0.00     0.031 C 
ATOM     67  C   UNL A   1      44.006  28.281  34.450  1.00  0.00     0.034 A 
BRANCH  54  68
ATOM     68  C   UNL A   1      39.599  32.384  35.859  1.00  0.00     0.023 A 
ATOM     69  C   UNL A   1      38.649  31.962  36.813  1.00  0.00     0.012 A 
ATOM     70  C   UNL A   1      40.067  33.713  35.895  1.00  0.00     0.148 A 
ATOM     71  C   UNL A   1      38.145  32.854  37.759  1.00  0.00     0.002 A 
ATOM     72  C   UNL A   1      39.596  34.583  36.873  1.00  0.00     0.091 A 
ATOM     73  F   UNL A   1      40.955  34.104  34.970  1.00  0.00    -0.205 F 
ATOM     74  C   UNL A   1      38.626  34.159  37.795  1.00  0.00     0.022 A 
BRANCH  72  75
ATOM     75  S   UNL A   1      40.216  36.258  37.060  1.00  0.00     0.127 S 
ATOM     76  O   UNL A   1      41.644  36.021  37.273  1.00  0.00    -0.237 OA
ATOM     77  O   UNL A   1      39.884  36.854  35.766  1.00  0.00    -0.237 OA
ATOM     78  O   UNL A   1      39.503  36.828  38.194  1.00  0.00    -0.744 OA
ENDBRANCH  72  75
ENDBRANCH  54  68
BRANCH  55  79
ATOM     79  C   UNL A   1      43.146  26.281  28.797  1.00  0.00     0.023 A 
ATOM     80  C   UNL A   1      42.735  24.937  28.717  1.00  0.00     0.012 A 
ATOM     81  C   UNL A   1      44.069  26.774  27.855  1.00  0.00     0.148 A 
ATOM     82  C   UNL A   1      43.264  24.087  27.745  1.00  0.00     0.002 A 
ATOM     83  C   UNL A   1      44.546  25.940  26.851  1.00  0.00     0.091 A 
ATOM     84  F   UNL A   1      44.453  28.054  27.952  1.00  0.00    -0.205 F 
ATOM     85  C   UNL A   1      44.162  24.591  26.807  1.00  0.00     0.022 A 
BRANCH  83  86
ATOM     86  S   UNL A   1      45.594  26.536  25.522  1.00  0.00     0.127 S 
ATOM     87  O   UNL A   1      44.786  27.619  24.965  1.00  0.00    -0.237 OA
ATOM     88  O   UNL A   1      46.787  26.969  26.251  1.00  0.00    -0.237 OA
ATOM     89  O   UNL A   1      45.810  25.394  24.645  1.00  0.00    -0.744 OA
ENDBRANCH  83  86
ENDBRANCH  55  79
BRANCH  67  90
ATOM     90  C   UNL A   1      45.139  27.783  35.311  1.00  0.00     0.023 A 
ATOM     91  C   UNL A   1      44.968  26.646  36.126  1.00  0.00     0.012 A 
ATOM     92  C   UNL A   1      46.392  28.429  35.283  1.00  0.00     0.148 A 
ATOM     93  C   UNL A   1      46.007  26.193  36.939  1.00  0.00     0.002 A 
ATOM     94  C   UNL A   1      47.439  27.937  36.051  1.00  0.00     0.091 A 
ATOM     95  F   UNL A   1      46.533  29.519  34.516  1.00  0.00    -0.205 F 
ATOM     96  C   UNL A   1      47.244  26.831  36.893  1.00  0.00     0.022 A 
BRANCH  94  97
ATOM     97  S   UNL A   1      49.094  28.635  35.977  1.00  0.00     0.127 S 
ATOM     98  O   UNL A   1      48.874  29.978  36.509  1.00  0.00    -0.237 OA
ATOM     99  O   UNL A   1      49.846  27.744  36.861  1.00  0.00    -0.237 OA
ATOM    100  O   UNL A   1      49.491  28.571  34.577  1.00  0.00    -0.744 OA
ENDBRANCH  94  97
ENDBRANCH  67  90
ENDBRANCH  41  42
ENDBRANCH  33  36
ENDBRANCH  31  32
ENDBRANCH  30  31
ENDBRANCH   1  30
TORSDOF 17
ENDMDL
MODEL 2
REMARK VINA RESULT:     -11.7      1.673      2.096
REMARK SMILES O=C(COCC(=O)/[NH+]=C1\S[C@@H]2CS(=O)(=O)C[C@H]2N1c1ccc(Cl)cc1)NCCCNC(=O)c1ccc(-c2c3nc(c(-c4cccc(S(=O)(=O)[O-])c4F)c4ccc([nH]4)c(-c4cccc(S(=O)(=O)[O-])c4F)c4nc(c(-c5cccc(S(=O)(=O)[O-])c5F)c5ccc2[nH]5)C=C4)C=C3)cc1
REMARK SMILES IDX 27 1 26 2 2 3 1 4 3 6 4 7 5 8 6 9 7 10 8 11 9 12 10 14 18 15
REMARK SMILES IDX 11 16 17 17 12 18 16 19 13 20 14 21 15 22 19 23 20 24 25 25
REMARK SMILES IDX 21 26 24 27 22 28 23 29 28 30 29 31 30 32 31 33 32 35 33 36
REMARK SMILES IDX 34 37 95 38 35 39 94 40 36 41 37 42 38 43 88 44 39 45 93 46
REMARK SMILES IDX 87 47 89 48 40 49 92 50 86 51 85 52 41 54 73 55 53 56 72 57
REMARK SMILES IDX 54 58 57 59 71 60 90 61 55 62 56 63 70 65 91 66 58 67 42 68
REMARK SMILES IDX 43 69 51 70 44 71 46 72 52 73 45 74 47 75 48 76 49 77 50 78
REMARK SMILES IDX 74 79 75 80 83 81 76 82 78 83 84 84 77 85 79 86 80 87 81 88
REMARK SMILES IDX 82 89 59 90 60 91 68 92 61 93 63 94 69 95 62 96 64 97 65 98
REMARK SMILES IDX 66 99 67 100
REMARK H PARENT 26 5 8 13 30 34 89 53 57 64
REMARK Flexibility Score: inf
ROOT
ATOM      1  C   UNL A   1      33.416  27.503  23.718  1.00  0.00     0.117 C 
ENDROOT
BRANCH   1   2
ATOM      2  N   UNL A   1      32.224  27.998  23.052  1.00  0.00    -0.354 N 
ATOM      3  C   UNL A   1      31.221  27.280  22.464  1.00  0.00     0.246 C 
ATOM      4  O   UNL A   1      30.244  27.873  22.005  1.00  0.00    -0.272 OA
ATOM      5  H   UNL A   1      32.125  28.978  23.020  1.00  0.00     0.163 HD
BRANCH   3   6
ATOM      6  C   UNL A   1      31.341  25.756  22.390  1.00  0.00     0.260 C 
BRANCH   6   7
ATOM      7  O   UNL A   1      30.457  25.081  23.269  1.00  0.00    -0.359 OA
BRANCH   7   8
ATOM      8  C   UNL A   1      31.041  23.920  23.850  1.00  0.00     0.288 C 
BRANCH   8   9
ATOM      9  C   UNL A   1      32.191  24.133  24.856  1.00  0.00     0.333 C 
ATOM     10  O   UNL A   1      32.105  25.031  25.693  1.00  0.00    -0.244 OA
ATOM     11  N   UNL A   1      33.327  23.367  24.762  1.00  0.00    -0.202 N 
ATOM     12  C   UNL A   1      33.312  22.077  24.823  1.00  0.00     0.319 C 
ATOM     13  H   UNL A   1      34.193  23.820  24.643  1.00  0.00     0.316 HD
ATOM     14  S   UNL A   1      31.840  21.054  24.888  1.00  0.00    -0.029 SA
ATOM     15  N   UNL A   1      34.438  21.237  24.803  1.00  0.00    -0.217 N 
ATOM     16  C   UNL A   1      32.770  19.716  24.115  1.00  0.00     0.120 C 
ATOM     17  C   UNL A   1      34.077  19.811  24.912  1.00  0.00     0.212 C 
ATOM     18  C   UNL A   1      32.286  18.291  24.174  1.00  0.00     0.156 C 
ATOM     19  C   UNL A   1      34.953  18.743  24.306  1.00  0.00     0.188 C 
ATOM     20  S   UNL A   1      33.825  17.362  24.123  1.00  0.00     0.155 S 
ATOM     21  O   UNL A   1      34.014  16.817  22.794  1.00  0.00    -0.229 OA
ATOM     22  O   UNL A   1      33.919  16.552  25.315  1.00  0.00    -0.229 OA
BRANCH  15  23
ATOM     23  C   UNL A   1      35.723  21.655  25.185  1.00  0.00     0.128 A 
ATOM     24  C   UNL A   1      35.932  22.901  25.797  1.00  0.00     0.053 A 
ATOM     25  C   UNL A   1      36.850  20.835  24.998  1.00  0.00     0.053 A 
ATOM     26  C   UNL A   1      37.211  23.329  26.175  1.00  0.00     0.025 A 
ATOM     27  C   UNL A   1      38.132  21.252  25.379  1.00  0.00     0.025 A 
ATOM     28  C   UNL A   1      38.306  22.502  25.961  1.00  0.00     0.041 A 
ATOM     29  Cl  UNL A   1      39.876  23.024  26.432  1.00  0.00    -0.084 Cl
ENDBRANCH  15  23
ENDBRANCH   8   9
ENDBRANCH   7   8
ENDBRANCH   6   7
ENDBRANCH   3   6
ENDBRANCH   1   2
BRANCH   1  30
ATOM     30  C   UNL A   1      34.012  28.503  24.704  1.00  0.00     0.042 C 
BRANCH  30  31
ATOM     31  C   UNL A   1      33.177  28.747  25.959  1.00  0.00     0.118 C 
BRANCH  31  32
ATOM     32  N   UNL A   1      32.833  30.148  26.153  1.00  0.00    -0.352 N 
ATOM     33  C   UNL A   1      33.382  31.101  26.972  1.00  0.00     0.251 C 
ATOM     34  H   UNL A   1      32.080  30.465  25.603  1.00  0.00     0.163 HD
ATOM     35  O   UNL A   1      32.813  32.186  27.079  1.00  0.00    -0.269 OA
BRANCH  33  36
ATOM     36  C   UNL A   1      34.628  30.845  27.732  1.00  0.00     0.039 A 
ATOM     37  C   UNL A   1      34.797  29.591  28.326  1.00  0.00     0.014 A 
ATOM     38  C   UNL A   1      35.601  31.832  27.910  1.00  0.00     0.014 A 
ATOM     39  C   UNL A   1      35.957  29.315  29.055  1.00  0.00     0.010 A 
ATOM     40  C   UNL A   1      36.795  31.527  28.564  1.00  0.00     0.010 A 
ATOM     41  C   UNL A   1      36.982  30.270  29.158  1.00  0.00    -0.014 A 
BRANCH  41  42
ATOM     42  C   UNL A   1      38.245  29.955  29.875  1.00  0.00     0.031 A 
ATOM     43  C   UNL A   1      38.497  30.480  31.264  1.00  0.00     0.074 A 
ATOM     44  C   UNL A   1      39.196  29.228  29.252  1.00  0.00     0.049 A 
ATOM     45  N   UNL A   1      39.534  30.293  32.040  1.00  0.00    -0.248 NA
ATOM     46  C   UNL A   1      37.464  31.349  31.851  1.00  0.00     0.031 C 
ATOM     47  C   UNL A   1      39.112  28.729  27.878  1.00  0.00     0.029 A 
ATOM     48  N   UNL A   1      40.424  28.796  29.687  1.00  0.00    -0.354 N 
ATOM     49  C   UNL A   1      39.294  31.039  33.188  1.00  0.00     0.074 A 
ATOM     50  C   UNL A   1      38.031  31.715  32.992  1.00  0.00     0.031 C 
ATOM     51  C   UNL A   1      40.230  28.044  27.589  1.00  0.00     0.029 A 
ATOM     52  C   UNL A   1      41.124  28.082  28.741  1.00  0.00     0.049 A 
ATOM     53  H   UNL A   1      40.772  28.979  30.589  1.00  0.00     0.167 HD
ATOM     54  C   UNL A   1      40.041  31.134  34.316  1.00  0.00     0.034 A 
ATOM     55  C   UNL A   1      42.348  27.522  28.793  1.00  0.00     0.034 A 
ATOM     56  C   UNL A   1      41.285  30.440  34.520  1.00  0.00     0.049 A 
ATOM     57  C   UNL A   1      43.138  27.609  30.070  1.00  0.00     0.074 A 
ATOM     58  C   UNL A   1      42.077  30.408  35.655  1.00  0.00     0.029 A 
ATOM     59  N   UNL A   1      41.927  29.667  33.565  1.00  0.00    -0.354 N 
ATOM     60  N   UNL A   1      42.822  28.194  31.199  1.00  0.00    -0.248 NA
ATOM     61  C   UNL A   1      44.436  26.919  30.093  1.00  0.00     0.031 C 
ATOM     62  C   UNL A   1      43.216  29.647  35.373  1.00  0.00     0.029 A 
ATOM     63  C   UNL A   1      43.110  29.162  34.080  1.00  0.00     0.049 A 
ATOM     64  H   UNL A   1      41.593  29.501  32.654  1.00  0.00     0.167 HD
ATOM     65  C   UNL A   1      43.859  27.907  32.080  1.00  0.00     0.074 A 
ATOM     66  C   UNL A   1      44.801  27.078  31.358  1.00  0.00     0.031 C 
ATOM     67  C   UNL A   1      44.020  28.301  33.367  1.00  0.00     0.034 A 
BRANCH  54  68
ATOM     68  C   UNL A   1      39.512  31.992  35.438  1.00  0.00     0.023 A 
ATOM     69  C   UNL A   1      38.604  31.446  36.370  1.00  0.00     0.012 A 
ATOM     70  C   UNL A   1      39.957  33.318  35.606  1.00  0.00     0.148 A 
ATOM     71  C   UNL A   1      38.119  32.217  37.427  1.00  0.00     0.002 A 
ATOM     72  C   UNL A   1      39.507  34.064  36.690  1.00  0.00     0.091 A 
ATOM     73  F   UNL A   1      40.805  33.828  34.701  1.00  0.00    -0.205 F 
ATOM     74  C   UNL A   1      38.578  33.520  37.592  1.00  0.00     0.022 A 
BRANCH  72  75
ATOM     75  S   UNL A   1      40.104  35.721  37.042  1.00  0.00     0.127 S 
ATOM     76  O   UNL A   1      39.652  36.454  35.860  1.00  0.00    -0.237 OA
ATOM     77  O   UNL A   1      39.387  36.050  38.274  1.00  0.00    -0.237 OA
ATOM     78  O   UNL A   1      41.548  35.607  37.190  1.00  0.00    -0.744 OA
ENDBRANCH  72  75
ENDBRANCH  54  68
BRANCH  55  79
ATOM     79  C   UNL A   1      42.877  26.776  27.617  1.00  0.00     0.023 A 
ATOM     80  C   UNL A   1      43.421  27.484  26.528  1.00  0.00     0.012 A 
ATOM     81  C   UNL A   1      42.861  25.368  27.581  1.00  0.00     0.148 A 
ATOM     82  C   UNL A   1      43.900  26.807  25.406  1.00  0.00     0.002 A 
ATOM     83  C   UNL A   1      43.394  24.698  26.488  1.00  0.00     0.091 A 
ATOM     84  F   UNL A   1      42.333  24.713  28.624  1.00  0.00    -0.205 F 
ATOM     85  C   UNL A   1      43.895  25.414  25.390  1.00  0.00     0.022 A 
BRANCH  83  86
ATOM     86  S   UNL A   1      43.556  22.910  26.441  1.00  0.00     0.127 S 
ATOM     87  O   UNL A   1      42.826  22.512  27.643  1.00  0.00    -0.237 OA
ATOM     88  O   UNL A   1      42.893  22.581  25.179  1.00  0.00    -0.237 OA
ATOM     89  O   UNL A   1      44.988  22.642  26.453  1.00  0.00    -0.744 OA
ENDBRANCH  83  86
ENDBRANCH  55  79
BRANCH  67  90
ATOM     90  C   UNL A   1      45.235  27.795  34.103  1.00  0.00     0.023 A 
ATOM     91  C   UNL A   1      46.467  28.471  33.995  1.00  0.00     0.012 A 
ATOM     92  C   UNL A   1      45.143  26.660  34.933  1.00  0.00     0.148 A 
ATOM     93  C   UNL A   1      47.598  27.996  34.658  1.00  0.00     0.002 A 
ATOM     94  C   UNL A   1      46.260  26.226  35.636  1.00  0.00     0.091 A 
ATOM     95  F   UNL A   1      43.969  26.017  35.011  1.00  0.00    -0.205 F 
ATOM     96  C   UNL A   1      47.492  26.880  35.486  1.00  0.00     0.022 A 
BRANCH  94  97
ATOM     97  S   UNL A   1      46.189  24.861  36.802  1.00  0.00     0.127 S 
ATOM     98  O   UNL A   1      45.461  23.852  36.035  1.00  0.00    -0.237 OA
ATOM     99  O   UNL A   1      47.605  24.560  37.014  1.00  0.00    -0.237 OA
ATOM    100  O   UNL A   1      45.499  25.375  37.978  1.00  0.00    -0.744 OA
ENDBRANCH  94  97
ENDBRANCH  67  90
ENDBRANCH  41  42
ENDBRANCH  33  36
ENDBRANCH  31  32
ENDBRANCH  30  31
ENDBRANCH   1  30
TORSDOF 17
ENDMDL
MODEL 3
REMARK VINA RESULT:     -11.7      5.200     11.110
REMARK SMILES O=C(COCC(=O)/[NH+]=C1\S[C@@H]2CS(=O)(=O)C[C@H]2N1c1ccc(Cl)cc1)NCCCNC(=O)c1ccc(-c2c3nc(c(-c4cccc(S(=O)(=O)[O-])c4F)c4ccc([nH]4)c(-c4cccc(S(=O)(=O)[O-])c4F)c4nc(c(-c5cccc(S(=O)(=O)[O-])c5F)c5ccc2[nH]5)C=C4)C=C3)cc1
REMARK SMILES IDX 27 1 26 2 2 3 1 4 3 6 4 7 5 8 6 9 7 10 8 11 9 12 10 14 18 15
REMARK SMILES IDX 11 16 17 17 12 18 16 19 13 20 14 21 15 22 19 23 20 24 25 25
REMARK SMILES IDX 21 26 24 27 22 28 23 29 28 30 29 31 30 32 31 33 32 35 33 36
REMARK SMILES IDX 34 37 95 38 35 39 94 40 36 41 37 42 38 43 88 44 39 45 93 46
REMARK SMILES IDX 87 47 89 48 40 49 92 50 86 51 85 52 41 54 73 55 53 56 72 57
REMARK SMILES IDX 54 58 57 59 71 60 90 61 55 62 56 63 70 65 91 66 58 67 42 68
REMARK SMILES IDX 43 69 51 70 44 71 46 72 52 73 45 74 47 75 48 76 49 77 50 78
REMARK SMILES IDX 74 79 75 80 83 81 76 82 78 83 84 84 77 85 79 86 80 87 81 88
REMARK SMILES IDX 82 89 59 90 60 91 68 92 61 93 63 94 69 95 62 96 64 97 65 98
REMARK SMILES IDX 66 99 67 100
REMARK H PARENT 26 5 8 13 30 34 89 53 57 64
REMARK Flexibility Score: inf
ROOT
ATOM      1  C   UNL A   1      35.446  33.973  30.858  1.00  0.00     0.117 C 
ENDROOT
BRANCH   1   2
ATOM      2  N   UNL A   1      35.845  32.704  31.441  1.00  0.00    -0.354 N 
ATOM      3  C   UNL A   1      36.204  32.439  32.733  1.00  0.00     0.246 C 
ATOM      4  O   UNL A   1      36.446  31.278  33.065  1.00  0.00    -0.272 OA
ATOM      5  H   UNL A   1      35.858  31.933  30.826  1.00  0.00     0.163 HD
BRANCH   3   6
ATOM      6  C   UNL A   1      36.298  33.595  33.731  1.00  0.00     0.260 C 
BRANCH   6   7
ATOM      7  O   UNL A   1      36.063  33.198  35.071  1.00  0.00    -0.359 OA
BRANCH   7   8
ATOM      8  C   UNL A   1      37.167  33.473  35.927  1.00  0.00     0.288 C 
BRANCH   8   9
ATOM      9  C   UNL A   1      37.645  32.337  36.854  1.00  0.00     0.333 C 
ATOM     10  O   UNL A   1      37.910  31.235  36.375  1.00  0.00    -0.244 OA
ATOM     11  N   UNL A   1      37.703  32.545  38.211  1.00  0.00    -0.202 N 
ATOM     12  C   UNL A   1      38.408  33.484  38.748  1.00  0.00     0.319 C 
ATOM     13  H   UNL A   1      37.184  31.952  38.801  1.00  0.00     0.316 HD
ATOM     14  S   UNL A   1      39.303  34.757  37.856  1.00  0.00    -0.029 SA
ATOM     15  N   UNL A   1      38.567  33.710  40.126  1.00  0.00    -0.217 N 
ATOM     16  C   UNL A   1      39.128  35.843  39.285  1.00  0.00     0.120 C 
ATOM     17  C   UNL A   1      39.457  34.852  40.408  1.00  0.00     0.212 C 
ATOM     18  C   UNL A   1      40.003  37.056  39.458  1.00  0.00     0.156 C 
ATOM     19  C   UNL A   1      39.296  35.664  41.670  1.00  0.00     0.188 C 
ATOM     20  S   UNL A   1      40.090  37.215  41.246  1.00  0.00     0.155 S 
ATOM     21  O   UNL A   1      39.213  38.285  41.678  1.00  0.00    -0.229 OA
ATOM     22  O   UNL A   1      41.473  37.131  41.655  1.00  0.00    -0.229 OA
BRANCH  15  23
ATOM     23  C   UNL A   1      38.392  32.713  41.100  1.00  0.00     0.128 A 
ATOM     24  C   UNL A   1      37.138  32.479  41.685  1.00  0.00     0.053 A 
ATOM     25  C   UNL A   1      39.457  31.891  41.511  1.00  0.00     0.053 A 
ATOM     26  C   UNL A   1      36.956  31.492  42.662  1.00  0.00     0.025 A 
ATOM     27  C   UNL A   1      39.281  30.898  42.483  1.00  0.00     0.025 A 
ATOM     28  C   UNL A   1      38.031  30.707  43.059  1.00  0.00     0.041 A 
ATOM     29  Cl  UNL A   1      37.806  29.490  44.254  1.00  0.00    -0.084 Cl
ENDBRANCH  15  23
ENDBRANCH   8   9
ENDBRANCH   7   8
ENDBRANCH   6   7
ENDBRANCH   3   6
ENDBRANCH   1   2
BRANCH   1  30
ATOM     30  C   UNL A   1      34.443  33.822  29.719  1.00  0.00     0.042 C 
BRANCH  30  31
ATOM     31  C   UNL A   1      35.032  33.304  28.408  1.00  0.00     0.118 C 
BRANCH  31  32
ATOM     32  N   UNL A   1      34.251  32.226  27.818  1.00  0.00    -0.352 N 
ATOM     33  C   UNL A   1      34.557  30.905  27.613  1.00  0.00     0.251 C 
ATOM     34  H   UNL A   1      33.351  32.490  27.515  1.00  0.00     0.163 HD
ATOM     35  O   UNL A   1      33.786  30.217  26.945  1.00  0.00    -0.269 OA
BRANCH  33  36
ATOM     36  C   UNL A   1      35.792  30.301  28.165  1.00  0.00     0.039 A 
ATOM     37  C   UNL A   1      36.948  30.320  27.380  1.00  0.00     0.014 A 
ATOM     38  C   UNL A   1      35.814  29.676  29.415  1.00  0.00     0.014 A 
ATOM     39  C   UNL A   1      38.131  29.755  27.865  1.00  0.00     0.010 A 
ATOM     40  C   UNL A   1      37.015  29.191  29.932  1.00  0.00     0.010 A 
ATOM     41  C   UNL A   1      38.185  29.210  29.159  1.00  0.00    -0.014 A 
BRANCH  41  42
ATOM     42  C   UNL A   1      39.459  28.670  29.704  1.00  0.00     0.031 A 
ATOM     43  C   UNL A   1      40.095  29.277  30.927  1.00  0.00     0.074 A 
ATOM     44  C   UNL A   1      40.074  27.654  29.064  1.00  0.00     0.049 A 
ATOM     45  N   UNL A   1      41.193  28.924  31.544  1.00  0.00    -0.248 NA
ATOM     46  C   UNL A   1      39.427  30.446  31.521  1.00  0.00     0.031 C 
ATOM     47  C   UNL A   1      39.606  27.031  27.824  1.00  0.00     0.029 A 
ATOM     48  N   UNL A   1      41.230  26.976  29.359  1.00  0.00    -0.354 N 
ATOM     49  C   UNL A   1      41.364  29.840  32.576  1.00  0.00     0.074 A 
ATOM     50  C   UNL A   1      40.278  30.789  32.478  1.00  0.00     0.031 C 
ATOM     51  C   UNL A   1      40.456  26.052  27.475  1.00  0.00     0.029 A 
ATOM     52  C   UNL A   1      41.544  25.998  28.444  1.00  0.00     0.049 A 
ATOM     53  H   UNL A   1      41.783  27.172  30.150  1.00  0.00     0.167 HD
ATOM     54  C   UNL A   1      42.321  29.875  33.536  1.00  0.00     0.034 A 
ATOM     55  C   UNL A   1      42.592  25.153  28.389  1.00  0.00     0.034 A 
ATOM     56  C   UNL A   1      43.387  28.914  33.648  1.00  0.00     0.049 A 
ATOM     57  C   UNL A   1      43.618  25.187  29.488  1.00  0.00     0.074 A 
ATOM     58  C   UNL A   1      44.359  28.818  34.628  1.00  0.00     0.029 A 
ATOM     59  N   UNL A   1      43.632  27.893  32.743  1.00  0.00    -0.354 N 
ATOM     60  N   UNL A   1      43.675  25.965  30.541  1.00  0.00    -0.248 NA
ATOM     61  C   UNL A   1      44.700  24.195  29.415  1.00  0.00     0.031 C 
ATOM     62  C   UNL A   1      45.213  27.761  34.296  1.00  0.00     0.029 A 
ATOM     63  C   UNL A   1      44.744  27.167  33.135  1.00  0.00     0.049 A 
ATOM     64  H   UNL A   1      43.094  27.710  31.939  1.00  0.00     0.167 HD
ATOM     65  C   UNL A   1      44.772  25.530  31.277  1.00  0.00     0.074 A 
ATOM     66  C   UNL A   1      45.335  24.406  30.559  1.00  0.00     0.031 C 
ATOM     67  C   UNL A   1      45.271  26.022  32.437  1.00  0.00     0.034 A 
BRANCH  54  68
ATOM     68  C   UNL A   1      42.238  30.969  34.571  1.00  0.00     0.023 A 
ATOM     69  C   UNL A   1      41.539  30.743  35.776  1.00  0.00     0.012 A 
ATOM     70  C   UNL A   1      42.899  32.199  34.379  1.00  0.00     0.148 A 
ATOM     71  C   UNL A   1      41.467  31.735  36.754  1.00  0.00     0.002 A 
ATOM     72  C   UNL A   1      42.865  33.163  35.381  1.00  0.00     0.091 A 
ATOM     73  F   UNL A   1      43.543  32.405  33.221  1.00  0.00    -0.205 F 
ATOM     74  C   UNL A   1      42.138  32.938  36.561  1.00  0.00     0.022 A 
BRANCH  72  75
ATOM     75  S   UNL A   1      43.767  34.712  35.267  1.00  0.00     0.127 S 
ATOM     76  O   UNL A   1      43.447  35.139  33.905  1.00  0.00    -0.237 OA
ATOM     77  O   UNL A   1      43.139  35.510  36.319  1.00  0.00    -0.237 OA
ATOM     78  O   UNL A   1      45.165  34.383  35.504  1.00  0.00    -0.744 OA
ENDBRANCH  72  75
ENDBRANCH  54  68
BRANCH  55  79
ATOM     79  C   UNL A   1      42.691  24.159  27.283  1.00  0.00     0.023 A 
ATOM     80  C   UNL A   1      43.417  24.479  26.120  1.00  0.00     0.012 A 
ATOM     81  C   UNL A   1      42.084  22.892  27.386  1.00  0.00     0.148 A 
ATOM     82  C   UNL A   1      43.503  23.574  25.062  1.00  0.00     0.002 A 
ATOM     83  C   UNL A   1      42.224  21.972  26.355  1.00  0.00     0.091 A 
ATOM     84  F   UNL A   1      41.392  22.609  28.498  1.00  0.00    -0.205 F 
ATOM     85  C   UNL A   1      42.914  22.317  25.183  1.00  0.00     0.022 A 
BRANCH  83  86
ATOM     86  S   UNL A   1      41.619  20.287  26.482  1.00  0.00     0.127 S 
ATOM     87  O   UNL A   1      40.172  20.485  26.463  1.00  0.00    -0.237 OA
ATOM     88  O   UNL A   1      42.174  19.676  25.274  1.00  0.00    -0.237 OA
ATOM     89  O   UNL A   1      42.169  19.762  27.725  1.00  0.00    -0.744 OA
ENDBRANCH  83  86
ENDBRANCH  55  79
BRANCH  67  90
ATOM     90  C   UNL A   1      46.458  25.312  33.040  1.00  0.00     0.023 A 
ATOM     91  C   UNL A   1      47.769  25.721  32.722  1.00  0.00     0.012 A 
ATOM     92  C   UNL A   1      46.268  24.256  33.953  1.00  0.00     0.148 A 
ATOM     93  C   UNL A   1      48.870  25.056  33.262  1.00  0.00     0.002 A 
ATOM     94  C   UNL A   1      47.369  23.636  34.531  1.00  0.00     0.091 A 
ATOM     95  F   UNL A   1      45.015  23.867  34.230  1.00  0.00    -0.205 F 
ATOM     96  C   UNL A   1      48.670  24.022  34.173  1.00  0.00     0.022 A 
BRANCH  94  97
ATOM     97  S   UNL A   1      47.203  22.364  35.789  1.00  0.00     0.127 S 
ATOM     98  O   UNL A   1      46.616  21.265  35.025  1.00  0.00    -0.237 OA
ATOM     99  O   UNL A   1      48.591  22.150  36.199  1.00  0.00    -0.237 OA
ATOM    100  O   UNL A   1      46.351  22.935  36.824  1.00  0.00    -0.744 OA
ENDBRANCH  94  97
ENDBRANCH  67  90
ENDBRANCH  41  42
ENDBRANCH  33  36
ENDBRANCH  31  32
ENDBRANCH  30  31
ENDBRANCH   1  30
TORSDOF 17
ENDMDL
