MODEL 1
REMARK VINA RESULT:     -13.3      0.000      0.000
REMARK SMILES CC(C)(C)c1cc(Nc2ccccc2C(=O)NCCCNC(=O)c2ccc(-c3c4nc(c(-c5cccc(S(=O)(=O)[O-])c5F)c5ccc([nH]5)c(-c5cccc(S(=O)(=O)[O-])c5F)c5nc(c(-c6cccc(S(=O)(=O)[O-])c6F)c6ccc3[nH]6)C=C5)C=C4)cc2)cc2c1OCC2(C)C
REMARK SMILES IDX 19 1 18 2 17 3 15 4 16 5 14 7 9 8 10 9 11 10 13 11 12 12
REMARK SMILES IDX 8 13 7 15 5 16 6 17 89 18 88 19 90 20 87 21 92 22 91 23
REMARK SMILES IDX 93 24 94 25 2 26 1 27 3 28 4 29 20 30 21 31 22 32 23 34
REMARK SMILES IDX 24 35 25 36 86 37 26 38 85 39 27 40 28 41 29 42 79 43 30 44
REMARK SMILES IDX 84 45 78 46 80 47 31 48 83 49 77 50 76 51 32 53 64 54 44 55
REMARK SMILES IDX 63 56 45 57 48 58 62 59 81 60 46 61 47 62 61 64 82 65 49 66
REMARK SMILES IDX 33 67 34 68 42 69 35 70 37 71 43 72 36 73 38 74 39 75 40 76
REMARK SMILES IDX 41 77 65 78 66 79 74 80 67 81 69 82 75 83 68 84 70 85 71 86
REMARK SMILES IDX 72 87 73 88 50 89 51 90 59 91 52 92 54 93 60 94 53 95 55 96
REMARK SMILES IDX 56 97 57 98 58 99
REMARK H PARENT 17 6 8 14 21 33 80 52 48 63
REMARK Flexibility Score: inf
ROOT
ATOM      1  C   UNL A   1      35.062  21.955  26.544  1.00  0.00     0.042 C 
ENDROOT
BRANCH   1   2
ATOM      2  C   UNL A   1      34.365  23.270  26.886  1.00  0.00     0.118 C 
BRANCH   2   3
ATOM      3  N   UNL A   1      33.006  23.164  27.367  1.00  0.00    -0.352 N 
ATOM      4  C   UNL A   1      31.819  22.937  26.722  1.00  0.00     0.253 C 
ATOM      5  O   UNL A   1      30.819  22.877  27.449  1.00  0.00    -0.269 OA
ATOM      6  H   UNL A   1      32.917  23.278  28.340  1.00  0.00     0.163 HD
BRANCH   4   7
ATOM      7  C   UNL A   1      31.608  22.809  25.247  1.00  0.00     0.063 A 
ATOM      8  C   UNL A   1      30.905  23.665  24.374  1.00  0.00     0.051 A 
ATOM      9  C   UNL A   1      30.996  23.426  22.979  1.00  0.00     0.027 A 
ATOM     10  C   UNL A   1      31.702  22.349  22.450  1.00  0.00     0.002 A 
ATOM     11  C   UNL A   1      32.319  21.719  24.683  1.00  0.00     0.016 A 
ATOM     12  C   UNL A   1      32.352  21.480  23.308  1.00  0.00     0.001 A 
BRANCH   8  13
ATOM     13  N   UNL A   1      30.010  24.682  24.774  1.00  0.00    -0.355 N 
ATOM     14  H   UNL A   1      29.091  24.412  24.998  1.00  0.00     0.167 HD
BRANCH  13  15
ATOM     15  C   UNL A   1      30.332  26.062  24.880  1.00  0.00     0.039 A 
ATOM     16  C   UNL A   1      30.025  28.377  24.021  1.00  0.00     0.002 A 
ATOM     17  C   UNL A   1      29.624  27.015  24.116  1.00  0.00     0.034 A 
ATOM     18  C   UNL A   1      31.118  28.744  24.805  1.00  0.00     0.127 A 
ATOM     19  C   UNL A   1      31.783  27.837  25.615  1.00  0.00     0.006 A 
ATOM     20  O   UNL A   1      31.674  29.991  24.859  1.00  0.00    -0.492 OA
ATOM     21  C   UNL A   1      31.408  26.506  25.656  1.00  0.00     0.034 A 
ATOM     22  C   UNL A   1      32.912  28.491  26.337  1.00  0.00     0.028 C 
ATOM     23  C   UNL A   1      32.719  29.939  25.853  1.00  0.00     0.240 C 
ATOM     24  C   UNL A   1      32.746  28.378  27.856  1.00  0.00     0.020 C 
ATOM     25  C   UNL A   1      34.272  27.929  25.907  1.00  0.00     0.020 C 
BRANCH  16  26
ATOM     26  C   UNL A   1      29.284  29.326  23.065  1.00  0.00    -0.009 C 
ATOM     27  C   UNL A   1      29.031  30.752  23.602  1.00  0.00     0.016 C 
ATOM     28  C   UNL A   1      27.910  28.726  22.706  1.00  0.00     0.016 C 
ATOM     29  C   UNL A   1      30.107  29.502  21.772  1.00  0.00     0.016 C 
ENDBRANCH  16  26
ENDBRANCH  13  15
ENDBRANCH   8  13
ENDBRANCH   4   7
ENDBRANCH   2   3
ENDBRANCH   1   2
BRANCH   1  30
ATOM     30  C   UNL A   1      35.850  21.945  25.240  1.00  0.00     0.118 C 
BRANCH  30  31
ATOM     31  N   UNL A   1      36.974  21.022  25.202  1.00  0.00    -0.352 N 
ATOM     32  C   UNL A   1      38.277  21.050  25.642  1.00  0.00     0.251 C 
ATOM     33  H   UNL A   1      36.748  20.174  24.755  1.00  0.00     0.163 HD
ATOM     34  O   UNL A   1      38.938  20.025  25.458  1.00  0.00    -0.269 OA
BRANCH  32  35
ATOM     35  C   UNL A   1      38.949  22.239  26.246  1.00  0.00     0.039 A 
ATOM     36  C   UNL A   1      38.558  23.554  26.033  1.00  0.00     0.014 A 
ATOM     37  C   UNL A   1      40.059  22.013  27.083  1.00  0.00     0.014 A 
ATOM     38  C   UNL A   1      39.342  24.613  26.493  1.00  0.00     0.010 A 
ATOM     39  C   UNL A   1      40.803  23.077  27.619  1.00  0.00     0.010 A 
ATOM     40  C   UNL A   1      40.475  24.393  27.291  1.00  0.00    -0.014 A 
BRANCH  40  41
ATOM     41  C   UNL A   1      41.222  25.581  27.790  1.00  0.00     0.031 A 
ATOM     42  C   UNL A   1      42.629  25.879  27.350  1.00  0.00     0.074 A 
ATOM     43  C   UNL A   1      40.566  26.468  28.567  1.00  0.00     0.049 A 
ATOM     44  N   UNL A   1      43.312  26.987  27.492  1.00  0.00    -0.248 NA
ATOM     45  C   UNL A   1      43.368  24.810  26.664  1.00  0.00     0.031 C 
ATOM     46  C   UNL A   1      39.218  26.269  29.104  1.00  0.00     0.029 A 
ATOM     47  N   UNL A   1      40.912  27.725  28.994  1.00  0.00    -0.354 N 
ATOM     48  C   UNL A   1      44.558  26.745  26.926  1.00  0.00     0.074 A 
ATOM     49  C   UNL A   1      44.547  25.382  26.447  1.00  0.00     0.031 C 
ATOM     50  C   UNL A   1      38.818  27.394  29.712  1.00  0.00     0.029 A 
ATOM     51  C   UNL A   1      39.895  28.377  29.652  1.00  0.00     0.049 A 
ATOM     52  H   UNL A   1      41.801  28.121  28.845  1.00  0.00     0.167 HD
ATOM     53  C   UNL A   1      45.606  27.592  26.798  1.00  0.00     0.034 A 
ATOM     54  C   UNL A   1      39.820  29.632  30.137  1.00  0.00     0.034 A 
ATOM     55  C   UNL A   1      45.606  28.958  27.250  1.00  0.00     0.049 A 
ATOM     56  C   UNL A   1      40.989  30.555  29.971  1.00  0.00     0.074 A 
ATOM     57  C   UNL A   1      46.605  29.906  27.108  1.00  0.00     0.029 A 
ATOM     58  N   UNL A   1      44.569  29.566  27.937  1.00  0.00    -0.354 N 
ATOM     59  N   UNL A   1      42.105  30.350  29.316  1.00  0.00    -0.248 NA
ATOM     60  C   UNL A   1      40.893  31.880  30.600  1.00  0.00     0.031 C 
ATOM     61  C   UNL A   1      46.178  31.084  27.725  1.00  0.00     0.029 A 
ATOM     62  C   UNL A   1      44.910  30.870  28.245  1.00  0.00     0.049 A 
ATOM     63  H   UNL A   1      43.716  29.133  28.172  1.00  0.00     0.167 HD
ATOM     64  C   UNL A   1      42.845  31.517  29.453  1.00  0.00     0.074 A 
ATOM     65  C   UNL A   1      42.041  32.436  30.232  1.00  0.00     0.031 C 
ATOM     66  C   UNL A   1      44.089  31.788  28.989  1.00  0.00     0.034 A 
BRANCH  53  67
ATOM     67  C   UNL A   1      46.838  27.103  26.088  1.00  0.00     0.023 A 
ATOM     68  C   UNL A   1      46.988  27.379  24.715  1.00  0.00     0.012 A 
ATOM     69  C   UNL A   1      47.895  26.498  26.796  1.00  0.00     0.148 A 
ATOM     70  C   UNL A   1      48.173  27.059  24.054  1.00  0.00     0.002 A 
ATOM     71  C   UNL A   1      49.083  26.203  26.134  1.00  0.00     0.091 A 
ATOM     72  F   UNL A   1      47.723  26.239  28.099  1.00  0.00    -0.205 F 
ATOM     73  C   UNL A   1      49.221  26.482  24.764  1.00  0.00     0.022 A 
BRANCH  71  74
ATOM     74  S   UNL A   1      50.515  25.505  26.965  1.00  0.00     0.127 S 
ATOM     75  O   UNL A   1      51.413  25.252  25.839  1.00  0.00    -0.237 OA
ATOM     76  O   UNL A   1      50.928  26.604  27.839  1.00  0.00    -0.237 OA
ATOM     77  O   UNL A   1      50.041  24.316  27.658  1.00  0.00    -0.744 OA
ENDBRANCH  71  74
ENDBRANCH  53  67
BRANCH  54  78
ATOM     78  C   UNL A   1      38.549  30.083  30.767  1.00  0.00     0.023 A 
ATOM     79  C   UNL A   1      38.385  29.957  32.159  1.00  0.00     0.012 A 
ATOM     80  C   UNL A   1      37.564  30.746  30.011  1.00  0.00     0.148 A 
ATOM     81  C   UNL A   1      37.261  30.495  32.790  1.00  0.00     0.002 A 
ATOM     82  C   UNL A   1      36.475  31.324  30.651  1.00  0.00     0.091 A 
ATOM     83  F   UNL A   1      37.740  30.840  28.686  1.00  0.00    -0.205 F 
ATOM     84  C   UNL A   1      36.316  31.192  32.039  1.00  0.00     0.022 A 
BRANCH  82  85
ATOM     85  S   UNL A   1      35.290  32.360  29.786  1.00  0.00     0.127 S 
ATOM     86  O   UNL A   1      34.343  32.682  30.849  1.00  0.00    -0.237 OA
ATOM     87  O   UNL A   1      36.129  33.475  29.348  1.00  0.00    -0.237 OA
ATOM     88  O   UNL A   1      34.767  31.540  28.701  1.00  0.00    -0.744 OA
ENDBRANCH  82  85
ENDBRANCH  54  78
BRANCH  66  89
ATOM     89  C   UNL A   1      44.693  33.123  29.315  1.00  0.00     0.023 A 
ATOM     90  C   UNL A   1      45.451  33.256  30.495  1.00  0.00     0.012 A 
ATOM     91  C   UNL A   1      44.647  34.182  28.390  1.00  0.00     0.148 A 
ATOM     92  C   UNL A   1      46.160  34.429  30.748  1.00  0.00     0.002 A 
ATOM     93  C   UNL A   1      45.381  35.336  28.634  1.00  0.00     0.091 A 
ATOM     94  F   UNL A   1      43.917  34.024  27.277  1.00  0.00    -0.205 F 
ATOM     95  C   UNL A   1      46.136  35.462  29.813  1.00  0.00     0.022 A 
BRANCH  93  96
ATOM     96  S   UNL A   1      45.476  36.693  27.461  1.00  0.00     0.127 S 
ATOM     97  O   UNL A   1      44.077  37.110  27.372  1.00  0.00    -0.237 OA
ATOM     98  O   UNL A   1      46.351  37.637  28.155  1.00  0.00    -0.237 OA
ATOM     99  O   UNL A   1      46.027  36.132  26.235  1.00  0.00    -0.744 OA
ENDBRANCH  93  96
ENDBRANCH  66  89
ENDBRANCH  40  41
ENDBRANCH  32  35
ENDBRANCH  30  31
ENDBRANCH   1  30
TORSDOF 16
ENDMDL
MODEL 2
REMARK VINA RESULT:     -12.4      6.377     10.126
REMARK SMILES CC(C)(C)c1cc(Nc2ccccc2C(=O)NCCCNC(=O)c2ccc(-c3c4nc(c(-c5cccc(S(=O)(=O)[O-])c5F)c5ccc([nH]5)c(-c5cccc(S(=O)(=O)[O-])c5F)c5nc(c(-c6cccc(S(=O)(=O)[O-])c6F)c6ccc3[nH]6)C=C5)C=C4)cc2)cc2c1OCC2(C)C
REMARK SMILES IDX 19 1 18 2 17 3 15 4 16 5 14 7 9 8 10 9 11 10 13 11 12 12
REMARK SMILES IDX 8 13 7 15 5 16 6 17 89 18 88 19 90 20 87 21 92 22 91 23
REMARK SMILES IDX 93 24 94 25 2 26 1 27 3 28 4 29 20 30 21 31 22 32 23 34
REMARK SMILES IDX 24 35 25 36 86 37 26 38 85 39 27 40 28 41 29 42 79 43 30 44
REMARK SMILES IDX 84 45 78 46 80 47 31 48 83 49 77 50 76 51 32 53 64 54 44 55
REMARK SMILES IDX 63 56 45 57 48 58 62 59 81 60 46 61 47 62 61 64 82 65 49 66
REMARK SMILES IDX 33 67 34 68 42 69 35 70 37 71 43 72 36 73 38 74 39 75 40 76
REMARK SMILES IDX 41 77 65 78 66 79 74 80 67 81 69 82 75 83 68 84 70 85 71 86
REMARK SMILES IDX 72 87 73 88 50 89 51 90 59 91 52 92 54 93 60 94 53 95 55 96
REMARK SMILES IDX 56 97 57 98 58 99
REMARK H PARENT 17 6 8 14 21 33 80 52 48 63
REMARK Flexibility Score: inf
ROOT
ATOM      1  C   UNL A   1      33.656  36.435  28.670  1.00  0.00     0.042 C 
ENDROOT
BRANCH   1   2
ATOM      2  C   UNL A   1      33.625  34.909  28.727  1.00  0.00     0.118 C 
BRANCH   2   3
ATOM      3  N   UNL A   1      32.615  34.262  27.919  1.00  0.00    -0.352 N 
ATOM      4  C   UNL A   1      32.507  32.986  27.435  1.00  0.00     0.253 C 
ATOM      5  O   UNL A   1      31.480  32.745  26.787  1.00  0.00    -0.269 OA
ATOM      6  H   UNL A   1      31.865  34.849  27.672  1.00  0.00     0.163 HD
BRANCH   4   7
ATOM      7  C   UNL A   1      33.514  31.887  27.562  1.00  0.00     0.063 A 
ATOM      8  C   UNL A   1      33.395  30.528  27.204  1.00  0.00     0.051 A 
ATOM      9  C   UNL A   1      34.555  29.715  27.256  1.00  0.00     0.027 A 
ATOM     10  C   UNL A   1      35.785  30.193  27.701  1.00  0.00     0.002 A 
ATOM     11  C   UNL A   1      34.776  32.350  28.014  1.00  0.00     0.016 A 
ATOM     12  C   UNL A   1      35.892  31.514  28.099  1.00  0.00     0.001 A 
BRANCH   8  13
ATOM     13  N   UNL A   1      32.183  29.867  26.908  1.00  0.00    -0.355 N 
ATOM     14  H   UNL A   1      31.546  29.737  27.647  1.00  0.00     0.167 HD
BRANCH  13  15
ATOM     15  C   UNL A   1      31.810  29.372  25.628  1.00  0.00     0.039 A 
ATOM     16  C   UNL A   1      30.265  29.495  23.682  1.00  0.00     0.002 A 
ATOM     17  C   UNL A   1      30.828  30.044  24.868  1.00  0.00     0.034 A 
ATOM     18  C   UNL A   1      30.809  28.284  23.256  1.00  0.00     0.127 A 
ATOM     19  C   UNL A   1      31.822  27.645  23.952  1.00  0.00     0.006 A 
ATOM     20  O   UNL A   1      30.415  27.580  22.153  1.00  0.00    -0.492 OA
ATOM     21  C   UNL A   1      32.321  28.169  25.131  1.00  0.00     0.034 A 
ATOM     22  C   UNL A   1      32.211  26.370  23.282  1.00  0.00     0.028 C 
ATOM     23  C   UNL A   1      31.295  26.442  22.047  1.00  0.00     0.240 C 
ATOM     24  C   UNL A   1      33.691  26.374  22.887  1.00  0.00     0.020 C 
ATOM     25  C   UNL A   1      31.895  25.145  24.148  1.00  0.00     0.020 C 
BRANCH  16  26
ATOM     26  C   UNL A   1      29.106  30.222  22.980  1.00  0.00    -0.009 C 
ATOM     27  C   UNL A   1      29.347  30.592  21.500  1.00  0.00     0.016 C 
ATOM     28  C   UNL A   1      28.790  31.532  23.729  1.00  0.00     0.016 C 
ATOM     29  C   UNL A   1      27.852  29.323  22.991  1.00  0.00     0.016 C 
ENDBRANCH  16  26
ENDBRANCH  13  15
ENDBRANCH   8  13
ENDBRANCH   4   7
ENDBRANCH   2   3
ENDBRANCH   1   2
BRANCH   1  30
ATOM     30  C   UNL A   1      33.550  37.147  30.013  1.00  0.00     0.118 C 
BRANCH  30  31
ATOM     31  N   UNL A   1      32.517  36.640  30.904  1.00  0.00    -0.352 N 
ATOM     32  C   UNL A   1      32.475  35.728  31.933  1.00  0.00     0.251 C 
ATOM     33  H   UNL A   1      31.638  37.048  30.728  1.00  0.00     0.163 HD
ATOM     34  O   UNL A   1      31.387  35.591  32.497  1.00  0.00    -0.269 OA
BRANCH  32  35
ATOM     35  C   UNL A   1      33.615  34.859  32.351  1.00  0.00     0.039 A 
ATOM     36  C   UNL A   1      33.476  33.582  32.878  1.00  0.00     0.014 A 
ATOM     37  C   UNL A   1      34.920  35.370  32.207  1.00  0.00     0.014 A 
ATOM     38  C   UNL A   1      34.577  32.906  33.403  1.00  0.00     0.010 A 
ATOM     39  C   UNL A   1      36.042  34.655  32.659  1.00  0.00     0.010 A 
ATOM     40  C   UNL A   1      35.875  33.429  33.303  1.00  0.00    -0.014 A 
BRANCH  40  41
ATOM     41  C   UNL A   1      37.003  32.616  33.837  1.00  0.00     0.031 A 
ATOM     42  C   UNL A   1      37.640  31.515  33.035  1.00  0.00     0.074 A 
ATOM     43  C   UNL A   1      37.534  32.965  35.027  1.00  0.00     0.049 A 
ATOM     44  N   UNL A   1      38.774  30.897  33.253  1.00  0.00    -0.248 NA
ATOM     45  C   UNL A   1      36.926  31.043  31.840  1.00  0.00     0.031 C 
ATOM     46  C   UNL A   1      36.976  33.980  35.924  1.00  0.00     0.029 A 
ATOM     47  N   UNL A   1      38.679  32.553  35.663  1.00  0.00    -0.354 N 
ATOM     48  C   UNL A   1      38.903  29.960  32.234  1.00  0.00     0.074 A 
ATOM     49  C   UNL A   1      37.727  30.079  31.401  1.00  0.00     0.031 C 
ATOM     50  C   UNL A   1      37.821  34.174  36.946  1.00  0.00     0.029 A 
ATOM     51  C   UNL A   1      38.956  33.267  36.806  1.00  0.00     0.049 A 
ATOM     52  H   UNL A   1      39.245  31.818  35.333  1.00  0.00     0.167 HD
ATOM     53  C   UNL A   1      39.920  29.098  32.003  1.00  0.00     0.034 A 
ATOM     54  C   UNL A   1      40.011  33.218  37.642  1.00  0.00     0.034 A 
ATOM     55  C   UNL A   1      41.101  29.000  32.816  1.00  0.00     0.049 A 
ATOM     56  C   UNL A   1      41.130  32.263  37.357  1.00  0.00     0.074 A 
ATOM     57  C   UNL A   1      42.210  28.194  32.621  1.00  0.00     0.029 A 
ATOM     58  N   UNL A   1      41.325  29.718  33.979  1.00  0.00    -0.354 N 
ATOM     59  N   UNL A   1      41.295  31.484  36.318  1.00  0.00    -0.248 NA
ATOM     60  C   UNL A   1      42.211  32.182  38.350  1.00  0.00     0.031 C 
ATOM     61  C   UNL A   1      43.099  28.413  33.677  1.00  0.00     0.029 A 
ATOM     62  C   UNL A   1      42.545  29.360  34.525  1.00  0.00     0.049 A 
ATOM     63  H   UNL A   1      40.708  30.384  34.360  1.00  0.00     0.167 HD
ATOM     64  C   UNL A   1      42.496  30.819  36.528  1.00  0.00     0.074 A 
ATOM     65  C   UNL A   1      43.031  31.305  37.783  1.00  0.00     0.031 C 
ATOM     66  C   UNL A   1      43.085  29.875  35.755  1.00  0.00     0.034 A 
BRANCH  53  67
ATOM     67  C   UNL A   1      39.848  28.217  30.786  1.00  0.00     0.023 A 
ATOM     68  C   UNL A   1      39.027  27.073  30.820  1.00  0.00     0.012 A 
ATOM     69  C   UNL A   1      40.477  28.587  29.581  1.00  0.00     0.148 A 
ATOM     70  C   UNL A   1      38.831  26.308  29.672  1.00  0.00     0.002 A 
ATOM     71  C   UNL A   1      40.258  27.831  28.434  1.00  0.00     0.091 A 
ATOM     72  F   UNL A   1      41.259  29.675  29.578  1.00  0.00    -0.205 F 
ATOM     73  C   UNL A   1      39.437  26.692  28.479  1.00  0.00     0.022 A 
BRANCH  71  74
ATOM     74  S   UNL A   1      40.949  28.265  26.833  1.00  0.00     0.127 S 
ATOM     75  O   UNL A   1      40.053  29.339  26.407  1.00  0.00    -0.237 OA
ATOM     76  O   UNL A   1      42.299  28.703  27.190  1.00  0.00    -0.237 OA
ATOM     77  O   UNL A   1      40.892  27.055  26.026  1.00  0.00    -0.744 OA
ENDBRANCH  71  74
ENDBRANCH  53  67
BRANCH  54  78
ATOM     78  C   UNL A   1      40.060  34.163  38.791  1.00  0.00     0.023 A 
ATOM     79  C   UNL A   1      40.701  35.406  38.637  1.00  0.00     0.012 A 
ATOM     80  C   UNL A   1      39.368  33.885  39.985  1.00  0.00     0.148 A 
ATOM     81  C   UNL A   1      40.644  36.362  39.652  1.00  0.00     0.002 A 
ATOM     82  C   UNL A   1      39.271  34.860  40.970  1.00  0.00     0.091 A 
ATOM     83  F   UNL A   1      38.777  32.689  40.110  1.00  0.00    -0.205 F 
ATOM     84  C   UNL A   1      39.915  36.095  40.810  1.00  0.00     0.022 A 
BRANCH  82  85
ATOM     85  S   UNL A   1      38.236  34.657  42.424  1.00  0.00     0.127 S 
ATOM     86  O   UNL A   1      38.612  35.820  43.222  1.00  0.00    -0.237 OA
ATOM     87  O   UNL A   1      36.893  34.711  41.847  1.00  0.00    -0.237 OA
ATOM     88  O   UNL A   1      38.595  33.362  42.987  1.00  0.00    -0.744 OA
ENDBRANCH  82  85
ENDBRANCH  54  78
BRANCH  66  89
ATOM     89  C   UNL A   1      44.373  29.270  36.232  1.00  0.00     0.023 A 
ATOM     90  C   UNL A   1      45.578  29.960  35.995  1.00  0.00     0.012 A 
ATOM     91  C   UNL A   1      44.375  28.121  37.045  1.00  0.00     0.148 A 
ATOM     92  C   UNL A   1      46.769  29.514  36.563  1.00  0.00     0.002 A 
ATOM     93  C   UNL A   1      45.560  27.699  37.633  1.00  0.00     0.091 A 
ATOM     94  F   UNL A   1      43.211  27.487  37.252  1.00  0.00    -0.205 F 
ATOM     95  C   UNL A   1      46.759  28.393  37.391  1.00  0.00     0.022 A 
BRANCH  93  96
ATOM     96  S   UNL A   1      45.641  26.314  38.772  1.00  0.00     0.127 S 
ATOM     97  O   UNL A   1      47.076  26.235  39.046  1.00  0.00    -0.237 OA
ATOM     98  O   UNL A   1      44.830  26.791  39.892  1.00  0.00    -0.237 OA
ATOM     99  O   UNL A   1      45.090  25.169  38.060  1.00  0.00    -0.744 OA
ENDBRANCH  93  96
ENDBRANCH  66  89
ENDBRANCH  40  41
ENDBRANCH  32  35
ENDBRANCH  30  31
ENDBRANCH   1  30
TORSDOF 16
ENDMDL
MODEL 3
REMARK VINA RESULT:     -12.2      4.898      9.988
REMARK SMILES CC(C)(C)c1cc(Nc2ccccc2C(=O)NCCCNC(=O)c2ccc(-c3c4nc(c(-c5cccc(S(=O)(=O)[O-])c5F)c5ccc([nH]5)c(-c5cccc(S(=O)(=O)[O-])c5F)c5nc(c(-c6cccc(S(=O)(=O)[O-])c6F)c6ccc3[nH]6)C=C5)C=C4)cc2)cc2c1OCC2(C)C
REMARK SMILES IDX 19 1 18 2 17 3 15 4 16 5 14 7 9 8 10 9 11 10 13 11 12 12
REMARK SMILES IDX 8 13 7 15 5 16 6 17 89 18 88 19 90 20 87 21 92 22 91 23
REMARK SMILES IDX 93 24 94 25 2 26 1 27 3 28 4 29 20 30 21 31 22 32 23 34
REMARK SMILES IDX 24 35 25 36 86 37 26 38 85 39 27 40 28 41 29 42 79 43 30 44
REMARK SMILES IDX 84 45 78 46 80 47 31 48 83 49 77 50 76 51 32 53 64 54 44 55
REMARK SMILES IDX 63 56 45 57 48 58 62 59 81 60 46 61 47 62 61 64 82 65 49 66
REMARK SMILES IDX 33 67 34 68 42 69 35 70 37 71 43 72 36 73 38 74 39 75 40 76
REMARK SMILES IDX 41 77 65 78 66 79 74 80 67 81 69 82 75 83 68 84 70 85 71 86
REMARK SMILES IDX 72 87 73 88 50 89 51 90 59 91 52 92 54 93 60 94 53 95 55 96
REMARK SMILES IDX 56 97 57 98 58 99
REMARK H PARENT 17 6 8 14 21 33 80 52 48 63
REMARK Flexibility Score: inf
ROOT
ATOM      1  C   UNL A   1      31.763  29.284  27.506  1.00  0.00     0.042 C 
ENDROOT
BRANCH   1   2
ATOM      2  C   UNL A   1      32.148  27.808  27.444  1.00  0.00     0.118 C 
BRANCH   2   3
ATOM      3  N   UNL A   1      31.072  26.879  27.180  1.00  0.00    -0.352 N 
ATOM      4  C   UNL A   1      30.455  26.496  26.018  1.00  0.00     0.253 C 
ATOM      5  O   UNL A   1      29.569  25.641  26.142  1.00  0.00    -0.269 OA
ATOM      6  H   UNL A   1      30.716  26.440  27.985  1.00  0.00     0.163 HD
BRANCH   4   7
ATOM      7  C   UNL A   1      30.704  27.038  24.647  1.00  0.00     0.063 A 
ATOM      8  C   UNL A   1      31.864  26.939  23.851  1.00  0.00     0.051 A 
ATOM      9  C   UNL A   1      31.798  27.382  22.506  1.00  0.00     0.027 A 
ATOM     10  C   UNL A   1      30.652  27.962  21.966  1.00  0.00     0.002 A 
ATOM     11  C   UNL A   1      29.551  27.633  24.074  1.00  0.00     0.016 A 
ATOM     12  C   UNL A   1      29.528  28.104  22.760  1.00  0.00     0.001 A 
BRANCH   8  13
ATOM     13  N   UNL A   1      33.139  26.542  24.313  1.00  0.00    -0.355 N 
ATOM     14  H   UNL A   1      33.785  27.254  24.524  1.00  0.00     0.167 HD
BRANCH  13  15
ATOM     15  C   UNL A   1      33.562  25.198  24.498  1.00  0.00     0.039 A 
ATOM     16  C   UNL A   1      33.110  22.951  25.466  1.00  0.00     0.002 A 
ATOM     17  C   UNL A   1      32.686  24.250  25.069  1.00  0.00     0.034 A 
ATOM     18  C   UNL A   1      34.434  22.629  25.173  1.00  0.00     0.127 A 
ATOM     19  C   UNL A   1      35.290  23.522  24.549  1.00  0.00     0.006 A 
ATOM     20  O   UNL A   1      35.049  21.445  25.472  1.00  0.00    -0.492 OA
ATOM     21  C   UNL A   1      34.873  24.798  24.216  1.00  0.00     0.034 A 
ATOM     22  C   UNL A   1      36.644  22.925  24.361  1.00  0.00     0.028 C 
ATOM     23  C   UNL A   1      36.379  21.514  24.917  1.00  0.00     0.240 C 
ATOM     24  C   UNL A   1      37.037  22.882  22.881  1.00  0.00     0.020 C 
ATOM     25  C   UNL A   1      37.715  23.660  25.175  1.00  0.00     0.020 C 
BRANCH  16  26
ATOM     26  C   UNL A   1      32.132  22.021  26.204  1.00  0.00    -0.009 C 
ATOM     27  C   UNL A   1      32.105  20.556  25.715  1.00  0.00     0.016 C 
ATOM     28  C   UNL A   1      30.697  22.570  26.068  1.00  0.00     0.016 C 
ATOM     29  C   UNL A   1      32.506  21.960  27.699  1.00  0.00     0.016 C 
ENDBRANCH  16  26
ENDBRANCH  13  15
ENDBRANCH   8  13
ENDBRANCH   4   7
ENDBRANCH   2   3
ENDBRANCH   1   2
BRANCH   1  30
ATOM     30  C   UNL A   1      32.507  30.201  26.544  1.00  0.00     0.118 C 
BRANCH  30  31
ATOM     31  N   UNL A   1      32.592  31.595  26.956  1.00  0.00    -0.352 N 
ATOM     32  C   UNL A   1      33.552  32.381  27.549  1.00  0.00     0.251 C 
ATOM     33  H   UNL A   1      31.765  32.093  26.763  1.00  0.00     0.163 HD
ATOM     34  O   UNL A   1      33.263  33.569  27.707  1.00  0.00    -0.269 OA
BRANCH  32  35
ATOM     35  C   UNL A   1      34.860  31.885  28.070  1.00  0.00     0.039 A 
ATOM     36  C   UNL A   1      35.072  30.609  28.574  1.00  0.00     0.014 A 
ATOM     37  C   UNL A   1      35.954  32.773  28.055  1.00  0.00     0.014 A 
ATOM     38  C   UNL A   1      36.276  30.281  29.199  1.00  0.00     0.010 A 
ATOM     39  C   UNL A   1      37.195  32.418  28.608  1.00  0.00     0.010 A 
ATOM     40  C   UNL A   1      37.355  31.178  29.227  1.00  0.00    -0.014 A 
BRANCH  40  41
ATOM     41  C   UNL A   1      38.625  30.728  29.862  1.00  0.00     0.031 A 
ATOM     42  C   UNL A   1      38.983  31.097  31.276  1.00  0.00     0.074 A 
ATOM     43  C   UNL A   1      39.410  29.869  29.180  1.00  0.00     0.049 A 
ATOM     44  N   UNL A   1      39.912  30.585  32.043  1.00  0.00    -0.248 NA
ATOM     45  C   UNL A   1      38.210  32.172  31.914  1.00  0.00     0.031 C 
ATOM     46  C   UNL A   1      39.199  29.474  27.785  1.00  0.00     0.029 A 
ATOM     47  N   UNL A   1      40.502  29.135  29.571  1.00  0.00    -0.354 N 
ATOM     48  C   UNL A   1      39.842  31.279  33.246  1.00  0.00     0.074 A 
ATOM     49  C   UNL A   1      38.788  32.259  33.106  1.00  0.00     0.031 C 
ATOM     50  C   UNL A   1      40.073  28.510  27.465  1.00  0.00     0.029 A 
ATOM     51  C   UNL A   1      40.937  28.250  28.613  1.00  0.00     0.049 A 
ATOM     52  H   UNL A   1      40.931  29.234  30.452  1.00  0.00     0.167 HD
ATOM     53  C   UNL A   1      40.574  31.097  34.369  1.00  0.00     0.034 A 
ATOM     54  C   UNL A   1      41.907  27.316  28.649  1.00  0.00     0.034 A 
ATOM     55  C   UNL A   1      41.603  30.104  34.516  1.00  0.00     0.049 A 
ATOM     56  C   UNL A   1      42.696  27.126  29.910  1.00  0.00     0.074 A 
ATOM     57  C   UNL A   1      42.356  29.811  35.640  1.00  0.00     0.029 A 
ATOM     58  N   UNL A   1      42.031  29.251  33.512  1.00  0.00    -0.354 N 
ATOM     59  N   UNL A   1      42.524  27.698  31.075  1.00  0.00    -0.248 NA
ATOM     60  C   UNL A   1      43.804  26.161  29.869  1.00  0.00     0.031 C 
ATOM     61  C   UNL A   1      43.252  28.791  35.311  1.00  0.00     0.029 A 
ATOM     62  C   UNL A   1      43.052  28.446  33.983  1.00  0.00     0.049 A 
ATOM     63  H   UNL A   1      41.664  29.224  32.598  1.00  0.00     0.167 HD
ATOM     64  C   UNL A   1      43.500  27.166  31.908  1.00  0.00     0.074 A 
ATOM     65  C   UNL A   1      44.245  26.206  31.120  1.00  0.00     0.031 C 
ATOM     66  C   UNL A   1      43.763  27.468  33.202  1.00  0.00     0.034 A 
BRANCH  53  67
ATOM     67  C   UNL A   1      40.264  31.947  35.570  1.00  0.00     0.023 A 
ATOM     68  C   UNL A   1      41.053  33.087  35.821  1.00  0.00     0.012 A 
ATOM     69  C   UNL A   1      39.126  31.701  36.362  1.00  0.00     0.148 A 
ATOM     70  C   UNL A   1      40.716  33.971  36.845  1.00  0.00     0.002 A 
ATOM     71  C   UNL A   1      38.782  32.600  37.367  1.00  0.00     0.091 A 
ATOM     72  F   UNL A   1      38.396  30.606  36.107  1.00  0.00    -0.205 F 
ATOM     73  C   UNL A   1      39.576  33.733  37.609  1.00  0.00     0.022 A 
BRANCH  71  74
ATOM     74  S   UNL A   1      37.308  32.417  38.377  1.00  0.00     0.127 S 
ATOM     75  O   UNL A   1      36.295  33.059  37.540  1.00  0.00    -0.237 OA
ATOM     76  O   UNL A   1      37.183  30.963  38.478  1.00  0.00    -0.237 OA
ATOM     77  O   UNL A   1      37.592  33.096  39.634  1.00  0.00    -0.744 OA
ENDBRANCH  71  74
ENDBRANCH  53  67
BRANCH  54  78
ATOM     78  C   UNL A   1      42.122  26.456  27.454  1.00  0.00     0.023 A 
ATOM     79  C   UNL A   1      42.805  26.978  26.340  1.00  0.00     0.012 A 
ATOM     80  C   UNL A   1      41.763  25.094  27.470  1.00  0.00     0.148 A 
ATOM     81  C   UNL A   1      43.137  26.153  25.264  1.00  0.00     0.002 A 
ATOM     82  C   UNL A   1      42.142  24.268  26.420  1.00  0.00     0.091 A 
ATOM     83  F   UNL A   1      41.102  24.627  28.538  1.00  0.00    -0.205 F 
ATOM     84  C   UNL A   1      42.820  24.797  25.312  1.00  0.00     0.022 A 
BRANCH  82  85
ATOM     85  S   UNL A   1      41.905  22.488  26.463  1.00  0.00     0.127 S 
ATOM     86  O   UNL A   1      42.658  22.116  27.657  1.00  0.00    -0.237 OA
ATOM     87  O   UNL A   1      40.452  22.381  26.591  1.00  0.00    -0.237 OA
ATOM     88  O   UNL A   1      42.435  21.989  25.201  1.00  0.00    -0.744 OA
ENDBRANCH  82  85
ENDBRANCH  54  78
BRANCH  66  89
ATOM     89  C   UNL A   1      44.916  26.778  33.871  1.00  0.00     0.023 A 
ATOM     90  C   UNL A   1      46.195  27.361  33.793  1.00  0.00     0.012 A 
ATOM     91  C   UNL A   1      44.707  25.660  34.700  1.00  0.00     0.148 A 
ATOM     92  C   UNL A   1      47.254  26.841  34.535  1.00  0.00     0.002 A 
ATOM     93  C   UNL A   1      45.759  25.164  35.460  1.00  0.00     0.091 A 
ATOM     94  F   UNL A   1      43.477  25.128  34.753  1.00  0.00    -0.205 F 
ATOM     95  C   UNL A   1      47.033  25.752  35.377  1.00  0.00     0.022 A 
BRANCH  93  96
ATOM     96  S   UNL A   1      45.562  23.816  36.629  1.00  0.00     0.127 S 
ATOM     97  O   UNL A   1      46.927  23.654  37.130  1.00  0.00    -0.237 OA
ATOM     98  O   UNL A   1      44.620  24.381  37.594  1.00  0.00    -0.237 OA
ATOM     99  O   UNL A   1      45.053  22.685  35.863  1.00  0.00    -0.744 OA
ENDBRANCH  93  96
ENDBRANCH  66  89
ENDBRANCH  40  41
ENDBRANCH  32  35
ENDBRANCH  30  31
ENDBRANCH   1  30
TORSDOF 16
ENDMDL
