MODEL 1
REMARK VINA RESULT:     -11.6      0.000      0.000
REMARK SMILES O=C(CNC(=O)c1cccs1)N[C@@H]1C=C[C@H](C(=O)NCCCNC(=O)c2ccc(-c3c4nc(c(-c5cccc(S(=O)(=O)[O-])c5F)c5ccc([nH]5)c(-c5cccc(S(=O)(=O)[O-])c5F)c5nc(c(-c6cccc(S(=O)(=O)[O-])c6F)c6ccc3[nH]6)C=C5)C=C4)cc2)C1
REMARK SMILES IDX 20 1 19 2 17 3 18 4 16 6 13 7 14 8 89 9 15 10 12 11 1 12
REMARK SMILES IDX 2 13 3 15 4 16 5 17 6 19 7 20 8 21 11 22 9 23 10 24 21 25
REMARK SMILES IDX 22 26 23 27 24 28 25 30 26 31 27 32 88 33 28 34 87 35 29 36
REMARK SMILES IDX 30 37 31 38 81 39 32 40 86 41 80 42 82 43 33 44 85 45 79 46
REMARK SMILES IDX 78 47 34 49 66 50 46 51 65 52 47 53 50 54 64 55 83 56 48 57
REMARK SMILES IDX 49 58 63 60 84 61 51 62 35 63 36 64 44 65 37 66 39 67 45 68
REMARK SMILES IDX 38 69 40 70 41 71 42 72 43 73 67 74 68 75 76 76 69 77 71 78
REMARK SMILES IDX 77 79 70 80 72 81 73 82 74 83 75 84 52 85 53 86 61 87 54 88
REMARK SMILES IDX 56 89 62 90 55 91 57 92 58 93 59 94 60 95
REMARK H PARENT 19 5 12 14 4 18 23 29 82 48 50 59
REMARK Flexibility Score: inf
ROOT
ATOM      1  C   UNL A   1      32.211  27.765  27.148  1.00  0.00     0.117 C 
ENDROOT
BRANCH   1   2
ATOM      2  N   UNL A   1      31.282  26.834  26.537  1.00  0.00    -0.356 N 
ATOM      3  C   UNL A   1      31.072  26.479  25.248  1.00  0.00     0.227 C 
ATOM      4  O   UNL A   1      30.356  25.480  25.087  1.00  0.00    -0.274 OA
ATOM      5  H   UNL A   1      30.695  26.376  27.180  1.00  0.00     0.163 HD
BRANCH   3   6
ATOM      6  C   UNL A   1      31.559  27.287  24.024  1.00  0.00     0.103 C 
ATOM      7  C   UNL A   1      32.059  25.777  22.162  1.00  0.00     0.106 C 
ATOM      8  C   UNL A   1      33.289  26.460  22.643  1.00  0.00    -0.006 C 
ATOM      9  C   UNL A   1      30.953  26.666  22.746  1.00  0.00     0.047 C 
ATOM     10  C   UNL A   1      33.007  27.319  23.632  1.00  0.00    -0.016 C 
BRANCH   7  11
ATOM     11  N   UNL A   1      31.958  24.381  22.558  1.00  0.00    -0.348 N 
ATOM     12  O   UNL A   1      33.653  23.367  21.350  1.00  0.00    -0.273 OA
ATOM     13  C   UNL A   1      32.794  23.336  22.228  1.00  0.00     0.239 C 
ATOM     14  H   UNL A   1      31.195  24.153  23.136  1.00  0.00     0.164 HD
BRANCH  13  15
ATOM     15  C   UNL A   1      32.436  22.002  22.895  1.00  0.00     0.216 C 
BRANCH  15  16
ATOM     16  N   UNL A   1      32.277  22.098  24.342  1.00  0.00    -0.342 N 
ATOM     17  C   UNL A   1      33.211  22.243  25.333  1.00  0.00     0.261 C 
ATOM     18  H   UNL A   1      31.346  22.052  24.657  1.00  0.00     0.164 HD
ATOM     19  O   UNL A   1      32.814  22.151  26.497  1.00  0.00    -0.268 OA
BRANCH  17  20
ATOM     20  C   UNL A   1      34.601  22.445  24.980  1.00  0.00     0.092 A 
ATOM     21  C   UNL A   1      35.548  21.544  24.529  1.00  0.00     0.025 A 
ATOM     22  S   UNL A   1      35.242  24.033  25.061  1.00  0.00    -0.139 S 
ATOM     23  C   UNL A   1      36.822  22.151  24.326  1.00  0.00     0.012 A 
ATOM     24  C   UNL A   1      36.795  23.503  24.583  1.00  0.00     0.065 A 
ENDBRANCH  17  20
ENDBRANCH  15  16
ENDBRANCH  13  15
ENDBRANCH   7  11
ENDBRANCH   3   6
ENDBRANCH   1   2
BRANCH   1  25
ATOM     25  C   UNL A   1      31.760  29.208  26.998  1.00  0.00     0.042 C 
BRANCH  25  26
ATOM     26  C   UNL A   1      32.730  30.066  26.198  1.00  0.00     0.118 C 
BRANCH  26  27
ATOM     27  N   UNL A   1      32.611  31.487  26.505  1.00  0.00    -0.352 N 
ATOM     28  C   UNL A   1      33.340  32.266  27.370  1.00  0.00     0.251 C 
ATOM     29  H   UNL A   1      31.898  31.960  26.018  1.00  0.00     0.163 HD
ATOM     30  O   UNL A   1      32.962  33.406  27.627  1.00  0.00    -0.269 OA
BRANCH  28  31
ATOM     31  C   UNL A   1      34.568  31.733  27.997  1.00  0.00     0.039 A 
ATOM     32  C   UNL A   1      35.692  32.557  28.104  1.00  0.00     0.014 A 
ATOM     33  C   UNL A   1      34.619  30.417  28.460  1.00  0.00     0.014 A 
ATOM     34  C   UNL A   1      36.848  32.075  28.724  1.00  0.00     0.010 A 
ATOM     35  C   UNL A   1      35.732  29.974  29.165  1.00  0.00     0.010 A 
ATOM     36  C   UNL A   1      36.869  30.787  29.282  1.00  0.00    -0.014 A 
BRANCH  36  37
ATOM     37  C   UNL A   1      38.077  30.246  29.953  1.00  0.00     0.031 A 
ATOM     38  C   UNL A   1      38.410  30.684  31.356  1.00  0.00     0.074 A 
ATOM     39  C   UNL A   1      38.916  29.436  29.279  1.00  0.00     0.049 A 
ATOM     40  N   UNL A   1      39.453  30.392  32.086  1.00  0.00    -0.248 NA
ATOM     41  C   UNL A   1      37.461  31.602  32.009  1.00  0.00     0.031 C 
ATOM     42  C   UNL A   1      38.741  28.999  27.891  1.00  0.00     0.029 A 
ATOM     43  N   UNL A   1      40.097  28.854  29.664  1.00  0.00    -0.354 N 
ATOM     44  C   UNL A   1      39.308  31.119  33.262  1.00  0.00     0.074 A 
ATOM     45  C   UNL A   1      38.103  31.906  33.126  1.00  0.00     0.031 C 
ATOM     46  C   UNL A   1      39.768  28.203  27.549  1.00  0.00     0.029 A 
ATOM     47  C   UNL A   1      40.687  28.097  28.679  1.00  0.00     0.049 A 
ATOM     48  H   UNL A   1      40.486  28.966  30.561  1.00  0.00     0.167 HD
ATOM     49  C   UNL A   1      40.083  31.107  34.373  1.00  0.00     0.034 A 
ATOM     50  C   UNL A   1      41.836  27.394  28.688  1.00  0.00     0.034 A 
ATOM     51  C   UNL A   1      41.250  30.282  34.524  1.00  0.00     0.049 A 
ATOM     52  C   UNL A   1      42.657  27.359  29.949  1.00  0.00     0.074 A 
ATOM     53  C   UNL A   1      42.064  30.134  35.632  1.00  0.00     0.029 A 
ATOM     54  N   UNL A   1      41.766  29.459  33.534  1.00  0.00    -0.354 N 
ATOM     55  N   UNL A   1      42.430  27.945  31.100  1.00  0.00    -0.248 NA
ATOM     56  C   UNL A   1      43.873  26.534  29.926  1.00  0.00     0.031 C 
ATOM     57  C   UNL A   1      43.082  29.231  35.307  1.00  0.00     0.029 A 
ATOM     58  C   UNL A   1      42.887  28.798  34.004  1.00  0.00     0.049 A 
ATOM     59  H   UNL A   1      41.390  29.360  32.630  1.00  0.00     0.167 HD
ATOM     60  C   UNL A   1      43.445  27.523  31.951  1.00  0.00     0.074 A 
ATOM     61  C   UNL A   1      44.283  26.622  31.184  1.00  0.00     0.031 C 
ATOM     62  C   UNL A   1      43.670  27.856  33.246  1.00  0.00     0.034 A 
BRANCH  49  63
ATOM     63  C   UNL A   1      39.648  31.971  35.530  1.00  0.00     0.023 A 
ATOM     64  C   UNL A   1      40.114  33.301  35.618  1.00  0.00     0.012 A 
ATOM     65  C   UNL A   1      38.770  31.485  36.517  1.00  0.00     0.148 A 
ATOM     66  C   UNL A   1      39.757  34.113  36.692  1.00  0.00     0.002 A 
ATOM     67  C   UNL A   1      38.379  32.317  37.561  1.00  0.00     0.091 A 
ATOM     68  F   UNL A   1      38.354  30.213  36.434  1.00  0.00    -0.205 F 
ATOM     69  C   UNL A   1      38.883  33.624  37.659  1.00  0.00     0.022 A 
BRANCH  67  70
ATOM     70  S   UNL A   1      37.191  31.806  38.808  1.00  0.00     0.127 S 
ATOM     71  O   UNL A   1      37.920  32.091  40.044  1.00  0.00    -0.237 OA
ATOM     72  O   UNL A   1      36.063  32.701  38.547  1.00  0.00    -0.237 OA
ATOM     73  O   UNL A   1      36.919  30.399  38.547  1.00  0.00    -0.744 OA
ENDBRANCH  67  70
ENDBRANCH  49  63
BRANCH  50  74
ATOM     74  C   UNL A   1      42.221  26.582  27.500  1.00  0.00     0.023 A 
ATOM     75  C   UNL A   1      42.942  27.196  26.457  1.00  0.00     0.012 A 
ATOM     76  C   UNL A   1      41.913  25.211  27.407  1.00  0.00     0.148 A 
ATOM     77  C   UNL A   1      43.324  26.469  25.329  1.00  0.00     0.002 A 
ATOM     78  C   UNL A   1      42.341  24.480  26.304  1.00  0.00     0.091 A 
ATOM     79  F   UNL A   1      41.221  24.646  28.407  1.00  0.00    -0.205 F 
ATOM     80  C   UNL A   1      43.032  25.110  25.257  1.00  0.00     0.022 A 
BRANCH  78  81
ATOM     81  S   UNL A   1      42.120  22.701  26.177  1.00  0.00     0.127 S 
ATOM     82  O   UNL A   1      42.767  22.410  24.899  1.00  0.00    -0.237 OA
ATOM     83  O   UNL A   1      42.842  22.223  27.356  1.00  0.00    -0.237 OA
ATOM     84  O   UNL A   1      40.682  22.478  26.221  1.00  0.00    -0.744 OA
ENDBRANCH  78  81
ENDBRANCH  50  74
BRANCH  62  85
ATOM     85  C   UNL A   1      44.838  27.208  33.942  1.00  0.00     0.023 A 
ATOM     86  C   UNL A   1      46.115  27.797  33.873  1.00  0.00     0.012 A 
ATOM     87  C   UNL A   1      44.648  26.054  34.729  1.00  0.00     0.148 A 
ATOM     88  C   UNL A   1      47.194  27.229  34.551  1.00  0.00     0.002 A 
ATOM     89  C   UNL A   1      45.716  25.523  35.442  1.00  0.00     0.091 A 
ATOM     90  F   UNL A   1      43.429  25.496  34.765  1.00  0.00    -0.205 F 
ATOM     91  C   UNL A   1      46.992  26.101  35.345  1.00  0.00     0.022 A 
BRANCH  89  92
ATOM     92  S   UNL A   1      45.524  24.135  36.565  1.00  0.00     0.127 S 
ATOM     93  O   UNL A   1      45.079  23.077  35.659  1.00  0.00    -0.237 OA
ATOM     94  O   UNL A   1      46.882  23.962  37.082  1.00  0.00    -0.237 OA
ATOM     95  O   UNL A   1      44.550  24.558  37.562  1.00  0.00    -0.744 OA
ENDBRANCH  89  92
ENDBRANCH  62  85
ENDBRANCH  36  37
ENDBRANCH  28  31
ENDBRANCH  26  27
ENDBRANCH  25  26
ENDBRANCH   1  25
TORSDOF 17
ENDMDL
MODEL 2
REMARK VINA RESULT:     -11.6      2.568      3.065
REMARK SMILES O=C(CNC(=O)c1cccs1)N[C@@H]1C=C[C@H](C(=O)NCCCNC(=O)c2ccc(-c3c4nc(c(-c5cccc(S(=O)(=O)[O-])c5F)c5ccc([nH]5)c(-c5cccc(S(=O)(=O)[O-])c5F)c5nc(c(-c6cccc(S(=O)(=O)[O-])c6F)c6ccc3[nH]6)C=C5)C=C4)cc2)C1
REMARK SMILES IDX 20 1 19 2 17 3 18 4 16 6 13 7 14 8 89 9 15 10 12 11 1 12
REMARK SMILES IDX 2 13 3 15 4 16 5 17 6 19 7 20 8 21 11 22 9 23 10 24 21 25
REMARK SMILES IDX 22 26 23 27 24 28 25 30 26 31 27 32 88 33 28 34 87 35 29 36
REMARK SMILES IDX 30 37 31 38 81 39 32 40 86 41 80 42 82 43 33 44 85 45 79 46
REMARK SMILES IDX 78 47 34 49 66 50 46 51 65 52 47 53 50 54 64 55 83 56 48 57
REMARK SMILES IDX 49 58 63 60 84 61 51 62 35 63 36 64 44 65 37 66 39 67 45 68
REMARK SMILES IDX 38 69 40 70 41 71 42 72 43 73 67 74 68 75 76 76 69 77 71 78
REMARK SMILES IDX 77 79 70 80 72 81 73 82 74 83 75 84 52 85 53 86 61 87 54 88
REMARK SMILES IDX 56 89 62 90 55 91 57 92 58 93 59 94 60 95
REMARK H PARENT 19 5 12 14 4 18 23 29 82 48 50 59
REMARK Flexibility Score: inf
ROOT
ATOM      1  C   UNL A   1      31.761  28.081  27.021  1.00  0.00     0.117 C 
ENDROOT
BRANCH   1   2
ATOM      2  N   UNL A   1      31.185  26.754  26.926  1.00  0.00    -0.356 N 
ATOM      3  C   UNL A   1      31.147  25.853  25.916  1.00  0.00     0.227 C 
ATOM      4  O   UNL A   1      30.775  24.716  26.238  1.00  0.00    -0.274 OA
ATOM      5  H   UNL A   1      30.738  26.452  27.749  1.00  0.00     0.163 HD
BRANCH   3   6
ATOM      6  C   UNL A   1      31.417  26.187  24.431  1.00  0.00     0.103 C 
ATOM      7  C   UNL A   1      31.805  24.130  23.162  1.00  0.00     0.106 C 
ATOM      8  C   UNL A   1      33.026  24.977  23.195  1.00  0.00    -0.006 C 
ATOM      9  C   UNL A   1      30.711  25.134  23.549  1.00  0.00     0.047 C 
ATOM     10  C   UNL A   1      32.799  26.123  23.852  1.00  0.00    -0.016 C 
BRANCH   7  11
ATOM     11  N   UNL A   1      31.863  22.964  24.029  1.00  0.00    -0.348 N 
ATOM     12  O   UNL A   1      32.105  21.210  22.538  1.00  0.00    -0.273 OA
ATOM     13  C   UNL A   1      32.111  21.653  23.684  1.00  0.00     0.239 C 
ATOM     14  H   UNL A   1      31.706  23.133  24.986  1.00  0.00     0.164 HD
BRANCH  13  15
ATOM     15  C   UNL A   1      32.185  20.687  24.873  1.00  0.00     0.216 C 
BRANCH  15  16
ATOM     16  N   UNL A   1      33.324  19.778  24.816  1.00  0.00    -0.342 N 
ATOM     17  C   UNL A   1      34.670  20.035  24.830  1.00  0.00     0.261 C 
ATOM     18  H   UNL A   1      33.087  18.825  24.760  1.00  0.00     0.164 HD
ATOM     19  O   UNL A   1      35.425  19.082  24.623  1.00  0.00    -0.268 OA
BRANCH  17  20
ATOM     20  C   UNL A   1      35.136  21.391  25.033  1.00  0.00     0.092 A 
ATOM     21  C   UNL A   1      35.698  22.286  24.141  1.00  0.00     0.025 A 
ATOM     22  S   UNL A   1      34.959  22.091  26.589  1.00  0.00    -0.139 S 
ATOM     23  C   UNL A   1      36.052  23.520  24.760  1.00  0.00     0.012 A 
ATOM     24  C   UNL A   1      35.707  23.546  26.092  1.00  0.00     0.065 A 
ENDBRANCH  17  20
ENDBRANCH  15  16
ENDBRANCH  13  15
ENDBRANCH   7  11
ENDBRANCH   3   6
ENDBRANCH   1   2
BRANCH   1  25
ATOM     25  C   UNL A   1      33.280  28.046  27.061  1.00  0.00     0.042 C 
BRANCH  25  26
ATOM     26  C   UNL A   1      33.934  29.076  26.151  1.00  0.00     0.118 C 
BRANCH  26  27
ATOM     27  N   UNL A   1      33.839  30.434  26.676  1.00  0.00    -0.352 N 
ATOM     28  C   UNL A   1      34.600  31.066  27.629  1.00  0.00     0.251 C 
ATOM     29  H   UNL A   1      33.118  30.980  26.288  1.00  0.00     0.163 HD
ATOM     30  O   UNL A   1      34.241  32.155  28.069  1.00  0.00    -0.269 OA
BRANCH  28  31
ATOM     31  C   UNL A   1      35.837  30.434  28.132  1.00  0.00     0.039 A 
ATOM     32  C   UNL A   1      37.044  30.672  27.466  1.00  0.00     0.014 A 
ATOM     33  C   UNL A   1      35.808  29.592  29.246  1.00  0.00     0.014 A 
ATOM     34  C   UNL A   1      38.226  30.106  27.951  1.00  0.00     0.010 A 
ATOM     35  C   UNL A   1      36.997  29.114  29.784  1.00  0.00     0.010 A 
ATOM     36  C   UNL A   1      38.215  29.342  29.129  1.00  0.00    -0.014 A 
BRANCH  36  37
ATOM     37  C   UNL A   1      39.453  28.733  29.675  1.00  0.00     0.031 A 
ATOM     38  C   UNL A   1      40.082  29.307  30.918  1.00  0.00     0.074 A 
ATOM     39  C   UNL A   1      40.058  27.728  29.013  1.00  0.00     0.049 A 
ATOM     40  N   UNL A   1      41.198  28.973  31.510  1.00  0.00    -0.248 NA
ATOM     41  C   UNL A   1      39.379  30.431  31.561  1.00  0.00     0.031 C 
ATOM     42  C   UNL A   1      39.588  27.134  27.759  1.00  0.00     0.029 A 
ATOM     43  N   UNL A   1      41.214  27.042  29.292  1.00  0.00    -0.354 N 
ATOM     44  C   UNL A   1      41.352  29.868  32.562  1.00  0.00     0.074 A 
ATOM     45  C   UNL A   1      40.242  30.792  32.497  1.00  0.00     0.031 C 
ATOM     46  C   UNL A   1      40.436  26.161  27.388  1.00  0.00     0.029 A 
ATOM     47  C   UNL A   1      41.525  26.081  28.358  1.00  0.00     0.049 A 
ATOM     48  H   UNL A   1      41.767  27.220  30.086  1.00  0.00     0.167 HD
ATOM     49  C   UNL A   1      42.307  29.899  33.522  1.00  0.00     0.034 A 
ATOM     50  C   UNL A   1      42.568  25.231  28.295  1.00  0.00     0.034 A 
ATOM     51  C   UNL A   1      43.378  28.945  33.614  1.00  0.00     0.049 A 
ATOM     52  C   UNL A   1      43.592  25.253  29.397  1.00  0.00     0.074 A 
ATOM     53  C   UNL A   1      44.356  28.836  34.586  1.00  0.00     0.029 A 
ATOM     54  N   UNL A   1      43.609  27.930  32.698  1.00  0.00    -0.354 N 
ATOM     55  N   UNL A   1      43.645  26.018  30.462  1.00  0.00    -0.248 NA
ATOM     56  C   UNL A   1      44.680  24.268  29.312  1.00  0.00     0.031 C 
ATOM     57  C   UNL A   1      45.187  27.762  34.250  1.00  0.00     0.029 A 
ATOM     58  C   UNL A   1      44.712  27.187  33.082  1.00  0.00     0.049 A 
ATOM     59  H   UNL A   1      43.068  27.761  31.893  1.00  0.00     0.167 HD
ATOM     60  C   UNL A   1      44.741  25.576  31.196  1.00  0.00     0.074 A 
ATOM     61  C   UNL A   1      45.316  24.469  30.458  1.00  0.00     0.031 C 
ATOM     62  C   UNL A   1      45.232  26.048  32.368  1.00  0.00     0.034 A 
BRANCH  49  63
ATOM     63  C   UNL A   1      42.191  30.966  34.582  1.00  0.00     0.023 A 
ATOM     64  C   UNL A   1      41.491  30.686  35.775  1.00  0.00     0.012 A 
ATOM     65  C   UNL A   1      42.785  32.231  34.415  1.00  0.00     0.148 A 
ATOM     66  C   UNL A   1      41.338  31.661  36.758  1.00  0.00     0.002 A 
ATOM     67  C   UNL A   1      42.670  33.184  35.421  1.00  0.00     0.091 A 
ATOM     68  F   UNL A   1      43.427  32.491  33.266  1.00  0.00    -0.205 F 
ATOM     69  C   UNL A   1      41.934  32.906  36.586  1.00  0.00     0.022 A 
BRANCH  67  70
ATOM     70  S   UNL A   1      43.474  34.787  35.328  1.00  0.00     0.127 S 
ATOM     71  O   UNL A   1      43.081  35.390  36.601  1.00  0.00    -0.237 OA
ATOM     72  O   UNL A   1      44.888  34.421  35.239  1.00  0.00    -0.237 OA
ATOM     73  O   UNL A   1      42.941  35.432  34.135  1.00  0.00    -0.744 OA
ENDBRANCH  67  70
ENDBRANCH  49  63
BRANCH  50  74
ATOM     74  C   UNL A   1      42.636  24.217  27.205  1.00  0.00     0.023 A 
ATOM     75  C   UNL A   1      43.366  24.517  26.038  1.00  0.00     0.012 A 
ATOM     76  C   UNL A   1      42.019  22.957  27.325  1.00  0.00     0.148 A 
ATOM     77  C   UNL A   1      43.457  23.593  24.996  1.00  0.00     0.002 A 
ATOM     78  C   UNL A   1      42.156  22.021  26.304  1.00  0.00     0.091 A 
ATOM     79  F   UNL A   1      41.324  22.693  28.440  1.00  0.00    -0.205 F 
ATOM     80  C   UNL A   1      42.860  22.343  25.134  1.00  0.00     0.022 A 
BRANCH  78  81
ATOM     81  S   UNL A   1      41.528  20.343  26.440  1.00  0.00     0.127 S 
ATOM     82  O   UNL A   1      42.232  19.672  25.349  1.00  0.00    -0.237 OA
ATOM     83  O   UNL A   1      41.968  19.965  27.782  1.00  0.00    -0.237 OA
ATOM     84  O   UNL A   1      40.084  20.449  26.287  1.00  0.00    -0.744 OA
ENDBRANCH  78  81
ENDBRANCH  50  74
BRANCH  62  85
ATOM     85  C   UNL A   1      46.422  25.343  32.962  1.00  0.00     0.023 A 
ATOM     86  C   UNL A   1      47.723  25.819  32.708  1.00  0.00     0.012 A 
ATOM     87  C   UNL A   1      46.241  24.252  33.836  1.00  0.00     0.148 A 
ATOM     88  C   UNL A   1      48.829  25.200  33.290  1.00  0.00     0.002 A 
ATOM     89  C   UNL A   1      47.344  23.672  34.451  1.00  0.00     0.091 A 
ATOM     90  F   UNL A   1      44.997  23.799  34.048  1.00  0.00    -0.205 F 
ATOM     91  C   UNL A   1      48.639  24.136  34.171  1.00  0.00     0.022 A 
BRANCH  89  92
ATOM     92  S   UNL A   1      47.184  22.365  35.673  1.00  0.00     0.127 S 
ATOM     93  O   UNL A   1      48.553  22.252  36.171  1.00  0.00    -0.237 OA
ATOM     94  O   UNL A   1      46.235  22.943  36.624  1.00  0.00    -0.237 OA
ATOM     95  O   UNL A   1      46.680  21.203  34.952  1.00  0.00    -0.744 OA
ENDBRANCH  89  92
ENDBRANCH  62  85
ENDBRANCH  36  37
ENDBRANCH  28  31
ENDBRANCH  26  27
ENDBRANCH  25  26
ENDBRANCH   1  25
TORSDOF 17
ENDMDL
MODEL 3
REMARK VINA RESULT:     -11.5      5.271     10.028
REMARK SMILES O=C(CNC(=O)c1cccs1)N[C@@H]1C=C[C@H](C(=O)NCCCNC(=O)c2ccc(-c3c4nc(c(-c5cccc(S(=O)(=O)[O-])c5F)c5ccc([nH]5)c(-c5cccc(S(=O)(=O)[O-])c5F)c5nc(c(-c6cccc(S(=O)(=O)[O-])c6F)c6ccc3[nH]6)C=C5)C=C4)cc2)C1
REMARK SMILES IDX 20 1 19 2 17 3 18 4 16 6 13 7 14 8 89 9 15 10 12 11 1 12
REMARK SMILES IDX 2 13 3 15 4 16 5 17 6 19 7 20 8 21 11 22 9 23 10 24 21 25
REMARK SMILES IDX 22 26 23 27 24 28 25 30 26 31 27 32 88 33 28 34 87 35 29 36
REMARK SMILES IDX 30 37 31 38 81 39 32 40 86 41 80 42 82 43 33 44 85 45 79 46
REMARK SMILES IDX 78 47 34 49 66 50 46 51 65 52 47 53 50 54 64 55 83 56 48 57
REMARK SMILES IDX 49 58 63 60 84 61 51 62 35 63 36 64 44 65 37 66 39 67 45 68
REMARK SMILES IDX 38 69 40 70 41 71 42 72 43 73 67 74 68 75 76 76 69 77 71 78
REMARK SMILES IDX 77 79 70 80 72 81 73 82 74 83 75 84 52 85 53 86 61 87 54 88
REMARK SMILES IDX 56 89 62 90 55 91 57 92 58 93 59 94 60 95
REMARK H PARENT 19 5 12 14 4 18 23 29 82 48 50 59
REMARK Flexibility Score: inf
ROOT
ATOM      1  C   UNL A   1      35.793  23.510  23.865  1.00  0.00     0.117 C 
ENDROOT
BRANCH   1   2
ATOM      2  N   UNL A   1      34.385  23.694  23.573  1.00  0.00    -0.356 N 
ATOM      3  C   UNL A   1      33.418  24.412  24.190  1.00  0.00     0.227 C 
ATOM      4  O   UNL A   1      32.365  24.540  23.549  1.00  0.00    -0.274 OA
ATOM      5  H   UNL A   1      34.074  23.204  22.777  1.00  0.00     0.163 HD
BRANCH   3   6
ATOM      6  C   UNL A   1      33.514  24.954  25.635  1.00  0.00     0.103 C 
ATOM      7  C   UNL A   1      31.767  26.625  26.025  1.00  0.00     0.106 C 
ATOM      8  C   UNL A   1      33.120  27.237  26.095  1.00  0.00    -0.006 C 
ATOM      9  C   UNL A   1      32.085  25.133  26.194  1.00  0.00     0.047 C 
ATOM     10  C   UNL A   1      34.076  26.314  25.926  1.00  0.00    -0.016 C 
BRANCH   7  11
ATOM     11  N   UNL A   1      31.034  26.934  24.808  1.00  0.00    -0.348 N 
ATOM     12  O   UNL A   1      31.063  29.248  24.749  1.00  0.00    -0.273 OA
ATOM     13  C   UNL A   1      30.836  28.164  24.217  1.00  0.00     0.239 C 
ATOM     14  H   UNL A   1      30.627  26.166  24.346  1.00  0.00     0.164 HD
BRANCH  13  15
ATOM     15  C   UNL A   1      30.082  28.113  22.883  1.00  0.00     0.216 C 
BRANCH  15  16
ATOM     16  N   UNL A   1      28.637  27.981  23.035  1.00  0.00    -0.342 N 
ATOM     17  C   UNL A   1      27.655  28.935  23.071  1.00  0.00     0.261 C 
ATOM     18  H   UNL A   1      28.316  27.055  23.125  1.00  0.00     0.164 HD
ATOM     19  O   UNL A   1      26.516  28.557  23.356  1.00  0.00    -0.268 OA
BRANCH  17  20
ATOM     20  C   UNL A   1      27.995  30.320  22.824  1.00  0.00     0.092 A 
ATOM     21  C   UNL A   1      28.270  31.344  23.713  1.00  0.00     0.025 A 
ATOM     22  S   UNL A   1      28.149  30.848  21.200  1.00  0.00    -0.139 S 
ATOM     23  C   UNL A   1      28.530  32.581  23.052  1.00  0.00     0.012 A 
ATOM     24  C   UNL A   1      28.493  32.451  21.683  1.00  0.00     0.065 A 
ENDBRANCH  17  20
ENDBRANCH  15  16
ENDBRANCH  13  15
ENDBRANCH   7  11
ENDBRANCH   3   6
ENDBRANCH   1   2
BRANCH   1  25
ATOM     25  C   UNL A   1      36.031  22.400  24.875  1.00  0.00     0.042 C 
BRANCH  25  26
ATOM     26  C   UNL A   1      36.984  22.793  25.994  1.00  0.00     0.118 C 
BRANCH  26  27
ATOM     27  N   UNL A   1      38.160  21.932  26.061  1.00  0.00    -0.352 N 
ATOM     28  C   UNL A   1      39.471  22.249  26.323  1.00  0.00     0.251 C 
ATOM     29  H   UNL A   1      37.988  20.978  25.890  1.00  0.00     0.163 HD
ATOM     30  O   UNL A   1      40.347  21.406  26.148  1.00  0.00    -0.269 OA
BRANCH  28  31
ATOM     31  C   UNL A   1      39.828  23.601  26.803  1.00  0.00     0.039 A 
ATOM     32  C   UNL A   1      40.391  23.746  28.075  1.00  0.00     0.014 A 
ATOM     33  C   UNL A   1      39.589  24.726  26.011  1.00  0.00     0.014 A 
ATOM     34  C   UNL A   1      40.763  25.015  28.526  1.00  0.00     0.010 A 
ATOM     35  C   UNL A   1      40.051  25.971  26.421  1.00  0.00     0.010 A 
ATOM     36  C   UNL A   1      40.618  26.135  27.692  1.00  0.00    -0.014 A 
BRANCH  36  37
ATOM     37  C   UNL A   1      41.008  27.496  28.138  1.00  0.00     0.031 A 
ATOM     38  C   UNL A   1      42.463  27.889  28.148  1.00  0.00     0.074 A 
ATOM     39  C   UNL A   1      40.075  28.342  28.613  1.00  0.00     0.049 A 
ATOM     40  N   UNL A   1      43.017  28.994  28.571  1.00  0.00    -0.248 NA
ATOM     41  C   UNL A   1      43.426  26.891  27.649  1.00  0.00     0.031 C 
ATOM     42  C   UNL A   1      38.643  28.052  28.724  1.00  0.00     0.029 A 
ATOM     43  N   UNL A   1      40.194  29.615  29.114  1.00  0.00    -0.354 N 
ATOM     44  C   UNL A   1      44.388  28.809  28.431  1.00  0.00     0.074 A 
ATOM     45  C   UNL A   1      44.584  27.466  27.931  1.00  0.00     0.031 C 
ATOM     46  C   UNL A   1      38.016  29.121  29.240  1.00  0.00     0.029 A 
ATOM     47  C   UNL A   1      39.001  30.161  29.526  1.00  0.00     0.049 A 
ATOM     48  H   UNL A   1      41.053  30.092  29.172  1.00  0.00     0.167 HD
ATOM     49  C   UNL A   1      45.395  29.686  28.656  1.00  0.00     0.034 A 
ATOM     50  C   UNL A   1      38.733  31.364  30.067  1.00  0.00     0.034 A 
ATOM     51  C   UNL A   1      45.191  31.038  29.101  1.00  0.00     0.049 A 
ATOM     52  C   UNL A   1      39.862  32.340  30.267  1.00  0.00     0.074 A 
ATOM     53  C   UNL A   1      46.130  32.035  29.289  1.00  0.00     0.029 A 
ATOM     54  N   UNL A   1      43.957  31.583  29.422  1.00  0.00    -0.354 N 
ATOM     55  N   UNL A   1      41.137  32.195  29.997  1.00  0.00    -0.248 NA
ATOM     56  C   UNL A   1      39.509  33.660  30.809  1.00  0.00     0.031 C 
ATOM     57  C   UNL A   1      45.465  33.181  29.738  1.00  0.00     0.029 A 
ATOM     58  C   UNL A   1      44.109  32.904  29.806  1.00  0.00     0.049 A 
ATOM     59  H   UNL A   1      43.099  31.102  29.382  1.00  0.00     0.167 HD
ATOM     60  C   UNL A   1      41.731  33.419  30.290  1.00  0.00     0.074 A 
ATOM     61  C   UNL A   1      40.671  34.296  30.749  1.00  0.00     0.031 C 
ATOM     62  C   UNL A   1      43.034  33.781  30.198  1.00  0.00     0.034 A 
BRANCH  49  63
ATOM     63  C   UNL A   1      46.799  29.221  28.363  1.00  0.00     0.023 A 
ATOM     64  C   UNL A   1      47.362  29.470  27.093  1.00  0.00     0.012 A 
ATOM     65  C   UNL A   1      47.569  28.560  29.339  1.00  0.00     0.148 A 
ATOM     66  C   UNL A   1      48.645  29.024  26.782  1.00  0.00     0.002 A 
ATOM     67  C   UNL A   1      48.867  28.161  29.037  1.00  0.00     0.091 A 
ATOM     68  F   UNL A   1      47.014  28.310  30.534  1.00  0.00    -0.205 F 
ATOM     69  C   UNL A   1      49.400  28.377  27.755  1.00  0.00     0.022 A 
BRANCH  67  70
ATOM     70  S   UNL A   1      49.948  27.396  30.250  1.00  0.00     0.127 S 
ATOM     71  O   UNL A   1      49.231  26.156  30.545  1.00  0.00    -0.237 OA
ATOM     72  O   UNL A   1      51.187  27.216  29.492  1.00  0.00    -0.237 OA
ATOM     73  O   UNL A   1      50.046  28.344  31.351  1.00  0.00    -0.744 OA
ENDBRANCH  67  70
ENDBRANCH  49  63
BRANCH  50  74
ATOM     74  C   UNL A   1      37.324  31.752  30.358  1.00  0.00     0.023 A 
ATOM     75  C   UNL A   1      36.839  31.629  31.675  1.00  0.00     0.012 A 
ATOM     76  C   UNL A   1      36.476  32.269  29.360  1.00  0.00     0.148 A 
ATOM     77  C   UNL A   1      35.527  31.984  31.989  1.00  0.00     0.002 A 
ATOM     78  C   UNL A   1      35.185  32.670  29.690  1.00  0.00     0.091 A 
ATOM     79  F   UNL A   1      36.954  32.374  28.112  1.00  0.00    -0.205 F 
ATOM     80  C   UNL A   1      34.704  32.513  30.999  1.00  0.00     0.022 A 
BRANCH  78  81
ATOM     81  S   UNL A   1      34.092  33.475  28.513  1.00  0.00     0.127 S 
ATOM     82  O   UNL A   1      35.044  34.143  27.628  1.00  0.00    -0.237 OA
ATOM     83  O   UNL A   1      33.395  32.334  27.921  1.00  0.00    -0.237 OA
ATOM     84  O   UNL A   1      33.241  34.355  29.303  1.00  0.00    -0.744 OA
ENDBRANCH  78  81
ENDBRANCH  50  74
BRANCH  62  85
ATOM     85  C   UNL A   1      43.391  35.201  30.547  1.00  0.00     0.023 A 
ATOM     86  C   UNL A   1      43.890  35.507  31.829  1.00  0.00     0.012 A 
ATOM     87  C   UNL A   1      43.304  36.218  29.577  1.00  0.00     0.148 A 
ATOM     88  C   UNL A   1      44.266  36.812  32.149  1.00  0.00     0.002 A 
ATOM     89  C   UNL A   1      43.728  37.505  29.887  1.00  0.00     0.091 A 
ATOM     90  F   UNL A   1      42.807  35.912  28.370  1.00  0.00    -0.205 F 
ATOM     91  C   UNL A   1      44.197  37.807  31.175  1.00  0.00     0.022 A 
BRANCH  89  92
ATOM     92  S   UNL A   1      43.767  38.822  28.666  1.00  0.00     0.127 S 
ATOM     93  O   UNL A   1      44.820  38.361  27.763  1.00  0.00    -0.237 OA
ATOM     94  O   UNL A   1      42.417  38.768  28.106  1.00  0.00    -0.237 OA
ATOM     95  O   UNL A   1      44.064  40.043  29.404  1.00  0.00    -0.744 OA
ENDBRANCH  89  92
ENDBRANCH  62  85
ENDBRANCH  36  37
ENDBRANCH  28  31
ENDBRANCH  26  27
ENDBRANCH  25  26
ENDBRANCH   1  25
TORSDOF 17
ENDMDL
