MODEL 1
REMARK VINA RESULT:     -11.6      0.000      0.000
REMARK SMILES O=C(C[C@H](Cc1ccc(Cl)cc1)C(=O)Nc1cc(Cl)ccc1Cl)NCCCNC(=O)c1ccc(-c2c3nc(c(-c4cccc(S(=O)(=O)[O-])c4F)c4ccc([nH]4)c(-c4cccc(S(=O)(=O)[O-])c4F)c4nc(c(-c5cccc(S(=O)(=O)[O-])c5F)c5ccc2[nH]5)C=C4)C=C3)cc1
REMARK SMILES IDX 26 1 25 2 24 3 1 4 2 5 3 7 4 8 13 9 14 10 15 11 16 13 17 14
REMARK SMILES IDX 22 15 18 16 21 17 23 18 19 19 20 20 5 21 6 22 7 23 12 24
REMARK SMILES IDX 8 25 11 26 9 27 10 28 27 29 28 30 29 31 30 33 31 34 32 35
REMARK SMILES IDX 93 36 33 37 92 38 34 39 35 40 36 41 86 42 37 43 91 44 85 45
REMARK SMILES IDX 87 46 38 47 90 48 84 49 83 50 39 52 71 53 51 54 70 55 52 56
REMARK SMILES IDX 55 57 69 58 88 59 53 60 54 61 68 63 89 64 56 65 40 66 41 67
REMARK SMILES IDX 49 68 42 69 44 70 50 71 43 72 45 73 46 74 47 75 48 76 72 77
REMARK SMILES IDX 73 78 81 79 74 80 76 81 82 82 75 83 77 84 78 85 79 86 80 87
REMARK SMILES IDX 57 88 58 89 66 90 59 91 61 92 67 93 60 94 62 95 63 96 64 97
REMARK SMILES IDX 65 98
REMARK H PARENT 24 6 15 12 28 32 87 51 55 62
REMARK Flexibility Score: inf
ROOT
ATOM      1  C   UNL A   1      36.664  23.590  24.455  1.00  0.00     0.042 C 
ENDROOT
BRANCH   1   2
ATOM      2  C   UNL A   1      35.729  22.753  23.599  1.00  0.00     0.117 C 
BRANCH   2   3
ATOM      3  N   UNL A   1      34.331  22.902  23.965  1.00  0.00    -0.356 N 
ATOM      4  O   UNL A   1      34.168  20.941  25.136  1.00  0.00    -0.275 OA
ATOM      5  C   UNL A   1      33.687  22.016  24.792  1.00  0.00     0.220 C 
ATOM      6  H   UNL A   1      33.826  23.667  23.605  1.00  0.00     0.163 HD
BRANCH   5   7
ATOM      7  C   UNL A   1      32.308  22.449  25.244  1.00  0.00     0.113 C 
BRANCH   7   8
ATOM      8  C   UNL A   1      31.792  23.840  24.819  1.00  0.00     0.092 C 
BRANCH   8   9
ATOM      9  C   UNL A   1      30.989  23.816  23.514  1.00  0.00     0.228 C 
ATOM     10  O   UNL A   1      30.531  22.739  23.112  1.00  0.00    -0.274 OA
ATOM     11  N   UNL A   1      30.673  24.920  22.786  1.00  0.00    -0.324 N 
ATOM     12  H   UNL A   1      30.057  24.744  22.038  1.00  0.00     0.169 HD
BRANCH  11  13
ATOM     13  C   UNL A   1      31.063  26.263  22.902  1.00  0.00     0.061 A 
ATOM     14  C   UNL A   1      32.329  26.700  22.517  1.00  0.00     0.048 A 
ATOM     15  C   UNL A   1      30.124  27.206  23.353  1.00  0.00     0.064 A 
ATOM     16  C   UNL A   1      32.696  28.033  22.710  1.00  0.00     0.043 A 
ATOM     17  C   UNL A   1      30.497  28.536  23.554  1.00  0.00     0.024 A 
ATOM     18  Cl  UNL A   1      28.502  26.739  23.735  1.00  0.00    -0.082 Cl
ATOM     19  Cl  UNL A   1      34.278  28.548  22.270  1.00  0.00    -0.084 Cl
ATOM     20  C   UNL A   1      31.796  28.946  23.253  1.00  0.00     0.022 A 
ENDBRANCH  11  13
ENDBRANCH   8   9
BRANCH   8  21
ATOM     21  C   UNL A   1      31.156  24.776  25.859  1.00  0.00     0.049 C 
BRANCH  21  22
ATOM     22  C   UNL A   1      31.885  26.053  26.222  1.00  0.00    -0.047 A 
ATOM     23  C   UNL A   1      31.298  27.141  26.879  1.00  0.00     0.005 A 
ATOM     24  C   UNL A   1      33.249  26.134  25.879  1.00  0.00     0.005 A 
ATOM     25  C   UNL A   1      32.074  28.245  27.254  1.00  0.00     0.021 A 
ATOM     26  C   UNL A   1      34.020  27.236  26.246  1.00  0.00     0.021 A 
ATOM     27  C   UNL A   1      33.432  28.281  26.950  1.00  0.00     0.041 A 
ATOM     28  Cl  UNL A   1      34.394  29.610  27.464  1.00  0.00    -0.084 Cl
ENDBRANCH  21  22
ENDBRANCH   8  21
ENDBRANCH   7   8
ENDBRANCH   5   7
ENDBRANCH   2   3
ENDBRANCH   1   2
BRANCH   1  29
ATOM     29  C   UNL A   1      36.807  23.113  25.896  1.00  0.00     0.118 C 
BRANCH  29  30
ATOM     30  N   UNL A   1      37.973  22.270  26.120  1.00  0.00    -0.352 N 
ATOM     31  C   UNL A   1      39.241  22.613  26.534  1.00  0.00     0.251 C 
ATOM     32  H   UNL A   1      37.834  21.311  25.950  1.00  0.00     0.163 HD
ATOM     33  O   UNL A   1      40.118  21.756  26.543  1.00  0.00    -0.269 OA
BRANCH  31  34
ATOM     34  C   UNL A   1      39.557  24.005  26.933  1.00  0.00     0.039 A 
ATOM     35  C   UNL A   1      39.364  24.378  28.266  1.00  0.00     0.014 A 
ATOM     36  C   UNL A   1      40.032  24.945  26.014  1.00  0.00     0.014 A 
ATOM     37  C   UNL A   1      39.707  25.666  28.684  1.00  0.00     0.010 A 
ATOM     38  C   UNL A   1      40.460  26.197  26.453  1.00  0.00     0.010 A 
ATOM     39  C   UNL A   1      40.296  26.578  27.791  1.00  0.00    -0.014 A 
BRANCH  39  40
ATOM     40  C   UNL A   1      40.760  27.910  28.265  1.00  0.00     0.031 A 
ATOM     41  C   UNL A   1      42.222  28.274  28.258  1.00  0.00     0.074 A 
ATOM     42  C   UNL A   1      39.858  28.786  28.756  1.00  0.00     0.049 A 
ATOM     43  N   UNL A   1      42.789  29.407  28.589  1.00  0.00    -0.248 NA
ATOM     44  C   UNL A   1      43.174  27.229  27.852  1.00  0.00     0.031 C 
ATOM     45  C   UNL A   1      38.426  28.522  28.917  1.00  0.00     0.029 A 
ATOM     46  N   UNL A   1      40.010  30.070  29.214  1.00  0.00    -0.354 N 
ATOM     47  C   UNL A   1      44.157  29.204  28.457  1.00  0.00     0.074 A 
ATOM     48  C   UNL A   1      44.339  27.825  28.059  1.00  0.00     0.031 C 
ATOM     49  C   UNL A   1      37.828  29.618  29.410  1.00  0.00     0.029 A 
ATOM     50  C   UNL A   1      38.834  30.653  29.627  1.00  0.00     0.049 A 
ATOM     51  H   UNL A   1      40.879  30.532  29.247  1.00  0.00     0.167 HD
ATOM     52  C   UNL A   1      45.171  30.088  28.620  1.00  0.00     0.034 A 
ATOM     53  C   UNL A   1      38.588  31.883  30.117  1.00  0.00     0.034 A 
ATOM     54  C   UNL A   1      44.987  31.469  28.988  1.00  0.00     0.049 A 
ATOM     55  C   UNL A   1      39.721  32.864  30.230  1.00  0.00     0.074 A 
ATOM     56  C   UNL A   1      45.941  32.466  29.096  1.00  0.00     0.029 A 
ATOM     57  N   UNL A   1      43.771  32.044  29.322  1.00  0.00    -0.354 N 
ATOM     58  N   UNL A   1      40.989  32.701  29.937  1.00  0.00    -0.248 NA
ATOM     59  C   UNL A   1      39.383  34.216  30.700  1.00  0.00     0.031 C 
ATOM     60  C   UNL A   1      45.306  33.636  29.526  1.00  0.00     0.029 A 
ATOM     61  C   UNL A   1      43.950  33.380  29.644  1.00  0.00     0.049 A 
ATOM     62  H   UNL A   1      42.906  31.573  29.328  1.00  0.00     0.167 HD
ATOM     63  C   UNL A   1      41.591  33.937  30.150  1.00  0.00     0.074 A 
ATOM     64  C   UNL A   1      40.542  34.844  30.569  1.00  0.00     0.031 C 
ATOM     65  C   UNL A   1      42.895  34.285  30.022  1.00  0.00     0.034 A 
BRANCH  52  66
ATOM     66  C   UNL A   1      46.575  29.604  28.354  1.00  0.00     0.023 A 
ATOM     67  C   UNL A   1      47.130  29.747  27.066  1.00  0.00     0.012 A 
ATOM     68  C   UNL A   1      47.365  29.065  29.388  1.00  0.00     0.148 A 
ATOM     69  C   UNL A   1      48.434  29.326  26.800  1.00  0.00     0.002 A 
ATOM     70  C   UNL A   1      48.681  28.693  29.128  1.00  0.00     0.091 A 
ATOM     71  F   UNL A   1      46.817  28.917  30.603  1.00  0.00    -0.205 F 
ATOM     72  C   UNL A   1      49.211  28.810  27.833  1.00  0.00     0.022 A 
BRANCH  70  73
ATOM     73  S   UNL A   1      49.792  28.097  30.407  1.00  0.00     0.127 S 
ATOM     74  O   UNL A   1      49.668  29.146  31.418  1.00  0.00    -0.237 OA
ATOM     75  O   UNL A   1      49.178  26.821  30.776  1.00  0.00    -0.237 OA
ATOM     76  O   UNL A   1      51.102  27.984  29.782  1.00  0.00    -0.744 OA
ENDBRANCH  70  73
ENDBRANCH  52  66
BRANCH  53  77
ATOM     77  C   UNL A   1      37.194  32.282  30.466  1.00  0.00     0.023 A 
ATOM     78  C   UNL A   1      36.727  32.108  31.783  1.00  0.00     0.012 A 
ATOM     79  C   UNL A   1      36.337  32.851  29.504  1.00  0.00     0.148 A 
ATOM     80  C   UNL A   1      35.420  32.453  32.127  1.00  0.00     0.002 A 
ATOM     81  C   UNL A   1      35.057  33.249  29.867  1.00  0.00     0.091 A 
ATOM     82  F   UNL A   1      36.797  33.001  28.254  1.00  0.00    -0.205 F 
ATOM     83  C   UNL A   1      34.589  33.034  31.172  1.00  0.00     0.022 A 
BRANCH  81  84
ATOM     84  S   UNL A   1      33.967  34.127  28.742  1.00  0.00     0.127 S 
ATOM     85  O   UNL A   1      32.883  34.534  29.632  1.00  0.00    -0.237 OA
ATOM     86  O   UNL A   1      34.827  35.217  28.280  1.00  0.00    -0.237 OA
ATOM     87  O   UNL A   1      33.610  33.165  27.709  1.00  0.00    -0.744 OA
ENDBRANCH  81  84
ENDBRANCH  53  77
BRANCH  65  88
ATOM     88  C   UNL A   1      43.257  35.723  30.300  1.00  0.00     0.023 A 
ATOM     89  C   UNL A   1      43.740  36.100  31.570  1.00  0.00     0.012 A 
ATOM     90  C   UNL A   1      43.142  36.698  29.290  1.00  0.00     0.148 A 
ATOM     91  C   UNL A   1      44.045  37.432  31.847  1.00  0.00     0.002 A 
ATOM     92  C   UNL A   1      43.504  38.014  29.556  1.00  0.00     0.091 A 
ATOM     93  F   UNL A   1      42.665  36.329  28.092  1.00  0.00    -0.205 F 
ATOM     94  C   UNL A   1      43.937  38.386  30.838  1.00  0.00     0.022 A 
BRANCH  92  95
ATOM     95  S   UNL A   1      43.489  39.286  28.287  1.00  0.00     0.127 S 
ATOM     96  O   UNL A   1      44.364  38.705  27.271  1.00  0.00    -0.237 OA
ATOM     97  O   UNL A   1      42.075  39.338  27.917  1.00  0.00    -0.237 OA
ATOM     98  O   UNL A   1      43.987  40.494  28.930  1.00  0.00    -0.744 OA
ENDBRANCH  92  95
ENDBRANCH  65  88
ENDBRANCH  39  40
ENDBRANCH  31  34
ENDBRANCH  29  30
ENDBRANCH   1  29
TORSDOF 18
ENDMDL
MODEL 2
REMARK VINA RESULT:     -11.6      5.513      8.800
REMARK SMILES O=C(C[C@H](Cc1ccc(Cl)cc1)C(=O)Nc1cc(Cl)ccc1Cl)NCCCNC(=O)c1ccc(-c2c3nc(c(-c4cccc(S(=O)(=O)[O-])c4F)c4ccc([nH]4)c(-c4cccc(S(=O)(=O)[O-])c4F)c4nc(c(-c5cccc(S(=O)(=O)[O-])c5F)c5ccc2[nH]5)C=C4)C=C3)cc1
REMARK SMILES IDX 26 1 25 2 24 3 1 4 2 5 3 7 4 8 13 9 14 10 15 11 16 13 17 14
REMARK SMILES IDX 22 15 18 16 21 17 23 18 19 19 20 20 5 21 6 22 7 23 12 24
REMARK SMILES IDX 8 25 11 26 9 27 10 28 27 29 28 30 29 31 30 33 31 34 32 35
REMARK SMILES IDX 93 36 33 37 92 38 34 39 35 40 36 41 86 42 37 43 91 44 85 45
REMARK SMILES IDX 87 46 38 47 90 48 84 49 83 50 39 52 71 53 51 54 70 55 52 56
REMARK SMILES IDX 55 57 69 58 88 59 53 60 54 61 68 63 89 64 56 65 40 66 41 67
REMARK SMILES IDX 49 68 42 69 44 70 50 71 43 72 45 73 46 74 47 75 48 76 72 77
REMARK SMILES IDX 73 78 81 79 74 80 76 81 82 82 75 83 77 84 78 85 79 86 80 87
REMARK SMILES IDX 57 88 58 89 66 90 59 91 61 92 67 93 60 94 62 95 63 96 64 97
REMARK SMILES IDX 65 98
REMARK H PARENT 24 6 15 12 28 32 87 51 55 62
REMARK Flexibility Score: inf
ROOT
ATOM      1  C   UNL A   1      31.633  32.248  26.643  1.00  0.00     0.042 C 
ENDROOT
BRANCH   1   2
ATOM      2  C   UNL A   1      31.673  30.735  26.775  1.00  0.00     0.117 C 
BRANCH   2   3
ATOM      3  N   UNL A   1      31.820  30.053  25.501  1.00  0.00    -0.356 N 
ATOM      4  O   UNL A   1      31.731  27.925  26.343  1.00  0.00    -0.275 OA
ATOM      5  C   UNL A   1      31.741  28.688  25.382  1.00  0.00     0.220 C 
ATOM      6  H   UNL A   1      31.982  30.590  24.691  1.00  0.00     0.163 HD
BRANCH   5   7
ATOM      7  C   UNL A   1      31.690  28.171  23.959  1.00  0.00     0.113 C 
BRANCH   7   8
ATOM      8  C   UNL A   1      32.205  26.744  23.671  1.00  0.00     0.092 C 
BRANCH   8   9
ATOM      9  C   UNL A   1      31.455  26.049  22.528  1.00  0.00     0.228 C 
ATOM     10  O   UNL A   1      31.171  26.700  21.515  1.00  0.00    -0.274 OA
ATOM     11  N   UNL A   1      31.135  24.728  22.512  1.00  0.00    -0.324 N 
ATOM     12  H   UNL A   1      30.757  24.419  21.656  1.00  0.00     0.169 HD
BRANCH  11  13
ATOM     13  C   UNL A   1      31.243  23.725  23.486  1.00  0.00     0.061 A 
ATOM     14  C   UNL A   1      30.572  23.804  24.705  1.00  0.00     0.048 A 
ATOM     15  C   UNL A   1      31.993  22.572  23.195  1.00  0.00     0.064 A 
ATOM     16  C   UNL A   1      30.760  22.814  25.672  1.00  0.00     0.043 A 
ATOM     17  C   UNL A   1      32.186  21.589  24.166  1.00  0.00     0.024 A 
ATOM     18  Cl  UNL A   1      32.752  22.368  21.653  1.00  0.00    -0.082 Cl
ATOM     19  Cl  UNL A   1      29.958  22.949  27.188  1.00  0.00    -0.084 Cl
ATOM     20  C   UNL A   1      31.585  21.723  25.418  1.00  0.00     0.022 A 
ENDBRANCH  11  13
ENDBRANCH   8   9
BRANCH   8  21
ATOM     21  C   UNL A   1      33.715  26.469  23.608  1.00  0.00     0.049 C 
BRANCH  21  22
ATOM     22  C   UNL A   1      34.257  25.251  24.329  1.00  0.00    -0.047 A 
ATOM     23  C   UNL A   1      34.007  24.950  25.673  1.00  0.00     0.005 A 
ATOM     24  C   UNL A   1      35.057  24.366  23.580  1.00  0.00     0.005 A 
ATOM     25  C   UNL A   1      34.478  23.754  26.230  1.00  0.00     0.021 A 
ATOM     26  C   UNL A   1      35.531  23.179  24.137  1.00  0.00     0.021 A 
ATOM     27  C   UNL A   1      35.223  22.868  25.456  1.00  0.00     0.041 A 
ATOM     28  Cl  UNL A   1      35.748  21.374  26.126  1.00  0.00    -0.084 Cl
ENDBRANCH  21  22
ENDBRANCH   8  21
ENDBRANCH   7   8
ENDBRANCH   5   7
ENDBRANCH   2   3
ENDBRANCH   1   2
BRANCH   1  29
ATOM     29  C   UNL A   1      32.837  32.972  27.233  1.00  0.00     0.118 C 
BRANCH  29  30
ATOM     30  N   UNL A   1      32.540  34.320  27.696  1.00  0.00    -0.352 N 
ATOM     31  C   UNL A   1      33.100  35.040  28.727  1.00  0.00     0.251 C 
ATOM     32  H   UNL A   1      31.834  34.787  27.196  1.00  0.00     0.163 HD
ATOM     33  O   UNL A   1      32.616  36.126  29.029  1.00  0.00    -0.269 OA
BRANCH  31  34
ATOM     34  C   UNL A   1      34.251  34.501  29.491  1.00  0.00     0.039 A 
ATOM     35  C   UNL A   1      34.008  33.894  30.726  1.00  0.00     0.014 A 
ATOM     36  C   UNL A   1      35.560  34.592  29.011  1.00  0.00     0.014 A 
ATOM     37  C   UNL A   1      35.065  33.326  31.442  1.00  0.00     0.010 A 
ATOM     38  C   UNL A   1      36.597  33.944  29.682  1.00  0.00     0.010 A 
ATOM     39  C   UNL A   1      36.365  33.310  30.909  1.00  0.00    -0.014 A 
BRANCH  39  40
ATOM     40  C   UNL A   1      37.467  32.610  31.624  1.00  0.00     0.031 A 
ATOM     41  C   UNL A   1      38.196  31.454  30.989  1.00  0.00     0.074 A 
ATOM     42  C   UNL A   1      37.783  32.987  32.880  1.00  0.00     0.049 A 
ATOM     43  N   UNL A   1      39.210  30.766  31.452  1.00  0.00    -0.248 NA
ATOM     44  C   UNL A   1      37.712  30.990  29.679  1.00  0.00     0.031 C 
ATOM     45  C   UNL A   1      37.088  34.021  33.651  1.00  0.00     0.029 A 
ATOM     46  N   UNL A   1      38.762  32.542  33.732  1.00  0.00    -0.354 N 
ATOM     47  C   UNL A   1      39.468  29.779  30.509  1.00  0.00     0.074 A 
ATOM     48  C   UNL A   1      38.475  29.927  29.467  1.00  0.00     0.031 C 
ATOM     49  C   UNL A   1      37.680  34.151  34.849  1.00  0.00     0.029 A 
ATOM     50  C   UNL A   1      38.777  33.193  34.944  1.00  0.00     0.049 A 
ATOM     51  H   UNL A   1      39.394  31.824  33.500  1.00  0.00     0.167 HD
ATOM     52  C   UNL A   1      40.457  28.853  30.491  1.00  0.00     0.034 A 
ATOM     53  C   UNL A   1      39.585  33.044  36.012  1.00  0.00     0.034 A 
ATOM     54  C   UNL A   1      41.462  28.726  31.514  1.00  0.00     0.049 A 
ATOM     55  C   UNL A   1      40.712  32.051  35.941  1.00  0.00     0.074 A 
ATOM     56  C   UNL A   1      42.555  27.877  31.547  1.00  0.00     0.029 A 
ATOM     57  N   UNL A   1      41.491  29.456  32.691  1.00  0.00    -0.354 N 
ATOM     58  N   UNL A   1      41.041  31.242  34.964  1.00  0.00    -0.248 NA
ATOM     59  C   UNL A   1      41.608  31.983  37.105  1.00  0.00     0.031 C 
ATOM     60  C   UNL A   1      43.226  28.072  32.758  1.00  0.00     0.029 A 
ATOM     61  C   UNL A   1      42.577  29.073  33.462  1.00  0.00     0.049 A 
ATOM     62  H   UNL A   1      40.836  30.147  32.943  1.00  0.00     0.167 HD
ATOM     63  C   UNL A   1      42.202  30.597  35.377  1.00  0.00     0.074 A 
ATOM     64  C   UNL A   1      42.533  31.133  36.682  1.00  0.00     0.031 C 
ATOM     65  C   UNL A   1      42.921  29.640  34.742  1.00  0.00     0.034 A 
BRANCH  52  66
ATOM     66  C   UNL A   1      40.532  27.930  29.299  1.00  0.00     0.023 A 
ATOM     67  C   UNL A   1      39.682  26.807  29.232  1.00  0.00     0.012 A 
ATOM     68  C   UNL A   1      41.396  28.205  28.222  1.00  0.00     0.148 A 
ATOM     69  C   UNL A   1      39.718  25.950  28.131  1.00  0.00     0.002 A 
ATOM     70  C   UNL A   1      41.392  27.375  27.105  1.00  0.00     0.091 A 
ATOM     71  F   UNL A   1      42.212  29.266  28.309  1.00  0.00    -0.205 F 
ATOM     72  C   UNL A   1      40.565  26.241  27.064  1.00  0.00     0.022 A 
BRANCH  70  73
ATOM     73  S   UNL A   1      42.381  27.708  25.643  1.00  0.00     0.127 S 
ATOM     74  O   UNL A   1      43.735  27.700  26.196  1.00  0.00    -0.237 OA
ATOM     75  O   UNL A   1      42.065  26.562  24.791  1.00  0.00    -0.237 OA
ATOM     76  O   UNL A   1      41.924  28.992  25.131  1.00  0.00    -0.744 OA
ENDBRANCH  70  73
ENDBRANCH  52  66
BRANCH  53  77
ATOM     77  C   UNL A   1      39.405  33.911  37.212  1.00  0.00     0.023 A 
ATOM     78  C   UNL A   1      39.836  35.251  37.175  1.00  0.00     0.012 A 
ATOM     79  C   UNL A   1      38.792  33.419  38.380  1.00  0.00     0.148 A 
ATOM     80  C   UNL A   1      39.698  36.075  38.293  1.00  0.00     0.002 A 
ATOM     81  C   UNL A   1      38.601  34.260  39.468  1.00  0.00     0.091 A 
ATOM     82  F   UNL A   1      38.396  32.138  38.397  1.00  0.00    -0.205 F 
ATOM     83  C   UNL A   1      39.071  35.583  39.435  1.00  0.00     0.022 A 
BRANCH  81  84
ATOM     84  S   UNL A   1      37.685  33.755  40.927  1.00  0.00     0.127 S 
ATOM     85  O   UNL A   1      38.635  32.859  41.582  1.00  0.00    -0.237 OA
ATOM     86  O   UNL A   1      37.474  35.033  41.607  1.00  0.00    -0.237 OA
ATOM     87  O   UNL A   1      36.467  33.130  40.430  1.00  0.00    -0.744 OA
ENDBRANCH  81  84
ENDBRANCH  53  77
BRANCH  65  88
ATOM     88  C   UNL A   1      44.166  29.137  35.430  1.00  0.00     0.023 A 
ATOM     89  C   UNL A   1      45.412  29.747  35.176  1.00  0.00     0.012 A 
ATOM     90  C   UNL A   1      44.095  28.074  36.351  1.00  0.00     0.148 A 
ATOM     91  C   UNL A   1      46.573  29.269  35.782  1.00  0.00     0.002 A 
ATOM     92  C   UNL A   1      45.248  27.640  36.994  1.00  0.00     0.091 A 
ATOM     93  F   UNL A   1      42.907  27.492  36.570  1.00  0.00    -0.205 F 
ATOM     94  C   UNL A   1      46.490  28.223  36.697  1.00  0.00     0.022 A 
BRANCH  92  95
ATOM     95  S   UNL A   1      45.217  26.366  38.261  1.00  0.00     0.127 S 
ATOM     96  O   UNL A   1      44.789  25.196  37.498  1.00  0.00    -0.237 OA
ATOM     97  O   UNL A   1      46.612  26.331  38.700  1.00  0.00    -0.237 OA
ATOM     98  O   UNL A   1      44.280  26.834  39.273  1.00  0.00    -0.744 OA
ENDBRANCH  92  95
ENDBRANCH  65  88
ENDBRANCH  39  40
ENDBRANCH  31  34
ENDBRANCH  29  30
ENDBRANCH   1  29
TORSDOF 18
ENDMDL
MODEL 3
REMARK VINA RESULT:     -11.5      4.661      9.484
REMARK SMILES O=C(C[C@H](Cc1ccc(Cl)cc1)C(=O)Nc1cc(Cl)ccc1Cl)NCCCNC(=O)c1ccc(-c2c3nc(c(-c4cccc(S(=O)(=O)[O-])c4F)c4ccc([nH]4)c(-c4cccc(S(=O)(=O)[O-])c4F)c4nc(c(-c5cccc(S(=O)(=O)[O-])c5F)c5ccc2[nH]5)C=C4)C=C3)cc1
REMARK SMILES IDX 26 1 25 2 24 3 1 4 2 5 3 7 4 8 13 9 14 10 15 11 16 13 17 14
REMARK SMILES IDX 22 15 18 16 21 17 23 18 19 19 20 20 5 21 6 22 7 23 12 24
REMARK SMILES IDX 8 25 11 26 9 27 10 28 27 29 28 30 29 31 30 33 31 34 32 35
REMARK SMILES IDX 93 36 33 37 92 38 34 39 35 40 36 41 86 42 37 43 91 44 85 45
REMARK SMILES IDX 87 46 38 47 90 48 84 49 83 50 39 52 71 53 51 54 70 55 52 56
REMARK SMILES IDX 55 57 69 58 88 59 53 60 54 61 68 63 89 64 56 65 40 66 41 67
REMARK SMILES IDX 49 68 42 69 44 70 50 71 43 72 45 73 46 74 47 75 48 76 72 77
REMARK SMILES IDX 73 78 81 79 74 80 76 81 82 82 75 83 77 84 78 85 79 86 80 87
REMARK SMILES IDX 57 88 58 89 66 90 59 91 61 92 67 93 60 94 62 95 63 96 64 97
REMARK SMILES IDX 65 98
REMARK H PARENT 24 6 15 12 28 32 87 51 55 62
REMARK Flexibility Score: inf
ROOT
ATOM      1  C   UNL A   1      33.937  28.537  25.869  1.00  0.00     0.042 C 
ENDROOT
BRANCH   1   2
ATOM      2  C   UNL A   1      33.098  29.051  24.710  1.00  0.00     0.117 C 
BRANCH   2   3
ATOM      3  N   UNL A   1      32.399  27.996  23.998  1.00  0.00    -0.356 N 
ATOM      4  O   UNL A   1      33.874  27.850  22.253  1.00  0.00    -0.275 OA
ATOM      5  C   UNL A   1      32.903  27.413  22.863  1.00  0.00     0.220 C 
ATOM      6  H   UNL A   1      31.529  27.687  24.343  1.00  0.00     0.163 HD
BRANCH   5   7
ATOM      7  C   UNL A   1      32.156  26.184  22.387  1.00  0.00     0.113 C 
BRANCH   7   8
ATOM      8  C   UNL A   1      32.372  24.851  23.135  1.00  0.00     0.092 C 
BRANCH   8   9
ATOM      9  C   UNL A   1      31.066  24.106  23.435  1.00  0.00     0.228 C 
ATOM     10  O   UNL A   1      30.014  24.512  22.926  1.00  0.00    -0.274 OA
ATOM     11  N   UNL A   1      30.984  22.969  24.176  1.00  0.00    -0.324 N 
ATOM     12  H   UNL A   1      30.089  22.557  24.178  1.00  0.00     0.169 HD
BRANCH  11  13
ATOM     13  C   UNL A   1      31.935  22.276  24.939  1.00  0.00     0.061 A 
ATOM     14  C   UNL A   1      32.593  21.148  24.450  1.00  0.00     0.048 A 
ATOM     15  C   UNL A   1      32.286  22.774  26.205  1.00  0.00     0.064 A 
ATOM     16  C   UNL A   1      33.485  20.451  25.267  1.00  0.00     0.043 A 
ATOM     17  C   UNL A   1      33.171  22.069  27.022  1.00  0.00     0.024 A 
ATOM     18  Cl  UNL A   1      31.586  24.234  26.814  1.00  0.00    -0.082 Cl
ATOM     19  Cl  UNL A   1      34.256  19.036  24.663  1.00  0.00    -0.084 Cl
ATOM     20  C   UNL A   1      33.755  20.890  26.560  1.00  0.00     0.022 A 
ENDBRANCH  11  13
ENDBRANCH   8   9
BRANCH   8  21
ATOM     21  C   UNL A   1      33.482  23.889  22.687  1.00  0.00     0.049 C 
BRANCH  21  22
ATOM     22  C   UNL A   1      34.705  23.736  23.569  1.00  0.00    -0.047 A 
ATOM     23  C   UNL A   1      35.773  22.871  23.300  1.00  0.00     0.005 A 
ATOM     24  C   UNL A   1      34.762  24.532  24.729  1.00  0.00     0.005 A 
ATOM     25  C   UNL A   1      36.902  22.863  24.127  1.00  0.00     0.021 A 
ATOM     26  C   UNL A   1      35.885  24.519  25.556  1.00  0.00     0.021 A 
ATOM     27  C   UNL A   1      36.960  23.697  25.241  1.00  0.00     0.041 A 
ATOM     28  Cl  UNL A   1      38.373  23.728  26.220  1.00  0.00    -0.084 Cl
ENDBRANCH  21  22
ENDBRANCH   8  21
ENDBRANCH   7   8
ENDBRANCH   5   7
ENDBRANCH   2   3
ENDBRANCH   1   2
BRANCH   1  29
ATOM     29  C   UNL A   1      33.407  28.901  27.250  1.00  0.00     0.118 C 
BRANCH  29  30
ATOM     30  N   UNL A   1      33.446  30.329  27.534  1.00  0.00    -0.352 N 
ATOM     31  C   UNL A   1      34.429  31.080  28.137  1.00  0.00     0.251 C 
ATOM     32  H   UNL A   1      32.650  30.833  27.252  1.00  0.00     0.163 HD
ATOM     33  O   UNL A   1      34.210  32.260  28.391  1.00  0.00    -0.269 OA
BRANCH  31  34
ATOM     34  C   UNL A   1      35.728  30.469  28.510  1.00  0.00     0.039 A 
ATOM     35  C   UNL A   1      36.820  30.650  27.657  1.00  0.00     0.014 A 
ATOM     36  C   UNL A   1      35.881  29.719  29.679  1.00  0.00     0.014 A 
ATOM     37  C   UNL A   1      38.070  30.134  28.009  1.00  0.00     0.010 A 
ATOM     38  C   UNL A   1      37.147  29.287  30.072  1.00  0.00     0.010 A 
ATOM     39  C   UNL A   1      38.256  29.482  29.240  1.00  0.00    -0.014 A 
BRANCH  39  40
ATOM     40  C   UNL A   1      39.611  29.031  29.660  1.00  0.00     0.031 A 
ATOM     41  C   UNL A   1      40.351  29.722  30.776  1.00  0.00     0.074 A 
ATOM     42  C   UNL A   1      40.204  28.017  28.996  1.00  0.00     0.049 A 
ATOM     43  N   UNL A   1      41.515  29.425  31.299  1.00  0.00    -0.248 NA
ATOM     44  C   UNL A   1      39.721  30.913  31.366  1.00  0.00     0.031 C 
ATOM     45  C   UNL A   1      39.643  27.329  27.830  1.00  0.00     0.029 A 
ATOM     46  N   UNL A   1      41.409  27.393  29.199  1.00  0.00    -0.354 N 
ATOM     47  C   UNL A   1      41.766  30.402  32.255  1.00  0.00     0.074 A 
ATOM     48  C   UNL A   1      40.654  31.327  32.210  1.00  0.00     0.031 C 
ATOM     49  C   UNL A   1      40.488  26.361  27.440  1.00  0.00     0.029 A 
ATOM     50  C   UNL A   1      41.661  26.375  28.307  1.00  0.00     0.049 A 
ATOM     51  H   UNL A   1      42.035  27.648  29.915  1.00  0.00     0.167 HD
ATOM     52  C   UNL A   1      42.807  30.506  33.115  1.00  0.00     0.034 A 
ATOM     53  C   UNL A   1      42.714  25.542  28.201  1.00  0.00     0.034 A 
ATOM     54  C   UNL A   1      43.899  29.569  33.179  1.00  0.00     0.049 A 
ATOM     55  C   UNL A   1      43.828  25.640  29.207  1.00  0.00     0.074 A 
ATOM     56  C   UNL A   1      44.957  29.538  34.071  1.00  0.00     0.029 A 
ATOM     57  N   UNL A   1      44.081  28.504  32.310  1.00  0.00    -0.354 N 
ATOM     58  N   UNL A   1      43.963  26.469  30.213  1.00  0.00    -0.248 NA
ATOM     59  C   UNL A   1      44.915  24.657  29.089  1.00  0.00     0.031 C 
ATOM     60  C   UNL A   1      45.795  28.475  33.721  1.00  0.00     0.029 A 
ATOM     61  C   UNL A   1      45.237  27.816  32.638  1.00  0.00     0.049 A 
ATOM     62  H   UNL A   1      43.476  28.271  31.569  1.00  0.00     0.167 HD
ATOM     63  C   UNL A   1      45.126  26.085  30.870  1.00  0.00     0.074 A 
ATOM     64  C   UNL A   1      45.641  24.931  30.163  1.00  0.00     0.031 C 
ATOM     65  C   UNL A   1      45.722  26.644  31.953  1.00  0.00     0.034 A 
BRANCH  52  66
ATOM     66  C   UNL A   1      42.795  31.653  34.096  1.00  0.00     0.023 A 
ATOM     67  C   UNL A   1      43.379  32.886  33.736  1.00  0.00     0.012 A 
ATOM     68  C   UNL A   1      42.156  31.533  35.345  1.00  0.00     0.148 A 
ATOM     69  C   UNL A   1      43.362  33.967  34.618  1.00  0.00     0.002 A 
ATOM     70  C   UNL A   1      42.099  32.630  36.199  1.00  0.00     0.091 A 
ATOM     71  F   UNL A   1      41.623  30.349  35.681  1.00  0.00    -0.205 F 
ATOM     72  C   UNL A   1      42.713  33.842  35.843  1.00  0.00     0.022 A 
BRANCH  70  73
ATOM     73  S   UNL A   1      41.215  32.599  37.763  1.00  0.00     0.127 S 
ATOM     74  O   UNL A   1      42.030  31.668  38.543  1.00  0.00    -0.237 OA
ATOM     75  O   UNL A   1      41.304  33.994  38.193  1.00  0.00    -0.237 OA
ATOM     76  O   UNL A   1      39.867  32.142  37.455  1.00  0.00    -0.744 OA
ENDBRANCH  70  73
ENDBRANCH  52  66
BRANCH  53  77
ATOM     77  C   UNL A   1      42.729  24.488  27.146  1.00  0.00     0.023 A 
ATOM     78  C   UNL A   1      43.454  24.702  25.957  1.00  0.00     0.012 A 
ATOM     79  C   UNL A   1      42.043  23.271  27.322  1.00  0.00     0.148 A 
ATOM     80  C   UNL A   1      43.464  23.740  24.947  1.00  0.00     0.002 A 
ATOM     81  C   UNL A   1      42.107  22.292  26.339  1.00  0.00     0.091 A 
ATOM     82  F   UNL A   1      41.352  23.091  28.457  1.00  0.00    -0.205 F 
ATOM     83  C   UNL A   1      42.799  22.532  25.142  1.00  0.00     0.022 A 
BRANCH  81  84
ATOM     84  S   UNL A   1      41.397  20.658  26.561  1.00  0.00     0.127 S 
ATOM     85  O   UNL A   1      40.001  20.887  26.202  1.00  0.00    -0.237 OA
ATOM     86  O   UNL A   1      42.161  19.866  25.596  1.00  0.00    -0.237 OA
ATOM     87  O   UNL A   1      41.643  20.308  27.953  1.00  0.00    -0.744 OA
ENDBRANCH  81  84
ENDBRANCH  53  77
BRANCH  65  88
ATOM     88  C   UNL A   1      46.979  25.988  32.467  1.00  0.00     0.023 A 
ATOM     89  C   UNL A   1      48.239  26.385  31.972  1.00  0.00     0.012 A 
ATOM     90  C   UNL A   1      46.913  24.994  33.462  1.00  0.00     0.148 A 
ATOM     91  C   UNL A   1      49.404  25.762  32.417  1.00  0.00     0.002 A 
ATOM     92  C   UNL A   1      48.083  24.418  33.942  1.00  0.00     0.091 A 
ATOM     93  F   UNL A   1      45.707  24.614  33.910  1.00  0.00    -0.205 F 
ATOM     94  C   UNL A   1      49.328  24.787  33.407  1.00  0.00     0.022 A 
BRANCH  92  95
ATOM     95  S   UNL A   1      48.082  23.225  35.286  1.00  0.00     0.127 S 
ATOM     96  O   UNL A   1      47.349  23.945  36.324  1.00  0.00    -0.237 OA
ATOM     97  O   UNL A   1      47.358  22.097  34.699  1.00  0.00    -0.237 OA
ATOM     98  O   UNL A   1      49.483  22.954  35.577  1.00  0.00    -0.744 OA
ENDBRANCH  92  95
ENDBRANCH  65  88
ENDBRANCH  39  40
ENDBRANCH  31  34
ENDBRANCH  29  30
ENDBRANCH   1  29
TORSDOF 18
ENDMDL
