MODEL 1
REMARK VINA RESULT:     -12.3      0.000      0.000
REMARK SMILES C[C@@H]1[C@@H](C(=O)NCCCNC(=O)c2ccc(-c3c4nc(c(-c5cccc(S(=O)(=O)[O-])c5F)c5ccc([nH]5)c(-c5cccc(S(=O)(=O)[O-])c5F)c5nc(c(-c6cccc(S(=O)(=O)[O-])c6F)c6ccc3[nH]6)C=C5)C=C4)cc2)CCN1C(=O)Nc1nccs1
REMARK SMILES IDX 8 1 7 2 6 3 4 4 5 5 3 7 1 8 2 9 78 10 76 11 77 12 79 13
REMARK SMILES IDX 80 14 81 15 82 17 83 18 86 19 84 20 85 21 9 22 10 23 11 24
REMARK SMILES IDX 12 26 13 27 14 28 75 29 15 30 74 31 16 32 17 33 18 34 68 35
REMARK SMILES IDX 19 36 73 37 67 38 69 39 20 40 72 41 66 42 65 43 21 45 53 46
REMARK SMILES IDX 33 47 52 48 34 49 37 50 51 51 70 52 35 53 36 54 50 56 71 57
REMARK SMILES IDX 38 58 22 59 23 60 31 61 24 62 26 63 32 64 25 65 27 66 28 67
REMARK SMILES IDX 29 68 30 69 54 70 55 71 63 72 56 73 58 74 64 75 57 76 59 77
REMARK SMILES IDX 60 78 61 79 62 80 39 81 40 82 48 83 41 84 43 85 49 86 42 87
REMARK SMILES IDX 44 88 45 89 46 90 47 91
REMARK H PARENT 6 6 81 16 10 25 69 44 37 55
REMARK Flexibility Score: inf
ROOT
ATOM      1  C   UNL A   1      36.196  21.451  25.754  1.00  0.00     0.042 C 
ENDROOT
BRANCH   1   2
ATOM      2  C   UNL A   1      35.471  20.447  24.878  1.00  0.00     0.117 C 
BRANCH   2   3
ATOM      3  N   UNL A   1      34.092  20.235  25.274  1.00  0.00    -0.356 N 
ATOM      4  C   UNL A   1      32.991  20.981  24.979  1.00  0.00     0.225 C 
ATOM      5  O   UNL A   1      31.903  20.581  25.392  1.00  0.00    -0.275 OA
ATOM      6  H   UNL A   1      33.928  19.441  25.834  1.00  0.00     0.163 HD
BRANCH   4   7
ATOM      7  C   UNL A   1      33.173  22.289  24.216  1.00  0.00     0.102 C 
ATOM      8  C   UNL A   1      34.091  24.612  24.523  1.00  0.00     0.032 C 
ATOM      9  C   UNL A   1      33.264  23.491  25.173  1.00  0.00     0.096 C 
ATOM     10  N   UNL A   1      31.867  23.913  25.362  1.00  0.00    -0.321 N 
ATOM     11  C   UNL A   1      31.970  22.660  23.345  1.00  0.00     0.037 C 
ATOM     12  C   UNL A   1      31.032  23.361  24.308  1.00  0.00     0.122 C 
BRANCH  10  13
ATOM     13  C   UNL A   1      31.224  24.450  26.440  1.00  0.00     0.323 C 
ATOM     14  O   UNL A   1      30.836  23.715  27.361  1.00  0.00    -0.248 OA
ATOM     15  N   UNL A   1      31.104  25.769  26.670  1.00  0.00    -0.283 N 
ATOM     16  H   UNL A   1      30.928  25.993  27.613  1.00  0.00     0.174 HD
BRANCH  15  17
ATOM     17  C   UNL A   1      31.176  26.854  25.858  1.00  0.00     0.190 A 
ATOM     18  N   UNL A   1      30.808  27.011  24.614  1.00  0.00    -0.228 NA
ATOM     19  S   UNL A   1      31.823  28.241  26.624  1.00  0.00    -0.105 S 
ATOM     20  C   UNL A   1      31.186  28.261  24.173  1.00  0.00     0.125 A 
ATOM     21  C   UNL A   1      31.792  29.061  25.116  1.00  0.00     0.088 A 
ENDBRANCH  15  17
ENDBRANCH  10  13
ENDBRANCH   4   7
ENDBRANCH   2   3
ENDBRANCH   1   2
BRANCH   1  22
ATOM     22  C   UNL A   1      37.603  21.786  25.289  1.00  0.00     0.118 C 
BRANCH  22  23
ATOM     23  N   UNL A   1      38.612  20.852  25.773  1.00  0.00    -0.352 N 
ATOM     24  C   UNL A   1      39.798  21.080  26.435  1.00  0.00     0.251 C 
ATOM     25  H   UNL A   1      38.414  19.904  25.598  1.00  0.00     0.163 HD
ATOM     26  O   UNL A   1      40.580  20.157  26.616  1.00  0.00    -0.269 OA
BRANCH  24  27
ATOM     27  C   UNL A   1      40.140  22.446  26.895  1.00  0.00     0.039 A 
ATOM     28  C   UNL A   1      41.080  22.604  27.916  1.00  0.00     0.014 A 
ATOM     29  C   UNL A   1      39.551  23.568  26.312  1.00  0.00     0.014 A 
ATOM     30  C   UNL A   1      41.493  23.889  28.283  1.00  0.00     0.010 A 
ATOM     31  C   UNL A   1      40.049  24.834  26.592  1.00  0.00     0.010 A 
ATOM     32  C   UNL A   1      41.019  25.013  27.587  1.00  0.00    -0.014 A 
BRANCH  32  33
ATOM     33  C   UNL A   1      41.517  26.383  27.881  1.00  0.00     0.031 A 
ATOM     34  C   UNL A   1      42.934  26.761  27.536  1.00  0.00     0.074 A 
ATOM     35  C   UNL A   1      40.730  27.253  28.545  1.00  0.00     0.049 A 
ATOM     36  N   UNL A   1      43.574  27.874  27.787  1.00  0.00    -0.248 NA
ATOM     37  C   UNL A   1      43.752  25.745  26.850  1.00  0.00     0.031 C 
ATOM     38  C   UNL A   1      39.368  26.981  29.013  1.00  0.00     0.029 A 
ATOM     39  N   UNL A   1      40.971  28.537  28.967  1.00  0.00    -0.354 N 
ATOM     40  C   UNL A   1      44.873  27.676  27.332  1.00  0.00     0.074 A 
ATOM     41  C   UNL A   1      44.943  26.322  26.830  1.00  0.00     0.031 C 
ATOM     42  C   UNL A   1      38.892  28.067  29.642  1.00  0.00     0.029 A 
ATOM     43  C   UNL A   1      39.922  29.099  29.658  1.00  0.00     0.049 A 
ATOM     44  H   UNL A   1      41.815  29.012  28.791  1.00  0.00     0.167 HD
ATOM     45  C   UNL A   1      45.906  28.551  27.300  1.00  0.00     0.034 A 
ATOM     46  C   UNL A   1      39.805  30.307  30.246  1.00  0.00     0.034 A 
ATOM     47  C   UNL A   1      45.819  29.912  27.752  1.00  0.00     0.049 A 
ATOM     48  C   UNL A   1      40.954  31.275  30.159  1.00  0.00     0.074 A 
ATOM     49  C   UNL A   1      46.779  30.906  27.677  1.00  0.00     0.029 A 
ATOM     50  N   UNL A   1      44.709  30.473  28.365  1.00  0.00    -0.354 N 
ATOM     51  N   UNL A   1      42.122  31.120  29.585  1.00  0.00    -0.248 NA
ATOM     52  C   UNL A   1      40.755  32.597  30.768  1.00  0.00     0.031 C 
ATOM     53  C   UNL A   1      46.259  32.060  28.271  1.00  0.00     0.029 A 
ATOM     54  C   UNL A   1      44.963  31.795  28.684  1.00  0.00     0.049 A 
ATOM     55  H   UNL A   1      43.865  29.999  28.546  1.00  0.00     0.167 HD
ATOM     56  C   UNL A   1      42.782  32.335  29.728  1.00  0.00     0.074 A 
ATOM     57  C   UNL A   1      41.875  33.222  30.426  1.00  0.00     0.031 C 
ATOM     58  C   UNL A   1      44.031  32.681  29.330  1.00  0.00     0.034 A 
BRANCH  45  59
ATOM     59  C   UNL A   1      47.207  28.076  26.704  1.00  0.00     0.023 A 
ATOM     60  C   UNL A   1      48.258  27.675  27.556  1.00  0.00     0.012 A 
ATOM     61  C   UNL A   1      47.372  27.973  25.309  1.00  0.00     0.148 A 
ATOM     62  C   UNL A   1      49.465  27.218  27.029  1.00  0.00     0.002 A 
ATOM     63  C   UNL A   1      48.560  27.470  24.793  1.00  0.00     0.091 A 
ATOM     64  F   UNL A   1      46.371  28.378  24.515  1.00  0.00    -0.205 F 
ATOM     65  C   UNL A   1      49.611  27.105  25.650  1.00  0.00     0.022 A 
BRANCH  63  66
ATOM     66  S   UNL A   1      48.820  27.208  23.035  1.00  0.00     0.127 S 
ATOM     67  O   UNL A   1      50.279  27.228  22.946  1.00  0.00    -0.237 OA
ATOM     68  O   UNL A   1      48.215  25.891  22.828  1.00  0.00    -0.237 OA
ATOM     69  O   UNL A   1      48.138  28.303  22.359  1.00  0.00    -0.744 OA
ENDBRANCH  63  66
ENDBRANCH  45  59
BRANCH  46  70
ATOM     70  C   UNL A   1      38.527  30.694  30.910  1.00  0.00     0.023 A 
ATOM     71  C   UNL A   1      38.341  30.396  32.274  1.00  0.00     0.012 A 
ATOM     72  C   UNL A   1      37.509  31.369  30.209  1.00  0.00     0.148 A 
ATOM     73  C   UNL A   1      37.149  30.731  32.920  1.00  0.00     0.002 A 
ATOM     74  C   UNL A   1      36.348  31.750  30.873  1.00  0.00     0.091 A 
ATOM     75  F   UNL A   1      37.702  31.635  28.910  1.00  0.00    -0.205 F 
ATOM     76  C   UNL A   1      36.158  31.416  32.222  1.00  0.00     0.022 A 
BRANCH  74  77
ATOM     77  S   UNL A   1      35.076  32.749  30.090  1.00  0.00     0.127 S 
ATOM     78  O   UNL A   1      34.551  31.830  29.084  1.00  0.00    -0.237 OA
ATOM     79  O   UNL A   1      34.174  33.018  31.212  1.00  0.00    -0.237 OA
ATOM     80  O   UNL A   1      35.761  33.928  29.576  1.00  0.00    -0.744 OA
ENDBRANCH  74  77
ENDBRANCH  46  70
BRANCH  58  81
ATOM     81  C   UNL A   1      44.483  34.093  29.595  1.00  0.00     0.023 A 
ATOM     82  C   UNL A   1      45.195  34.396  30.772  1.00  0.00     0.012 A 
ATOM     83  C   UNL A   1      44.269  35.104  28.637  1.00  0.00     0.148 A 
ATOM     84  C   UNL A   1      45.657  35.690  31.007  1.00  0.00     0.002 A 
ATOM     85  C   UNL A   1      44.778  36.379  28.853  1.00  0.00     0.091 A 
ATOM     86  F   UNL A   1      43.574  34.800  27.531  1.00  0.00    -0.205 F 
ATOM     87  C   UNL A   1      45.459  36.677  30.043  1.00  0.00     0.022 A 
BRANCH  85  88
ATOM     88  S   UNL A   1      44.659  37.684  27.626  1.00  0.00     0.127 S 
ATOM     89  O   UNL A   1      44.891  38.878  28.437  1.00  0.00    -0.237 OA
ATOM     90  O   UNL A   1      45.749  37.348  26.710  1.00  0.00    -0.237 OA
ATOM     91  O   UNL A   1      43.327  37.573  27.047  1.00  0.00    -0.744 OA
ENDBRANCH  85  88
ENDBRANCH  58  81
ENDBRANCH  32  33
ENDBRANCH  24  27
ENDBRANCH  22  23
ENDBRANCH   1  22
TORSDOF 15
ENDMDL
MODEL 2
REMARK VINA RESULT:     -12.2      1.400      7.787
REMARK SMILES C[C@@H]1[C@@H](C(=O)NCCCNC(=O)c2ccc(-c3c4nc(c(-c5cccc(S(=O)(=O)[O-])c5F)c5ccc([nH]5)c(-c5cccc(S(=O)(=O)[O-])c5F)c5nc(c(-c6cccc(S(=O)(=O)[O-])c6F)c6ccc3[nH]6)C=C5)C=C4)cc2)CCN1C(=O)Nc1nccs1
REMARK SMILES IDX 8 1 7 2 6 3 4 4 5 5 3 7 1 8 2 9 78 10 76 11 77 12 79 13
REMARK SMILES IDX 80 14 81 15 82 17 83 18 86 19 84 20 85 21 9 22 10 23 11 24
REMARK SMILES IDX 12 26 13 27 14 28 75 29 15 30 74 31 16 32 17 33 18 34 68 35
REMARK SMILES IDX 19 36 73 37 67 38 69 39 20 40 72 41 66 42 65 43 21 45 53 46
REMARK SMILES IDX 33 47 52 48 34 49 37 50 51 51 70 52 35 53 36 54 50 56 71 57
REMARK SMILES IDX 38 58 22 59 23 60 31 61 24 62 26 63 32 64 25 65 27 66 28 67
REMARK SMILES IDX 29 68 30 69 54 70 55 71 63 72 56 73 58 74 64 75 57 76 59 77
REMARK SMILES IDX 60 78 61 79 62 80 39 81 40 82 48 83 41 84 43 85 49 86 42 87
REMARK SMILES IDX 44 88 45 89 46 90 47 91
REMARK H PARENT 6 6 81 16 10 25 69 44 37 55
REMARK Flexibility Score: inf
ROOT
ATOM      1  C   UNL A   1      37.340  19.497  25.100  1.00  0.00     0.042 C 
ENDROOT
BRANCH   1   2
ATOM      2  C   UNL A   1      36.152  20.373  24.751  1.00  0.00     0.117 C 
BRANCH   2   3
ATOM      3  N   UNL A   1      35.203  20.509  25.840  1.00  0.00    -0.356 N 
ATOM      4  C   UNL A   1      34.307  21.508  26.076  1.00  0.00     0.225 C 
ATOM      5  O   UNL A   1      33.563  21.388  27.049  1.00  0.00    -0.275 OA
ATOM      6  H   UNL A   1      35.207  19.778  26.501  1.00  0.00     0.163 HD
BRANCH   4   7
ATOM      7  C   UNL A   1      34.315  22.733  25.168  1.00  0.00     0.102 C 
ATOM      8  C   UNL A   1      34.402  25.245  25.289  1.00  0.00     0.032 C 
ATOM      9  C   UNL A   1      33.782  23.979  25.900  1.00  0.00     0.096 C 
ATOM     10  N   UNL A   1      32.329  23.942  25.668  1.00  0.00    -0.321 N 
ATOM     11  C   UNL A   1      33.356  22.620  23.981  1.00  0.00     0.037 C 
ATOM     12  C   UNL A   1      32.023  23.062  24.553  1.00  0.00     0.122 C 
BRANCH  10  13
ATOM     13  C   UNL A   1      31.281  24.335  26.450  1.00  0.00     0.323 C 
ATOM     14  O   UNL A   1      30.900  23.614  27.385  1.00  0.00    -0.248 OA
ATOM     15  N   UNL A   1      30.701  25.546  26.387  1.00  0.00    -0.283 N 
ATOM     16  H   UNL A   1      30.213  25.795  27.206  1.00  0.00     0.174 HD
BRANCH  15  17
ATOM     17  C   UNL A   1      30.657  26.495  25.418  1.00  0.00     0.190 A 
ATOM     18  N   UNL A   1      31.325  27.610  25.289  1.00  0.00    -0.228 NA
ATOM     19  S   UNL A   1      29.568  26.128  24.150  1.00  0.00    -0.105 S 
ATOM     20  C   UNL A   1      30.856  28.308  24.195  1.00  0.00     0.125 A 
ATOM     21  C   UNL A   1      29.867  27.676  23.474  1.00  0.00     0.088 A 
ENDBRANCH  15  17
ENDBRANCH  10  13
ENDBRANCH   4   7
ENDBRANCH   2   3
ENDBRANCH   1   2
BRANCH   1  22
ATOM     22  C   UNL A   1      38.611  20.263  25.423  1.00  0.00     0.118 C 
BRANCH  22  23
ATOM     23  N   UNL A   1      39.717  19.406  25.834  1.00  0.00    -0.352 N 
ATOM     24  C   UNL A   1      40.948  19.726  26.361  1.00  0.00     0.251 C 
ATOM     25  H   UNL A   1      39.557  18.442  25.714  1.00  0.00     0.163 HD
ATOM     26  O   UNL A   1      41.796  18.854  26.493  1.00  0.00    -0.269 OA
BRANCH  24  27
ATOM     27  C   UNL A   1      41.254  21.126  26.734  1.00  0.00     0.039 A 
ATOM     28  C   UNL A   1      41.889  21.382  27.952  1.00  0.00     0.014 A 
ATOM     29  C   UNL A   1      40.936  22.182  25.880  1.00  0.00     0.014 A 
ATOM     30  C   UNL A   1      42.283  22.686  28.265  1.00  0.00     0.010 A 
ATOM     31  C   UNL A   1      41.434  23.453  26.137  1.00  0.00     0.010 A 
ATOM     32  C   UNL A   1      42.105  23.725  27.337  1.00  0.00    -0.014 A 
BRANCH  32  33
ATOM     33  C   UNL A   1      42.606  25.101  27.594  1.00  0.00     0.031 A 
ATOM     34  C   UNL A   1      41.702  26.129  28.224  1.00  0.00     0.074 A 
ATOM     35  C   UNL A   1      43.837  25.455  27.173  1.00  0.00     0.049 A 
ATOM     36  N   UNL A   1      41.928  27.397  28.451  1.00  0.00    -0.248 NA
ATOM     37  C   UNL A   1      40.354  25.684  28.620  1.00  0.00     0.031 C 
ATOM     38  C   UNL A   1      44.779  24.579  26.471  1.00  0.00     0.029 A 
ATOM     39  N   UNL A   1      44.499  26.655  27.248  1.00  0.00    -0.354 N 
ATOM     40  C   UNL A   1      40.743  27.907  28.972  1.00  0.00     0.074 A 
ATOM     41  C   UNL A   1      39.788  26.823  28.986  1.00  0.00     0.031 C 
ATOM     42  C   UNL A   1      45.899  25.265  26.195  1.00  0.00     0.029 A 
ATOM     43  C   UNL A   1      45.745  26.637  26.663  1.00  0.00     0.049 A 
ATOM     44  H   UNL A   1      44.119  27.454  27.681  1.00  0.00     0.167 HD
ATOM     45  C   UNL A   1      40.483  29.154  29.432  1.00  0.00     0.034 A 
ATOM     46  C   UNL A   1      46.657  27.619  26.513  1.00  0.00     0.034 A 
ATOM     47  C   UNL A   1      41.452  30.215  29.464  1.00  0.00     0.049 A 
ATOM     48  C   UNL A   1      46.358  28.984  27.070  1.00  0.00     0.074 A 
ATOM     49  C   UNL A   1      41.317  31.486  29.994  1.00  0.00     0.029 A 
ATOM     50  N   UNL A   1      42.734  30.133  28.943  1.00  0.00    -0.354 N 
ATOM     51  N   UNL A   1      45.288  29.403  27.700  1.00  0.00    -0.248 NA
ATOM     52  C   UNL A   1      47.409  30.003  26.928  1.00  0.00     0.031 C 
ATOM     53  C   UNL A   1      42.509  32.181  29.769  1.00  0.00     0.029 A 
ATOM     54  C   UNL A   1      43.397  31.332  29.130  1.00  0.00     0.049 A 
ATOM     55  H   UNL A   1      43.115  29.337  28.506  1.00  0.00     0.167 HD
ATOM     56  C   UNL A   1      45.550  30.719  28.064  1.00  0.00     0.074 A 
ATOM     57  C   UNL A   1      46.888  31.021  27.602  1.00  0.00     0.031 C 
ATOM     58  C   UNL A   1      44.749  31.601  28.711  1.00  0.00     0.034 A 
BRANCH  45  59
ATOM     59  C   UNL A   1      39.109  29.421  29.989  1.00  0.00     0.023 A 
ATOM     60  C   UNL A   1      38.808  29.045  31.314  1.00  0.00     0.012 A 
ATOM     61  C   UNL A   1      38.134  30.092  29.224  1.00  0.00     0.148 A 
ATOM     62  C   UNL A   1      37.549  29.294  31.857  1.00  0.00     0.002 A 
ATOM     63  C   UNL A   1      36.897  30.381  29.789  1.00  0.00     0.091 A 
ATOM     64  F   UNL A   1      38.429  30.424  27.959  1.00  0.00    -0.205 F 
ATOM     65  C   UNL A   1      36.599  29.972  31.099  1.00  0.00     0.022 A 
BRANCH  63  66
ATOM     66  S   UNL A   1      35.633  31.321  28.926  1.00  0.00     0.127 S 
ATOM     67  O   UNL A   1      34.984  30.282  28.130  1.00  0.00    -0.237 OA
ATOM     68  O   UNL A   1      34.825  31.836  30.032  1.00  0.00    -0.237 OA
ATOM     69  O   UNL A   1      36.340  32.341  28.163  1.00  0.00    -0.744 OA
ENDBRANCH  63  66
ENDBRANCH  45  59
BRANCH  46  70
ATOM     70  C   UNL A   1      47.968  27.327  25.864  1.00  0.00     0.023 A 
ATOM     71  C   UNL A   1      49.037  26.854  26.651  1.00  0.00     0.012 A 
ATOM     72  C   UNL A   1      48.156  27.494  24.479  1.00  0.00     0.148 A 
ATOM     73  C   UNL A   1      50.281  26.588  26.075  1.00  0.00     0.002 A 
ATOM     74  C   UNL A   1      49.380  27.173  23.903  1.00  0.00     0.091 A 
ATOM     75  F   UNL A   1      47.130  27.953  23.749  1.00  0.00    -0.205 F 
ATOM     76  C   UNL A   1      50.449  26.738  24.701  1.00  0.00     0.022 A 
BRANCH  74  77
ATOM     77  S   UNL A   1      49.648  27.209  22.127  1.00  0.00     0.127 S 
ATOM     78  O   UNL A   1      48.676  26.225  21.658  1.00  0.00    -0.237 OA
ATOM     79  O   UNL A   1      49.326  28.600  21.803  1.00  0.00    -0.237 OA
ATOM     80  O   UNL A   1      51.049  26.857  21.933  1.00  0.00    -0.744 OA
ENDBRANCH  74  77
ENDBRANCH  46  70
BRANCH  58  81
ATOM     81  C   UNL A   1      45.309  32.968  29.004  1.00  0.00     0.023 A 
ATOM     82  C   UNL A   1      46.021  33.198  30.197  1.00  0.00     0.012 A 
ATOM     83  C   UNL A   1      45.194  34.005  28.056  1.00  0.00     0.148 A 
ATOM     84  C   UNL A   1      46.581  34.448  30.457  1.00  0.00     0.002 A 
ATOM     85  C   UNL A   1      45.800  35.231  28.298  1.00  0.00     0.091 A 
ATOM     86  F   UNL A   1      44.497  33.772  26.934  1.00  0.00    -0.205 F 
ATOM     87  C   UNL A   1      46.482  35.459  29.504  1.00  0.00     0.022 A 
BRANCH  85  88
ATOM     88  S   UNL A   1      45.809  36.558  27.087  1.00  0.00     0.127 S 
ATOM     89  O   UNL A   1      46.778  37.485  27.668  1.00  0.00    -0.237 OA
ATOM     90  O   UNL A   1      46.270  35.871  25.880  1.00  0.00    -0.237 OA
ATOM     91  O   UNL A   1      44.440  37.049  27.017  1.00  0.00    -0.744 OA
ENDBRANCH  85  88
ENDBRANCH  58  81
ENDBRANCH  32  33
ENDBRANCH  24  27
ENDBRANCH  22  23
ENDBRANCH   1  22
TORSDOF 15
ENDMDL
MODEL 3
REMARK VINA RESULT:     -12.2      5.914      9.087
REMARK SMILES C[C@@H]1[C@@H](C(=O)NCCCNC(=O)c2ccc(-c3c4nc(c(-c5cccc(S(=O)(=O)[O-])c5F)c5ccc([nH]5)c(-c5cccc(S(=O)(=O)[O-])c5F)c5nc(c(-c6cccc(S(=O)(=O)[O-])c6F)c6ccc3[nH]6)C=C5)C=C4)cc2)CCN1C(=O)Nc1nccs1
REMARK SMILES IDX 8 1 7 2 6 3 4 4 5 5 3 7 1 8 2 9 78 10 76 11 77 12 79 13
REMARK SMILES IDX 80 14 81 15 82 17 83 18 86 19 84 20 85 21 9 22 10 23 11 24
REMARK SMILES IDX 12 26 13 27 14 28 75 29 15 30 74 31 16 32 17 33 18 34 68 35
REMARK SMILES IDX 19 36 73 37 67 38 69 39 20 40 72 41 66 42 65 43 21 45 53 46
REMARK SMILES IDX 33 47 52 48 34 49 37 50 51 51 70 52 35 53 36 54 50 56 71 57
REMARK SMILES IDX 38 58 22 59 23 60 31 61 24 62 26 63 32 64 25 65 27 66 28 67
REMARK SMILES IDX 29 68 30 69 54 70 55 71 63 72 56 73 58 74 64 75 57 76 59 77
REMARK SMILES IDX 60 78 61 79 62 80 39 81 40 82 48 83 41 84 43 85 49 86 42 87
REMARK SMILES IDX 44 88 45 89 46 90 47 91
REMARK H PARENT 6 6 81 16 10 25 69 44 37 55
REMARK Flexibility Score: inf
ROOT
ATOM      1  C   UNL A   1      31.739  31.607  26.833  1.00  0.00     0.042 C 
ENDROOT
BRANCH   1   2
ATOM      2  C   UNL A   1      32.073  30.229  26.296  1.00  0.00     0.117 C 
BRANCH   2   3
ATOM      3  N   UNL A   1      31.798  30.086  24.879  1.00  0.00    -0.356 N 
ATOM      4  C   UNL A   1      31.410  28.977  24.188  1.00  0.00     0.225 C 
ATOM      5  O   UNL A   1      31.188  29.103  22.984  1.00  0.00    -0.275 OA
ATOM      6  H   UNL A   1      31.906  30.904  24.340  1.00  0.00     0.163 HD
BRANCH   4   7
ATOM      7  C   UNL A   1      31.331  27.644  24.924  1.00  0.00     0.102 C 
ATOM      8  C   UNL A   1      32.821  25.904  25.967  1.00  0.00     0.032 C 
ATOM      9  C   UNL A   1      32.629  26.832  24.757  1.00  0.00     0.096 C 
ATOM     10  N   UNL A   1      32.414  26.052  23.528  1.00  0.00    -0.321 N 
ATOM     11  C   UNL A   1      30.279  26.692  24.352  1.00  0.00     0.037 C 
ATOM     12  C   UNL A   1      30.997  26.008  23.204  1.00  0.00     0.122 C 
BRANCH  10  13
ATOM     13  C   UNL A   1      33.280  25.642  22.556  1.00  0.00     0.323 C 
ATOM     14  O   UNL A   1      33.676  26.446  21.698  1.00  0.00    -0.248 OA
ATOM     15  N   UNL A   1      33.882  24.440  22.534  1.00  0.00    -0.283 N 
ATOM     16  H   UNL A   1      34.703  24.417  21.991  1.00  0.00     0.174 HD
BRANCH  15  17
ATOM     17  C   UNL A   1      33.580  23.251  23.114  1.00  0.00     0.190 A 
ATOM     18  N   UNL A   1      32.572  22.442  22.919  1.00  0.00    -0.228 NA
ATOM     19  S   UNL A   1      34.744  22.729  24.254  1.00  0.00    -0.105 S 
ATOM     20  C   UNL A   1      32.628  21.404  23.825  1.00  0.00     0.125 A 
ATOM     21  C   UNL A   1      33.720  21.414  24.665  1.00  0.00     0.088 A 
ENDBRANCH  15  17
ENDBRANCH  10  13
ENDBRANCH   4   7
ENDBRANCH   2   3
ENDBRANCH   1   2
BRANCH   1  22
ATOM     22  C   UNL A   1      32.949  32.429  27.244  1.00  0.00     0.118 C 
BRANCH  22  23
ATOM     23  N   UNL A   1      32.627  33.815  27.562  1.00  0.00    -0.352 N 
ATOM     24  C   UNL A   1      33.126  34.647  28.540  1.00  0.00     0.251 C 
ATOM     25  H   UNL A   1      31.943  34.222  26.984  1.00  0.00     0.163 HD
ATOM     26  O   UNL A   1      32.602  35.735  28.735  1.00  0.00    -0.269 OA
BRANCH  24  27
ATOM     27  C   UNL A   1      34.267  34.209  29.376  1.00  0.00     0.039 A 
ATOM     28  C   UNL A   1      34.018  33.456  30.526  1.00  0.00     0.014 A 
ATOM     29  C   UNL A   1      35.579  34.522  29.020  1.00  0.00     0.014 A 
ATOM     30  C   UNL A   1      35.091  32.943  31.262  1.00  0.00     0.010 A 
ATOM     31  C   UNL A   1      36.638  33.913  29.680  1.00  0.00     0.010 A 
ATOM     32  C   UNL A   1      36.410  33.124  30.816  1.00  0.00    -0.014 A 
BRANCH  32  33
ATOM     33  C   UNL A   1      37.566  32.504  31.515  1.00  0.00     0.031 A 
ATOM     34  C   UNL A   1      38.316  31.366  30.871  1.00  0.00     0.074 A 
ATOM     35  C   UNL A   1      37.880  32.893  32.766  1.00  0.00     0.049 A 
ATOM     36  N   UNL A   1      39.294  30.644  31.356  1.00  0.00    -0.248 NA
ATOM     37  C   UNL A   1      37.891  30.962  29.519  1.00  0.00     0.031 C 
ATOM     38  C   UNL A   1      37.176  33.923  33.536  1.00  0.00     0.029 A 
ATOM     39  N   UNL A   1      38.854  32.450  33.626  1.00  0.00    -0.354 N 
ATOM     40  C   UNL A   1      39.568  29.680  30.392  1.00  0.00     0.074 A 
ATOM     41  C   UNL A   1      38.626  29.880  29.314  1.00  0.00     0.031 C 
ATOM     42  C   UNL A   1      37.751  34.043  34.743  1.00  0.00     0.029 A 
ATOM     43  C   UNL A   1      38.837  33.075  34.852  1.00  0.00     0.049 A 
ATOM     44  H   UNL A   1      39.506  31.752  33.387  1.00  0.00     0.167 HD
ATOM     45  C   UNL A   1      40.539  28.736  30.385  1.00  0.00     0.034 A 
ATOM     46  C   UNL A   1      39.604  32.885  35.944  1.00  0.00     0.034 A 
ATOM     47  C   UNL A   1      41.507  28.573  31.434  1.00  0.00     0.049 A 
ATOM     48  C   UNL A   1      40.703  31.857  35.894  1.00  0.00     0.074 A 
ATOM     49  C   UNL A   1      42.586  27.709  31.481  1.00  0.00     0.029 A 
ATOM     50  N   UNL A   1      41.512  29.286  32.624  1.00  0.00    -0.354 N 
ATOM     51  N   UNL A   1      41.044  31.061  34.911  1.00  0.00    -0.248 NA
ATOM     52  C   UNL A   1      41.544  31.727  37.092  1.00  0.00     0.031 C 
ATOM     53  C   UNL A   1      43.229  27.881  32.712  1.00  0.00     0.029 A 
ATOM     54  C   UNL A   1      42.570  28.875  33.416  1.00  0.00     0.049 A 
ATOM     55  H   UNL A   1      40.859  29.982  32.867  1.00  0.00     0.167 HD
ATOM     56  C   UNL A   1      42.163  30.365  35.354  1.00  0.00     0.074 A 
ATOM     57  C   UNL A   1      42.453  30.848  36.688  1.00  0.00     0.031 C 
ATOM     58  C   UNL A   1      42.878  29.404  34.720  1.00  0.00     0.034 A 
BRANCH  45  59
ATOM     59  C   UNL A   1      40.636  27.841  29.176  1.00  0.00     0.023 A 
ATOM     60  C   UNL A   1      39.798  26.710  29.078  1.00  0.00     0.012 A 
ATOM     61  C   UNL A   1      41.511  28.145  28.116  1.00  0.00     0.148 A 
ATOM     62  C   UNL A   1      39.858  25.875  27.963  1.00  0.00     0.002 A 
ATOM     63  C   UNL A   1      41.530  27.336  26.986  1.00  0.00     0.091 A 
ATOM     64  F   UNL A   1      42.315  29.212  28.235  1.00  0.00    -0.205 F 
ATOM     65  C   UNL A   1      40.715  26.194  26.914  1.00  0.00     0.022 A 
BRANCH  63  66
ATOM     66  S   UNL A   1      42.538  27.704  25.546  1.00  0.00     0.127 S 
ATOM     67  O   UNL A   1      41.906  28.924  25.048  1.00  0.00    -0.237 OA
ATOM     68  O   UNL A   1      43.861  27.900  26.138  1.00  0.00    -0.237 OA
ATOM     69  O   UNL A   1      42.429  26.544  24.671  1.00  0.00    -0.744 OA
ENDBRANCH  63  66
ENDBRANCH  45  59
BRANCH  46  70
ATOM     70  C   UNL A   1      39.404  33.732  37.155  1.00  0.00     0.023 A 
ATOM     71  C   UNL A   1      39.889  35.055  37.159  1.00  0.00     0.012 A 
ATOM     72  C   UNL A   1      38.723  33.247  38.288  1.00  0.00     0.148 A 
ATOM     73  C   UNL A   1      39.731  35.868  38.283  1.00  0.00     0.002 A 
ATOM     74  C   UNL A   1      38.519  34.080  39.382  1.00  0.00     0.091 A 
ATOM     75  F   UNL A   1      38.277  31.983  38.268  1.00  0.00    -0.205 F 
ATOM     76  C   UNL A   1      39.038  35.384  39.390  1.00  0.00     0.022 A 
BRANCH  74  77
ATOM     77  S   UNL A   1      37.527  33.587  40.796  1.00  0.00     0.127 S 
ATOM     78  O   UNL A   1      37.422  34.840  41.540  1.00  0.00    -0.237 OA
ATOM     79  O   UNL A   1      36.288  33.145  40.154  1.00  0.00    -0.237 OA
ATOM     80  O   UNL A   1      38.275  32.522  41.451  1.00  0.00    -0.744 OA
ENDBRANCH  74  77
ENDBRANCH  46  70
BRANCH  58  81
ATOM     81  C   UNL A   1      44.075  28.835  35.435  1.00  0.00     0.023 A 
ATOM     82  C   UNL A   1      45.347  29.406  35.243  1.00  0.00     0.012 A 
ATOM     83  C   UNL A   1      43.921  27.783  36.360  1.00  0.00     0.148 A 
ATOM     84  C   UNL A   1      46.455  28.917  35.934  1.00  0.00     0.002 A 
ATOM     85  C   UNL A   1      45.019  27.335  37.084  1.00  0.00     0.091 A 
ATOM     86  F   UNL A   1      42.704  27.241  36.517  1.00  0.00    -0.205 F 
ATOM     87  C   UNL A   1      46.289  27.891  36.863  1.00  0.00     0.022 A 
BRANCH  85  88
ATOM     88  S   UNL A   1      44.882  26.089  38.370  1.00  0.00     0.127 S 
ATOM     89  O   UNL A   1      46.274  25.939  38.790  1.00  0.00    -0.237 OA
ATOM     90  O   UNL A   1      44.018  26.749  39.350  1.00  0.00    -0.237 OA
ATOM     91  O   UNL A   1      44.292  24.918  37.736  1.00  0.00    -0.744 OA
ENDBRANCH  85  88
ENDBRANCH  58  81
ENDBRANCH  32  33
ENDBRANCH  24  27
ENDBRANCH  22  23
ENDBRANCH   1  22
TORSDOF 15
ENDMDL
