MODEL 1
REMARK VINA RESULT:     -12.3      0.000      0.000
REMARK SMILES C[C@@H]1C(=O)NC(=O)CN1C(=O)NC1(CC(=O)NCCCNC(=O)c2ccc(-c3c4nc(c(-c5cccc(S(=O)(=O)[O-])c5F)c5ccc([nH]5)c(-c5cccc(S(=O)(=O)[O-])c5F)c5nc(c(-c6cccc(S(=O)(=O)[O-])c6F)c6ccc3[nH]6)C=C5)C=C4)cc2)CCC1
REMARK SMILES IDX 19 1 18 2 17 3 15 4 16 5 14 7 13 8 87 9 89 10 88 11 12 12
REMARK SMILES IDX 10 13 11 14 9 16 1 17 2 18 3 19 4 20 5 21 8 22 6 23 7 25
REMARK SMILES IDX 20 26 21 27 22 28 23 30 24 31 25 32 86 33 26 34 85 35 27 36
REMARK SMILES IDX 28 37 29 38 79 39 30 40 84 41 78 42 80 43 31 44 83 45 77 46
REMARK SMILES IDX 76 47 32 49 64 50 44 51 63 52 45 53 48 54 62 55 81 56 46 57
REMARK SMILES IDX 47 58 61 60 82 61 49 62 33 63 34 64 42 65 35 66 37 67 43 68
REMARK SMILES IDX 36 69 38 70 39 71 40 72 41 73 65 74 66 75 74 76 67 77 69 78
REMARK SMILES IDX 75 79 68 80 70 81 71 82 72 83 73 84 50 85 51 86 59 87 52 88
REMARK SMILES IDX 54 89 60 90 53 91 55 92 56 93 57 94 58 95
REMARK H PARENT 17 6 12 15 5 24 21 29 80 48 48 59
REMARK Flexibility Score: inf
ROOT
ATOM      1  C   UNL A   1      32.978  28.981  23.965  1.00  0.00     0.042 C 
ENDROOT
BRANCH   1   2
ATOM      2  C   UNL A   1      34.054  28.018  23.469  1.00  0.00     0.117 C 
BRANCH   2   3
ATOM      3  N   UNL A   1      33.647  27.432  22.207  1.00  0.00    -0.356 N 
ATOM      4  C   UNL A   1      33.133  26.193  21.984  1.00  0.00     0.222 C 
ATOM      5  O   UNL A   1      33.191  25.715  20.851  1.00  0.00    -0.275 OA
ATOM      6  H   UNL A   1      33.758  28.002  21.411  1.00  0.00     0.163 HD
BRANCH   4   7
ATOM      7  C   UNL A   1      32.437  25.453  23.096  1.00  0.00     0.128 C 
BRANCH   7   8
ATOM      8  C   UNL A   1      33.177  24.262  23.755  1.00  0.00     0.051 C 
ATOM      9  C   UNL A   1      33.065  24.503  25.280  1.00  0.00     0.029 C 
ATOM     10  C   UNL A   1      34.716  24.372  23.874  1.00  0.00     0.029 C 
ATOM     11  C   UNL A   1      34.545  24.944  25.291  1.00  0.00     0.005 C 
BRANCH   8  12
ATOM     12  N   UNL A   1      32.668  22.989  23.202  1.00  0.00    -0.332 N 
ATOM     13  C   UNL A   1      32.741  21.653  23.316  1.00  0.00     0.318 C 
ATOM     14  O   UNL A   1      31.974  21.068  22.537  1.00  0.00    -0.249 OA
ATOM     15  H   UNL A   1      32.036  23.201  22.477  1.00  0.00     0.165 HD
BRANCH  13  16
ATOM     16  N   UNL A   1      33.523  20.934  24.165  1.00  0.00    -0.304 N 
ATOM     17  C   UNL A   1      35.872  20.868  25.055  1.00  0.00     0.042 C 
ATOM     18  C   UNL A   1      34.441  21.376  25.215  1.00  0.00     0.174 C 
ATOM     19  C   UNL A   1      33.880  20.971  26.584  1.00  0.00     0.249 C 
ATOM     20  O   UNL A   1      34.224  21.516  27.633  1.00  0.00    -0.272 OA
ATOM     21  N   UNL A   1      33.089  19.849  26.613  1.00  0.00    -0.293 N 
ATOM     22  C   UNL A   1      33.295  19.477  24.179  1.00  0.00     0.222 C 
ATOM     23  C   UNL A   1      32.781  19.033  25.549  1.00  0.00     0.246 C 
ATOM     24  H   UNL A   1      32.705  19.602  27.485  1.00  0.00     0.173 HD
ATOM     25  O   UNL A   1      32.252  17.941  25.747  1.00  0.00    -0.273 OA
ENDBRANCH  13  16
ENDBRANCH   8  12
ENDBRANCH   7   8
ENDBRANCH   4   7
ENDBRANCH   2   3
ENDBRANCH   1   2
BRANCH   1  26
ATOM     26  C   UNL A   1      33.035  29.214  25.466  1.00  0.00     0.118 C 
BRANCH  26  27
ATOM     27  N   UNL A   1      32.673  30.580  25.805  1.00  0.00    -0.352 N 
ATOM     28  C   UNL A   1      33.098  31.370  26.842  1.00  0.00     0.251 C 
ATOM     29  H   UNL A   1      32.024  31.002  25.197  1.00  0.00     0.163 HD
ATOM     30  O   UNL A   1      32.464  32.390  27.105  1.00  0.00    -0.269 OA
BRANCH  28  31
ATOM     31  C   UNL A   1      34.297  31.013  27.635  1.00  0.00     0.039 A 
ATOM     32  C   UNL A   1      35.293  31.978  27.815  1.00  0.00     0.014 A 
ATOM     33  C   UNL A   1      34.488  29.723  28.139  1.00  0.00     0.014 A 
ATOM     34  C   UNL A   1      36.464  31.652  28.504  1.00  0.00     0.010 A 
ATOM     35  C   UNL A   1      35.605  29.430  28.915  1.00  0.00     0.010 A 
ATOM     36  C   UNL A   1      36.626  30.376  29.068  1.00  0.00    -0.014 A 
BRANCH  36  37
ATOM     37  C   UNL A   1      37.884  29.997  29.762  1.00  0.00     0.031 A 
ATOM     38  C   UNL A   1      38.178  30.534  31.140  1.00  0.00     0.074 A 
ATOM     39  C   UNL A   1      38.784  29.215  29.134  1.00  0.00     0.049 A 
ATOM     40  N   UNL A   1      39.220  30.323  31.902  1.00  0.00    -0.248 NA
ATOM     41  C   UNL A   1      37.188  31.454  31.728  1.00  0.00     0.031 C 
ATOM     42  C   UNL A   1      38.657  28.707  27.767  1.00  0.00     0.029 A 
ATOM     43  N   UNL A   1      39.990  28.723  29.561  1.00  0.00    -0.354 N 
ATOM     44  C   UNL A   1      39.032  31.112  33.032  1.00  0.00     0.074 A 
ATOM     45  C   UNL A   1      37.799  31.840  32.838  1.00  0.00     0.031 C 
ATOM     46  C   UNL A   1      39.735  27.963  27.473  1.00  0.00     0.029 A 
ATOM     47  C   UNL A   1      40.635  27.954  28.621  1.00  0.00     0.049 A 
ATOM     48  H   UNL A   1      40.360  28.903  30.456  1.00  0.00     0.167 HD
ATOM     49  C   UNL A   1      39.793  31.196  34.148  1.00  0.00     0.034 A 
ATOM     50  C   UNL A   1      41.815  27.306  28.683  1.00  0.00     0.034 A 
ATOM     51  C   UNL A   1      40.984  30.420  34.365  1.00  0.00     0.049 A 
ATOM     52  C   UNL A   1      42.596  27.342  29.969  1.00  0.00     0.074 A 
ATOM     53  C   UNL A   1      41.781  30.359  35.495  1.00  0.00     0.029 A 
ATOM     54  N   UNL A   1      41.546  29.563  33.432  1.00  0.00    -0.354 N 
ATOM     55  N   UNL A   1      42.317  27.965  31.089  1.00  0.00    -0.248 NA
ATOM     56  C   UNL A   1      43.829  26.545  30.018  1.00  0.00     0.031 C 
ATOM     57  C   UNL A   1      42.832  29.471  35.239  1.00  0.00     0.029 A 
ATOM     58  C   UNL A   1      42.677  28.964  33.958  1.00  0.00     0.049 A 
ATOM     59  H   UNL A   1      41.193  29.404  32.527  1.00  0.00     0.167 HD
ATOM     60  C   UNL A   1      43.317  27.607  31.984  1.00  0.00     0.074 A 
ATOM     61  C   UNL A   1      44.194  26.690  31.284  1.00  0.00     0.031 C 
ATOM     62  C   UNL A   1      43.504  28.011  33.266  1.00  0.00     0.034 A 
BRANCH  49  63
ATOM     63  C   UNL A   1      39.320  32.108  35.252  1.00  0.00     0.023 A 
ATOM     64  C   UNL A   1      38.405  31.622  36.209  1.00  0.00     0.012 A 
ATOM     65  C   UNL A   1      39.809  33.423  35.372  1.00  0.00     0.148 A 
ATOM     66  C   UNL A   1      37.954  32.441  37.244  1.00  0.00     0.002 A 
ATOM     67  C   UNL A   1      39.391  34.218  36.433  1.00  0.00     0.091 A 
ATOM     68  F   UNL A   1      40.660  33.877  34.441  1.00  0.00    -0.205 F 
ATOM     69  C   UNL A   1      38.454  33.734  37.362  1.00  0.00     0.022 A 
BRANCH  67  70
ATOM     70  S   UNL A   1      40.037  35.870  36.720  1.00  0.00     0.127 S 
ATOM     71  O   UNL A   1      41.468  35.607  36.856  1.00  0.00    -0.237 OA
ATOM     72  O   UNL A   1      39.659  36.568  35.491  1.00  0.00    -0.237 OA
ATOM     73  O   UNL A   1      39.372  36.355  37.922  1.00  0.00    -0.744 OA
ENDBRANCH  67  70
ENDBRANCH  49  63
BRANCH  50  74
ATOM     74  C   UNL A   1      42.274  26.488  27.526  1.00  0.00     0.023 A 
ATOM     75  C   UNL A   1      43.057  27.091  26.522  1.00  0.00     0.012 A 
ATOM     76  C   UNL A   1      41.974  25.115  27.431  1.00  0.00     0.148 A 
ATOM     77  C   UNL A   1      43.503  26.351  25.426  1.00  0.00     0.002 A 
ATOM     78  C   UNL A   1      42.470  24.371  26.366  1.00  0.00     0.091 A 
ATOM     79  F   UNL A   1      41.221  24.561  28.391  1.00  0.00    -0.205 F 
ATOM     80  C   UNL A   1      43.219  24.991  25.353  1.00  0.00     0.022 A 
BRANCH  78  81
ATOM     81  S   UNL A   1      42.270  22.589  26.265  1.00  0.00     0.127 S 
ATOM     82  O   UNL A   1      42.862  22.149  27.526  1.00  0.00    -0.237 OA
ATOM     83  O   UNL A   1      40.816  22.449  26.184  1.00  0.00    -0.237 OA
ATOM     84  O   UNL A   1      42.976  22.185  25.056  1.00  0.00    -0.744 OA
ENDBRANCH  78  81
ENDBRANCH  50  74
BRANCH  62  85
ATOM     85  C   UNL A   1      44.681  27.436  34.009  1.00  0.00     0.023 A 
ATOM     86  C   UNL A   1      45.932  28.081  33.947  1.00  0.00     0.012 A 
ATOM     87  C   UNL A   1      44.533  26.290  34.815  1.00  0.00     0.148 A 
ATOM     88  C   UNL A   1      47.028  27.570  34.641  1.00  0.00     0.002 A 
ATOM     89  C   UNL A   1      45.618  25.815  35.543  1.00  0.00     0.091 A 
ATOM     90  F   UNL A   1      43.341  25.677  34.847  1.00  0.00    -0.205 F 
ATOM     91  C   UNL A   1      46.868  26.446  35.447  1.00  0.00     0.022 A 
BRANCH  89  92
ATOM     92  S   UNL A   1      45.467  24.431  36.679  1.00  0.00     0.127 S 
ATOM     93  O   UNL A   1      46.835  24.305  37.178  1.00  0.00    -0.237 OA
ATOM     94  O   UNL A   1      44.503  24.930  37.660  1.00  0.00    -0.237 OA
ATOM     95  O   UNL A   1      44.981  23.316  35.876  1.00  0.00    -0.744 OA
ENDBRANCH  89  92
ENDBRANCH  62  85
ENDBRANCH  36  37
ENDBRANCH  28  31
ENDBRANCH  26  27
ENDBRANCH   1  26
TORSDOF 16
ENDMDL
MODEL 2
REMARK VINA RESULT:     -12.3      2.635      8.110
REMARK SMILES C[C@@H]1C(=O)NC(=O)CN1C(=O)NC1(CC(=O)NCCCNC(=O)c2ccc(-c3c4nc(c(-c5cccc(S(=O)(=O)[O-])c5F)c5ccc([nH]5)c(-c5cccc(S(=O)(=O)[O-])c5F)c5nc(c(-c6cccc(S(=O)(=O)[O-])c6F)c6ccc3[nH]6)C=C5)C=C4)cc2)CCC1
REMARK SMILES IDX 19 1 18 2 17 3 15 4 16 5 14 7 13 8 87 9 89 10 88 11 12 12
REMARK SMILES IDX 10 13 11 14 9 16 1 17 2 18 3 19 4 20 5 21 8 22 6 23 7 25
REMARK SMILES IDX 20 26 21 27 22 28 23 30 24 31 25 32 86 33 26 34 85 35 27 36
REMARK SMILES IDX 28 37 29 38 79 39 30 40 84 41 78 42 80 43 31 44 83 45 77 46
REMARK SMILES IDX 76 47 32 49 64 50 44 51 63 52 45 53 48 54 62 55 81 56 46 57
REMARK SMILES IDX 47 58 61 60 82 61 49 62 33 63 34 64 42 65 35 66 37 67 43 68
REMARK SMILES IDX 36 69 38 70 39 71 40 72 41 73 65 74 66 75 74 76 67 77 69 78
REMARK SMILES IDX 75 79 68 80 70 81 71 82 72 83 73 84 50 85 51 86 59 87 52 88
REMARK SMILES IDX 54 89 60 90 53 91 55 92 56 93 57 94 58 95
REMARK H PARENT 17 6 12 15 5 24 21 29 80 48 48 59
REMARK Flexibility Score: inf
ROOT
ATOM      1  C   UNL A   1      31.425  32.041  26.484  1.00  0.00     0.042 C 
ENDROOT
BRANCH   1   2
ATOM      2  C   UNL A   1      31.666  30.654  25.894  1.00  0.00     0.117 C 
BRANCH   2   3
ATOM      3  N   UNL A   1      31.915  29.701  26.957  1.00  0.00    -0.356 N 
ATOM      4  C   UNL A   1      31.553  28.390  27.012  1.00  0.00     0.222 C 
ATOM      5  O   UNL A   1      31.503  27.829  28.105  1.00  0.00    -0.275 OA
ATOM      6  H   UNL A   1      32.407  30.044  27.738  1.00  0.00     0.163 HD
BRANCH   4   7
ATOM      7  C   UNL A   1      31.293  27.626  25.741  1.00  0.00     0.128 C 
BRANCH   7   8
ATOM      8  C   UNL A   1      32.230  26.442  25.396  1.00  0.00     0.051 C 
ATOM      9  C   UNL A   1      33.664  27.015  25.483  1.00  0.00     0.029 C 
ATOM     10  C   UNL A   1      32.464  26.146  23.896  1.00  0.00     0.029 C 
ATOM     11  C   UNL A   1      33.724  27.025  23.940  1.00  0.00     0.005 C 
BRANCH   8  12
ATOM     12  N   UNL A   1      31.886  25.272  26.233  1.00  0.00    -0.332 N 
ATOM     13  C   UNL A   1      32.085  23.952  26.384  1.00  0.00     0.318 C 
ATOM     14  O   UNL A   1      31.517  23.498  27.387  1.00  0.00    -0.249 OA
ATOM     15  H   UNL A   1      31.282  25.574  26.949  1.00  0.00     0.165 HD
BRANCH  13  16
ATOM     16  N   UNL A   1      32.820  23.128  25.590  1.00  0.00    -0.304 N 
ATOM     17  C   UNL A   1      34.715  23.202  23.941  1.00  0.00     0.042 C 
ATOM     18  C   UNL A   1      34.268  23.042  25.392  1.00  0.00     0.174 C 
ATOM     19  C   UNL A   1      34.781  21.715  25.966  1.00  0.00     0.249 C 
ATOM     20  O   UNL A   1      35.958  21.535  26.276  1.00  0.00    -0.272 OA
ATOM     21  N   UNL A   1      33.895  20.666  25.967  1.00  0.00    -0.293 N 
ATOM     22  C   UNL A   1      32.088  22.015  24.958  1.00  0.00     0.222 C 
ATOM     23  C   UNL A   1      32.611  20.674  25.474  1.00  0.00     0.246 C 
ATOM     24  H   UNL A   1      34.212  19.820  26.360  1.00  0.00     0.173 HD
ATOM     25  O   UNL A   1      32.003  19.615  25.330  1.00  0.00    -0.273 OA
ENDBRANCH  13  16
ENDBRANCH   8  12
ENDBRANCH   7   8
ENDBRANCH   4   7
ENDBRANCH   2   3
ENDBRANCH   1   2
BRANCH   1  26
ATOM     26  C   UNL A   1      32.526  32.482  27.435  1.00  0.00     0.118 C 
BRANCH  26  27
ATOM     27  N   UNL A   1      32.501  33.919  27.646  1.00  0.00    -0.352 N 
ATOM     28  C   UNL A   1      33.134  34.680  28.594  1.00  0.00     0.251 C 
ATOM     29  H   UNL A   1      31.943  34.424  27.011  1.00  0.00     0.163 HD
ATOM     30  O   UNL A   1      32.763  35.838  28.767  1.00  0.00    -0.269 OA
BRANCH  28  31
ATOM     31  C   UNL A   1      34.250  34.128  29.398  1.00  0.00     0.039 A 
ATOM     32  C   UNL A   1      35.561  34.375  28.983  1.00  0.00     0.014 A 
ATOM     33  C   UNL A   1      34.021  33.311  30.509  1.00  0.00     0.014 A 
ATOM     34  C   UNL A   1      36.633  33.816  29.683  1.00  0.00     0.010 A 
ATOM     35  C   UNL A   1      35.088  32.843  31.269  1.00  0.00     0.010 A 
ATOM     36  C   UNL A   1      36.406  33.051  30.839  1.00  0.00    -0.014 A 
BRANCH  36  37
ATOM     37  C   UNL A   1      37.529  32.409  31.569  1.00  0.00     0.031 A 
ATOM     38  C   UNL A   1      38.305  31.287  30.927  1.00  0.00     0.074 A 
ATOM     39  C   UNL A   1      37.817  32.798  32.826  1.00  0.00     0.049 A 
ATOM     40  N   UNL A   1      39.309  30.600  31.406  1.00  0.00    -0.248 NA
ATOM     41  C   UNL A   1      37.875  30.856  29.584  1.00  0.00     0.031 C 
ATOM     42  C   UNL A   1      37.083  33.809  33.590  1.00  0.00     0.029 A 
ATOM     43  N   UNL A   1      38.797  32.377  33.688  1.00  0.00    -0.354 N 
ATOM     44  C   UNL A   1      39.603  29.635  30.447  1.00  0.00     0.074 A 
ATOM     45  C   UNL A   1      38.643  29.796  29.379  1.00  0.00     0.031 C 
ATOM     46  C   UNL A   1      37.648  33.941  34.801  1.00  0.00     0.029 A 
ATOM     47  C   UNL A   1      38.771  33.015  34.906  1.00  0.00     0.049 A 
ATOM     48  H   UNL A   1      39.457  31.685  33.457  1.00  0.00     0.167 HD
ATOM     49  C   UNL A   1      40.604  28.724  30.434  1.00  0.00     0.034 A 
ATOM     50  C   UNL A   1      39.570  32.875  35.983  1.00  0.00     0.034 A 
ATOM     51  C   UNL A   1      41.597  28.612  31.468  1.00  0.00     0.049 A 
ATOM     52  C   UNL A   1      40.730  31.920  35.906  1.00  0.00     0.074 A 
ATOM     53  C   UNL A   1      42.706  27.786  31.513  1.00  0.00     0.029 A 
ATOM     54  N   UNL A   1      41.604  29.356  32.638  1.00  0.00    -0.354 N 
ATOM     55  N   UNL A   1      41.089  31.132  34.921  1.00  0.00    -0.248 NA
ATOM     56  C   UNL A   1      41.626  31.872  37.070  1.00  0.00     0.031 C 
ATOM     57  C   UNL A   1      43.378  28.025  32.717  1.00  0.00     0.029 A 
ATOM     58  C   UNL A   1      42.699  29.013  33.411  1.00  0.00     0.049 A 
ATOM     59  H   UNL A   1      40.928  30.029  32.882  1.00  0.00     0.167 HD
ATOM     60  C   UNL A   1      42.269  30.523  35.330  1.00  0.00     0.074 A 
ATOM     61  C   UNL A   1      42.579  31.054  36.642  1.00  0.00     0.031 C 
ATOM     62  C   UNL A   1      43.021  29.595  34.687  1.00  0.00     0.034 A 
BRANCH  49  63
ATOM     63  C   UNL A   1      40.716  27.823  29.230  1.00  0.00     0.023 A 
ATOM     64  C   UNL A   1      39.913  26.666  29.153  1.00  0.00     0.012 A 
ATOM     65  C   UNL A   1      41.575  28.139  28.160  1.00  0.00     0.148 A 
ATOM     66  C   UNL A   1      39.991  25.818  28.048  1.00  0.00     0.002 A 
ATOM     67  C   UNL A   1      41.613  27.313  27.042  1.00  0.00     0.091 A 
ATOM     68  F   UNL A   1      42.348  29.230  28.260  1.00  0.00    -0.205 F 
ATOM     69  C   UNL A   1      40.832  26.146  26.990  1.00  0.00     0.022 A 
BRANCH  67  70
ATOM     70  S   UNL A   1      42.603  27.691  25.590  1.00  0.00     0.127 S 
ATOM     71  O   UNL A   1      43.951  27.729  26.155  1.00  0.00    -0.237 OA
ATOM     72  O   UNL A   1      42.336  26.541  24.726  1.00  0.00    -0.237 OA
ATOM     73  O   UNL A   1      42.100  28.960  25.084  1.00  0.00    -0.744 OA
ENDBRANCH  67  70
ENDBRANCH  49  63
BRANCH  50  74
ATOM     74  C   UNL A   1      39.358  33.735  37.180  1.00  0.00     0.023 A 
ATOM     75  C   UNL A   1      39.780  35.079  37.149  1.00  0.00     0.012 A 
ATOM     76  C   UNL A   1      38.711  33.246  38.332  1.00  0.00     0.148 A 
ATOM     77  C   UNL A   1      39.594  35.910  38.254  1.00  0.00     0.002 A 
ATOM     78  C   UNL A   1      38.479  34.095  39.408  1.00  0.00     0.091 A 
ATOM     79  F   UNL A   1      38.325  31.962  38.347  1.00  0.00    -0.205 F 
ATOM     80  C   UNL A   1      38.935  35.422  39.378  1.00  0.00     0.022 A 
BRANCH  78  81
ATOM     81  S   UNL A   1      37.516  33.590  40.838  1.00  0.00     0.127 S 
ATOM     82  O   UNL A   1      38.414  32.637  41.483  1.00  0.00    -0.237 OA
ATOM     83  O   UNL A   1      37.343  34.855  41.552  1.00  0.00    -0.237 OA
ATOM     84  O   UNL A   1      36.279  33.036  40.301  1.00  0.00    -0.744 OA
ENDBRANCH  78  81
ENDBRANCH  50  74
BRANCH  62  85
ATOM     85  C   UNL A   1      44.275  29.122  35.375  1.00  0.00     0.023 A 
ATOM     86  C   UNL A   1      45.506  29.748  35.095  1.00  0.00     0.012 A 
ATOM     87  C   UNL A   1      44.224  28.096  36.339  1.00  0.00     0.148 A 
ATOM     88  C   UNL A   1      46.674  29.332  35.733  1.00  0.00     0.002 A 
ATOM     89  C   UNL A   1      45.384  27.720  37.006  1.00  0.00     0.091 A 
ATOM     90  F   UNL A   1      43.048  27.497  36.577  1.00  0.00    -0.205 F 
ATOM     91  C   UNL A   1      46.611  28.328  36.696  1.00  0.00     0.022 A 
BRANCH  89  92
ATOM     92  S   UNL A   1      45.367  26.503  38.328  1.00  0.00     0.127 S 
ATOM     93  O   UNL A   1      44.081  26.775  38.967  1.00  0.00    -0.237 OA
ATOM     94  O   UNL A   1      45.428  25.239  37.594  1.00  0.00    -0.237 OA
ATOM     95  O   UNL A   1      46.547  26.784  39.136  1.00  0.00    -0.744 OA
ENDBRANCH  89  92
ENDBRANCH  62  85
ENDBRANCH  36  37
ENDBRANCH  28  31
ENDBRANCH  26  27
ENDBRANCH   1  26
TORSDOF 16
ENDMDL
MODEL 3
REMARK VINA RESULT:     -12.3      1.575      2.136
REMARK SMILES C[C@@H]1C(=O)NC(=O)CN1C(=O)NC1(CC(=O)NCCCNC(=O)c2ccc(-c3c4nc(c(-c5cccc(S(=O)(=O)[O-])c5F)c5ccc([nH]5)c(-c5cccc(S(=O)(=O)[O-])c5F)c5nc(c(-c6cccc(S(=O)(=O)[O-])c6F)c6ccc3[nH]6)C=C5)C=C4)cc2)CCC1
REMARK SMILES IDX 19 1 18 2 17 3 15 4 16 5 14 7 13 8 87 9 89 10 88 11 12 12
REMARK SMILES IDX 10 13 11 14 9 16 1 17 2 18 3 19 4 20 5 21 8 22 6 23 7 25
REMARK SMILES IDX 20 26 21 27 22 28 23 30 24 31 25 32 86 33 26 34 85 35 27 36
REMARK SMILES IDX 28 37 29 38 79 39 30 40 84 41 78 42 80 43 31 44 83 45 77 46
REMARK SMILES IDX 76 47 32 49 64 50 44 51 63 52 45 53 48 54 62 55 81 56 46 57
REMARK SMILES IDX 47 58 61 60 82 61 49 62 33 63 34 64 42 65 35 66 37 67 43 68
REMARK SMILES IDX 36 69 38 70 39 71 40 72 41 73 65 74 66 75 74 76 67 77 69 78
REMARK SMILES IDX 75 79 68 80 70 81 71 82 72 83 73 84 50 85 51 86 59 87 52 88
REMARK SMILES IDX 54 89 60 90 53 91 55 92 56 93 57 94 58 95
REMARK H PARENT 17 6 12 15 5 24 21 29 80 48 48 59
REMARK Flexibility Score: inf
ROOT
ATOM      1  C   UNL A   1      33.481  28.707  24.133  1.00  0.00     0.042 C 
ENDROOT
BRANCH   1   2
ATOM      2  C   UNL A   1      32.323  28.681  23.139  1.00  0.00     0.117 C 
BRANCH   2   3
ATOM      3  N   UNL A   1      32.686  27.892  21.979  1.00  0.00    -0.356 N 
ATOM      4  C   UNL A   1      32.598  26.544  21.820  1.00  0.00     0.222 C 
ATOM      5  O   UNL A   1      33.277  25.998  20.950  1.00  0.00    -0.275 OA
ATOM      6  H   UNL A   1      33.040  28.394  21.209  1.00  0.00     0.163 HD
BRANCH   4   7
ATOM      7  C   UNL A   1      31.626  25.748  22.650  1.00  0.00     0.128 C 
BRANCH   7   8
ATOM      8  C   UNL A   1      32.199  24.755  23.693  1.00  0.00     0.051 C 
ATOM      9  C   UNL A   1      31.042  23.775  24.003  1.00  0.00     0.029 C 
ATOM     10  C   UNL A   1      32.184  25.206  25.173  1.00  0.00     0.029 C 
ATOM     11  C   UNL A   1      30.834  24.492  25.355  1.00  0.00     0.005 C 
BRANCH   8  12
ATOM     12  N   UNL A   1      33.480  24.203  23.205  1.00  0.00    -0.332 N 
ATOM     13  C   UNL A   1      34.452  23.316  23.479  1.00  0.00     0.318 C 
ATOM     14  O   UNL A   1      35.317  23.271  22.593  1.00  0.00    -0.249 OA
ATOM     15  H   UNL A   1      33.708  24.656  22.362  1.00  0.00     0.165 HD
BRANCH  13  16
ATOM     16  N   UNL A   1      34.554  22.507  24.567  1.00  0.00    -0.304 N 
ATOM     17  C   UNL A   1      33.166  21.625  26.467  1.00  0.00     0.042 C 
ATOM     18  C   UNL A   1      33.675  21.436  25.040  1.00  0.00     0.174 C 
ATOM     19  C   UNL A   1      34.397  20.089  24.904  1.00  0.00     0.249 C 
ATOM     20  O   UNL A   1      33.800  19.014  24.866  1.00  0.00    -0.272 OA
ATOM     21  N   UNL A   1      35.767  20.118  24.993  1.00  0.00    -0.293 N 
ATOM     22  C   UNL A   1      35.830  22.569  25.304  1.00  0.00     0.222 C 
ATOM     23  C   UNL A   1      36.552  21.223  25.228  1.00  0.00     0.246 C 
ATOM     24  H   UNL A   1      36.236  19.260  24.879  1.00  0.00     0.173 HD
ATOM     25  O   UNL A   1      37.741  21.082  25.508  1.00  0.00    -0.273 OA
ENDBRANCH  13  16
ENDBRANCH   8  12
ENDBRANCH   7   8
ENDBRANCH   4   7
ENDBRANCH   2   3
ENDBRANCH   1   2
BRANCH   1  26
ATOM     26  C   UNL A   1      33.026  28.881  25.573  1.00  0.00     0.118 C 
BRANCH  26  27
ATOM     27  N   UNL A   1      32.676  30.262  25.855  1.00  0.00    -0.352 N 
ATOM     28  C   UNL A   1      33.124  31.098  26.846  1.00  0.00     0.251 C 
ATOM     29  H   UNL A   1      32.016  30.659  25.242  1.00  0.00     0.163 HD
ATOM     30  O   UNL A   1      32.500  32.132  27.074  1.00  0.00    -0.269 OA
BRANCH  28  31
ATOM     31  C   UNL A   1      34.339  30.774  27.630  1.00  0.00     0.039 A 
ATOM     32  C   UNL A   1      35.367  31.719  27.695  1.00  0.00     0.014 A 
ATOM     33  C   UNL A   1      34.510  29.526  28.238  1.00  0.00     0.014 A 
ATOM     34  C   UNL A   1      36.550  31.418  28.373  1.00  0.00     0.010 A 
ATOM     35  C   UNL A   1      35.642  29.267  29.003  1.00  0.00     0.010 A 
ATOM     36  C   UNL A   1      36.695  30.191  29.041  1.00  0.00    -0.014 A 
BRANCH  36  37
ATOM     37  C   UNL A   1      37.963  29.834  29.726  1.00  0.00     0.031 A 
ATOM     38  C   UNL A   1      38.261  30.382  31.099  1.00  0.00     0.074 A 
ATOM     39  C   UNL A   1      38.869  29.062  29.096  1.00  0.00     0.049 A 
ATOM     40  N   UNL A   1      39.313  30.191  31.853  1.00  0.00    -0.248 NA
ATOM     41  C   UNL A   1      37.263  31.292  31.690  1.00  0.00     0.031 C 
ATOM     42  C   UNL A   1      38.739  28.544  27.732  1.00  0.00     0.029 A 
ATOM     43  N   UNL A   1      40.086  28.589  29.515  1.00  0.00    -0.354 N 
ATOM     44  C   UNL A   1      39.123  30.984  32.980  1.00  0.00     0.074 A 
ATOM     45  C   UNL A   1      37.877  31.693  32.793  1.00  0.00     0.031 C 
ATOM     46  C   UNL A   1      39.825  27.814  27.434  1.00  0.00     0.029 A 
ATOM     47  C   UNL A   1      40.735  27.824  28.574  1.00  0.00     0.049 A 
ATOM     48  H   UNL A   1      40.461  28.780  30.406  1.00  0.00     0.167 HD
ATOM     49  C   UNL A   1      39.891  31.085  34.090  1.00  0.00     0.034 A 
ATOM     50  C   UNL A   1      41.925  27.194  28.630  1.00  0.00     0.034 A 
ATOM     51  C   UNL A   1      41.095  30.327  34.301  1.00  0.00     0.049 A 
ATOM     52  C   UNL A   1      42.716  27.249  29.909  1.00  0.00     0.074 A 
ATOM     53  C   UNL A   1      41.902  30.285  35.425  1.00  0.00     0.029 A 
ATOM     54  N   UNL A   1      41.662  29.473  33.368  1.00  0.00    -0.354 N 
ATOM     55  N   UNL A   1      42.437  27.874  31.028  1.00  0.00    -0.248 NA
ATOM     56  C   UNL A   1      43.961  26.470  29.952  1.00  0.00     0.031 C 
ATOM     57  C   UNL A   1      42.963  29.410  35.165  1.00  0.00     0.029 A 
ATOM     58  C   UNL A   1      42.806  28.894  33.889  1.00  0.00     0.049 A 
ATOM     59  H   UNL A   1      41.304  29.304  32.467  1.00  0.00     0.167 HD
ATOM     60  C   UNL A   1      43.449  27.535  31.917  1.00  0.00     0.074 A 
ATOM     61  C   UNL A   1      44.334  26.628  31.215  1.00  0.00     0.031 C 
ATOM     62  C   UNL A   1      43.641  27.949  33.195  1.00  0.00     0.034 A 
BRANCH  49  63
ATOM     63  C   UNL A   1      39.414  31.996  35.193  1.00  0.00     0.023 A 
ATOM     64  C   UNL A   1      39.622  33.387  35.082  1.00  0.00     0.012 A 
ATOM     65  C   UNL A   1      38.723  31.489  36.311  1.00  0.00     0.148 A 
ATOM     66  C   UNL A   1      39.186  34.254  36.083  1.00  0.00     0.002 A 
ATOM     67  C   UNL A   1      38.251  32.365  37.282  1.00  0.00     0.091 A 
ATOM     68  F   UNL A   1      38.555  30.163  36.412  1.00  0.00    -0.205 F 
ATOM     69  C   UNL A   1      38.493  33.745  37.176  1.00  0.00     0.022 A 
BRANCH  67  70
ATOM     70  S   UNL A   1      37.276  31.818  38.689  1.00  0.00     0.127 S 
ATOM     71  O   UNL A   1      36.964  30.441  38.313  1.00  0.00    -0.237 OA
ATOM     72  O   UNL A   1      38.226  31.949  39.794  1.00  0.00    -0.237 OA
ATOM     73  O   UNL A   1      36.136  32.722  38.759  1.00  0.00    -0.744 OA
ENDBRANCH  67  70
ENDBRANCH  49  63
BRANCH  50  74
ATOM     74  C   UNL A   1      42.386  26.376  27.474  1.00  0.00     0.023 A 
ATOM     75  C   UNL A   1      43.181  26.977  26.478  1.00  0.00     0.012 A 
ATOM     76  C   UNL A   1      42.076  25.006  27.372  1.00  0.00     0.148 A 
ATOM     77  C   UNL A   1      43.630  26.237  25.383  1.00  0.00     0.002 A 
ATOM     78  C   UNL A   1      42.574  24.262  26.308  1.00  0.00     0.091 A 
ATOM     79  F   UNL A   1      41.311  24.455  28.324  1.00  0.00    -0.205 F 
ATOM     80  C   UNL A   1      43.336  24.879  25.303  1.00  0.00     0.022 A 
BRANCH  78  81
ATOM     81  S   UNL A   1      42.361  22.482  26.200  1.00  0.00     0.127 S 
ATOM     82  O   UNL A   1      40.922  22.364  25.989  1.00  0.00    -0.237 OA
ATOM     83  O   UNL A   1      43.185  22.146  25.038  1.00  0.00    -0.237 OA
ATOM     84  O   UNL A   1      42.866  21.951  27.460  1.00  0.00    -0.744 OA
ENDBRANCH  78  81
ENDBRANCH  50  74
BRANCH  62  85
ATOM     85  C   UNL A   1      44.832  27.396  33.932  1.00  0.00     0.023 A 
ATOM     86  C   UNL A   1      46.065  28.076  33.881  1.00  0.00     0.012 A 
ATOM     87  C   UNL A   1      44.714  26.235  34.720  1.00  0.00     0.148 A 
ATOM     88  C   UNL A   1      47.174  27.585  34.569  1.00  0.00     0.002 A 
ATOM     89  C   UNL A   1      45.811  25.778  35.443  1.00  0.00     0.091 A 
ATOM     90  F   UNL A   1      43.539  25.588  34.741  1.00  0.00    -0.205 F 
ATOM     91  C   UNL A   1      47.044  26.445  35.358  1.00  0.00     0.022 A 
BRANCH  89  92
ATOM     92  S   UNL A   1      45.697  24.374  36.558  1.00  0.00     0.127 S 
ATOM     93  O   UNL A   1      45.414  23.280  35.631  1.00  0.00    -0.237 OA
ATOM     94  O   UNL A   1      47.031  24.337  37.157  1.00  0.00    -0.237 OA
ATOM     95  O   UNL A   1      44.629  24.702  37.494  1.00  0.00    -0.744 OA
ENDBRANCH  89  92
ENDBRANCH  62  85
ENDBRANCH  36  37
ENDBRANCH  28  31
ENDBRANCH  26  27
ENDBRANCH   1  26
TORSDOF 16
ENDMDL
