MODEL 1
REMARK VINA RESULT:     -10.9      0.000      0.000
REMARK SMILES [NH3+][C@]1(C(=O)NCCCNC(=O)c2ccc(-c3c4nc(c(-c5cccc(S(=O)(=O)[O-])c5F)c5ccc([nH]5)c(-c5cccc(S(=O)(=O)[O-])c5F)c5nc(c(-c6cccc(S(=O)(=O)[O-])c6F)c6ccc3[nH]6)C=C5)C=C4)cc2)CCC[C@@H](OC2CCC2)C1
REMARK SMILES IDX 7 1 6 2 5 3 3 4 4 5 2 7 75 8 84 9 76 10 78 11 77 12 1 13
REMARK SMILES IDX 79 17 80 18 81 19 83 20 82 21 8 22 9 23 10 24 11 26 12 27
REMARK SMILES IDX 13 28 74 29 14 30 73 31 15 32 16 33 17 34 67 35 18 36 72 37
REMARK SMILES IDX 66 38 68 39 19 40 71 41 65 42 64 43 20 45 52 46 32 47 51 48
REMARK SMILES IDX 33 49 36 50 50 51 69 52 34 53 35 54 49 56 70 57 37 58 21 59
REMARK SMILES IDX 22 60 30 61 23 62 25 63 31 64 24 65 26 66 27 67 28 68 29 69
REMARK SMILES IDX 53 70 54 71 62 72 55 73 57 74 63 75 56 76 58 77 59 78 60 79
REMARK SMILES IDX 61 80 38 81 39 82 47 83 40 84 42 85 48 86 41 87 43 88 44 89
REMARK SMILES IDX 45 90 46 91
REMARK H PARENT 5 6 1 14 1 15 1 16 9 25 68 44 36 55
REMARK Flexibility Score: inf
ROOT
ATOM      1  C   UNL A   1      33.649  27.441  26.194  1.00  0.00     0.042 C 
ENDROOT
BRANCH   1   2
ATOM      2  C   UNL A   1      32.823  26.551  25.264  1.00  0.00     0.118 C 
BRANCH   2   3
ATOM      3  N   UNL A   1      33.556  25.986  24.148  1.00  0.00    -0.351 N 
ATOM      4  C   UNL A   1      33.343  24.938  23.304  1.00  0.00     0.281 C 
ATOM      5  O   UNL A   1      34.057  24.969  22.290  1.00  0.00    -0.268 OA
ATOM      6  H   UNL A   1      34.394  26.467  23.958  1.00  0.00     0.163 HD
BRANCH   4   7
ATOM      7  C   UNL A   1      32.204  23.848  23.479  1.00  0.00     0.176 C 
ATOM      8  C   UNL A   1      32.619  22.567  22.692  1.00  0.00     0.079 C 
ATOM      9  C   UNL A   1      31.792  23.514  24.922  1.00  0.00     0.111 C 
ATOM     10  C   UNL A   1      32.421  21.200  23.350  1.00  0.00     0.010 C 
ATOM     11  C   UNL A   1      32.622  22.431  25.615  1.00  0.00     0.125 C 
ATOM     12  C   UNL A   1      32.553  21.109  24.870  1.00  0.00     0.032 C 
BRANCH   7  13
ATOM     13  N   UNL A   1      31.010  24.421  22.786  1.00  0.00    -0.345 N 
ATOM     14  H   UNL A   1      31.310  25.150  22.140  1.00  0.00     0.345 HD
ATOM     15  H   UNL A   1      30.375  24.819  23.479  1.00  0.00     0.345 HD
ATOM     16  H   UNL A   1      30.531  23.684  22.269  1.00  0.00     0.345 HD
ENDBRANCH   7  13
BRANCH  11  17
ATOM     17  O   UNL A   1      33.845  23.023  25.995  1.00  0.00    -0.375 OA
BRANCH  17  18
ATOM     18  C   UNL A   1      35.200  22.599  25.786  1.00  0.00     0.118 C 
ATOM     19  C   UNL A   1      35.786  22.112  24.454  1.00  0.00     0.032 C 
ATOM     20  C   UNL A   1      36.123  23.839  25.693  1.00  0.00     0.032 C 
ATOM     21  C   UNL A   1      36.582  23.407  24.306  1.00  0.00     0.005 C 
ENDBRANCH  17  18
ENDBRANCH  11  17
ENDBRANCH   4   7
ENDBRANCH   2   3
ENDBRANCH   1   2
BRANCH   1  22
ATOM     22  C   UNL A   1      34.158  28.755  25.611  1.00  0.00     0.118 C 
BRANCH  22  23
ATOM     23  N   UNL A   1      33.809  29.923  26.402  1.00  0.00    -0.352 N 
ATOM     24  C   UNL A   1      34.419  30.514  27.482  1.00  0.00     0.251 C 
ATOM     25  H   UNL A   1      32.984  30.374  26.112  1.00  0.00     0.163 HD
ATOM     26  O   UNL A   1      33.826  31.422  28.063  1.00  0.00    -0.269 OA
BRANCH  24  27
ATOM     27  C   UNL A   1      35.746  30.079  27.980  1.00  0.00     0.039 A 
ATOM     28  C   UNL A   1      35.829  29.572  29.283  1.00  0.00     0.014 A 
ATOM     29  C   UNL A   1      36.916  30.227  27.231  1.00  0.00     0.014 A 
ATOM     30  C   UNL A   1      37.060  29.160  29.806  1.00  0.00     0.010 A 
ATOM     31  C   UNL A   1      38.132  29.745  27.725  1.00  0.00     0.010 A 
ATOM     32  C   UNL A   1      38.222  29.210  29.020  1.00  0.00    -0.014 A 
BRANCH  32  33
ATOM     33  C   UNL A   1      39.525  28.700  29.531  1.00  0.00     0.031 A 
ATOM     34  C   UNL A   1      40.259  29.427  30.629  1.00  0.00     0.074 A 
ATOM     35  C   UNL A   1      40.091  27.619  28.955  1.00  0.00     0.049 A 
ATOM     36  N   UNL A   1      41.434  29.172  31.146  1.00  0.00    -0.248 NA
ATOM     37  C   UNL A   1      39.594  30.605  31.210  1.00  0.00     0.031 C 
ATOM     38  C   UNL A   1      39.521  26.860  27.841  1.00  0.00     0.029 A 
ATOM     39  N   UNL A   1      41.289  26.991  29.203  1.00  0.00    -0.354 N 
ATOM     40  C   UNL A   1      41.666  30.173  32.083  1.00  0.00     0.074 A 
ATOM     41  C   UNL A   1      40.521  31.057  32.043  1.00  0.00     0.031 C 
ATOM     42  C   UNL A   1      40.367  25.874  27.498  1.00  0.00     0.029 A 
ATOM     43  C   UNL A   1      41.557  25.953  28.340  1.00  0.00     0.049 A 
ATOM     44  H   UNL A   1      41.897  27.259  29.930  1.00  0.00     0.167 HD
ATOM     45  C   UNL A   1      42.720  30.331  32.920  1.00  0.00     0.034 A 
ATOM     46  C   UNL A   1      42.644  25.164  28.223  1.00  0.00     0.034 A 
ATOM     47  C   UNL A   1      43.844  29.434  32.984  1.00  0.00     0.049 A 
ATOM     48  C   UNL A   1      43.793  25.349  29.177  1.00  0.00     0.074 A 
ATOM     49  C   UNL A   1      44.926  29.471  33.847  1.00  0.00     0.029 A 
ATOM     50  N   UNL A   1      44.039  28.345  32.149  1.00  0.00    -0.354 N 
ATOM     51  N   UNL A   1      43.927  26.217  30.150  1.00  0.00    -0.248 NA
ATOM     52  C   UNL A   1      44.928  24.422  29.043  1.00  0.00     0.031 C 
ATOM     53  C   UNL A   1      45.788  28.423  33.515  1.00  0.00     0.029 A 
ATOM     54  C   UNL A   1      45.226  27.708  32.471  1.00  0.00     0.049 A 
ATOM     55  H   UNL A   1      43.424  28.066  31.433  1.00  0.00     0.167 HD
ATOM     56  C   UNL A   1      45.135  25.914  30.768  1.00  0.00     0.074 A 
ATOM     57  C   UNL A   1      45.687  24.771  30.071  1.00  0.00     0.031 C 
ATOM     58  C   UNL A   1      45.738  26.535  31.811  1.00  0.00     0.034 A 
BRANCH  45  59
ATOM     59  C   UNL A   1      42.692  31.497  33.877  1.00  0.00     0.023 A 
ATOM     60  C   UNL A   1      43.230  32.738  33.477  1.00  0.00     0.012 A 
ATOM     61  C   UNL A   1      42.070  31.389  35.136  1.00  0.00     0.148 A 
ATOM     62  C   UNL A   1      43.181  33.841  34.328  1.00  0.00     0.002 A 
ATOM     63  C   UNL A   1      41.984  32.506  35.960  1.00  0.00     0.091 A 
ATOM     64  F   UNL A   1      41.576  30.199  35.505  1.00  0.00    -0.205 F 
ATOM     65  C   UNL A   1      42.550  33.728  35.563  1.00  0.00     0.022 A 
BRANCH  63  66
ATOM     66  S   UNL A   1      41.119  32.488  37.535  1.00  0.00     0.127 S 
ATOM     67  O   UNL A   1      39.841  31.879  37.162  1.00  0.00    -0.237 OA
ATOM     68  O   UNL A   1      41.984  31.634  38.349  1.00  0.00    -0.237 OA
ATOM     69  O   UNL A   1      41.044  33.873  37.970  1.00  0.00    -0.744 OA
ENDBRANCH  63  66
ENDBRANCH  45  59
BRANCH  46  70
ATOM     70  C   UNL A   1      42.684  24.097  27.182  1.00  0.00     0.023 A 
ATOM     71  C   UNL A   1      43.370  24.328  25.974  1.00  0.00     0.012 A 
ATOM     72  C   UNL A   1      42.054  22.854  27.386  1.00  0.00     0.148 A 
ATOM     73  C   UNL A   1      43.393  23.357  24.972  1.00  0.00     0.002 A 
ATOM     74  C   UNL A   1      42.132  21.869  26.408  1.00  0.00     0.091 A 
ATOM     75  F   UNL A   1      41.397  22.656  28.537  1.00  0.00    -0.205 F 
ATOM     76  C   UNL A   1      42.781  22.125  25.192  1.00  0.00     0.022 A 
BRANCH  74  77
ATOM     77  S   UNL A   1      41.490  20.211  26.666  1.00  0.00     0.127 S 
ATOM     78  O   UNL A   1      40.053  20.463  26.789  1.00  0.00    -0.237 OA
ATOM     79  O   UNL A   1      41.891  19.539  25.426  1.00  0.00    -0.237 OA
ATOM     80  O   UNL A   1      42.149  19.711  27.858  1.00  0.00    -0.744 OA
ENDBRANCH  74  77
ENDBRANCH  46  70
BRANCH  58  81
ATOM     81  C   UNL A   1      47.041  25.965  32.311  1.00  0.00     0.023 A 
ATOM     82  C   UNL A   1      47.057  25.109  33.430  1.00  0.00     0.012 A 
ATOM     83  C   UNL A   1      48.242  26.219  31.619  1.00  0.00     0.148 A 
ATOM     84  C   UNL A   1      48.253  24.543  33.872  1.00  0.00     0.002 A 
ATOM     85  C   UNL A   1      49.420  25.610  32.034  1.00  0.00     0.091 A 
ATOM     86  F   UNL A   1      48.210  27.050  30.567  1.00  0.00    -0.205 F 
ATOM     87  C   UNL A   1      49.430  24.783  33.168  1.00  0.00     0.022 A 
BRANCH  85  88
ATOM     88  S   UNL A   1      50.964  25.781  31.131  1.00  0.00     0.127 S 
ATOM     89  O   UNL A   1      50.580  25.326  29.795  1.00  0.00    -0.237 OA
ATOM     90  O   UNL A   1      51.226  27.216  31.236  1.00  0.00    -0.237 OA
ATOM     91  O   UNL A   1      51.930  24.937  31.822  1.00  0.00    -0.744 OA
ENDBRANCH  85  88
ENDBRANCH  58  81
ENDBRANCH  32  33
ENDBRANCH  24  27
ENDBRANCH  22  23
ENDBRANCH   1  22
TORSDOF 16
ENDMDL
MODEL 2
REMARK VINA RESULT:     -10.9      3.373      4.542
REMARK SMILES [NH3+][C@]1(C(=O)NCCCNC(=O)c2ccc(-c3c4nc(c(-c5cccc(S(=O)(=O)[O-])c5F)c5ccc([nH]5)c(-c5cccc(S(=O)(=O)[O-])c5F)c5nc(c(-c6cccc(S(=O)(=O)[O-])c6F)c6ccc3[nH]6)C=C5)C=C4)cc2)CCC[C@@H](OC2CCC2)C1
REMARK SMILES IDX 7 1 6 2 5 3 3 4 4 5 2 7 75 8 84 9 76 10 78 11 77 12 1 13
REMARK SMILES IDX 79 17 80 18 81 19 83 20 82 21 8 22 9 23 10 24 11 26 12 27
REMARK SMILES IDX 13 28 74 29 14 30 73 31 15 32 16 33 17 34 67 35 18 36 72 37
REMARK SMILES IDX 66 38 68 39 19 40 71 41 65 42 64 43 20 45 52 46 32 47 51 48
REMARK SMILES IDX 33 49 36 50 50 51 69 52 34 53 35 54 49 56 70 57 37 58 21 59
REMARK SMILES IDX 22 60 30 61 23 62 25 63 31 64 24 65 26 66 27 67 28 68 29 69
REMARK SMILES IDX 53 70 54 71 62 72 55 73 57 74 63 75 56 76 58 77 59 78 60 79
REMARK SMILES IDX 61 80 38 81 39 82 47 83 40 84 42 85 48 86 41 87 43 88 44 89
REMARK SMILES IDX 45 90 46 91
REMARK H PARENT 5 6 1 14 1 15 1 16 9 25 68 44 36 55
REMARK Flexibility Score: inf
ROOT
ATOM      1  C   UNL A   1      31.655  31.270  26.113  1.00  0.00     0.042 C 
ENDROOT
BRANCH   1   2
ATOM      2  C   UNL A   1      31.747  29.859  25.533  1.00  0.00     0.118 C 
BRANCH   2   3
ATOM      3  N   UNL A   1      32.938  29.596  24.749  1.00  0.00    -0.351 N 
ATOM      4  C   UNL A   1      33.296  28.628  23.860  1.00  0.00     0.281 C 
ATOM      5  O   UNL A   1      34.289  28.927  23.178  1.00  0.00    -0.268 OA
ATOM      6  H   UNL A   1      33.645  30.266  24.891  1.00  0.00     0.163 HD
BRANCH   4   7
ATOM      7  C   UNL A   1      32.471  27.303  23.578  1.00  0.00     0.176 C 
ATOM      8  C   UNL A   1      31.670  26.934  24.865  1.00  0.00     0.079 C 
ATOM      9  C   UNL A   1      31.566  27.312  22.335  1.00  0.00     0.111 C 
ATOM     10  C   UNL A   1      30.212  26.490  24.725  1.00  0.00     0.010 C 
ATOM     11  C   UNL A   1      30.159  27.876  22.542  1.00  0.00     0.125 C 
ATOM     12  C   UNL A   1      29.387  27.086  23.585  1.00  0.00     0.032 C 
BRANCH   7  13
ATOM     13  N   UNL A   1      33.502  26.239  23.382  1.00  0.00    -0.345 N 
ATOM     14  H   UNL A   1      33.185  25.374  23.819  1.00  0.00     0.345 HD
ATOM     15  H   UNL A   1      34.380  26.534  23.809  1.00  0.00     0.345 HD
ATOM     16  H   UNL A   1      33.644  26.083  22.384  1.00  0.00     0.345 HD
ENDBRANCH   7  13
BRANCH  11  17
ATOM     17  O   UNL A   1      30.276  29.281  22.590  1.00  0.00    -0.375 OA
BRANCH  17  18
ATOM     18  C   UNL A   1      29.331  30.315  22.276  1.00  0.00     0.118 C 
ATOM     19  C   UNL A   1      27.833  30.103  22.017  1.00  0.00     0.032 C 
ATOM     20  C   UNL A   1      28.959  31.085  23.566  1.00  0.00     0.032 C 
ATOM     21  C   UNL A   1      27.488  30.739  23.362  1.00  0.00     0.005 C 
ENDBRANCH  17  18
ENDBRANCH  11  17
ENDBRANCH   4   7
ENDBRANCH   2   3
ENDBRANCH   1   2
BRANCH   1  22
ATOM     22  C   UNL A   1      32.594  31.599  27.269  1.00  0.00     0.118 C 
BRANCH  22  23
ATOM     23  N   UNL A   1      33.029  32.986  27.297  1.00  0.00    -0.352 N 
ATOM     24  C   UNL A   1      34.130  33.589  27.853  1.00  0.00     0.251 C 
ATOM     25  H   UNL A   1      32.424  33.606  26.831  1.00  0.00     0.163 HD
ATOM     26  O   UNL A   1      34.183  34.819  27.856  1.00  0.00    -0.269 OA
BRANCH  24  27
ATOM     27  C   UNL A   1      35.234  32.814  28.468  1.00  0.00     0.039 A 
ATOM     28  C   UNL A   1      36.526  33.355  28.423  1.00  0.00     0.014 A 
ATOM     29  C   UNL A   1      35.048  31.543  29.017  1.00  0.00     0.014 A 
ATOM     30  C   UNL A   1      37.606  32.658  28.976  1.00  0.00     0.010 A 
ATOM     31  C   UNL A   1      36.112  30.882  29.636  1.00  0.00     0.010 A 
ATOM     32  C   UNL A   1      37.405  31.427  29.621  1.00  0.00    -0.014 A 
BRANCH  32  33
ATOM     33  C   UNL A   1      38.529  30.710  30.286  1.00  0.00     0.031 A 
ATOM     34  C   UNL A   1      38.962  31.083  31.681  1.00  0.00     0.074 A 
ATOM     35  C   UNL A   1      39.215  29.768  29.606  1.00  0.00     0.049 A 
ATOM     36  N   UNL A   1      39.964  30.620  32.386  1.00  0.00    -0.248 NA
ATOM     37  C   UNL A   1      38.182  32.126  32.366  1.00  0.00     0.031 C 
ATOM     38  C   UNL A   1      38.943  29.355  28.228  1.00  0.00     0.029 A 
ATOM     39  N   UNL A   1      40.303  29.010  29.969  1.00  0.00    -0.354 N 
ATOM     40  C   UNL A   1      39.956  31.336  33.578  1.00  0.00     0.074 A 
ATOM     41  C   UNL A   1      38.867  32.285  33.490  1.00  0.00     0.031 C 
ATOM     42  C   UNL A   1      39.840  28.426  27.859  1.00  0.00     0.029 A 
ATOM     43  C   UNL A   1      40.774  28.203  28.958  1.00  0.00     0.049 A 
ATOM     44  H   UNL A   1      40.706  29.041  30.866  1.00  0.00     0.167 HD
ATOM     45  C   UNL A   1      40.761  31.200  34.660  1.00  0.00     0.034 A 
ATOM     46  C   UNL A   1      41.849  27.389  28.910  1.00  0.00     0.034 A 
ATOM     47  C   UNL A   1      41.823  30.234  34.762  1.00  0.00     0.049 A 
ATOM     48  C   UNL A   1      42.716  27.243  30.132  1.00  0.00     0.074 A 
ATOM     49  C   UNL A   1      42.647  29.974  35.844  1.00  0.00     0.029 A 
ATOM     50  N   UNL A   1      42.216  29.376  33.747  1.00  0.00    -0.354 N 
ATOM     51  N   UNL A   1      42.603  27.828  31.300  1.00  0.00    -0.248 NA
ATOM     52  C   UNL A   1      43.839  26.296  30.044  1.00  0.00     0.031 C 
ATOM     53  C   UNL A   1      43.557  28.979  35.473  1.00  0.00     0.029 A 
ATOM     54  C   UNL A   1      43.275  28.591  34.174  1.00  0.00     0.049 A 
ATOM     55  H   UNL A   1      41.803  29.332  32.854  1.00  0.00     0.167 HD
ATOM     56  C   UNL A   1      43.609  27.291  32.094  1.00  0.00     0.074 A 
ATOM     57  C   UNL A   1      44.311  26.320  31.282  1.00  0.00     0.031 C 
ATOM     58  C   UNL A   1      43.930  27.586  33.379  1.00  0.00     0.034 A 
BRANCH  45  59
ATOM     59  C   UNL A   1      40.498  32.089  35.850  1.00  0.00     0.023 A 
ATOM     60  C   UNL A   1      41.336  33.199  36.087  1.00  0.00     0.012 A 
ATOM     61  C   UNL A   1      39.386  31.874  36.687  1.00  0.00     0.148 A 
ATOM     62  C   UNL A   1      41.092  34.059  37.157  1.00  0.00     0.002 A 
ATOM     63  C   UNL A   1      39.121  32.762  37.723  1.00  0.00     0.091 A 
ATOM     64  F   UNL A   1      38.608  30.807  36.455  1.00  0.00    -0.205 F 
ATOM     65  C   UNL A   1      39.980  33.846  37.968  1.00  0.00     0.022 A 
BRANCH  63  66
ATOM     66  S   UNL A   1      37.670  32.626  38.774  1.00  0.00     0.127 S 
ATOM     67  O   UNL A   1      37.930  33.666  39.771  1.00  0.00    -0.237 OA
ATOM     68  O   UNL A   1      36.587  32.937  37.840  1.00  0.00    -0.237 OA
ATOM     69  O   UNL A   1      37.665  31.265  39.282  1.00  0.00    -0.744 OA
ENDBRANCH  63  66
ENDBRANCH  45  59
BRANCH  46  70
ATOM     70  C   UNL A   1      42.145  26.615  27.671  1.00  0.00     0.023 A 
ATOM     71  C   UNL A   1      42.726  27.266  26.565  1.00  0.00     0.012 A 
ATOM     72  C   UNL A   1      41.863  25.237  27.585  1.00  0.00     0.148 A 
ATOM     73  C   UNL A   1      42.981  26.570  25.383  1.00  0.00     0.002 A 
ATOM     74  C   UNL A   1      42.176  24.537  26.425  1.00  0.00     0.091 A 
ATOM     75  F   UNL A   1      41.301  24.637  28.643  1.00  0.00    -0.205 F 
ATOM     76  C   UNL A   1      42.714  25.205  25.316  1.00  0.00     0.022 A 
BRANCH  74  77
ATOM     77  S   UNL A   1      41.991  22.755  26.303  1.00  0.00     0.127 S 
ATOM     78  O   UNL A   1      40.536  22.601  26.356  1.00  0.00    -0.237 OA
ATOM     79  O   UNL A   1      42.589  22.480  24.994  1.00  0.00    -0.237 OA
ATOM     80  O   UNL A   1      42.727  22.202  27.426  1.00  0.00    -0.744 OA
ENDBRANCH  74  77
ENDBRANCH  46  70
BRANCH  58  81
ATOM     81  C   UNL A   1      45.056  26.812  34.017  1.00  0.00     0.023 A 
ATOM     82  C   UNL A   1      46.383  27.270  33.901  1.00  0.00     0.012 A 
ATOM     83  C   UNL A   1      44.783  25.672  34.798  1.00  0.00     0.148 A 
ATOM     84  C   UNL A   1      47.425  26.583  34.525  1.00  0.00     0.002 A 
ATOM     85  C   UNL A   1      45.819  25.025  35.459  1.00  0.00     0.091 A 
ATOM     86  F   UNL A   1      43.515  25.242  34.882  1.00  0.00    -0.205 F 
ATOM     87  C   UNL A   1      47.143  25.471  35.313  1.00  0.00     0.022 A 
BRANCH  85  88
ATOM     88  S   UNL A   1      45.539  23.643  36.575  1.00  0.00     0.127 S 
ATOM     89  O   UNL A   1      44.737  24.269  37.626  1.00  0.00    -0.237 OA
ATOM     90  O   UNL A   1      44.807  22.704  35.725  1.00  0.00    -0.237 OA
ATOM     91  O   UNL A   1      46.858  23.185  36.987  1.00  0.00    -0.744 OA
ENDBRANCH  85  88
ENDBRANCH  58  81
ENDBRANCH  32  33
ENDBRANCH  24  27
ENDBRANCH  22  23
ENDBRANCH   1  22
TORSDOF 16
ENDMDL
MODEL 3
REMARK VINA RESULT:     -10.9      5.046      8.126
REMARK SMILES [NH3+][C@]1(C(=O)NCCCNC(=O)c2ccc(-c3c4nc(c(-c5cccc(S(=O)(=O)[O-])c5F)c5ccc([nH]5)c(-c5cccc(S(=O)(=O)[O-])c5F)c5nc(c(-c6cccc(S(=O)(=O)[O-])c6F)c6ccc3[nH]6)C=C5)C=C4)cc2)CCC[C@@H](OC2CCC2)C1
REMARK SMILES IDX 7 1 6 2 5 3 3 4 4 5 2 7 75 8 84 9 76 10 78 11 77 12 1 13
REMARK SMILES IDX 79 17 80 18 81 19 83 20 82 21 8 22 9 23 10 24 11 26 12 27
REMARK SMILES IDX 13 28 74 29 14 30 73 31 15 32 16 33 17 34 67 35 18 36 72 37
REMARK SMILES IDX 66 38 68 39 19 40 71 41 65 42 64 43 20 45 52 46 32 47 51 48
REMARK SMILES IDX 33 49 36 50 50 51 69 52 34 53 35 54 49 56 70 57 37 58 21 59
REMARK SMILES IDX 22 60 30 61 23 62 25 63 31 64 24 65 26 66 27 67 28 68 29 69
REMARK SMILES IDX 53 70 54 71 62 72 55 73 57 74 63 75 56 76 58 77 59 78 60 79
REMARK SMILES IDX 61 80 38 81 39 82 47 83 40 84 42 85 48 86 41 87 43 88 44 89
REMARK SMILES IDX 45 90 46 91
REMARK H PARENT 5 6 1 14 1 15 1 16 9 25 68 44 36 55
REMARK Flexibility Score: inf
ROOT
ATOM      1  C   UNL A   1      37.559  19.525  25.001  1.00  0.00     0.042 C 
ENDROOT
BRANCH   1   2
ATOM      2  C   UNL A   1      36.347  20.424  24.760  1.00  0.00     0.118 C 
BRANCH   2   3
ATOM      3  N   UNL A   1      35.903  21.178  25.917  1.00  0.00    -0.351 N 
ATOM      4  C   UNL A   1      34.687  21.450  26.465  1.00  0.00     0.281 C 
ATOM      5  O   UNL A   1      34.753  21.880  27.626  1.00  0.00    -0.268 OA
ATOM      6  H   UNL A   1      36.648  21.585  26.416  1.00  0.00     0.163 HD
BRANCH   4   7
ATOM      7  C   UNL A   1      33.291  21.121  25.786  1.00  0.00     0.176 C 
ATOM      8  C   UNL A   1      32.231  22.137  26.315  1.00  0.00     0.079 C 
ATOM      9  C   UNL A   1      33.278  21.043  24.250  1.00  0.00     0.111 C 
ATOM     10  C   UNL A   1      31.255  22.770  25.320  1.00  0.00     0.010 C 
ATOM     11  C   UNL A   1      33.067  22.370  23.520  1.00  0.00     0.125 C 
ATOM     12  C   UNL A   1      31.740  23.010  23.891  1.00  0.00     0.032 C 
BRANCH   7  13
ATOM     13  N   UNL A   1      32.910  19.776  26.314  1.00  0.00    -0.345 N 
ATOM     14  H   UNL A   1      33.405  19.601  27.187  1.00  0.00     0.345 HD
ATOM     15  H   UNL A   1      33.160  19.061  25.631  1.00  0.00     0.345 HD
ATOM     16  H   UNL A   1      31.904  19.749  26.481  1.00  0.00     0.345 HD
ENDBRANCH   7  13
BRANCH  11  17
ATOM     17  O   UNL A   1      34.289  23.074  23.573  1.00  0.00    -0.375 OA
BRANCH  17  18
ATOM     18  C   UNL A   1      34.560  24.472  23.752  1.00  0.00     0.118 C 
ATOM     19  C   UNL A   1      33.514  25.594  23.726  1.00  0.00     0.032 C 
ATOM     20  C   UNL A   1      34.782  24.768  25.255  1.00  0.00     0.032 C 
ATOM     21  C   UNL A   1      33.640  25.777  25.237  1.00  0.00     0.005 C 
ENDBRANCH  17  18
ENDBRANCH  11  17
ENDBRANCH   4   7
ENDBRANCH   2   3
ENDBRANCH   1   2
BRANCH   1  22
ATOM     22  C   UNL A   1      38.734  20.145  25.751  1.00  0.00     0.118 C 
BRANCH  22  23
ATOM     23  N   UNL A   1      39.877  19.258  25.888  1.00  0.00    -0.352 N 
ATOM     24  C   UNL A   1      41.205  19.508  26.135  1.00  0.00     0.251 C 
ATOM     25  H   UNL A   1      39.660  18.304  25.787  1.00  0.00     0.163 HD
ATOM     26  O   UNL A   1      42.000  18.571  26.056  1.00  0.00    -0.269 OA
BRANCH  24  27
ATOM     27  C   UNL A   1      41.711  20.862  26.465  1.00  0.00     0.039 A 
ATOM     28  C   UNL A   1      41.830  21.794  25.426  1.00  0.00     0.014 A 
ATOM     29  C   UNL A   1      42.140  21.213  27.747  1.00  0.00     0.014 A 
ATOM     30  C   UNL A   1      42.314  23.082  25.682  1.00  0.00     0.010 A 
ATOM     31  C   UNL A   1      42.551  22.522  28.017  1.00  0.00     0.010 A 
ATOM     32  C   UNL A   1      42.648  23.472  26.988  1.00  0.00    -0.014 A 
BRANCH  32  33
ATOM     33  C   UNL A   1      43.089  24.863  27.292  1.00  0.00     0.031 A 
ATOM     34  C   UNL A   1      42.147  25.844  27.942  1.00  0.00     0.074 A 
ATOM     35  C   UNL A   1      44.318  25.271  26.914  1.00  0.00     0.049 A 
ATOM     36  N   UNL A   1      42.332  27.112  28.212  1.00  0.00    -0.248 NA
ATOM     37  C   UNL A   1      40.816  25.341  28.322  1.00  0.00     0.031 C 
ATOM     38  C   UNL A   1      45.306  24.444  26.218  1.00  0.00     0.029 A 
ATOM     39  N   UNL A   1      44.935  26.494  27.030  1.00  0.00    -0.354 N 
ATOM     40  C   UNL A   1      41.137  27.566  28.758  1.00  0.00     0.074 A 
ATOM     41  C   UNL A   1      40.222  26.445  28.754  1.00  0.00     0.031 C 
ATOM     42  C   UNL A   1      46.399  25.181  25.965  1.00  0.00     0.029 A 
ATOM     43  C   UNL A   1      46.179  26.542  26.443  1.00  0.00     0.049 A 
ATOM     44  H   UNL A   1      44.525  27.263  27.489  1.00  0.00     0.167 HD
ATOM     45  C   UNL A   1      40.833  28.794  29.243  1.00  0.00     0.034 A 
ATOM     46  C   UNL A   1      47.040  27.568  26.288  1.00  0.00     0.034 A 
ATOM     47  C   UNL A   1      41.752  29.901  29.278  1.00  0.00     0.049 A 
ATOM     48  C   UNL A   1      46.685  28.918  26.853  1.00  0.00     0.074 A 
ATOM     49  C   UNL A   1      41.559  31.163  29.814  1.00  0.00     0.029 A 
ATOM     50  N   UNL A   1      43.033  29.885  28.749  1.00  0.00    -0.354 N 
ATOM     51  N   UNL A   1      45.602  29.286  27.492  1.00  0.00    -0.248 NA
ATOM     52  C   UNL A   1      47.687  29.986  26.709  1.00  0.00     0.031 C 
ATOM     53  C   UNL A   1      42.712  31.918  29.583  1.00  0.00     0.029 A 
ATOM     54  C   UNL A   1      43.639  31.116  28.939  1.00  0.00     0.049 A 
ATOM     55  H   UNL A   1      43.451  29.113  28.304  1.00  0.00     0.167 HD
ATOM     56  C   UNL A   1      45.809  30.611  27.861  1.00  0.00     0.074 A 
ATOM     57  C   UNL A   1      47.129  30.975  27.391  1.00  0.00     0.031 C 
ATOM     58  C   UNL A   1      44.975  31.453  28.521  1.00  0.00     0.034 A 
BRANCH  45  59
ATOM     59  C   UNL A   1      39.456  29.001  29.825  1.00  0.00     0.023 A 
ATOM     60  C   UNL A   1      39.197  28.611  31.155  1.00  0.00     0.012 A 
ATOM     61  C   UNL A   1      38.445  29.647  29.086  1.00  0.00     0.148 A 
ATOM     62  C   UNL A   1      37.945  28.827  31.729  1.00  0.00     0.002 A 
ATOM     63  C   UNL A   1      37.214  29.902  29.681  1.00  0.00     0.091 A 
ATOM     64  F   UNL A   1      38.704  30.000  27.820  1.00  0.00    -0.205 F 
ATOM     65  C   UNL A   1      36.958  29.480  30.996  1.00  0.00     0.022 A 
BRANCH  63  66
ATOM     66  S   UNL A   1      35.904  30.810  28.853  1.00  0.00     0.127 S 
ATOM     67  O   UNL A   1      35.209  29.739  28.138  1.00  0.00    -0.237 OA
ATOM     68  O   UNL A   1      35.159  31.370  29.982  1.00  0.00    -0.237 OA
ATOM     69  O   UNL A   1      36.564  31.794  28.011  1.00  0.00    -0.744 OA
ENDBRANCH  63  66
ENDBRANCH  45  59
BRANCH  46  70
ATOM     70  C   UNL A   1      48.345  27.352  25.600  1.00  0.00     0.023 A 
ATOM     71  C   UNL A   1      49.479  26.993  26.353  1.00  0.00     0.012 A 
ATOM     72  C   UNL A   1      48.466  27.493  24.203  1.00  0.00     0.148 A 
ATOM     73  C   UNL A   1      50.718  26.819  25.735  1.00  0.00     0.002 A 
ATOM     74  C   UNL A   1      49.690  27.259  23.587  1.00  0.00     0.091 A 
ATOM     75  F   UNL A   1      47.379  27.846  23.503  1.00  0.00    -0.205 F 
ATOM     76  C   UNL A   1      50.822  26.943  24.352  1.00  0.00     0.022 A 
BRANCH  74  77
ATOM     77  S   UNL A   1      49.879  27.264  21.800  1.00  0.00     0.127 S 
ATOM     78  O   UNL A   1      51.230  26.721  21.642  1.00  0.00    -0.237 OA
ATOM     79  O   UNL A   1      48.803  26.361  21.382  1.00  0.00    -0.237 OA
ATOM     80  O   UNL A   1      49.699  28.643  21.387  1.00  0.00    -0.744 OA
ENDBRANCH  74  77
ENDBRANCH  46  70
BRANCH  58  81
ATOM     81  C   UNL A   1      45.477  32.840  28.830  1.00  0.00     0.023 A 
ATOM     82  C   UNL A   1      46.197  33.084  30.015  1.00  0.00     0.012 A 
ATOM     83  C   UNL A   1      45.297  33.885  27.903  1.00  0.00     0.148 A 
ATOM     84  C   UNL A   1      46.702  34.356  30.288  1.00  0.00     0.002 A 
ATOM     85  C   UNL A   1      45.848  35.135  28.156  1.00  0.00     0.091 A 
ATOM     86  F   UNL A   1      44.594  33.638  26.788  1.00  0.00    -0.205 F 
ATOM     87  C   UNL A   1      46.539  35.376  29.355  1.00  0.00     0.022 A 
BRANCH  85  88
ATOM     88  S   UNL A   1      45.775  36.482  26.968  1.00  0.00     0.127 S 
ATOM     89  O   UNL A   1      44.334  36.723  26.881  1.00  0.00    -0.237 OA
ATOM     90  O   UNL A   1      46.530  37.534  27.648  1.00  0.00    -0.237 OA
ATOM     91  O   UNL A   1      46.397  35.980  25.751  1.00  0.00    -0.744 OA
ENDBRANCH  85  88
ENDBRANCH  58  81
ENDBRANCH  32  33
ENDBRANCH  24  27
ENDBRANCH  22  23
ENDBRANCH   1  22
TORSDOF 16
ENDMDL
