MODEL 1
REMARK VINA RESULT:     -13.7      0.000      0.000
REMARK SMILES O=C(NCCCNC(=O)[C@@H]1[C@H](C(=O)Nc2ccc(Cn3cncn3)cc2)[C@@H]2C=C[C@H]1CC2)c1ccc(-c2c3nc(c(-c4cccc(S(=O)(=O)[O-])c4F)c4ccc([nH]4)c(-c4cccc(S(=O)(=O)[O-])c4F)c4nc(c(-c5cccc(S(=O)(=O)[O-])c5F)c5ccc2[nH]5)C=C4)C=C3)cc1
REMARK SMILES IDX 5 1 4 2 3 3 1 4 2 5 33 7 34 8 95 9 35 10 94 11 36 12 37 13
REMARK SMILES IDX 38 14 88 15 39 16 93 17 87 18 89 19 40 20 92 21 86 22 85 23
REMARK SMILES IDX 41 25 73 26 53 27 72 28 54 29 57 30 71 31 90 32 55 33 56 34
REMARK SMILES IDX 70 36 91 37 58 38 42 39 43 40 51 41 44 42 46 43 52 44 45 45
REMARK SMILES IDX 47 46 48 47 49 48 50 49 74 50 75 51 83 52 76 53 78 54 84 55
REMARK SMILES IDX 77 56 79 57 80 58 81 59 82 60 59 61 60 62 68 63 61 64 63 65
REMARK SMILES IDX 69 66 62 67 64 68 65 69 66 70 67 71 6 72 7 73 8 74 9 76
REMARK SMILES IDX 10 77 11 78 30 79 27 80 29 81 31 82 28 83 32 84 12 85 13 86
REMARK SMILES IDX 14 87 15 89 16 90 26 91 17 92 25 93 18 94 19 95 20 96 21 97
REMARK SMILES IDX 24 98 22 99 23 100
REMARK H PARENT 3 6 89 24 57 35 7 75 14 88
REMARK Flexibility Score: inf
ROOT
ATOM      1  C   UNL A   1      33.450  28.695  25.995  1.00  0.00     0.042 C 
ENDROOT
BRANCH   1   2
ATOM      2  C   UNL A   1      33.868  28.878  27.459  1.00  0.00     0.118 C 
BRANCH   2   3
ATOM      3  N   UNL A   1      34.327  30.202  27.846  1.00  0.00    -0.352 N 
ATOM      4  O   UNL A   1      35.616  32.009  27.895  1.00  0.00    -0.269 OA
ATOM      5  C   UNL A   1      35.569  30.779  27.958  1.00  0.00     0.251 C 
ATOM      6  H   UNL A   1      33.593  30.816  28.078  1.00  0.00     0.163 HD
BRANCH   5   7
ATOM      7  C   UNL A   1      36.819  30.021  28.226  1.00  0.00     0.039 A 
ATOM      8  C   UNL A   1      37.053  29.259  29.368  1.00  0.00     0.014 A 
ATOM      9  C   UNL A   1      37.824  30.097  27.242  1.00  0.00     0.014 A 
ATOM     10  C   UNL A   1      38.292  28.666  29.576  1.00  0.00     0.010 A 
ATOM     11  C   UNL A   1      39.050  29.464  27.421  1.00  0.00     0.010 A 
ATOM     12  C   UNL A   1      39.289  28.763  28.601  1.00  0.00    -0.014 A 
BRANCH  12  13
ATOM     13  C   UNL A   1      40.444  27.878  28.747  1.00  0.00     0.031 A 
ATOM     14  C   UNL A   1      41.174  28.065  30.035  1.00  0.00     0.074 A 
ATOM     15  C   UNL A   1      40.756  26.871  27.909  1.00  0.00     0.049 A 
ATOM     16  N   UNL A   1      42.403  28.426  30.218  1.00  0.00    -0.248 NA
ATOM     17  C   UNL A   1      40.384  27.975  31.275  1.00  0.00     0.031 C 
ATOM     18  C   UNL A   1      39.953  26.379  26.790  1.00  0.00     0.029 A 
ATOM     19  N   UNL A   1      41.790  25.976  27.976  1.00  0.00    -0.354 N 
ATOM     20  C   UNL A   1      42.600  28.369  31.599  1.00  0.00     0.074 A 
ATOM     21  C   UNL A   1      41.294  28.292  32.193  1.00  0.00     0.031 C 
ATOM     22  C   UNL A   1      40.387  25.146  26.448  1.00  0.00     0.029 A 
ATOM     23  C   UNL A   1      41.558  24.815  27.244  1.00  0.00     0.049 A 
ATOM     24  H   UNL A   1      42.613  26.137  28.491  1.00  0.00     0.167 HD
ATOM     25  C   UNL A   1      43.824  28.102  32.131  1.00  0.00     0.034 A 
ATOM     26  C   UNL A   1      42.218  23.637  27.351  1.00  0.00     0.034 A 
ATOM     27  C   UNL A   1      44.881  28.359  31.186  1.00  0.00     0.049 A 
ATOM     28  C   UNL A   1      43.511  23.895  28.021  1.00  0.00     0.074 A 
ATOM     29  C   UNL A   1      45.301  29.439  30.437  1.00  0.00     0.029 A 
ATOM     30  N   UNL A   1      45.513  27.263  30.656  1.00  0.00    -0.354 N 
ATOM     31  N   UNL A   1      44.502  24.538  27.474  1.00  0.00    -0.248 NA
ATOM     32  C   UNL A   1      43.598  23.714  29.461  1.00  0.00     0.031 C 
ATOM     33  C   UNL A   1      45.815  28.880  29.230  1.00  0.00     0.029 A 
ATOM     34  C   UNL A   1      45.713  27.492  29.325  1.00  0.00     0.049 A 
ATOM     35  H   UNL A   1      45.777  26.453  31.149  1.00  0.00     0.167 HD
ATOM     36  C   UNL A   1      45.086  25.227  28.527  1.00  0.00     0.074 A 
ATOM     37  C   UNL A   1      44.590  24.565  29.730  1.00  0.00     0.031 C 
ATOM     38  C   UNL A   1      45.667  26.447  28.327  1.00  0.00     0.034 A 
BRANCH  25  39
ATOM     39  C   UNL A   1      44.053  27.199  33.335  1.00  0.00     0.023 A 
ATOM     40  C   UNL A   1      44.552  25.900  33.076  1.00  0.00     0.012 A 
ATOM     41  C   UNL A   1      43.519  27.424  34.627  1.00  0.00     0.148 A 
ATOM     42  C   UNL A   1      44.420  24.860  34.002  1.00  0.00     0.002 A 
ATOM     43  C   UNL A   1      43.465  26.406  35.574  1.00  0.00     0.091 A 
ATOM     44  F   UNL A   1      42.935  28.584  34.927  1.00  0.00    -0.205 F 
ATOM     45  C   UNL A   1      43.874  25.113  35.253  1.00  0.00     0.022 A 
BRANCH  43  46
ATOM     46  S   UNL A   1      42.817  26.696  37.226  1.00  0.00     0.127 S 
ATOM     47  O   UNL A   1      41.445  27.098  36.931  1.00  0.00    -0.237 OA
ATOM     48  O   UNL A   1      42.960  25.374  37.837  1.00  0.00    -0.237 OA
ATOM     49  O   UNL A   1      43.676  27.718  37.810  1.00  0.00    -0.744 OA
ENDBRANCH  43  46
ENDBRANCH  25  39
BRANCH  26  50
ATOM     50  C   UNL A   1      41.748  22.253  27.102  1.00  0.00     0.023 A 
ATOM     51  C   UNL A   1      40.364  21.982  27.079  1.00  0.00     0.012 A 
ATOM     52  C   UNL A   1      42.627  21.254  26.630  1.00  0.00     0.148 A 
ATOM     53  C   UNL A   1      39.873  20.772  26.572  1.00  0.00     0.002 A 
ATOM     54  C   UNL A   1      42.135  20.046  26.145  1.00  0.00     0.091 A 
ATOM     55  F   UNL A   1      43.938  21.521  26.566  1.00  0.00    -0.205 F 
ATOM     56  C   UNL A   1      40.757  19.807  26.101  1.00  0.00     0.022 A 
BRANCH  54  57
ATOM     57  S   UNL A   1      43.223  18.756  25.525  1.00  0.00     0.127 S 
ATOM     58  O   UNL A   1      42.398  17.557  25.685  1.00  0.00    -0.237 OA
ATOM     59  O   UNL A   1      43.433  19.174  24.142  1.00  0.00    -0.237 OA
ATOM     60  O   UNL A   1      44.400  18.787  26.385  1.00  0.00    -0.744 OA
ENDBRANCH  54  57
ENDBRANCH  26  50
BRANCH  38  61
ATOM     61  C   UNL A   1      46.017  26.850  26.919  1.00  0.00     0.023 A 
ATOM     62  C   UNL A   1      45.060  27.348  26.012  1.00  0.00     0.012 A 
ATOM     63  C   UNL A   1      47.374  26.860  26.551  1.00  0.00     0.148 A 
ATOM     64  C   UNL A   1      45.444  27.814  24.752  1.00  0.00     0.002 A 
ATOM     65  C   UNL A   1      47.758  27.372  25.318  1.00  0.00     0.091 A 
ATOM     66  F   UNL A   1      48.275  26.383  27.422  1.00  0.00    -0.205 F 
ATOM     67  C   UNL A   1      46.795  27.839  24.411  1.00  0.00     0.022 A 
BRANCH  65  68
ATOM     68  S   UNL A   1      49.491  27.555  24.890  1.00  0.00     0.127 S 
ATOM     69  O   UNL A   1      49.998  26.195  25.089  1.00  0.00    -0.237 OA
ATOM     70  O   UNL A   1      49.428  27.979  23.487  1.00  0.00    -0.237 OA
ATOM     71  O   UNL A   1      50.017  28.565  25.789  1.00  0.00    -0.744 OA
ENDBRANCH  65  68
ENDBRANCH  38  61
ENDBRANCH  12  13
ENDBRANCH   5   7
ENDBRANCH   2   3
ENDBRANCH   1   2
BRANCH   1  72
ATOM     72  C   UNL A   1      33.938  27.394  25.375  1.00  0.00     0.117 C 
BRANCH  72  73
ATOM     73  N   UNL A   1      33.213  26.225  25.841  1.00  0.00    -0.356 N 
ATOM     74  C   UNL A   1      33.562  24.924  25.974  1.00  0.00     0.224 C 
ATOM     75  H   UNL A   1      32.285  26.417  26.113  1.00  0.00     0.163 HD
ATOM     76  O   UNL A   1      32.855  24.281  26.763  1.00  0.00    -0.275 OA
BRANCH  74  77
ATOM     77  C   UNL A   1      34.630  24.175  25.177  1.00  0.00     0.098 C 
ATOM     78  C   UNL A   1      34.067  23.262  24.035  1.00  0.00     0.098 C 
ATOM     79  C   UNL A   1      35.933  23.541  25.744  1.00  0.00     0.025 C 
ATOM     80  C   UNL A   1      35.087  22.124  23.721  1.00  0.00     0.025 C 
ATOM     81  C   UNL A   1      35.756  22.065  26.028  1.00  0.00    -0.027 C 
ATOM     82  C   UNL A   1      36.990  23.560  24.596  1.00  0.00     0.009 C 
ATOM     83  C   UNL A   1      35.349  21.332  24.978  1.00  0.00    -0.027 C 
ATOM     84  C   UNL A   1      36.447  22.784  23.367  1.00  0.00     0.009 C 
BRANCH  78  85
ATOM     85  C   UNL A   1      32.589  22.802  23.921  1.00  0.00     0.228 C 
ATOM     86  O   UNL A   1      32.340  21.597  24.105  1.00  0.00    -0.274 OA
ATOM     87  N   UNL A   1      31.488  23.610  23.869  1.00  0.00    -0.326 N 
ATOM     88  H   UNL A   1      30.658  23.156  24.141  1.00  0.00     0.169 HD
BRANCH  87  89
ATOM     89  C   UNL A   1      31.296  24.945  23.509  1.00  0.00     0.041 A 
ATOM     90  C   UNL A   1      30.317  25.703  24.153  1.00  0.00     0.026 A 
ATOM     91  C   UNL A   1      32.011  25.531  22.485  1.00  0.00     0.026 A 
ATOM     92  C   UNL A   1      30.229  27.085  23.919  1.00  0.00     0.008 A 
ATOM     93  C   UNL A   1      31.928  26.901  22.239  1.00  0.00     0.008 A 
ATOM     94  C   UNL A   1      31.089  27.705  23.006  1.00  0.00    -0.026 A 
BRANCH  94  95
ATOM     95  C   UNL A   1      31.140  29.200  22.816  1.00  0.00     0.181 C 
BRANCH  95  96
ATOM     96  N   UNL A   1      29.813  29.755  22.669  1.00  0.00    -0.249 N 
ATOM     97  C   UNL A   1      29.214  30.685  23.457  1.00  0.00     0.220 A 
ATOM     98  N   UNL A   1      29.002  29.366  21.671  1.00  0.00    -0.160 NA
ATOM     99  N   UNL A   1      28.001  30.917  23.015  1.00  0.00    -0.224 NA
ATOM    100  C   UNL A   1      27.908  30.089  21.926  1.00  0.00     0.246 A 
ENDBRANCH  95  96
ENDBRANCH  94  95
ENDBRANCH  87  89
ENDBRANCH  78  85
ENDBRANCH  74  77
ENDBRANCH  72  73
ENDBRANCH   1  72
TORSDOF 17
ENDMDL
MODEL 2
REMARK VINA RESULT:     -13.7      2.823      5.108
REMARK SMILES O=C(NCCCNC(=O)[C@@H]1[C@H](C(=O)Nc2ccc(Cn3cncn3)cc2)[C@@H]2C=C[C@H]1CC2)c1ccc(-c2c3nc(c(-c4cccc(S(=O)(=O)[O-])c4F)c4ccc([nH]4)c(-c4cccc(S(=O)(=O)[O-])c4F)c4nc(c(-c5cccc(S(=O)(=O)[O-])c5F)c5ccc2[nH]5)C=C4)C=C3)cc1
REMARK SMILES IDX 5 1 4 2 3 3 1 4 2 5 33 7 34 8 95 9 35 10 94 11 36 12 37 13
REMARK SMILES IDX 38 14 88 15 39 16 93 17 87 18 89 19 40 20 92 21 86 22 85 23
REMARK SMILES IDX 41 25 73 26 53 27 72 28 54 29 57 30 71 31 90 32 55 33 56 34
REMARK SMILES IDX 70 36 91 37 58 38 42 39 43 40 51 41 44 42 46 43 52 44 45 45
REMARK SMILES IDX 47 46 48 47 49 48 50 49 74 50 75 51 83 52 76 53 78 54 84 55
REMARK SMILES IDX 77 56 79 57 80 58 81 59 82 60 59 61 60 62 68 63 61 64 63 65
REMARK SMILES IDX 69 66 62 67 64 68 65 69 66 70 67 71 6 72 7 73 8 74 9 76
REMARK SMILES IDX 10 77 11 78 30 79 27 80 29 81 31 82 28 83 32 84 12 85 13 86
REMARK SMILES IDX 14 87 15 89 16 90 26 91 17 92 25 93 18 94 19 95 20 96 21 97
REMARK SMILES IDX 24 98 22 99 23 100
REMARK H PARENT 3 6 89 24 57 35 7 75 14 88
REMARK Flexibility Score: inf
ROOT
ATOM      1  C   UNL A   1      33.436  31.319  27.327  1.00  0.00     0.042 C 
ENDROOT
BRANCH   1   2
ATOM      2  C   UNL A   1      34.762  31.381  28.095  1.00  0.00     0.118 C 
BRANCH   2   3
ATOM      3  N   UNL A   1      34.675  31.551  29.537  1.00  0.00    -0.352 N 
ATOM      4  O   UNL A   1      35.275  32.160  31.585  1.00  0.00    -0.269 OA
ATOM      5  C   UNL A   1      35.608  31.590  30.544  1.00  0.00     0.251 C 
ATOM      6  H   UNL A   1      33.751  31.659  29.860  1.00  0.00     0.163 HD
BRANCH   5   7
ATOM      7  C   UNL A   1      36.935  30.926  30.477  1.00  0.00     0.039 A 
ATOM      8  C   UNL A   1      38.154  31.597  30.411  1.00  0.00     0.014 A 
ATOM      9  C   UNL A   1      36.935  29.518  30.476  1.00  0.00     0.014 A 
ATOM     10  C   UNL A   1      39.339  30.890  30.250  1.00  0.00     0.010 A 
ATOM     11  C   UNL A   1      38.123  28.801  30.364  1.00  0.00     0.010 A 
ATOM     12  C   UNL A   1      39.325  29.493  30.232  1.00  0.00    -0.014 A 
BRANCH  12  13
ATOM     13  C   UNL A   1      40.616  28.817  30.360  1.00  0.00     0.031 A 
ATOM     14  C   UNL A   1      41.117  28.763  31.765  1.00  0.00     0.074 A 
ATOM     15  C   UNL A   1      41.242  28.154  29.371  1.00  0.00     0.049 A 
ATOM     16  N   UNL A   1      42.206  29.268  32.250  1.00  0.00    -0.248 NA
ATOM     17  C   UNL A   1      40.215  28.195  32.781  1.00  0.00     0.031 C 
ATOM     18  C   UNL A   1      40.714  27.860  28.039  1.00  0.00     0.029 A 
ATOM     19  N   UNL A   1      42.428  27.470  29.400  1.00  0.00    -0.354 N 
ATOM     20  C   UNL A   1      42.233  28.865  33.586  1.00  0.00     0.074 A 
ATOM     21  C   UNL A   1      40.911  28.399  33.897  1.00  0.00     0.031 C 
ATOM     22  C   UNL A   1      41.444  26.866  27.487  1.00  0.00     0.029 A 
ATOM     23  C   UNL A   1      42.548  26.537  28.374  1.00  0.00     0.049 A 
ATOM     24  H   UNL A   1      43.124  27.622  30.079  1.00  0.00     0.167 HD
ATOM     25  C   UNL A   1      43.408  28.678  34.248  1.00  0.00     0.034 A 
ATOM     26  C   UNL A   1      43.428  25.508  28.305  1.00  0.00     0.034 A 
ATOM     27  C   UNL A   1      44.496  29.368  33.602  1.00  0.00     0.049 A 
ATOM     28  C   UNL A   1      44.538  25.792  29.240  1.00  0.00     0.074 A 
ATOM     29  C   UNL A   1      44.764  30.670  33.232  1.00  0.00     0.029 A 
ATOM     30  N   UNL A   1      45.412  28.590  32.941  1.00  0.00    -0.354 N 
ATOM     31  N   UNL A   1      45.429  26.724  29.057  1.00  0.00    -0.248 NA
ATOM     32  C   UNL A   1      44.479  25.236  30.582  1.00  0.00     0.031 C 
ATOM     33  C   UNL A   1      45.536  30.567  32.038  1.00  0.00     0.029 A 
ATOM     34  C   UNL A   1      45.726  29.211  31.767  1.00  0.00     0.049 A 
ATOM     35  H   UNL A   1      45.781  27.734  33.258  1.00  0.00     0.167 HD
ATOM     36  C   UNL A   1      45.711  27.184  30.335  1.00  0.00     0.074 A 
ATOM     37  C   UNL A   1      45.221  26.138  31.227  1.00  0.00     0.031 C 
ATOM     38  C   UNL A   1      46.034  28.493  30.550  1.00  0.00     0.034 A 
BRANCH  25  39
ATOM     39  C   UNL A   1      43.672  27.530  35.213  1.00  0.00     0.023 A 
ATOM     40  C   UNL A   1      44.224  27.867  36.472  1.00  0.00     0.012 A 
ATOM     41  C   UNL A   1      43.716  26.163  34.849  1.00  0.00     0.148 A 
ATOM     42  C   UNL A   1      44.884  26.922  37.265  1.00  0.00     0.002 A 
ATOM     43  C   UNL A   1      44.300  25.213  35.680  1.00  0.00     0.091 A 
ATOM     44  F   UNL A   1      43.313  25.769  33.641  1.00  0.00    -0.205 F 
ATOM     45  C   UNL A   1      44.924  25.592  36.868  1.00  0.00     0.022 A 
BRANCH  43  46
ATOM     46  S   UNL A   1      44.330  23.470  35.236  1.00  0.00     0.127 S 
ATOM     47  O   UNL A   1      42.913  23.206  35.010  1.00  0.00    -0.237 OA
ATOM     48  O   UNL A   1      45.160  23.484  34.031  1.00  0.00    -0.237 OA
ATOM     49  O   UNL A   1      44.940  22.788  36.370  1.00  0.00    -0.744 OA
ENDBRANCH  43  46
ENDBRANCH  25  39
BRANCH  26  50
ATOM     50  C   UNL A   1      43.304  24.188  27.642  1.00  0.00     0.023 A 
ATOM     51  C   UNL A   1      42.112  23.448  27.783  1.00  0.00     0.012 A 
ATOM     52  C   UNL A   1      44.233  23.769  26.664  1.00  0.00     0.148 A 
ATOM     53  C   UNL A   1      41.841  22.351  26.956  1.00  0.00     0.002 A 
ATOM     54  C   UNL A   1      43.967  22.666  25.859  1.00  0.00     0.091 A 
ATOM     55  F   UNL A   1      45.333  24.505  26.457  1.00  0.00    -0.205 F 
ATOM     56  C   UNL A   1      42.765  21.962  25.992  1.00  0.00     0.022 A 
BRANCH  54  57
ATOM     57  S   UNL A   1      45.121  22.110  24.597  1.00  0.00     0.127 S 
ATOM     58  O   UNL A   1      45.256  23.304  23.760  1.00  0.00    -0.237 OA
ATOM     59  O   UNL A   1      46.303  21.781  25.388  1.00  0.00    -0.237 OA
ATOM     60  O   UNL A   1      44.467  20.989  23.931  1.00  0.00    -0.744 OA
ENDBRANCH  54  57
ENDBRANCH  26  50
BRANCH  38  61
ATOM     61  C   UNL A   1      46.465  29.327  29.372  1.00  0.00     0.023 A 
ATOM     62  C   UNL A   1      47.766  29.264  28.833  1.00  0.00     0.012 A 
ATOM     63  C   UNL A   1      45.487  30.084  28.704  1.00  0.00     0.148 A 
ATOM     64  C   UNL A   1      48.094  29.971  27.674  1.00  0.00     0.002 A 
ATOM     65  C   UNL A   1      45.804  30.743  27.522  1.00  0.00     0.091 A 
ATOM     66  F   UNL A   1      44.253  30.136  29.226  1.00  0.00    -0.205 F 
ATOM     67  C   UNL A   1      47.109  30.699  27.010  1.00  0.00     0.022 A 
BRANCH  65  68
ATOM     68  S   UNL A   1      44.539  31.576  26.560  1.00  0.00     0.127 S 
ATOM     69  O   UNL A   1      44.118  32.645  27.469  1.00  0.00    -0.237 OA
ATOM     70  O   UNL A   1      45.287  32.038  25.385  1.00  0.00    -0.237 OA
ATOM     71  O   UNL A   1      43.538  30.568  26.263  1.00  0.00    -0.744 OA
ENDBRANCH  65  68
ENDBRANCH  38  61
ENDBRANCH  12  13
ENDBRANCH   5   7
ENDBRANCH   2   3
ENDBRANCH   1   2
BRANCH   1  72
ATOM     72  C   UNL A   1      33.235  30.026  26.552  1.00  0.00     0.117 C 
BRANCH  72  73
ATOM     73  N   UNL A   1      32.152  29.206  27.066  1.00  0.00    -0.356 N 
ATOM     74  C   UNL A   1      31.562  28.077  26.609  1.00  0.00     0.224 C 
ATOM     75  H   UNL A   1      31.772  29.538  27.913  1.00  0.00     0.163 HD
ATOM     76  O   UNL A   1      30.957  27.427  27.474  1.00  0.00    -0.275 OA
BRANCH  74  77
ATOM     77  C   UNL A   1      31.472  27.612  25.156  1.00  0.00     0.098 C 
ATOM     78  C   UNL A   1      32.442  26.438  24.788  1.00  0.00     0.098 C 
ATOM     79  C   UNL A   1      31.265  28.516  23.906  1.00  0.00     0.025 C 
ATOM     80  C   UNL A   1      32.734  26.458  23.255  1.00  0.00     0.025 C 
ATOM     81  C   UNL A   1      32.580  28.856  23.241  1.00  0.00    -0.027 C 
ATOM     82  C   UNL A   1      30.532  27.653  22.831  1.00  0.00     0.009 C 
ATOM     83  C   UNL A   1      33.322  27.795  22.879  1.00  0.00    -0.027 C 
ATOM     84  C   UNL A   1      31.373  26.390  22.508  1.00  0.00     0.009 C 
BRANCH  78  85
ATOM     85  C   UNL A   1      33.671  26.010  25.634  1.00  0.00     0.228 C 
ATOM     86  O   UNL A   1      34.349  26.905  26.167  1.00  0.00    -0.274 OA
ATOM     87  N   UNL A   1      33.965  24.744  26.057  1.00  0.00    -0.326 N 
ATOM     88  H   UNL A   1      34.561  24.723  26.839  1.00  0.00     0.169 HD
BRANCH  87  89
ATOM     89  C   UNL A   1      33.595  23.475  25.610  1.00  0.00     0.041 A 
ATOM     90  C   UNL A   1      32.252  23.098  25.624  1.00  0.00     0.026 A 
ATOM     91  C   UNL A   1      34.532  22.546  25.203  1.00  0.00     0.026 A 
ATOM     92  C   UNL A   1      31.851  21.893  25.023  1.00  0.00     0.008 A 
ATOM     93  C   UNL A   1      34.147  21.345  24.611  1.00  0.00     0.008 A 
ATOM     94  C   UNL A   1      32.799  21.040  24.446  1.00  0.00    -0.026 A 
BRANCH  94  95
ATOM     95  C   UNL A   1      32.421  19.807  23.665  1.00  0.00     0.181 C 
BRANCH  95  96
ATOM     96  N   UNL A   1      32.866  18.605  24.335  1.00  0.00    -0.249 N 
ATOM     97  C   UNL A   1      34.008  17.907  24.107  1.00  0.00     0.220 A 
ATOM     98  N   UNL A   1      32.131  18.037  25.306  1.00  0.00    -0.160 NA
ATOM     99  N   UNL A   1      34.047  16.862  24.899  1.00  0.00    -0.224 NA
ATOM    100  C   UNL A   1      32.882  16.974  25.612  1.00  0.00     0.246 A 
ENDBRANCH  95  96
ENDBRANCH  94  95
ENDBRANCH  87  89
ENDBRANCH  78  85
ENDBRANCH  74  77
ENDBRANCH  72  73
ENDBRANCH   1  72
TORSDOF 17
ENDMDL
MODEL 3
REMARK VINA RESULT:     -13.6      3.007      8.008
REMARK SMILES O=C(NCCCNC(=O)[C@@H]1[C@H](C(=O)Nc2ccc(Cn3cncn3)cc2)[C@@H]2C=C[C@H]1CC2)c1ccc(-c2c3nc(c(-c4cccc(S(=O)(=O)[O-])c4F)c4ccc([nH]4)c(-c4cccc(S(=O)(=O)[O-])c4F)c4nc(c(-c5cccc(S(=O)(=O)[O-])c5F)c5ccc2[nH]5)C=C4)C=C3)cc1
REMARK SMILES IDX 5 1 4 2 3 3 1 4 2 5 33 7 34 8 95 9 35 10 94 11 36 12 37 13
REMARK SMILES IDX 38 14 88 15 39 16 93 17 87 18 89 19 40 20 92 21 86 22 85 23
REMARK SMILES IDX 41 25 73 26 53 27 72 28 54 29 57 30 71 31 90 32 55 33 56 34
REMARK SMILES IDX 70 36 91 37 58 38 42 39 43 40 51 41 44 42 46 43 52 44 45 45
REMARK SMILES IDX 47 46 48 47 49 48 50 49 74 50 75 51 83 52 76 53 78 54 84 55
REMARK SMILES IDX 77 56 79 57 80 58 81 59 82 60 59 61 60 62 68 63 61 64 63 65
REMARK SMILES IDX 69 66 62 67 64 68 65 69 66 70 67 71 6 72 7 73 8 74 9 76
REMARK SMILES IDX 10 77 11 78 30 79 27 80 29 81 31 82 28 83 32 84 12 85 13 86
REMARK SMILES IDX 14 87 15 89 16 90 26 91 17 92 25 93 18 94 19 95 20 96 21 97
REMARK SMILES IDX 24 98 22 99 23 100
REMARK H PARENT 3 6 89 24 57 35 7 75 14 88
REMARK Flexibility Score: inf
ROOT
ATOM      1  C   UNL A   1      37.920  21.084  25.010  1.00  0.00     0.042 C 
ENDROOT
BRANCH   1   2
ATOM      2  C   UNL A   1      38.198  19.678  25.556  1.00  0.00     0.118 C 
BRANCH   2   3
ATOM      3  N   UNL A   1      39.524  19.133  25.310  1.00  0.00    -0.352 N 
ATOM      4  O   UNL A   1      41.599  18.474  25.742  1.00  0.00    -0.269 OA
ATOM      5  C   UNL A   1      40.763  19.372  25.854  1.00  0.00     0.251 C 
ATOM      6  H   UNL A   1      39.536  18.447  24.604  1.00  0.00     0.163 HD
BRANCH   5   7
ATOM      7  C   UNL A   1      41.162  20.658  26.482  1.00  0.00     0.039 A 
ATOM      8  C   UNL A   1      41.693  21.746  25.792  1.00  0.00     0.014 A 
ATOM      9  C   UNL A   1      40.985  20.759  27.875  1.00  0.00     0.014 A 
ATOM     10  C   UNL A   1      42.130  22.870  26.480  1.00  0.00     0.010 A 
ATOM     11  C   UNL A   1      41.375  21.903  28.566  1.00  0.00     0.010 A 
ATOM     12  C   UNL A   1      41.966  22.952  27.866  1.00  0.00    -0.014 A 
BRANCH  12  13
ATOM     13  C   UNL A   1      42.168  24.265  28.478  1.00  0.00     0.031 A 
ATOM     14  C   UNL A   1      41.066  25.230  28.185  1.00  0.00     0.074 A 
ATOM     15  C   UNL A   1      43.142  24.566  29.356  1.00  0.00     0.049 A 
ATOM     16  N   UNL A   1      41.135  26.365  27.568  1.00  0.00    -0.248 NA
ATOM     17  C   UNL A   1      39.694  24.799  28.498  1.00  0.00     0.031 C 
ATOM     18  C   UNL A   1      44.090  23.636  29.969  1.00  0.00     0.029 A 
ATOM     19  N   UNL A   1      43.393  25.747  30.002  1.00  0.00    -0.354 N 
ATOM     20  C   UNL A   1      39.846  26.897  27.635  1.00  0.00     0.074 A 
ATOM     21  C   UNL A   1      38.981  25.818  28.024  1.00  0.00     0.031 C 
ATOM     22  C   UNL A   1      44.633  24.219  31.061  1.00  0.00     0.029 A 
ATOM     23  C   UNL A   1      44.157  25.590  31.155  1.00  0.00     0.049 A 
ATOM     24  H   UNL A   1      43.066  26.619  29.684  1.00  0.00     0.167 HD
ATOM     25  C   UNL A   1      39.632  28.241  27.645  1.00  0.00     0.034 A 
ATOM     26  C   UNL A   1      44.310  26.485  32.161  1.00  0.00     0.034 A 
ATOM     27  C   UNL A   1      40.765  28.963  27.123  1.00  0.00     0.049 A 
ATOM     28  C   UNL A   1      43.930  27.819  31.649  1.00  0.00     0.074 A 
ATOM     29  C   UNL A   1      41.488  28.958  25.948  1.00  0.00     0.029 A 
ATOM     30  N   UNL A   1      41.522  29.660  28.030  1.00  0.00    -0.354 N 
ATOM     31  N   UNL A   1      44.627  28.495  30.782  1.00  0.00    -0.248 NA
ATOM     32  C   UNL A   1      42.571  28.287  31.864  1.00  0.00     0.031 C 
ATOM     33  C   UNL A   1      42.826  29.269  26.330  1.00  0.00     0.029 A 
ATOM     34  C   UNL A   1      42.837  29.482  27.709  1.00  0.00     0.049 A 
ATOM     35  H   UNL A   1      41.178  30.196  28.780  1.00  0.00     0.167 HD
ATOM     36  C   UNL A   1      43.675  29.161  30.023  1.00  0.00     0.074 A 
ATOM     37  C   UNL A   1      42.457  29.117  30.825  1.00  0.00     0.031 C 
ATOM     38  C   UNL A   1      43.890  29.412  28.698  1.00  0.00     0.034 A 
BRANCH  25  39
ATOM     39  C   UNL A   1      38.599  28.935  28.522  1.00  0.00     0.023 A 
ATOM     40  C   UNL A   1      37.822  29.950  27.914  1.00  0.00     0.012 A 
ATOM     41  C   UNL A   1      38.574  28.882  29.937  1.00  0.00     0.148 A 
ATOM     42  C   UNL A   1      37.156  30.922  28.669  1.00  0.00     0.002 A 
ATOM     43  C   UNL A   1      37.843  29.801  30.681  1.00  0.00     0.091 A 
ATOM     44  F   UNL A   1      39.353  28.026  30.598  1.00  0.00    -0.205 F 
ATOM     45  C   UNL A   1      37.167  30.849  30.056  1.00  0.00     0.022 A 
BRANCH  43  46
ATOM     46  S   UNL A   1      37.781  29.718  32.477  1.00  0.00     0.127 S 
ATOM     47  O   UNL A   1      39.161  30.039  32.827  1.00  0.00    -0.237 OA
ATOM     48  O   UNL A   1      36.801  30.758  32.790  1.00  0.00    -0.237 OA
ATOM     49  O   UNL A   1      37.335  28.367  32.791  1.00  0.00    -0.744 OA
ENDBRANCH  43  46
ENDBRANCH  25  39
BRANCH  26  50
ATOM     50  C   UNL A   1      44.571  26.264  33.604  1.00  0.00     0.023 A 
ATOM     51  C   UNL A   1      45.883  26.400  34.103  1.00  0.00     0.012 A 
ATOM     52  C   UNL A   1      43.513  26.180  34.536  1.00  0.00     0.148 A 
ATOM     53  C   UNL A   1      46.129  26.484  35.479  1.00  0.00     0.002 A 
ATOM     54  C   UNL A   1      43.764  26.245  35.903  1.00  0.00     0.091 A 
ATOM     55  F   UNL A   1      42.253  26.134  34.084  1.00  0.00    -0.205 F 
ATOM     56  C   UNL A   1      45.070  26.411  36.378  1.00  0.00     0.022 A 
BRANCH  54  57
ATOM     57  S   UNL A   1      42.442  26.154  37.118  1.00  0.00     0.127 S 
ATOM     58  O   UNL A   1      42.012  24.759  36.998  1.00  0.00    -0.237 OA
ATOM     59  O   UNL A   1      43.144  26.474  38.357  1.00  0.00    -0.237 OA
ATOM     60  O   UNL A   1      41.441  27.123  36.684  1.00  0.00    -0.744 OA
ENDBRANCH  54  57
ENDBRANCH  26  50
BRANCH  38  61
ATOM     61  C   UNL A   1      45.298  29.321  28.171  1.00  0.00     0.023 A 
ATOM     62  C   UNL A   1      46.188  30.413  28.193  1.00  0.00     0.012 A 
ATOM     63  C   UNL A   1      45.778  28.059  27.779  1.00  0.00     0.148 A 
ATOM     64  C   UNL A   1      47.518  30.258  27.796  1.00  0.00     0.002 A 
ATOM     65  C   UNL A   1      47.115  27.898  27.436  1.00  0.00     0.091 A 
ATOM     66  F   UNL A   1      44.921  27.027  27.763  1.00  0.00    -0.205 F 
ATOM     67  C   UNL A   1      47.985  28.997  27.431  1.00  0.00     0.022 A 
BRANCH  65  68
ATOM     68  S   UNL A   1      47.793  26.272  27.095  1.00  0.00     0.127 S 
ATOM     69  O   UNL A   1      47.500  26.112  25.668  1.00  0.00    -0.237 OA
ATOM     70  O   UNL A   1      49.216  26.451  27.405  1.00  0.00    -0.237 OA
ATOM     71  O   UNL A   1      47.105  25.360  27.989  1.00  0.00    -0.744 OA
ENDBRANCH  65  68
ENDBRANCH  38  61
ENDBRANCH  12  13
ENDBRANCH   5   7
ENDBRANCH   2   3
ENDBRANCH   1   2
BRANCH   1  72
ATOM     72  C   UNL A   1      36.441  21.433  24.937  1.00  0.00     0.117 C 
BRANCH  72  73
ATOM     73  N   UNL A   1      35.925  22.020  26.161  1.00  0.00    -0.356 N 
ATOM     74  C   UNL A   1      34.930  22.906  26.402  1.00  0.00     0.224 C 
ATOM     75  H   UNL A   1      36.391  21.715  26.973  1.00  0.00     0.163 HD
ATOM     76  O   UNL A   1      34.495  22.885  27.563  1.00  0.00    -0.275 OA
BRANCH  74  77
ATOM     77  C   UNL A   1      34.400  23.974  25.446  1.00  0.00     0.098 C 
ATOM     78  C   UNL A   1      32.899  24.361  25.672  1.00  0.00     0.098 C 
ATOM     79  C   UNL A   1      34.745  24.117  23.935  1.00  0.00     0.025 C 
ATOM     80  C   UNL A   1      32.299  24.932  24.349  1.00  0.00     0.025 C 
ATOM     81  C   UNL A   1      33.698  23.462  23.062  1.00  0.00    -0.027 C 
ATOM     82  C   UNL A   1      34.616  25.630  23.576  1.00  0.00     0.009 C 
ATOM     83  C   UNL A   1      32.443  23.904  23.254  1.00  0.00    -0.027 C 
ATOM     84  C   UNL A   1      33.182  26.128  23.900  1.00  0.00     0.009 C 
BRANCH  78  85
ATOM     85  C   UNL A   1      31.882  23.516  26.484  1.00  0.00     0.228 C 
ATOM     86  O   UNL A   1      31.210  24.095  27.355  1.00  0.00    -0.274 OA
ATOM     87  N   UNL A   1      31.468  22.245  26.197  1.00  0.00    -0.326 N 
ATOM     88  H   UNL A   1      30.601  22.017  26.601  1.00  0.00     0.169 HD
BRANCH  87  89
ATOM     89  C   UNL A   1      32.021  21.204  25.449  1.00  0.00     0.041 A 
ATOM     90  C   UNL A   1      32.855  20.272  26.066  1.00  0.00     0.026 A 
ATOM     91  C   UNL A   1      31.814  21.098  24.088  1.00  0.00     0.026 A 
ATOM     92  C   UNL A   1      33.279  19.131  25.365  1.00  0.00     0.008 A 
ATOM     93  C   UNL A   1      32.234  19.973  23.380  1.00  0.00     0.008 A 
ATOM     94  C   UNL A   1      32.907  18.941  24.030  1.00  0.00    -0.026 A 
BRANCH  94  95
ATOM     95  C   UNL A   1      33.209  17.676  23.268  1.00  0.00     0.181 C 
BRANCH  95  96
ATOM     96  N   UNL A   1      33.821  16.684  24.123  1.00  0.00    -0.249 N 
ATOM     97  C   UNL A   1      33.245  15.564  24.633  1.00  0.00     0.220 A 
ATOM     98  N   UNL A   1      35.101  16.796  24.516  1.00  0.00    -0.160 NA
ATOM     99  N   UNL A   1      34.115  14.927  25.381  1.00  0.00    -0.224 NA
ATOM    100  C   UNL A   1      35.234  15.713  25.287  1.00  0.00     0.246 A 
ENDBRANCH  95  96
ENDBRANCH  94  95
ENDBRANCH  87  89
ENDBRANCH  78  85
ENDBRANCH  74  77
ENDBRANCH  72  73
ENDBRANCH   1  72
TORSDOF 17
ENDMDL
