MODEL 1
REMARK VINA RESULT:     -12.9      0.000      0.000
REMARK SMILES C[C@@H]1OCC[C@@H]1c1nnc(-c2cccc(C(=O)NCCCNC(=O)c3ccc(-c4c5nc(c(-c6cccc(S(=O)(=O)[O-])c6F)c6ccc([nH]6)c(-c6cccc(S(=O)(=O)[O-])c6F)c6nc(c(-c7cccc(S(=O)(=O)[O-])c7F)c7ccc4[nH]7)C=C6)C=C5)cc3)c2)o1
REMARK SMILES IDX 20 1 19 2 18 3 16 4 17 5 15 7 11 8 12 9 88 10 13 11 14 12
REMARK SMILES IDX 10 13 7 14 8 15 89 16 9 17 6 18 1 19 2 20 3 21 4 22 5 23
REMARK SMILES IDX 21 24 22 25 23 26 24 28 25 29 26 30 87 31 27 32 86 33 28 34
REMARK SMILES IDX 29 35 30 36 80 37 31 38 85 39 79 40 81 41 32 42 84 43 78 44
REMARK SMILES IDX 77 45 33 47 65 48 45 49 64 50 46 51 49 52 63 53 82 54 47 55
REMARK SMILES IDX 48 56 62 58 83 59 50 60 34 61 35 62 43 63 36 64 38 65 44 66
REMARK SMILES IDX 37 67 39 68 40 69 41 70 42 71 66 72 67 73 75 74 68 75 70 76
REMARK SMILES IDX 76 77 69 78 71 79 72 80 73 81 74 82 51 83 52 84 60 85 53 86
REMARK SMILES IDX 55 87 61 88 54 89 56 90 57 91 58 92 59 93
REMARK H PARENT 18 6 22 27 81 46 49 57
REMARK Flexibility Score: inf
ROOT
ATOM      1  C   UNL A   1      31.501  32.101  26.869  1.00  0.00     0.042 C 
ENDROOT
BRANCH   1   2
ATOM      2  C   UNL A   1      31.667  30.597  26.700  1.00  0.00     0.118 C 
BRANCH   2   3
ATOM      3  N   UNL A   1      32.416  30.215  25.511  1.00  0.00    -0.352 N 
ATOM      4  C   UNL A   1      32.368  29.194  24.596  1.00  0.00     0.251 C 
ATOM      5  O   UNL A   1      33.171  29.268  23.660  1.00  0.00    -0.269 OA
ATOM      6  H   UNL A   1      33.141  30.851  25.315  1.00  0.00     0.163 HD
BRANCH   4   7
ATOM      7  C   UNL A   1      31.479  27.997  24.666  1.00  0.00     0.040 A 
ATOM      8  C   UNL A   1      30.931  25.712  25.330  1.00  0.00     0.040 A 
ATOM      9  C   UNL A   1      29.830  25.717  24.470  1.00  0.00     0.014 A 
ATOM     10  C   UNL A   1      31.691  26.883  25.474  1.00  0.00     0.027 A 
ATOM     11  C   UNL A   1      29.515  26.866  23.749  1.00  0.00     0.002 A 
ATOM     12  C   UNL A   1      30.351  27.985  23.827  1.00  0.00     0.014 A 
BRANCH   8  13
ATOM     13  C   UNL A   1      31.372  24.484  25.974  1.00  0.00     0.247 A 
ATOM     14  C   UNL A   1      31.914  22.429  26.081  1.00  0.00     0.222 A 
ATOM     15  N   UNL A   1      31.754  22.843  27.321  1.00  0.00    -0.112 NA
ATOM     16  O   UNL A   1      31.711  23.428  25.165  1.00  0.00    -0.420 OA
ATOM     17  N   UNL A   1      31.414  24.176  27.252  1.00  0.00    -0.108 NA
BRANCH  14  18
ATOM     18  C   UNL A   1      32.425  21.122  25.622  1.00  0.00     0.109 C 
ATOM     19  C   UNL A   1      34.901  21.885  25.280  1.00  0.00     0.039 C 
ATOM     20  C   UNL A   1      33.913  20.817  25.747  1.00  0.00     0.127 C 
ATOM     21  O   UNL A   1      34.120  19.666  24.891  1.00  0.00    -0.378 OA
ATOM     22  C   UNL A   1      33.021  19.584  23.962  1.00  0.00     0.161 C 
ATOM     23  C   UNL A   1      32.174  20.823  24.160  1.00  0.00     0.044 C 
ENDBRANCH  14  18
ENDBRANCH   8  13
ENDBRANCH   4   7
ENDBRANCH   2   3
ENDBRANCH   1   2
BRANCH   1  24
ATOM     24  C   UNL A   1      32.794  32.821  27.236  1.00  0.00     0.118 C 
BRANCH  24  25
ATOM     25  N   UNL A   1      32.561  34.193  27.681  1.00  0.00    -0.352 N 
ATOM     26  C   UNL A   1      33.067  34.900  28.744  1.00  0.00     0.251 C 
ATOM     27  H   UNL A   1      31.929  34.700  27.121  1.00  0.00     0.163 HD
ATOM     28  O   UNL A   1      32.530  35.954  29.071  1.00  0.00    -0.269 OA
BRANCH  26  29
ATOM     29  C   UNL A   1      34.244  34.408  29.492  1.00  0.00     0.039 A 
ATOM     30  C   UNL A   1      34.051  33.747  30.710  1.00  0.00     0.014 A 
ATOM     31  C   UNL A   1      35.538  34.631  29.021  1.00  0.00     0.014 A 
ATOM     32  C   UNL A   1      35.151  33.246  31.410  1.00  0.00     0.010 A 
ATOM     33  C   UNL A   1      36.623  34.049  29.668  1.00  0.00     0.010 A 
ATOM     34  C   UNL A   1      36.444  33.354  30.872  1.00  0.00    -0.014 A 
BRANCH  34  35
ATOM     35  C   UNL A   1      37.618  32.729  31.532  1.00  0.00     0.031 A 
ATOM     36  C   UNL A   1      38.334  31.575  30.882  1.00  0.00     0.074 A 
ATOM     37  C   UNL A   1      37.967  33.127  32.772  1.00  0.00     0.049 A 
ATOM     38  N   UNL A   1      39.319  30.849  31.347  1.00  0.00    -0.248 NA
ATOM     39  C   UNL A   1      37.862  31.159  29.551  1.00  0.00     0.031 C 
ATOM     40  C   UNL A   1      37.290  34.171  33.545  1.00  0.00     0.029 A 
ATOM     41  N   UNL A   1      38.952  32.678  33.615  1.00  0.00    -0.354 N 
ATOM     42  C   UNL A   1      39.552  29.868  30.392  1.00  0.00     0.074 A 
ATOM     43  C   UNL A   1      38.586  30.071  29.333  1.00  0.00     0.031 C 
ATOM     44  C   UNL A   1      37.878  34.281  34.747  1.00  0.00     0.029 A 
ATOM     45  C   UNL A   1      38.947  33.294  34.845  1.00  0.00     0.049 A 
ATOM     46  H   UNL A   1      39.600  31.980  33.364  1.00  0.00     0.167 HD
ATOM     47  C   UNL A   1      40.501  28.902  30.382  1.00  0.00     0.034 A 
ATOM     48  C   UNL A   1      39.707  33.078  35.937  1.00  0.00     0.034 A 
ATOM     49  C   UNL A   1      41.487  28.734  31.415  1.00  0.00     0.049 A 
ATOM     50  C   UNL A   1      40.785  32.032  35.882  1.00  0.00     0.074 A 
ATOM     51  C   UNL A   1      42.560  27.862  31.446  1.00  0.00     0.029 A 
ATOM     52  N   UNL A   1      41.513  29.442  32.606  1.00  0.00    -0.354 N 
ATOM     53  N   UNL A   1      41.107  31.233  34.893  1.00  0.00    -0.248 NA
ATOM     54  C   UNL A   1      41.628  31.883  37.076  1.00  0.00     0.031 C 
ATOM     55  C   UNL A   1      43.215  28.018  32.671  1.00  0.00     0.029 A 
ATOM     56  C   UNL A   1      42.571  29.013  33.390  1.00  0.00     0.049 A 
ATOM     57  H   UNL A   1      40.873  30.146  32.859  1.00  0.00     0.167 HD
ATOM     58  C   UNL A   1      42.204  30.504  35.336  1.00  0.00     0.074 A 
ATOM     59  C   UNL A   1      42.509  30.978  36.670  1.00  0.00     0.031 C 
ATOM     60  C   UNL A   1      42.888  29.521  34.700  1.00  0.00     0.034 A 
BRANCH  47  61
ATOM     61  C   UNL A   1      40.549  27.976  29.193  1.00  0.00     0.023 A 
ATOM     62  C   UNL A   1      39.655  26.888  29.117  1.00  0.00     0.012 A 
ATOM     63  C   UNL A   1      41.437  28.214  28.125  1.00  0.00     0.148 A 
ATOM     64  C   UNL A   1      39.668  26.031  28.018  1.00  0.00     0.002 A 
ATOM     65  C   UNL A   1      41.412  27.383  27.011  1.00  0.00     0.091 A 
ATOM     66  F   UNL A   1      42.295  29.240  28.223  1.00  0.00    -0.205 F 
ATOM     67  C   UNL A   1      40.539  26.284  26.961  1.00  0.00     0.022 A 
BRANCH  65  68
ATOM     68  S   UNL A   1      42.435  27.672  25.563  1.00  0.00     0.127 S 
ATOM     69  O   UNL A   1      43.774  27.711  26.151  1.00  0.00    -0.237 OA
ATOM     70  O   UNL A   1      42.160  26.488  24.750  1.00  0.00    -0.237 OA
ATOM     71  O   UNL A   1      41.970  28.926  24.986  1.00  0.00    -0.744 OA
ENDBRANCH  65  68
ENDBRANCH  47  61
BRANCH  48  72
ATOM     72  C   UNL A   1      39.501  33.908  37.157  1.00  0.00     0.023 A 
ATOM     73  C   UNL A   1      39.945  35.245  37.169  1.00  0.00     0.012 A 
ATOM     74  C   UNL A   1      38.833  33.397  38.286  1.00  0.00     0.148 A 
ATOM     75  C   UNL A   1      39.756  36.047  38.295  1.00  0.00     0.002 A 
ATOM     76  C   UNL A   1      38.595  34.218  39.380  1.00  0.00     0.091 A 
ATOM     77  F   UNL A   1      38.426  32.119  38.257  1.00  0.00    -0.205 F 
ATOM     78  C   UNL A   1      39.071  35.537  39.396  1.00  0.00     0.022 A 
BRANCH  76  79
ATOM     79  S   UNL A   1      37.601  33.692  40.782  1.00  0.00     0.127 S 
ATOM     80  O   UNL A   1      38.474  32.707  41.415  1.00  0.00    -0.237 OA
ATOM     81  O   UNL A   1      37.444  34.944  41.523  1.00  0.00    -0.237 OA
ATOM     82  O   UNL A   1      36.365  33.172  40.213  1.00  0.00    -0.744 OA
ENDBRANCH  76  79
ENDBRANCH  48  72
BRANCH  60  83
ATOM     83  C   UNL A   1      44.055  28.902  35.424  1.00  0.00     0.023 A 
ATOM     84  C   UNL A   1      45.338  29.474  35.304  1.00  0.00     0.012 A 
ATOM     85  C   UNL A   1      43.867  27.801  36.282  1.00  0.00     0.148 A 
ATOM     86  C   UNL A   1      46.420  28.938  36.000  1.00  0.00     0.002 A 
ATOM     87  C   UNL A   1      44.939  27.305  37.012  1.00  0.00     0.091 A 
ATOM     88  F   UNL A   1      42.643  27.261  36.368  1.00  0.00    -0.205 F 
ATOM     89  C   UNL A   1      46.218  27.863  36.863  1.00  0.00     0.022 A 
BRANCH  87  90
ATOM     90  S   UNL A   1      44.756  25.988  38.220  1.00  0.00     0.127 S 
ATOM     91  O   UNL A   1      46.035  26.053  38.926  1.00  0.00    -0.237 OA
ATOM     92  O   UNL A   1      43.605  26.440  39.001  1.00  0.00    -0.237 OA
ATOM     93  O   UNL A   1      44.528  24.769  37.456  1.00  0.00    -0.744 OA
ENDBRANCH  87  90
ENDBRANCH  60  83
ENDBRANCH  34  35
ENDBRANCH  26  29
ENDBRANCH  24  25
ENDBRANCH   1  24
TORSDOF 15
ENDMDL
MODEL 2
REMARK VINA RESULT:     -12.8      3.644      8.967
REMARK SMILES C[C@@H]1OCC[C@@H]1c1nnc(-c2cccc(C(=O)NCCCNC(=O)c3ccc(-c4c5nc(c(-c6cccc(S(=O)(=O)[O-])c6F)c6ccc([nH]6)c(-c6cccc(S(=O)(=O)[O-])c6F)c6nc(c(-c7cccc(S(=O)(=O)[O-])c7F)c7ccc4[nH]7)C=C6)C=C5)cc3)c2)o1
REMARK SMILES IDX 20 1 19 2 18 3 16 4 17 5 15 7 11 8 12 9 88 10 13 11 14 12
REMARK SMILES IDX 10 13 7 14 8 15 89 16 9 17 6 18 1 19 2 20 3 21 4 22 5 23
REMARK SMILES IDX 21 24 22 25 23 26 24 28 25 29 26 30 87 31 27 32 86 33 28 34
REMARK SMILES IDX 29 35 30 36 80 37 31 38 85 39 79 40 81 41 32 42 84 43 78 44
REMARK SMILES IDX 77 45 33 47 65 48 45 49 64 50 46 51 49 52 63 53 82 54 47 55
REMARK SMILES IDX 48 56 62 58 83 59 50 60 34 61 35 62 43 63 36 64 38 65 44 66
REMARK SMILES IDX 37 67 39 68 40 69 41 70 42 71 66 72 67 73 75 74 68 75 70 76
REMARK SMILES IDX 76 77 69 78 71 79 72 80 73 81 74 82 51 83 52 84 60 85 53 86
REMARK SMILES IDX 55 87 61 88 54 89 56 90 57 91 58 92 59 93
REMARK H PARENT 18 6 22 27 81 46 49 57
REMARK Flexibility Score: inf
ROOT
ATOM      1  C   UNL A   1      33.687  28.692  25.056  1.00  0.00     0.042 C 
ENDROOT
BRANCH   1   2
ATOM      2  C   UNL A   1      32.473  27.921  24.557  1.00  0.00     0.118 C 
BRANCH   2   3
ATOM      3  N   UNL A   1      31.852  27.078  25.568  1.00  0.00    -0.352 N 
ATOM      4  C   UNL A   1      32.039  25.806  26.049  1.00  0.00     0.251 C 
ATOM      5  O   UNL A   1      31.315  25.472  26.992  1.00  0.00    -0.269 OA
ATOM      6  H   UNL A   1      31.108  27.537  26.022  1.00  0.00     0.163 HD
BRANCH   4   7
ATOM      7  C   UNL A   1      32.990  24.794  25.499  1.00  0.00     0.040 A 
ATOM      8  C   UNL A   1      33.589  22.582  24.658  1.00  0.00     0.040 A 
ATOM      9  C   UNL A   1      34.945  22.904  24.751  1.00  0.00     0.014 A 
ATOM     10  C   UNL A   1      32.631  23.563  24.957  1.00  0.00     0.027 A 
ATOM     11  C   UNL A   1      35.331  24.177  25.163  1.00  0.00     0.002 A 
ATOM     12  C   UNL A   1      34.361  25.103  25.560  1.00  0.00     0.014 A 
BRANCH   8  13
ATOM     13  C   UNL A   1      33.160  21.219  24.381  1.00  0.00     0.247 A 
ATOM     14  C   UNL A   1      33.235  19.095  24.493  1.00  0.00     0.222 A 
ATOM     15  N   UNL A   1      32.404  19.394  23.516  1.00  0.00    -0.112 NA
ATOM     16  O   UNL A   1      33.740  20.210  25.110  1.00  0.00    -0.420 OA
ATOM     17  N   UNL A   1      32.347  20.769  23.451  1.00  0.00    -0.108 NA
BRANCH  14  18
ATOM     18  C   UNL A   1      33.523  17.763  25.061  1.00  0.00     0.109 C 
ATOM     19  C   UNL A   1      34.288  16.655  22.821  1.00  0.00     0.039 C 
ATOM     20  C   UNL A   1      34.479  16.830  24.326  1.00  0.00     0.127 C 
ATOM     21  O   UNL A   1      34.245  15.530  24.922  1.00  0.00    -0.378 OA
ATOM     22  C   UNL A   1      32.960  15.551  25.574  1.00  0.00     0.161 C 
ATOM     23  C   UNL A   1      32.309  16.877  25.241  1.00  0.00     0.044 C 
ENDBRANCH  14  18
ENDBRANCH   8  13
ENDBRANCH   4   7
ENDBRANCH   2   3
ENDBRANCH   1   2
BRANCH   1  24
ATOM     24  C   UNL A   1      33.687  28.923  26.563  1.00  0.00     0.118 C 
BRANCH  24  25
ATOM     25  N   UNL A   1      33.823  30.337  26.910  1.00  0.00    -0.352 N 
ATOM     26  C   UNL A   1      34.724  30.990  27.715  1.00  0.00     0.251 C 
ATOM     27  H   UNL A   1      33.151  30.924  26.495  1.00  0.00     0.163 HD
ATOM     28  O   UNL A   1      34.487  32.143  28.066  1.00  0.00    -0.269 OA
BRANCH  26  29
ATOM     29  C   UNL A   1      35.968  30.324  28.160  1.00  0.00     0.039 A 
ATOM     30  C   UNL A   1      37.091  30.353  27.327  1.00  0.00     0.014 A 
ATOM     31  C   UNL A   1      36.020  29.637  29.372  1.00  0.00     0.014 A 
ATOM     32  C   UNL A   1      38.283  29.758  27.748  1.00  0.00     0.010 A 
ATOM     33  C   UNL A   1      37.230  29.130  29.832  1.00  0.00     0.010 A 
ATOM     34  C   UNL A   1      38.375  29.180  29.025  1.00  0.00    -0.014 A 
BRANCH  34  35
ATOM     35  C   UNL A   1      39.658  28.647  29.550  1.00  0.00     0.031 A 
ATOM     36  C   UNL A   1      40.383  29.357  30.661  1.00  0.00     0.074 A 
ATOM     37  C   UNL A   1      40.227  27.585  28.944  1.00  0.00     0.049 A 
ATOM     38  N   UNL A   1      41.551  29.091  31.186  1.00  0.00    -0.248 NA
ATOM     39  C   UNL A   1      39.726  30.543  31.238  1.00  0.00     0.031 C 
ATOM     40  C   UNL A   1      39.668  26.869  27.795  1.00  0.00     0.029 A 
ATOM     41  N   UNL A   1      41.418  26.947  29.184  1.00  0.00    -0.354 N 
ATOM     42  C   UNL A   1      41.790  30.096  32.116  1.00  0.00     0.074 A 
ATOM     43  C   UNL A   1      40.658  30.996  32.063  1.00  0.00     0.031 C 
ATOM     44  C   UNL A   1      40.514  25.892  27.431  1.00  0.00     0.029 A 
ATOM     45  C   UNL A   1      41.689  25.934  28.293  1.00  0.00     0.049 A 
ATOM     46  H   UNL A   1      42.021  27.190  29.923  1.00  0.00     0.167 HD
ATOM     47  C   UNL A   1      42.841  30.241  32.957  1.00  0.00     0.034 A 
ATOM     48  C   UNL A   1      42.770  25.139  28.171  1.00  0.00     0.034 A 
ATOM     49  C   UNL A   1      43.941  29.318  33.035  1.00  0.00     0.049 A 
ATOM     50  C   UNL A   1      43.902  25.291  29.149  1.00  0.00     0.074 A 
ATOM     51  C   UNL A   1      44.996  29.313  33.929  1.00  0.00     0.029 A 
ATOM     52  N   UNL A   1      44.135  28.245  32.180  1.00  0.00    -0.354 N 
ATOM     53  N   UNL A   1      44.024  26.139  30.142  1.00  0.00    -0.248 NA
ATOM     54  C   UNL A   1      45.027  24.356  29.014  1.00  0.00     0.031 C 
ATOM     55  C   UNL A   1      45.848  28.256  33.593  1.00  0.00     0.029 A 
ATOM     56  C   UNL A   1      45.305  27.581  32.511  1.00  0.00     0.049 A 
ATOM     57  H   UNL A   1      43.531  27.991  31.445  1.00  0.00     0.167 HD
ATOM     58  C   UNL A   1      45.226  25.823  30.765  1.00  0.00     0.074 A 
ATOM     59  C   UNL A   1      45.779  24.689  30.055  1.00  0.00     0.031 C 
ATOM     60  C   UNL A   1      45.824  26.428  31.821  1.00  0.00     0.034 A 
BRANCH  47  61
ATOM     61  C   UNL A   1      42.833  31.422  33.894  1.00  0.00     0.023 A 
ATOM     62  C   UNL A   1      43.355  32.659  33.465  1.00  0.00     0.012 A 
ATOM     63  C   UNL A   1      42.257  31.324  35.177  1.00  0.00     0.148 A 
ATOM     64  C   UNL A   1      43.339  33.770  34.308  1.00  0.00     0.002 A 
ATOM     65  C   UNL A   1      42.202  32.447  35.994  1.00  0.00     0.091 A 
ATOM     66  F   UNL A   1      41.785  30.135  35.577  1.00  0.00    -0.205 F 
ATOM     67  C   UNL A   1      42.754  33.666  35.568  1.00  0.00     0.022 A 
BRANCH  65  68
ATOM     68  S   UNL A   1      41.397  32.439  37.600  1.00  0.00     0.127 S 
ATOM     69  O   UNL A   1      41.500  33.846  37.987  1.00  0.00    -0.237 OA
ATOM     70  O   UNL A   1      40.044  31.996  37.263  1.00  0.00    -0.237 OA
ATOM     71  O   UNL A   1      42.154  31.508  38.425  1.00  0.00    -0.744 OA
ENDBRANCH  65  68
ENDBRANCH  47  61
BRANCH  48  72
ATOM     72  C   UNL A   1      42.805  24.095  27.109  1.00  0.00     0.023 A 
ATOM     73  C   UNL A   1      43.535  24.330  25.929  1.00  0.00     0.012 A 
ATOM     74  C   UNL A   1      42.155  22.858  27.280  1.00  0.00     0.148 A 
ATOM     75  C   UNL A   1      43.593  23.364  24.923  1.00  0.00     0.002 A 
ATOM     76  C   UNL A   1      42.264  21.878  26.301  1.00  0.00     0.091 A 
ATOM     77  F   UNL A   1      41.458  22.657  28.408  1.00  0.00    -0.205 F 
ATOM     78  C   UNL A   1      42.967  22.135  25.114  1.00  0.00     0.022 A 
BRANCH  76  79
ATOM     79  S   UNL A   1      41.612  20.218  26.521  1.00  0.00     0.127 S 
ATOM     80  O   UNL A   1      40.172  20.455  26.479  1.00  0.00    -0.237 OA
ATOM     81  O   UNL A   1      42.158  19.526  25.353  1.00  0.00    -0.237 OA
ATOM     82  O   UNL A   1      42.142  19.754  27.796  1.00  0.00    -0.744 OA
ENDBRANCH  76  79
ENDBRANCH  48  72
BRANCH  60  83
ATOM     83  C   UNL A   1      47.136  25.863  32.297  1.00  0.00     0.023 A 
ATOM     84  C   UNL A   1      48.343  26.317  31.726  1.00  0.00     0.012 A 
ATOM     85  C   UNL A   1      47.180  24.940  33.360  1.00  0.00     0.148 A 
ATOM     86  C   UNL A   1      49.569  25.836  32.183  1.00  0.00     0.002 A 
ATOM     87  C   UNL A   1      48.406  24.504  33.845  1.00  0.00     0.091 A 
ATOM     88  F   UNL A   1      46.021  24.508  33.878  1.00  0.00    -0.205 F 
ATOM     89  C   UNL A   1      49.600  24.940  33.250  1.00  0.00     0.022 A 
BRANCH  87  90
ATOM     90  S   UNL A   1      48.550  23.428  35.276  1.00  0.00     0.127 S 
ATOM     91  O   UNL A   1      48.037  24.285  36.344  1.00  0.00    -0.237 OA
ATOM     92  O   UNL A   1      47.675  22.313  34.916  1.00  0.00    -0.237 OA
ATOM     93  O   UNL A   1      49.961  23.081  35.380  1.00  0.00    -0.744 OA
ENDBRANCH  87  90
ENDBRANCH  60  83
ENDBRANCH  34  35
ENDBRANCH  26  29
ENDBRANCH  24  25
ENDBRANCH   1  24
TORSDOF 15
ENDMDL
MODEL 3
REMARK VINA RESULT:     -12.7      5.845     10.533
REMARK SMILES C[C@@H]1OCC[C@@H]1c1nnc(-c2cccc(C(=O)NCCCNC(=O)c3ccc(-c4c5nc(c(-c6cccc(S(=O)(=O)[O-])c6F)c6ccc([nH]6)c(-c6cccc(S(=O)(=O)[O-])c6F)c6nc(c(-c7cccc(S(=O)(=O)[O-])c7F)c7ccc4[nH]7)C=C6)C=C5)cc3)c2)o1
REMARK SMILES IDX 20 1 19 2 18 3 16 4 17 5 15 7 11 8 12 9 88 10 13 11 14 12
REMARK SMILES IDX 10 13 7 14 8 15 89 16 9 17 6 18 1 19 2 20 3 21 4 22 5 23
REMARK SMILES IDX 21 24 22 25 23 26 24 28 25 29 26 30 87 31 27 32 86 33 28 34
REMARK SMILES IDX 29 35 30 36 80 37 31 38 85 39 79 40 81 41 32 42 84 43 78 44
REMARK SMILES IDX 77 45 33 47 65 48 45 49 64 50 46 51 49 52 63 53 82 54 47 55
REMARK SMILES IDX 48 56 62 58 83 59 50 60 34 61 35 62 43 63 36 64 38 65 44 66
REMARK SMILES IDX 37 67 39 68 40 69 41 70 42 71 66 72 67 73 75 74 68 75 70 76
REMARK SMILES IDX 76 77 69 78 71 79 72 80 73 81 74 82 51 83 52 84 60 85 53 86
REMARK SMILES IDX 55 87 61 88 54 89 56 90 57 91 58 92 59 93
REMARK H PARENT 18 6 22 27 81 46 49 57
REMARK Flexibility Score: inf
ROOT
ATOM      1  C   UNL A   1      35.447  22.788  27.125  1.00  0.00     0.042 C 
ENDROOT
BRANCH   1   2
ATOM      2  C   UNL A   1      34.257  21.999  27.652  1.00  0.00     0.118 C 
BRANCH   2   3
ATOM      3  N   UNL A   1      33.014  22.757  27.685  1.00  0.00    -0.352 N 
ATOM      4  C   UNL A   1      31.983  23.006  26.815  1.00  0.00     0.251 C 
ATOM      5  O   UNL A   1      31.045  23.672  27.264  1.00  0.00    -0.269 OA
ATOM      6  H   UNL A   1      32.880  23.204  28.552  1.00  0.00     0.163 HD
BRANCH   4   7
ATOM      7  C   UNL A   1      31.928  22.591  25.382  1.00  0.00     0.040 A 
ATOM      8  C   UNL A   1      32.081  20.967  23.564  1.00  0.00     0.040 A 
ATOM      9  C   UNL A   1      32.088  22.004  22.628  1.00  0.00     0.014 A 
ATOM     10  C   UNL A   1      31.919  21.276  24.923  1.00  0.00     0.027 A 
ATOM     11  C   UNL A   1      31.962  23.325  23.051  1.00  0.00     0.002 A 
ATOM     12  C   UNL A   1      31.912  23.615  24.418  1.00  0.00     0.014 A 
BRANCH   8  13
ATOM     13  C   UNL A   1      32.365  19.597  23.166  1.00  0.00     0.247 A 
ATOM     14  C   UNL A   1      33.353  17.714  23.243  1.00  0.00     0.222 A 
ATOM     15  N   UNL A   1      32.682  17.743  22.111  1.00  0.00    -0.112 NA
ATOM     16  O   UNL A   1      33.181  18.854  23.984  1.00  0.00    -0.420 OA
ATOM     17  N   UNL A   1      32.034  18.958  22.066  1.00  0.00    -0.108 NA
BRANCH  14  18
ATOM     18  C   UNL A   1      34.088  16.576  23.831  1.00  0.00     0.109 C 
ATOM     19  C   UNL A   1      32.396  16.110  25.767  1.00  0.00     0.039 C 
ATOM     20  C   UNL A   1      33.336  15.567  24.693  1.00  0.00     0.127 C 
ATOM     21  O   UNL A   1      34.378  14.840  25.390  1.00  0.00    -0.378 OA
ATOM     22  C   UNL A   1      35.584  15.628  25.360  1.00  0.00     0.161 C 
ATOM     23  C   UNL A   1      35.231  16.965  24.743  1.00  0.00     0.044 C 
ENDBRANCH  14  18
ENDBRANCH   8  13
ENDBRANCH   4   7
ENDBRANCH   2   3
ENDBRANCH   1   2
BRANCH   1  24
ATOM     24  C   UNL A   1      35.823  22.440  25.689  1.00  0.00     0.118 C 
BRANCH  24  25
ATOM     25  N   UNL A   1      36.828  21.381  25.616  1.00  0.00    -0.352 N 
ATOM     26  C   UNL A   1      38.194  21.415  25.757  1.00  0.00     0.251 C 
ATOM     27  H   UNL A   1      36.461  20.485  25.433  1.00  0.00     0.163 HD
ATOM     28  O   UNL A   1      38.856  20.446  25.396  1.00  0.00    -0.269 OA
BRANCH  26  29
ATOM     29  C   UNL A   1      38.869  22.598  26.333  1.00  0.00     0.039 A 
ATOM     30  C   UNL A   1      39.918  22.409  27.238  1.00  0.00     0.014 A 
ATOM     31  C   UNL A   1      38.445  23.889  26.020  1.00  0.00     0.014 A 
ATOM     32  C   UNL A   1      40.588  23.517  27.765  1.00  0.00     0.010 A 
ATOM     33  C   UNL A   1      39.172  24.987  26.468  1.00  0.00     0.010 A 
ATOM     34  C   UNL A   1      40.249  24.815  27.349  1.00  0.00    -0.014 A 
BRANCH  34  35
ATOM     35  C   UNL A   1      41.018  26.004  27.797  1.00  0.00     0.031 A 
ATOM     36  C   UNL A   1      40.339  27.110  28.559  1.00  0.00     0.074 A 
ATOM     37  C   UNL A   1      42.304  26.139  27.415  1.00  0.00     0.049 A 
ATOM     38  N   UNL A   1      40.826  28.258  28.954  1.00  0.00    -0.248 NA
ATOM     39  C   UNL A   1      38.918  26.917  28.894  1.00  0.00     0.031 C 
ATOM     40  C   UNL A   1      43.046  25.179  26.593  1.00  0.00     0.029 A 
ATOM     41  N   UNL A   1      43.204  27.152  27.633  1.00  0.00    -0.354 N 
ATOM     42  C   UNL A   1      39.766  28.941  29.538  1.00  0.00     0.074 A 
ATOM     43  C   UNL A   1      38.601  28.091  29.421  1.00  0.00     0.031 C 
ATOM     44  C   UNL A   1      44.284  25.649  26.377  1.00  0.00     0.029 A 
ATOM     45  C   UNL A   1      44.415  26.956  27.010  1.00  0.00     0.049 A 
ATOM     46  H   UNL A   1      43.002  27.943  28.182  1.00  0.00     0.167 HD
ATOM     47  C   UNL A   1      39.768  30.153  30.143  1.00  0.00     0.034 A 
ATOM     48  C   UNL A   1      45.504  27.747  26.941  1.00  0.00     0.034 A 
ATOM     49  C   UNL A   1      40.940  30.972  30.296  1.00  0.00     0.049 A 
ATOM     50  C   UNL A   1      45.495  29.066  27.662  1.00  0.00     0.074 A 
ATOM     51  C   UNL A   1      41.072  32.161  30.991  1.00  0.00     0.029 A 
ATOM     52  N   UNL A   1      42.177  30.697  29.736  1.00  0.00    -0.354 N 
ATOM     53  N   UNL A   1      44.533  29.613  28.366  1.00  0.00    -0.248 NA
ATOM     54  C   UNL A   1      46.730  29.860  27.612  1.00  0.00     0.031 C 
ATOM     55  C   UNL A   1      42.381  32.623  30.822  1.00  0.00     0.029 A 
ATOM     56  C   UNL A   1      43.074  31.703  30.051  1.00  0.00     0.049 A 
ATOM     57  H   UNL A   1      42.387  29.903  29.194  1.00  0.00     0.167 HD
ATOM     58  C   UNL A   1      45.055  30.802  28.863  1.00  0.00     0.074 A 
ATOM     59  C   UNL A   1      46.425  30.880  28.403  1.00  0.00     0.031 C 
ATOM     60  C   UNL A   1      44.448  31.749  29.620  1.00  0.00     0.034 A 
BRANCH  47  61
ATOM     61  C   UNL A   1      38.469  30.649  30.726  1.00  0.00     0.023 A 
ATOM     62  C   UNL A   1      38.169  30.397  32.080  1.00  0.00     0.012 A 
ATOM     63  C   UNL A   1      37.572  31.412  29.952  1.00  0.00     0.148 A 
ATOM     64  C   UNL A   1      36.983  30.863  32.646  1.00  0.00     0.002 A 
ATOM     65  C   UNL A   1      36.414  31.913  30.535  1.00  0.00     0.091 A 
ATOM     66  F   UNL A   1      37.862  31.624  28.660  1.00  0.00    -0.205 F 
ATOM     67  C   UNL A   1      36.111  31.628  31.876  1.00  0.00     0.022 A 
BRANCH  65  68
ATOM     68  S   UNL A   1      35.268  32.979  29.653  1.00  0.00     0.127 S 
ATOM     69  O   UNL A   1      34.760  32.075  28.622  1.00  0.00    -0.237 OA
ATOM     70  O   UNL A   1      34.301  33.319  30.696  1.00  0.00    -0.237 OA
ATOM     71  O   UNL A   1      36.057  34.102  29.166  1.00  0.00    -0.744 OA
ENDBRANCH  65  68
ENDBRANCH  47  61
BRANCH  48  72
ATOM     72  C   UNL A   1      46.709  27.283  26.200  1.00  0.00     0.023 A 
ATOM     73  C   UNL A   1      46.819  27.544  24.821  1.00  0.00     0.012 A 
ATOM     74  C   UNL A   1      47.764  26.623  26.860  1.00  0.00     0.148 A 
ATOM     75  C   UNL A   1      47.944  27.130  24.105  1.00  0.00     0.002 A 
ATOM     76  C   UNL A   1      48.905  26.265  26.154  1.00  0.00     0.091 A 
ATOM     77  F   UNL A   1      47.636  26.376  28.172  1.00  0.00    -0.205 F 
ATOM     78  C   UNL A   1      48.991  26.500  24.774  1.00  0.00     0.022 A 
BRANCH  76  79
ATOM     79  S   UNL A   1      50.360  25.580  26.957  1.00  0.00     0.127 S 
ATOM     80  O   UNL A   1      51.260  25.381  25.824  1.00  0.00    -0.237 OA
ATOM     81  O   UNL A   1      50.739  26.664  27.864  1.00  0.00    -0.237 OA
ATOM     82  O   UNL A   1      49.905  24.369  27.626  1.00  0.00    -0.744 OA
ENDBRANCH  76  79
ENDBRANCH  48  72
BRANCH  60  83
ATOM     83  C   UNL A   1      45.266  32.948  30.025  1.00  0.00     0.023 A 
ATOM     84  C   UNL A   1      46.015  32.915  31.218  1.00  0.00     0.012 A 
ATOM     85  C   UNL A   1      45.352  34.076  29.186  1.00  0.00     0.148 A 
ATOM     86  C   UNL A   1      46.810  33.999  31.587  1.00  0.00     0.002 A 
ATOM     87  C   UNL A   1      46.185  35.132  29.534  1.00  0.00     0.091 A 
ATOM     88  F   UNL A   1      44.618  34.096  28.064  1.00  0.00    -0.205 F 
ATOM     89  C   UNL A   1      46.905  35.100  30.739  1.00  0.00     0.022 A 
BRANCH  87  90
ATOM     90  S   UNL A   1      46.448  36.547  28.460  1.00  0.00     0.127 S 
ATOM     91  O   UNL A   1      45.079  36.882  28.069  1.00  0.00    -0.237 OA
ATOM     92  O   UNL A   1      47.077  37.510  29.364  1.00  0.00    -0.237 OA
ATOM     93  O   UNL A   1      47.308  36.081  27.381  1.00  0.00    -0.744 OA
ENDBRANCH  87  90
ENDBRANCH  60  83
ENDBRANCH  34  35
ENDBRANCH  26  29
ENDBRANCH  24  25
ENDBRANCH   1  24
TORSDOF 15
ENDMDL
