MODEL 1
REMARK VINA RESULT:     -11.7      0.000      0.000
REMARK SMILES CCOc1cc2c(cc1OCC)[C@@H](C(=O)NCCCNC(=O)c1ccc(-c3c4nc(c(-c5cccc(S(=O)(=O)[O-])c5F)c5ccc([nH]5)c(-c5cccc(S(=O)(=O)[O-])c5F)c5nc(c(-c6cccc(S(=O)(=O)[O-])c6F)c6ccc3[nH]6)C=C5)C=C4)cc1)[C@H](c1ccc(F)cc1Cl)N(C)C2=O
REMARK SMILES IDX 18 1 17 2 16 3 14 4 15 5 13 7 4 8 5 9 9 10 6 11 8 12 7 13
REMARK SMILES IDX 97 14 95 15 98 16 86 17 96 18 3 19 2 20 1 21 10 22 11 23
REMARK SMILES IDX 12 24 87 25 88 26 93 27 89 28 92 29 94 30 90 31 91 32 19 33
REMARK SMILES IDX 20 34 21 35 22 37 23 38 24 39 85 40 25 41 84 42 26 43 27 44
REMARK SMILES IDX 28 45 78 46 29 47 83 48 77 49 79 50 30 51 82 52 76 53 75 54
REMARK SMILES IDX 31 56 63 57 43 58 62 59 44 60 47 61 61 62 80 63 45 64 46 65
REMARK SMILES IDX 60 67 81 68 48 69 32 70 33 71 41 72 34 73 36 74 42 75 35 76
REMARK SMILES IDX 37 77 38 78 39 79 40 80 64 81 65 82 73 83 66 84 68 85 74 86
REMARK SMILES IDX 67 87 69 88 70 89 71 90 72 91 49 92 50 93 58 94 51 95 53 96
REMARK SMILES IDX 59 97 52 98 54 99 55 100 56 101 57 102
REMARK H PARENT 16 6 20 36 79 55 47 66
REMARK Flexibility Score: inf
ROOT
ATOM      1  C   UNL A   1      36.371  23.087  23.404  1.00  0.00     0.042 C 
ENDROOT
BRANCH   1   2
ATOM      2  C   UNL A   1      34.855  23.126  23.248  1.00  0.00     0.117 C 
BRANCH   2   3
ATOM      3  N   UNL A   1      34.444  24.156  22.304  1.00  0.00    -0.355 N 
ATOM      4  C   UNL A   1      33.786  25.336  22.425  1.00  0.00     0.230 C 
ATOM      5  O   UNL A   1      33.505  25.893  21.353  1.00  0.00    -0.274 OA
ATOM      6  H   UNL A   1      34.700  23.951  21.376  1.00  0.00     0.163 HD
BRANCH   4   7
ATOM      7  C   UNL A   1      33.358  26.025  23.723  1.00  0.00     0.136 C 
ATOM      8  C   UNL A   1      31.048  23.895  26.667  1.00  0.00     0.161 A 
ATOM      9  C   UNL A   1      30.439  24.802  25.791  1.00  0.00     0.064 A 
ATOM     10  C   UNL A   1      32.433  23.682  26.607  1.00  0.00     0.161 A 
ATOM     11  C   UNL A   1      31.181  25.452  24.811  1.00  0.00     0.048 A 
ATOM     12  C   UNL A   1      33.169  24.336  25.607  1.00  0.00     0.056 A 
ATOM     13  C   UNL A   1      32.555  25.222  24.711  1.00  0.00    -0.016 A 
ATOM     14  C   UNL A   1      30.492  26.341  23.834  1.00  0.00     0.254 C 
ATOM     15  N   UNL A   1      31.299  27.238  23.136  1.00  0.00    -0.333 N 
ATOM     16  O   UNL A   1      29.287  26.208  23.663  1.00  0.00    -0.269 OA
ATOM     17  C   UNL A   1      32.696  27.430  23.517  1.00  0.00     0.134 C 
ATOM     18  C   UNL A   1      30.732  28.100  22.103  1.00  0.00     0.147 C 
BRANCH   8  19
ATOM     19  O   UNL A   1      30.260  23.323  27.629  1.00  0.00    -0.490 OA
BRANCH  19  20
ATOM     20  C   UNL A   1      28.878  23.248  27.251  1.00  0.00     0.226 C 
ATOM     21  C   UNL A   1      28.252  21.914  27.626  1.00  0.00     0.049 C 
ENDBRANCH  19  20
ENDBRANCH   8  19
BRANCH  10  22
ATOM     22  O   UNL A   1      33.233  22.922  27.414  1.00  0.00    -0.490 OA
BRANCH  22  23
ATOM     23  C   UNL A   1      34.227  22.070  26.860  1.00  0.00     0.226 C 
ATOM     24  C   UNL A   1      33.633  20.799  26.275  1.00  0.00     0.049 C 
ENDBRANCH  22  23
ENDBRANCH  10  22
BRANCH  17  25
ATOM     25  C   UNL A   1      32.914  28.350  24.757  1.00  0.00    -0.005 A 
ATOM     26  C   UNL A   1      34.096  28.104  25.503  1.00  0.00     0.010 A 
ATOM     27  C   UNL A   1      32.065  29.372  25.252  1.00  0.00     0.049 A 
ATOM     28  C   UNL A   1      34.358  28.742  26.719  1.00  0.00     0.040 A 
ATOM     29  C   UNL A   1      32.340  30.013  26.472  1.00  0.00     0.060 A 
ATOM     30  Cl  UNL A   1      30.650  29.999  24.488  1.00  0.00    -0.084 Cl
ATOM     31  C   UNL A   1      33.465  29.678  27.200  1.00  0.00     0.124 A 
ATOM     32  F   UNL A   1      33.695  30.278  28.375  1.00  0.00    -0.207 F 
ENDBRANCH  17  25
ENDBRANCH   4   7
ENDBRANCH   2   3
ENDBRANCH   1   2
BRANCH   1  33
ATOM     33  C   UNL A   1      36.882  23.546  24.758  1.00  0.00     0.118 C 
BRANCH  33  34
ATOM     34  N   UNL A   1      37.733  22.551  25.393  1.00  0.00    -0.352 N 
ATOM     35  C   UNL A   1      38.863  22.702  26.163  1.00  0.00     0.251 C 
ATOM     36  H   UNL A   1      37.455  21.618  25.249  1.00  0.00     0.163 HD
ATOM     37  O   UNL A   1      39.526  21.702  26.436  1.00  0.00    -0.269 OA
BRANCH  35  38
ATOM     38  C   UNL A   1      39.297  24.031  26.664  1.00  0.00     0.039 A 
ATOM     39  C   UNL A   1      38.965  24.396  27.975  1.00  0.00     0.014 A 
ATOM     40  C   UNL A   1      39.973  24.943  25.853  1.00  0.00     0.014 A 
ATOM     41  C   UNL A   1      39.349  25.647  28.475  1.00  0.00     0.010 A 
ATOM     42  C   UNL A   1      40.445  26.143  26.384  1.00  0.00     0.010 A 
ATOM     43  C   UNL A   1      40.115  26.522  27.692  1.00  0.00    -0.014 A 
BRANCH  43  44
ATOM     44  C   UNL A   1      40.560  27.846  28.208  1.00  0.00     0.031 A 
ATOM     45  C   UNL A   1      42.030  28.135  28.387  1.00  0.00     0.074 A 
ATOM     46  C   UNL A   1      39.645  28.754  28.602  1.00  0.00     0.049 A 
ATOM     47  N   UNL A   1      42.607  29.197  28.888  1.00  0.00    -0.248 NA
ATOM     48  C   UNL A   1      42.977  27.081  27.982  1.00  0.00     0.031 C 
ATOM     49  C   UNL A   1      38.193  28.564  28.568  1.00  0.00     0.029 A 
ATOM     50  N   UNL A   1      39.801  30.008  29.141  1.00  0.00    -0.354 N 
ATOM     51  C   UNL A   1      43.970  28.919  28.906  1.00  0.00     0.074 A 
ATOM     52  C   UNL A   1      44.134  27.577  28.394  1.00  0.00     0.031 C 
ATOM     53  C   UNL A   1      37.593  29.658  29.061  1.00  0.00     0.029 A 
ATOM     54  C   UNL A   1      38.613  30.616  29.476  1.00  0.00     0.049 A 
ATOM     55  H   UNL A   1      40.679  30.433  29.273  1.00  0.00     0.167 HD
ATOM     56  C   UNL A   1      44.996  29.717  29.287  1.00  0.00     0.034 A 
ATOM     57  C   UNL A   1      38.370  31.804  30.064  1.00  0.00     0.034 A 
ATOM     58  C   UNL A   1      44.836  31.074  29.733  1.00  0.00     0.049 A 
ATOM     59  C   UNL A   1      39.530  32.700  30.409  1.00  0.00     0.074 A 
ATOM     60  C   UNL A   1      45.818  32.003  30.027  1.00  0.00     0.029 A 
ATOM     61  N   UNL A   1      43.618  31.694  29.955  1.00  0.00    -0.354 N 
ATOM     62  N   UNL A   1      40.813  32.485  30.252  1.00  0.00    -0.248 NA
ATOM     63  C   UNL A   1      39.208  34.019  30.974  1.00  0.00     0.031 C 
ATOM     64  C   UNL A   1      45.193  33.177  30.456  1.00  0.00     0.029 A 
ATOM     65  C   UNL A   1      43.822  32.990  30.397  1.00  0.00     0.049 A 
ATOM     66  H   UNL A   1      42.737  31.275  29.819  1.00  0.00     0.167 HD
ATOM     67  C   UNL A   1      41.449  33.650  30.667  1.00  0.00     0.074 A 
ATOM     68  C   UNL A   1      40.408  34.577  31.059  1.00  0.00     0.031 C 
ATOM     69  C   UNL A   1      42.776  33.921  30.733  1.00  0.00     0.034 A 
BRANCH  56  70
ATOM     70  C   UNL A   1      46.396  29.163  29.192  1.00  0.00     0.023 A 
ATOM     71  C   UNL A   1      46.929  28.423  30.266  1.00  0.00     0.012 A 
ATOM     72  C   UNL A   1      47.152  29.312  28.013  1.00  0.00     0.148 A 
ATOM     73  C   UNL A   1      48.206  27.869  30.183  1.00  0.00     0.002 A 
ATOM     74  C   UNL A   1      48.405  28.718  27.919  1.00  0.00     0.091 A 
ATOM     75  F   UNL A   1      46.637  30.036  27.010  1.00  0.00    -0.205 F 
ATOM     76  C   UNL A   1      48.938  28.006  29.007  1.00  0.00     0.022 A 
BRANCH  74  77
ATOM     77  S   UNL A   1      49.393  28.765  26.419  1.00  0.00     0.127 S 
ATOM     78  O   UNL A   1      49.714  30.188  26.323  1.00  0.00    -0.237 OA
ATOM     79  O   UNL A   1      50.525  27.907  26.770  1.00  0.00    -0.237 OA
ATOM     80  O   UNL A   1      48.541  28.245  25.359  1.00  0.00    -0.744 OA
ENDBRANCH  74  77
ENDBRANCH  56  70
BRANCH  57  81
ATOM     81  C   UNL A   1      36.967  32.240  30.314  1.00  0.00     0.023 A 
ATOM     82  C   UNL A   1      36.401  32.070  31.592  1.00  0.00     0.012 A 
ATOM     83  C   UNL A   1      36.197  32.842  29.298  1.00  0.00     0.148 A 
ATOM     84  C   UNL A   1      35.085  32.457  31.847  1.00  0.00     0.002 A 
ATOM     85  C   UNL A   1      34.906  33.277  29.574  1.00  0.00     0.091 A 
ATOM     86  F   UNL A   1      36.747  32.983  28.084  1.00  0.00    -0.205 F 
ATOM     87  C   UNL A   1      34.341  33.069  30.842  1.00  0.00     0.022 A 
BRANCH  85  88
ATOM     88  S   UNL A   1      33.925  34.190  28.378  1.00  0.00     0.127 S 
ATOM     89  O   UNL A   1      32.723  34.496  29.148  1.00  0.00    -0.237 OA
ATOM     90  O   UNL A   1      34.785  35.340  28.094  1.00  0.00    -0.237 OA
ATOM     91  O   UNL A   1      33.743  33.286  27.250  1.00  0.00    -0.744 OA
ENDBRANCH  85  88
ENDBRANCH  57  81
BRANCH  69  92
ATOM     92  C   UNL A   1      43.188  35.289  31.208  1.00  0.00     0.023 A 
ATOM     93  C   UNL A   1      43.442  35.509  32.576  1.00  0.00     0.012 A 
ATOM     94  C   UNL A   1      43.399  36.335  30.288  1.00  0.00     0.148 A 
ATOM     95  C   UNL A   1      43.867  36.760  33.025  1.00  0.00     0.002 A 
ATOM     96  C   UNL A   1      43.871  37.562  30.735  1.00  0.00     0.091 A 
ATOM     97  F   UNL A   1      43.134  36.109  28.993  1.00  0.00    -0.205 F 
ATOM     98  C   UNL A   1      44.094  37.780  32.104  1.00  0.00     0.022 A 
BRANCH  96  99
ATOM     99  S   UNL A   1      44.288  38.900  29.611  1.00  0.00     0.127 S 
ATOM    100  O   UNL A   1      44.836  39.899  30.528  1.00  0.00    -0.237 OA
ATOM    101  O   UNL A   1      45.276  38.272  28.733  1.00  0.00    -0.237 OA
ATOM    102  O   UNL A   1      43.044  39.273  28.952  1.00  0.00    -0.744 OA
ENDBRANCH  96  99
ENDBRANCH  69  92
ENDBRANCH  43  44
ENDBRANCH  35  38
ENDBRANCH  33  34
ENDBRANCH   1  33
TORSDOF 18
ENDMDL
MODEL 2
REMARK VINA RESULT:     -11.2      5.570      8.428
REMARK SMILES CCOc1cc2c(cc1OCC)[C@@H](C(=O)NCCCNC(=O)c1ccc(-c3c4nc(c(-c5cccc(S(=O)(=O)[O-])c5F)c5ccc([nH]5)c(-c5cccc(S(=O)(=O)[O-])c5F)c5nc(c(-c6cccc(S(=O)(=O)[O-])c6F)c6ccc3[nH]6)C=C5)C=C4)cc1)[C@H](c1ccc(F)cc1Cl)N(C)C2=O
REMARK SMILES IDX 18 1 17 2 16 3 14 4 15 5 13 7 4 8 5 9 9 10 6 11 8 12 7 13
REMARK SMILES IDX 97 14 95 15 98 16 86 17 96 18 3 19 2 20 1 21 10 22 11 23
REMARK SMILES IDX 12 24 87 25 88 26 93 27 89 28 92 29 94 30 90 31 91 32 19 33
REMARK SMILES IDX 20 34 21 35 22 37 23 38 24 39 85 40 25 41 84 42 26 43 27 44
REMARK SMILES IDX 28 45 78 46 29 47 83 48 77 49 79 50 30 51 82 52 76 53 75 54
REMARK SMILES IDX 31 56 63 57 43 58 62 59 44 60 47 61 61 62 80 63 45 64 46 65
REMARK SMILES IDX 60 67 81 68 48 69 32 70 33 71 41 72 34 73 36 74 42 75 35 76
REMARK SMILES IDX 37 77 38 78 39 79 40 80 64 81 65 82 73 83 66 84 68 85 74 86
REMARK SMILES IDX 67 87 69 88 70 89 71 90 72 91 49 92 50 93 58 94 51 95 53 96
REMARK SMILES IDX 59 97 52 98 54 99 55 100 56 101 57 102
REMARK H PARENT 16 6 20 36 79 55 47 66
REMARK Flexibility Score: inf
ROOT
ATOM      1  C   UNL A   1      31.429  31.945  26.414  1.00  0.00     0.042 C 
ENDROOT
BRANCH   1   2
ATOM      2  C   UNL A   1      31.537  30.519  25.886  1.00  0.00     0.117 C 
BRANCH   2   3
ATOM      3  N   UNL A   1      32.879  29.985  26.069  1.00  0.00    -0.355 N 
ATOM      4  C   UNL A   1      33.529  28.890  25.600  1.00  0.00     0.230 C 
ATOM      5  O   UNL A   1      34.654  28.699  26.087  1.00  0.00    -0.274 OA
ATOM      6  H   UNL A   1      33.436  30.539  26.663  1.00  0.00     0.163 HD
BRANCH   4   7
ATOM      7  C   UNL A   1      33.019  27.887  24.563  1.00  0.00     0.136 C 
ATOM      8  C   UNL A   1      29.025  28.220  22.987  1.00  0.00     0.161 A 
ATOM      9  C   UNL A   1      29.332  27.284  23.981  1.00  0.00     0.064 A 
ATOM     10  C   UNL A   1      30.029  29.055  22.474  1.00  0.00     0.161 A 
ATOM     11  C   UNL A   1      30.612  27.213  24.521  1.00  0.00     0.048 A 
ATOM     12  C   UNL A   1      31.314  28.981  23.034  1.00  0.00     0.056 A 
ATOM     13  C   UNL A   1      31.614  28.063  24.050  1.00  0.00    -0.016 A 
ATOM     14  C   UNL A   1      30.886  26.271  25.643  1.00  0.00     0.254 C 
ATOM     15  N   UNL A   1      32.226  25.970  25.885  1.00  0.00    -0.333 N 
ATOM     16  O   UNL A   1      29.947  25.858  26.310  1.00  0.00    -0.269 OA
ATOM     17  C   UNL A   1      33.262  26.388  24.944  1.00  0.00     0.134 C 
ATOM     18  C   UNL A   1      32.605  25.117  27.007  1.00  0.00     0.147 C 
BRANCH   8  19
ATOM     19  O   UNL A   1      27.755  28.205  22.478  1.00  0.00    -0.490 OA
BRANCH  19  20
ATOM     20  C   UNL A   1      26.776  28.708  23.399  1.00  0.00     0.226 C 
ATOM     21  C   UNL A   1      25.916  27.598  23.984  1.00  0.00     0.049 C 
ENDBRANCH  19  20
ENDBRANCH   8  19
BRANCH  10  22
ATOM     22  O   UNL A   1      29.970  29.962  21.452  1.00  0.00    -0.490 OA
BRANCH  22  23
ATOM     23  C   UNL A   1      28.986  30.989  21.446  1.00  0.00     0.226 C 
ATOM     24  C   UNL A   1      28.907  31.716  22.779  1.00  0.00     0.049 C 
ENDBRANCH  22  23
ENDBRANCH  10  22
BRANCH  17  25
ATOM     25  C   UNL A   1      33.391  25.491  23.675  1.00  0.00    -0.005 A 
ATOM     26  C   UNL A   1      33.036  26.111  22.447  1.00  0.00     0.010 A 
ATOM     27  C   UNL A   1      33.780  24.129  23.596  1.00  0.00     0.049 A 
ATOM     28  C   UNL A   1      32.957  25.398  21.247  1.00  0.00     0.040 A 
ATOM     29  C   UNL A   1      33.703  23.424  22.385  1.00  0.00     0.060 A 
ATOM     30  Cl  UNL A   1      34.405  23.160  24.880  1.00  0.00    -0.084 Cl
ATOM     31  C   UNL A   1      33.274  24.055  21.233  1.00  0.00     0.124 A 
ATOM     32  F   UNL A   1      33.179  23.359  20.093  1.00  0.00    -0.207 F 
ENDBRANCH  17  25
ENDBRANCH   4   7
ENDBRANCH   2   3
ENDBRANCH   1   2
BRANCH   1  33
ATOM     33  C   UNL A   1      32.643  32.428  27.188  1.00  0.00     0.118 C 
BRANCH  33  34
ATOM     34  N   UNL A   1      32.523  33.822  27.588  1.00  0.00    -0.352 N 
ATOM     35  C   UNL A   1      33.183  34.532  28.564  1.00  0.00     0.251 C 
ATOM     36  H   UNL A   1      31.863  34.343  27.077  1.00  0.00     0.163 HD
ATOM     37  O   UNL A   1      32.778  35.659  28.848  1.00  0.00    -0.269 OA
BRANCH  35  38
ATOM     38  C   UNL A   1      34.359  33.973  29.278  1.00  0.00     0.039 A 
ATOM     39  C   UNL A   1      34.144  33.053  30.312  1.00  0.00     0.014 A 
ATOM     40  C   UNL A   1      35.663  34.377  28.988  1.00  0.00     0.014 A 
ATOM     41  C   UNL A   1      35.229  32.515  31.013  1.00  0.00     0.010 A 
ATOM     42  C   UNL A   1      36.747  33.763  29.614  1.00  0.00     0.010 A 
ATOM     43  C   UNL A   1      36.544  32.846  30.653  1.00  0.00    -0.014 A 
BRANCH  43  44
ATOM     44  C   UNL A   1      37.717  32.267  31.363  1.00  0.00     0.031 A 
ATOM     45  C   UNL A   1      38.507  31.146  30.735  1.00  0.00     0.074 A 
ATOM     46  C   UNL A   1      38.020  32.684  32.610  1.00  0.00     0.049 A 
ATOM     47  N   UNL A   1      39.511  30.467  31.227  1.00  0.00    -0.248 NA
ATOM     48  C   UNL A   1      38.095  30.705  29.391  1.00  0.00     0.031 C 
ATOM     49  C   UNL A   1      37.280  33.696  33.367  1.00  0.00     0.029 A 
ATOM     50  N   UNL A   1      39.010  32.284  33.474  1.00  0.00    -0.354 N 
ATOM     51  C   UNL A   1      39.815  29.492  30.282  1.00  0.00     0.074 A 
ATOM     52  C   UNL A   1      38.869  29.647  29.199  1.00  0.00     0.031 C 
ATOM     53  C   UNL A   1      37.842  33.838  34.578  1.00  0.00     0.029 A 
ATOM     54  C   UNL A   1      38.960  32.908  34.699  1.00  0.00     0.049 A 
ATOM     55  H   UNL A   1      39.693  31.615  33.238  1.00  0.00     0.167 HD
ATOM     56  C   UNL A   1      40.806  28.570  30.298  1.00  0.00     0.034 A 
ATOM     57  C   UNL A   1      39.718  32.742  35.800  1.00  0.00     0.034 A 
ATOM     58  C   UNL A   1      41.786  28.463  31.344  1.00  0.00     0.049 A 
ATOM     59  C   UNL A   1      40.859  31.761  35.762  1.00  0.00     0.074 A 
ATOM     60  C   UNL A   1      42.900  27.643  31.396  1.00  0.00     0.029 A 
ATOM     61  N   UNL A   1      41.767  29.190  32.522  1.00  0.00    -0.354 N 
ATOM     62  N   UNL A   1      41.235  30.972  34.785  1.00  0.00    -0.248 NA
ATOM     63  C   UNL A   1      41.705  31.676  36.961  1.00  0.00     0.031 C 
ATOM     64  C   UNL A   1      43.539  27.854  32.622  1.00  0.00     0.029 A 
ATOM     65  C   UNL A   1      42.842  28.829  33.317  1.00  0.00     0.049 A 
ATOM     66  H   UNL A   1      41.090  29.865  32.759  1.00  0.00     0.167 HD
ATOM     67  C   UNL A   1      42.378  30.322  35.239  1.00  0.00     0.074 A 
ATOM     68  C   UNL A   1      42.647  30.829  36.568  1.00  0.00     0.031 C 
ATOM     69  C   UNL A   1      43.129  29.380  34.616  1.00  0.00     0.034 A 
BRANCH  56  70
ATOM     70  C   UNL A   1      40.919  27.630  29.123  1.00  0.00     0.023 A 
ATOM     71  C   UNL A   1      40.102  26.483  29.066  1.00  0.00     0.012 A 
ATOM     72  C   UNL A   1      41.775  27.923  28.044  1.00  0.00     0.148 A 
ATOM     73  C   UNL A   1      40.162  25.623  27.970  1.00  0.00     0.002 A 
ATOM     74  C   UNL A   1      41.795  27.087  26.935  1.00  0.00     0.091 A 
ATOM     75  F   UNL A   1      42.558  29.008  28.126  1.00  0.00    -0.205 F 
ATOM     76  C   UNL A   1      40.998  25.930  26.901  1.00  0.00     0.022 A 
BRANCH  74  77
ATOM     77  S   UNL A   1      42.775  27.439  25.470  1.00  0.00     0.127 S 
ATOM     78  O   UNL A   1      42.124  28.646  24.964  1.00  0.00    -0.237 OA
ATOM     79  O   UNL A   1      44.107  27.657  26.037  1.00  0.00    -0.237 OA
ATOM     80  O   UNL A   1      42.662  26.265  24.617  1.00  0.00    -0.744 OA
ENDBRANCH  74  77
ENDBRANCH  56  70
BRANCH  57  81
ATOM     81  C   UNL A   1      39.457  33.564  37.016  1.00  0.00     0.023 A 
ATOM     82  C   UNL A   1      39.909  34.898  37.065  1.00  0.00     0.012 A 
ATOM     83  C   UNL A   1      38.746  33.041  38.114  1.00  0.00     0.148 A 
ATOM     84  C   UNL A   1      39.689  35.683  38.198  1.00  0.00     0.002 A 
ATOM     85  C   UNL A   1      38.481  33.846  39.215  1.00  0.00     0.091 A 
ATOM     86  F   UNL A   1      38.336  31.766  38.055  1.00  0.00    -0.205 F 
ATOM     87  C   UNL A   1      38.968  35.161  39.267  1.00  0.00     0.022 A 
BRANCH  85  88
ATOM     88  S   UNL A   1      37.449  33.297  40.579  1.00  0.00     0.127 S 
ATOM     89  O   UNL A   1      38.269  32.241  41.168  1.00  0.00    -0.237 OA
ATOM     90  O   UNL A   1      37.338  34.513  41.385  1.00  0.00    -0.237 OA
ATOM     91  O   UNL A   1      36.197  32.864  39.971  1.00  0.00    -0.744 OA
ENDBRANCH  85  88
ENDBRANCH  57  81
BRANCH  69  92
ATOM     92  C   UNL A   1      44.339  28.857  35.342  1.00  0.00     0.023 A 
ATOM     93  C   UNL A   1      45.595  29.462  35.140  1.00  0.00     0.012 A 
ATOM     94  C   UNL A   1      44.215  27.816  36.285  1.00  0.00     0.148 A 
ATOM     95  C   UNL A   1      46.717  29.015  35.839  1.00  0.00     0.002 A 
ATOM     96  C   UNL A   1      45.326  27.412  37.014  1.00  0.00     0.091 A 
ATOM     97  F   UNL A   1      43.015  27.243  36.450  1.00  0.00    -0.205 F 
ATOM     98  C   UNL A   1      46.579  28.001  36.784  1.00  0.00     0.022 A 
BRANCH  96  99
ATOM     99  S   UNL A   1      45.223  26.185  38.323  1.00  0.00     0.127 S 
ATOM    100  O   UNL A   1      44.323  26.839  39.272  1.00  0.00    -0.237 OA
ATOM    101  O   UNL A   1      44.645  25.036  37.626  1.00  0.00    -0.237 OA
ATOM    102  O   UNL A   1      46.587  25.984  38.793  1.00  0.00    -0.744 OA
ENDBRANCH  96  99
ENDBRANCH  69  92
ENDBRANCH  43  44
ENDBRANCH  35  38
ENDBRANCH  33  34
ENDBRANCH   1  33
TORSDOF 18
ENDMDL
MODEL 3
REMARK VINA RESULT:     -10.8      5.426      7.983
REMARK SMILES CCOc1cc2c(cc1OCC)[C@@H](C(=O)NCCCNC(=O)c1ccc(-c3c4nc(c(-c5cccc(S(=O)(=O)[O-])c5F)c5ccc([nH]5)c(-c5cccc(S(=O)(=O)[O-])c5F)c5nc(c(-c6cccc(S(=O)(=O)[O-])c6F)c6ccc3[nH]6)C=C5)C=C4)cc1)[C@H](c1ccc(F)cc1Cl)N(C)C2=O
REMARK SMILES IDX 18 1 17 2 16 3 14 4 15 5 13 7 4 8 5 9 9 10 6 11 8 12 7 13
REMARK SMILES IDX 97 14 95 15 98 16 86 17 96 18 3 19 2 20 1 21 10 22 11 23
REMARK SMILES IDX 12 24 87 25 88 26 93 27 89 28 92 29 94 30 90 31 91 32 19 33
REMARK SMILES IDX 20 34 21 35 22 37 23 38 24 39 85 40 25 41 84 42 26 43 27 44
REMARK SMILES IDX 28 45 78 46 29 47 83 48 77 49 79 50 30 51 82 52 76 53 75 54
REMARK SMILES IDX 31 56 63 57 43 58 62 59 44 60 47 61 61 62 80 63 45 64 46 65
REMARK SMILES IDX 60 67 81 68 48 69 32 70 33 71 41 72 34 73 36 74 42 75 35 76
REMARK SMILES IDX 37 77 38 78 39 79 40 80 64 81 65 82 73 83 66 84 68 85 74 86
REMARK SMILES IDX 67 87 69 88 70 89 71 90 72 91 49 92 50 93 58 94 51 95 53 96
REMARK SMILES IDX 59 97 52 98 54 99 55 100 56 101 57 102
REMARK H PARENT 16 6 20 36 79 55 47 66
REMARK Flexibility Score: inf
ROOT
ATOM      1  C   UNL A   1      33.613  31.297  26.877  1.00  0.00     0.042 C 
ENDROOT
BRANCH   1   2
ATOM      2  C   UNL A   1      33.402  29.821  26.556  1.00  0.00     0.117 C 
BRANCH   2   3
ATOM      3  N   UNL A   1      33.926  29.484  25.240  1.00  0.00    -0.355 N 
ATOM      4  C   UNL A   1      33.995  28.336  24.519  1.00  0.00     0.230 C 
ATOM      5  O   UNL A   1      34.638  28.418  23.462  1.00  0.00    -0.274 OA
ATOM      6  H   UNL A   1      34.315  30.257  24.771  1.00  0.00     0.163 HD
BRANCH   4   7
ATOM      7  C   UNL A   1      33.379  26.982  24.879  1.00  0.00     0.136 C 
ATOM      8  C   UNL A   1      35.550  23.335  24.153  1.00  0.00     0.161 A 
ATOM      9  C   UNL A   1      34.532  23.753  23.287  1.00  0.00     0.064 A 
ATOM     10  C   UNL A   1      35.864  24.097  25.287  1.00  0.00     0.161 A 
ATOM     11  C   UNL A   1      33.866  24.955  23.499  1.00  0.00     0.048 A 
ATOM     12  C   UNL A   1      35.193  25.313  25.485  1.00  0.00     0.056 A 
ATOM     13  C   UNL A   1      34.193  25.746  24.602  1.00  0.00    -0.016 A 
ATOM     14  C   UNL A   1      32.851  25.419  22.511  1.00  0.00     0.254 C 
ATOM     15  N   UNL A   1      31.968  26.405  22.948  1.00  0.00    -0.333 N 
ATOM     16  O   UNL A   1      32.877  24.958  21.378  1.00  0.00    -0.269 OA
ATOM     17  C   UNL A   1      31.915  26.783  24.358  1.00  0.00     0.134 C 
ATOM     18  C   UNL A   1      30.985  26.981  22.034  1.00  0.00     0.147 C 
BRANCH   8  19
ATOM     19  O   UNL A   1      36.133  22.123  23.901  1.00  0.00    -0.490 OA
BRANCH  19  20
ATOM     20  C   UNL A   1      35.624  21.071  24.735  1.00  0.00     0.226 C 
ATOM     21  C   UNL A   1      36.654  19.979  24.974  1.00  0.00     0.049 C 
ENDBRANCH  19  20
ENDBRANCH   8  19
BRANCH  10  22
ATOM     22  O   UNL A   1      36.745  23.831  26.298  1.00  0.00    -0.490 OA
BRANCH  22  23
ATOM     23  C   UNL A   1      38.147  23.970  26.098  1.00  0.00     0.226 C 
ATOM     24  C   UNL A   1      38.878  22.643  26.224  1.00  0.00     0.049 C 
ENDBRANCH  22  23
ENDBRANCH  10  22
BRANCH  17  25
ATOM     25  C   UNL A   1      31.116  25.800  25.267  1.00  0.00    -0.005 A 
ATOM     26  C   UNL A   1      31.894  25.028  26.170  1.00  0.00     0.010 A 
ATOM     27  C   UNL A   1      29.719  25.554  25.281  1.00  0.00     0.049 A 
ATOM     28  C   UNL A   1      31.343  24.001  26.942  1.00  0.00     0.040 A 
ATOM     29  C   UNL A   1      29.173  24.525  26.065  1.00  0.00     0.060 A 
ATOM     30  Cl  UNL A   1      28.509  26.432  24.418  1.00  0.00    -0.084 Cl
ATOM     31  C   UNL A   1      29.988  23.749  26.867  1.00  0.00     0.124 A 
ATOM     32  F   UNL A   1      29.454  22.753  27.586  1.00  0.00    -0.207 F 
ENDBRANCH  17  25
ENDBRANCH   4   7
ENDBRANCH   2   3
ENDBRANCH   1   2
BRANCH   1  33
ATOM     33  C   UNL A   1      32.438  31.971  27.564  1.00  0.00     0.118 C 
BRANCH  33  34
ATOM     34  N   UNL A   1      32.582  33.418  27.611  1.00  0.00    -0.352 N 
ATOM     35  C   UNL A   1      33.446  34.208  28.334  1.00  0.00     0.251 C 
ATOM     36  H   UNL A   1      31.960  33.914  27.031  1.00  0.00     0.163 HD
ATOM     37  O   UNL A   1      33.255  35.423  28.353  1.00  0.00    -0.269 OA
BRANCH  35  38
ATOM     38  C   UNL A   1      34.590  33.631  29.085  1.00  0.00     0.039 A 
ATOM     39  C   UNL A   1      35.888  34.036  28.750  1.00  0.00     0.014 A 
ATOM     40  C   UNL A   1      34.413  32.662  30.074  1.00  0.00     0.014 A 
ATOM     41  C   UNL A   1      36.989  33.504  29.430  1.00  0.00     0.010 A 
ATOM     42  C   UNL A   1      35.500  32.211  30.821  1.00  0.00     0.010 A 
ATOM     43  C   UNL A   1      36.804  32.604  30.491  1.00  0.00    -0.014 A 
BRANCH  43  44
ATOM     44  C   UNL A   1      37.956  32.045  31.250  1.00  0.00     0.031 A 
ATOM     45  C   UNL A   1      38.790  30.938  30.655  1.00  0.00     0.074 A 
ATOM     46  C   UNL A   1      38.198  32.465  32.509  1.00  0.00     0.049 A 
ATOM     47  N   UNL A   1      39.784  30.276  31.188  1.00  0.00    -0.248 NA
ATOM     48  C   UNL A   1      38.443  30.491  29.294  1.00  0.00     0.031 C 
ATOM     49  C   UNL A   1      37.410  33.463  33.234  1.00  0.00     0.029 A 
ATOM     50  N   UNL A   1      39.158  32.080  33.413  1.00  0.00    -0.354 N 
ATOM     51  C   UNL A   1      40.144  29.308  30.257  1.00  0.00     0.074 A 
ATOM     52  C   UNL A   1      39.242  29.447  29.134  1.00  0.00     0.031 C 
ATOM     53  C   UNL A   1      37.917  33.613  34.468  1.00  0.00     0.029 A 
ATOM     54  C   UNL A   1      39.045  32.702  34.636  1.00  0.00     0.049 A 
ATOM     55  H   UNL A   1      39.861  31.424  33.206  1.00  0.00     0.167 HD
ATOM     56  C   UNL A   1      41.149  28.403  30.314  1.00  0.00     0.034 A 
ATOM     57  C   UNL A   1      39.759  32.548  35.768  1.00  0.00     0.034 A 
ATOM     58  C   UNL A   1      42.086  28.311  31.400  1.00  0.00     0.049 A 
ATOM     59  C   UNL A   1      40.917  31.587  35.777  1.00  0.00     0.074 A 
ATOM     60  C   UNL A   1      43.211  27.510  31.499  1.00  0.00     0.029 A 
ATOM     61  N   UNL A   1      42.005  29.036  32.577  1.00  0.00    -0.354 N 
ATOM     62  N   UNL A   1      41.347  30.805  34.817  1.00  0.00    -0.248 NA
ATOM     63  C   UNL A   1      41.713  31.514  37.011  1.00  0.00     0.031 C 
ATOM     64  C   UNL A   1      43.793  27.730  32.751  1.00  0.00     0.029 A 
ATOM     65  C   UNL A   1      43.051  28.692  33.416  1.00  0.00     0.049 A 
ATOM     66  H   UNL A   1      41.307  29.698  32.786  1.00  0.00     0.167 HD
ATOM     67  C   UNL A   1      42.481  30.175  35.318  1.00  0.00     0.074 A 
ATOM     68  C   UNL A   1      42.685  30.684  36.658  1.00  0.00     0.031 C 
ATOM     69  C   UNL A   1      43.273  29.246  34.727  1.00  0.00     0.034 A 
BRANCH  56  70
ATOM     70  C   UNL A   1      41.328  27.466  29.144  1.00  0.00     0.023 A 
ATOM     71  C   UNL A   1      40.708  26.201  29.162  1.00  0.00     0.012 A 
ATOM     72  C   UNL A   1      42.043  27.869  28.000  1.00  0.00     0.148 A 
ATOM     73  C   UNL A   1      40.826  25.336  28.074  1.00  0.00     0.002 A 
ATOM     74  C   UNL A   1      42.118  27.021  26.902  1.00  0.00     0.091 A 
ATOM     75  F   UNL A   1      42.642  29.068  28.010  1.00  0.00    -0.205 F 
ATOM     76  C   UNL A   1      41.521  25.751  26.941  1.00  0.00     0.022 A 
BRANCH  74  77
ATOM     77  S   UNL A   1      42.918  27.494  25.363  1.00  0.00     0.127 S 
ATOM     78  O   UNL A   1      42.886  26.237  24.617  1.00  0.00    -0.237 OA
ATOM     79  O   UNL A   1      42.016  28.528  24.854  1.00  0.00    -0.237 OA
ATOM     80  O   UNL A   1      44.245  27.969  25.728  1.00  0.00    -0.744 OA
ENDBRANCH  74  77
ENDBRANCH  56  70
BRANCH  57  81
ATOM     81  C   UNL A   1      39.432  33.364  36.972  1.00  0.00     0.023 A 
ATOM     82  C   UNL A   1      39.884  34.695  37.054  1.00  0.00     0.012 A 
ATOM     83  C   UNL A   1      38.660  32.836  38.026  1.00  0.00     0.148 A 
ATOM     84  C   UNL A   1      39.604  35.475  38.177  1.00  0.00     0.002 A 
ATOM     85  C   UNL A   1      38.337  33.635  39.115  1.00  0.00     0.091 A 
ATOM     86  F   UNL A   1      38.251  31.562  37.937  1.00  0.00    -0.205 F 
ATOM     87  C   UNL A   1      38.822  34.949  39.202  1.00  0.00     0.022 A 
BRANCH  85  88
ATOM     88  S   UNL A   1      37.229  33.081  40.417  1.00  0.00     0.127 S 
ATOM     89  O   UNL A   1      37.969  31.956  40.980  1.00  0.00    -0.237 OA
ATOM     90  O   UNL A   1      37.155  34.263  41.276  1.00  0.00    -0.237 OA
ATOM     91  O   UNL A   1      35.978  32.747  39.748  1.00  0.00    -0.744 OA
ENDBRANCH  85  88
ENDBRANCH  57  81
BRANCH  69  92
ATOM     92  C   UNL A   1      44.461  28.743  35.503  1.00  0.00     0.023 A 
ATOM     93  C   UNL A   1      45.720  29.352  35.334  1.00  0.00     0.012 A 
ATOM     94  C   UNL A   1      44.310  27.717  36.458  1.00  0.00     0.148 A 
ATOM     95  C   UNL A   1      46.819  28.924  36.079  1.00  0.00     0.002 A 
ATOM     96  C   UNL A   1      45.398  27.332  37.233  1.00  0.00     0.091 A 
ATOM     97  F   UNL A   1      43.108  27.139  36.591  1.00  0.00    -0.205 F 
ATOM     98  C   UNL A   1      46.655  27.925  37.036  1.00  0.00     0.022 A 
BRANCH  96  99
ATOM     99  S   UNL A   1      45.256  26.126  38.558  1.00  0.00     0.127 S 
ATOM    100  O   UNL A   1      44.886  24.918  37.821  1.00  0.00    -0.237 OA
ATOM    101  O   UNL A   1      46.610  26.113  39.112  1.00  0.00    -0.237 OA
ATOM    102  O   UNL A   1      44.238  26.642  39.462  1.00  0.00    -0.744 OA
ENDBRANCH  96  99
ENDBRANCH  69  92
ENDBRANCH  43  44
ENDBRANCH  35  38
ENDBRANCH  33  34
ENDBRANCH   1  33
TORSDOF 18
ENDMDL
