MODEL 1
REMARK VINA RESULT:     -15.0      0.000      0.000
REMARK SMILES CCc1cc(OCCC(=O)NCCCNC(=O)c2ccc(-c3c4nc(c(-c5cccc(S(=O)(=O)[O-])c5F)c5ccc([nH]5)c(-c5cccc(S(=O)(=O)[O-])c5F)c5nc(c(-c6cccc(S(=O)(=O)[O-])c6F)c6ccc3[nH]6)C=C5)C=C4)cc2)nc(-c2cnccn2)n1
REMARK SMILES IDX 12 1 11 2 9 3 10 4 8 6 7 7 6 8 5 9 3 10 4 11 89 12 82 13
REMARK SMILES IDX 81 14 2 15 1 16 83 17 84 18 88 19 85 20 87 21 86 22 13 23
REMARK SMILES IDX 14 24 15 25 16 26 17 28 18 29 19 30 80 31 20 32 79 33 21 34
REMARK SMILES IDX 22 35 23 36 73 37 24 38 78 39 72 40 74 41 25 42 77 43 71 44
REMARK SMILES IDX 70 45 26 47 58 48 38 49 57 50 39 51 42 52 56 53 75 54 40 55
REMARK SMILES IDX 41 56 55 58 76 59 43 60 27 61 28 62 36 63 29 64 31 65 37 66
REMARK SMILES IDX 30 67 32 68 33 69 34 70 35 71 59 72 60 73 68 74 61 75 63 76
REMARK SMILES IDX 69 77 62 78 64 79 65 80 66 81 67 82 44 83 45 84 53 85 46 86
REMARK SMILES IDX 48 87 54 88 47 89 49 90 50 91 51 92 52 93
REMARK H PARENT 11 5 15 27 74 46 42 57
REMARK Flexibility Score: inf
ROOT
ATOM      1  C   UNL A   1      30.492  27.579  23.219  1.00  0.00     0.117 C 
ENDROOT
BRANCH   1   2
ATOM      2  N   UNL A   1      31.657  27.000  22.361  1.00  0.00    -0.356 N 
ATOM      3  C   UNL A   1      32.944  26.812  22.747  1.00  0.00     0.223 C 
ATOM      4  O   UNL A   1      33.845  26.854  21.911  1.00  0.00    -0.275 OA
ATOM      5  H   UNL A   1      31.435  26.741  21.437  1.00  0.00     0.163 HD
BRANCH   3   6
ATOM      6  C   UNL A   1      33.183  26.505  24.207  1.00  0.00     0.141 C 
BRANCH   6   7
ATOM      7  C   UNL A   1      32.678  25.164  24.781  1.00  0.00     0.241 C 
BRANCH   7   8
ATOM      8  O   UNL A   1      32.129  24.136  23.913  1.00  0.00    -0.477 OA
BRANCH   8   9
ATOM      9  C   UNL A   1      32.870  22.942  23.768  1.00  0.00     0.217 A 
ATOM     10  C   UNL A   1      35.561  22.082  24.750  1.00  0.00     0.048 A 
ATOM     11  C   UNL A   1      34.565  23.174  23.807  1.00  0.00     0.092 A 
ATOM     12  N   UNL A   1      34.748  20.798  25.697  1.00  0.00    -0.231 NA
ATOM     13  C   UNL A   1      32.962  20.453  25.396  1.00  0.00     0.183 A 
ATOM     14  N   UNL A   1      32.055  21.613  24.509  1.00  0.00    -0.192 NA
BRANCH  10  15
ATOM     15  C   UNL A   1      36.939  21.847  24.126  1.00  0.00     0.053 C 
ATOM     16  C   UNL A   1      37.694  20.651  24.682  1.00  0.00     0.011 C 
ENDBRANCH  10  15
BRANCH  13  17
ATOM     17  C   UNL A   1      32.477  18.951  24.659  1.00  0.00     0.126 A 
ATOM     18  C   UNL A   1      32.648  17.818  25.967  1.00  0.00     0.143 A 
ATOM     19  N   UNL A   1      33.105  18.384  22.971  1.00  0.00    -0.250 NA
ATOM     20  N   UNL A   1      33.529  16.361  25.771  1.00  0.00    -0.261 NA
ATOM     21  C   UNL A   1      34.033  16.867  22.816  1.00  0.00     0.132 A 
ATOM     22  C   UNL A   1      34.247  15.915  24.241  1.00  0.00     0.131 A 
ENDBRANCH  13  17
ENDBRANCH   8   9
ENDBRANCH   7   8
ENDBRANCH   6   7
ENDBRANCH   3   6
ENDBRANCH   1   2
BRANCH   1  23
ATOM     23  C   UNL A   1      30.254  29.608  24.031  1.00  0.00     0.042 C 
BRANCH  23  24
ATOM     24  C   UNL A   1      31.403  30.100  25.506  1.00  0.00     0.118 C 
BRANCH  24  25
ATOM     25  N   UNL A   1      31.373  31.864  25.905  1.00  0.00    -0.352 N 
ATOM     26  C   UNL A   1      32.435  32.672  27.018  1.00  0.00     0.251 C 
ATOM     27  H   UNL A   1      30.696  32.417  25.451  1.00  0.00     0.163 HD
ATOM     28  O   UNL A   1      31.785  33.739  27.210  1.00  0.00    -0.269 OA
BRANCH  26  29
ATOM     29  C   UNL A   1      34.232  31.701  27.683  1.00  0.00     0.039 A 
ATOM     30  C   UNL A   1      34.619  30.296  27.912  1.00  0.00     0.014 A 
ATOM     31  C   UNL A   1      35.458  32.473  28.334  1.00  0.00     0.014 A 
ATOM     32  C   UNL A   1      35.616  29.850  28.829  1.00  0.00     0.010 A 
ATOM     33  C   UNL A   1      36.392  32.065  29.257  1.00  0.00     0.010 A 
ATOM     34  C   UNL A   1      36.441  30.736  29.535  1.00  0.00    -0.014 A 
BRANCH  34  35
ATOM     35  C   UNL A   1      37.625  30.327  30.279  1.00  0.00     0.031 A 
ATOM     36  C   UNL A   1      37.925  30.878  31.631  1.00  0.00     0.074 A 
ATOM     37  C   UNL A   1      38.498  29.618  29.546  1.00  0.00     0.049 A 
ATOM     38  N   UNL A   1      38.905  30.562  32.427  1.00  0.00    -0.248 NA
ATOM     39  C   UNL A   1      37.043  31.941  32.152  1.00  0.00     0.031 C 
ATOM     40  C   UNL A   1      38.308  29.279  28.125  1.00  0.00     0.029 A 
ATOM     41  N   UNL A   1      39.695  29.065  29.859  1.00  0.00    -0.354 N 
ATOM     42  C   UNL A   1      38.753  31.362  33.550  1.00  0.00     0.074 A 
ATOM     43  C   UNL A   1      37.619  32.225  33.315  1.00  0.00     0.031 C 
ATOM     44  C   UNL A   1      39.302  28.483  27.723  1.00  0.00     0.029 A 
ATOM     45  C   UNL A   1      40.225  28.326  28.831  1.00  0.00     0.049 A 
ATOM     46  H   UNL A   1      40.139  29.182  30.730  1.00  0.00     0.167 HD
ATOM     47  C   UNL A   1      39.505  31.337  34.673  1.00  0.00     0.034 A 
ATOM     48  C   UNL A   1      41.344  27.592  28.810  1.00  0.00     0.034 A 
ATOM     49  C   UNL A   1      40.655  30.483  34.796  1.00  0.00     0.049 A 
ATOM     50  C   UNL A   1      42.123  27.546  30.082  1.00  0.00     0.074 A 
ATOM     51  C   UNL A   1      41.484  30.291  35.882  1.00  0.00     0.029 A 
ATOM     52  N   UNL A   1      41.157  29.700  33.760  1.00  0.00    -0.354 N 
ATOM     53  N   UNL A   1      41.874  28.160  31.217  1.00  0.00    -0.248 NA
ATOM     54  C   UNL A   1      43.308  26.693  30.093  1.00  0.00     0.031 C 
ATOM     55  C   UNL A   1      42.522  29.442  35.481  1.00  0.00     0.029 A 
ATOM     56  C   UNL A   1      42.298  29.041  34.170  1.00  0.00     0.049 A 
ATOM     57  H   UNL A   1      40.756  29.627  32.864  1.00  0.00     0.167 HD
ATOM     58  C   UNL A   1      42.858  27.747  32.095  1.00  0.00     0.074 A 
ATOM     59  C   UNL A   1      43.690  26.808  31.357  1.00  0.00     0.031 C 
ATOM     60  C   UNL A   1      43.071  28.109  33.383  1.00  0.00     0.034 A 
BRANCH  47  61
ATOM     61  C   UNL A   1      39.112  32.241  35.811  1.00  0.00     0.023 A 
ATOM     62  C   UNL A   1      39.534  33.588  35.829  1.00  0.00     0.012 A 
ATOM     63  C   UNL A   1      38.298  31.765  36.856  1.00  0.00     0.148 A 
ATOM     64  C   UNL A   1      39.190  34.431  36.886  1.00  0.00     0.002 A 
ATOM     65  C   UNL A   1      37.916  32.623  37.880  1.00  0.00     0.091 A 
ATOM     66  F   UNL A   1      37.924  30.478  36.838  1.00  0.00    -0.205 F 
ATOM     67  C   UNL A   1      38.374  33.951  37.906  1.00  0.00     0.022 A 
BRANCH  65  68
ATOM     68  S   UNL A   1      36.814  32.118  39.205  1.00  0.00     0.127 S 
ATOM     69  O   UNL A   1      37.079  30.682  39.277  1.00  0.00    -0.237 OA
ATOM     70  O   UNL A   1      37.328  32.890  40.336  1.00  0.00    -0.237 OA
ATOM     71  O   UNL A   1      35.471  32.477  38.775  1.00  0.00    -0.744 OA
ENDBRANCH  65  68
ENDBRANCH  47  61
BRANCH  48  72
ATOM     72  C   UNL A   1      41.717  26.847  27.585  1.00  0.00     0.023 A 
ATOM     73  C   UNL A   1      42.317  27.517  26.503  1.00  0.00     0.012 A 
ATOM     74  C   UNL A   1      41.539  25.451  27.519  1.00  0.00     0.148 A 
ATOM     75  C   UNL A   1      42.685  26.815  25.354  1.00  0.00     0.002 A 
ATOM     76  C   UNL A   1      41.958  24.751  26.399  1.00  0.00     0.091 A 
ATOM     77  F   UNL A   1      40.991  24.833  28.576  1.00  0.00    -0.205 F 
ATOM     78  C   UNL A   1      42.511  25.433  25.305  1.00  0.00     0.022 A 
BRANCH  76  79
ATOM     79  S   UNL A   1      41.881  22.960  26.308  1.00  0.00     0.127 S 
ATOM     80  O   UNL A   1      42.352  22.714  24.947  1.00  0.00    -0.237 OA
ATOM     81  O   UNL A   1      42.810  22.563  27.366  1.00  0.00    -0.237 OA
ATOM     82  O   UNL A   1      40.491  22.609  26.566  1.00  0.00    -0.744 OA
ENDBRANCH  76  79
ENDBRANCH  48  72
BRANCH  60  83
ATOM     83  C   UNL A   1      44.221  27.441  34.071  1.00  0.00     0.023 A 
ATOM     84  C   UNL A   1      45.504  28.021  34.041  1.00  0.00     0.012 A 
ATOM     85  C   UNL A   1      44.001  26.253  34.793  1.00  0.00     0.148 A 
ATOM     86  C   UNL A   1      46.567  27.396  34.685  1.00  0.00     0.002 A 
ATOM     87  C   UNL A   1      45.048  25.679  35.490  1.00  0.00     0.091 A 
ATOM     88  F   UNL A   1      42.772  25.718  34.786  1.00  0.00    -0.205 F 
ATOM     89  C   UNL A   1      46.336  26.236  35.420  1.00  0.00     0.022 A 
BRANCH  87  90
ATOM     90  S   UNL A   1      44.818  24.254  36.552  1.00  0.00     0.127 S 
ATOM     91  O   UNL A   1      46.199  23.886  36.857  1.00  0.00    -0.237 OA
ATOM     92  O   UNL A   1      44.074  24.827  37.673  1.00  0.00    -0.237 OA
ATOM     93  O   UNL A   1      44.076  23.276  35.766  1.00  0.00    -0.744 OA
ENDBRANCH  87  90
ENDBRANCH  60  83
ENDBRANCH  34  35
ENDBRANCH  26  29
ENDBRANCH  24  25
ENDBRANCH  23  24
ENDBRANCH   1  23
TORSDOF 18
ENDMDL
MODEL 2
REMARK VINA RESULT:     -14.5      1.200      2.610
REMARK SMILES CCc1cc(OCCC(=O)NCCCNC(=O)c2ccc(-c3c4nc(c(-c5cccc(S(=O)(=O)[O-])c5F)c5ccc([nH]5)c(-c5cccc(S(=O)(=O)[O-])c5F)c5nc(c(-c6cccc(S(=O)(=O)[O-])c6F)c6ccc3[nH]6)C=C5)C=C4)cc2)nc(-c2cnccn2)n1
REMARK SMILES IDX 12 1 11 2 9 3 10 4 8 6 7 7 6 8 5 9 3 10 4 11 89 12 82 13
REMARK SMILES IDX 81 14 2 15 1 16 83 17 84 18 88 19 85 20 87 21 86 22 13 23
REMARK SMILES IDX 14 24 15 25 16 26 17 28 18 29 19 30 80 31 20 32 79 33 21 34
REMARK SMILES IDX 22 35 23 36 73 37 24 38 78 39 72 40 74 41 25 42 77 43 71 44
REMARK SMILES IDX 70 45 26 47 58 48 38 49 57 50 39 51 42 52 56 53 75 54 40 55
REMARK SMILES IDX 41 56 55 58 76 59 43 60 27 61 28 62 36 63 29 64 31 65 37 66
REMARK SMILES IDX 30 67 32 68 33 69 34 70 35 71 59 72 60 73 68 74 61 75 63 76
REMARK SMILES IDX 69 77 62 78 64 79 65 80 66 81 67 82 44 83 45 84 53 85 46 86
REMARK SMILES IDX 48 87 54 88 47 89 49 90 50 91 51 92 52 93
REMARK H PARENT 11 5 15 27 74 46 42 57
REMARK Flexibility Score: inf
ROOT
ATOM      1  C   UNL A   1      30.805  27.870  22.583  1.00  0.00     0.117 C 
ENDROOT
BRANCH   1   2
ATOM      2  N   UNL A   1      32.204  27.753  21.905  1.00  0.00    -0.356 N 
ATOM      3  C   UNL A   1      32.982  26.643  21.819  1.00  0.00     0.223 C 
ATOM      4  O   UNL A   1      34.204  26.760  21.750  1.00  0.00    -0.275 OA
ATOM      5  H   UNL A   1      32.562  28.572  21.492  1.00  0.00     0.163 HD
BRANCH   3   6
ATOM      6  C   UNL A   1      32.272  25.311  21.760  1.00  0.00     0.141 C 
BRANCH   6   7
ATOM      7  C   UNL A   1      32.874  24.180  20.900  1.00  0.00     0.241 C 
BRANCH   7   8
ATOM      8  O   UNL A   1      33.408  22.976  21.513  1.00  0.00    -0.477 OA
BRANCH   8   9
ATOM      9  C   UNL A   1      32.929  22.630  22.795  1.00  0.00     0.217 A 
ATOM     10  C   UNL A   1      33.207  20.175  24.482  1.00  0.00     0.048 A 
ATOM     11  C   UNL A   1      32.669  20.951  23.004  1.00  0.00     0.092 A 
ATOM     12  N   UNL A   1      34.074  21.169  25.692  1.00  0.00    -0.231 NA
ATOM     13  C   UNL A   1      34.080  23.004  25.513  1.00  0.00     0.183 A 
ATOM     14  N   UNL A   1      33.590  23.668  24.005  1.00  0.00    -0.192 NA
BRANCH  10  15
ATOM     15  C   UNL A   1      32.293  19.026  24.915  1.00  0.00     0.053 C 
ATOM     16  C   UNL A   1      32.982  17.678  25.039  1.00  0.00     0.011 C 
ENDBRANCH  10  15
BRANCH  13  17
ATOM     17  C   UNL A   1      33.219  23.994  26.659  1.00  0.00     0.126 A 
ATOM     18  C   UNL A   1      31.847  23.003  27.056  1.00  0.00     0.143 A 
ATOM     19  N   UNL A   1      32.874  25.829  26.378  1.00  0.00    -0.250 NA
ATOM     20  N   UNL A   1      30.250  23.625  26.983  1.00  0.00    -0.261 NA
ATOM     21  C   UNL A   1      31.195  26.430  26.292  1.00  0.00     0.132 A 
ATOM     22  C   UNL A   1      29.927  25.290  26.565  1.00  0.00     0.131 A 
ENDBRANCH  13  17
ENDBRANCH   8   9
ENDBRANCH   7   8
ENDBRANCH   6   7
ENDBRANCH   3   6
ENDBRANCH   1   2
BRANCH   1  23
ATOM     23  C   UNL A   1      30.121  29.314  24.092  1.00  0.00     0.042 C 
BRANCH  23  24
ATOM     24  C   UNL A   1      31.407  29.852  25.434  1.00  0.00     0.118 C 
BRANCH  24  25
ATOM     25  N   UNL A   1      31.336  31.609  25.858  1.00  0.00    -0.352 N 
ATOM     26  C   UNL A   1      32.371  32.423  26.991  1.00  0.00     0.251 C 
ATOM     27  H   UNL A   1      30.651  32.154  25.406  1.00  0.00     0.163 HD
ATOM     28  O   UNL A   1      31.696  33.473  27.193  1.00  0.00    -0.269 OA
BRANCH  26  29
ATOM     29  C   UNL A   1      34.182  31.482  27.658  1.00  0.00     0.039 A 
ATOM     30  C   UNL A   1      34.581  30.086  27.920  1.00  0.00     0.014 A 
ATOM     31  C   UNL A   1      35.412  32.278  28.271  1.00  0.00     0.014 A 
ATOM     32  C   UNL A   1      35.593  29.671  28.836  1.00  0.00     0.010 A 
ATOM     33  C   UNL A   1      36.361  31.901  29.192  1.00  0.00     0.010 A 
ATOM     34  C   UNL A   1      36.422  30.580  29.505  1.00  0.00    -0.014 A 
BRANCH  34  35
ATOM     35  C   UNL A   1      37.618  30.198  30.245  1.00  0.00     0.031 A 
ATOM     36  C   UNL A   1      37.892  30.728  31.611  1.00  0.00     0.074 A 
ATOM     37  C   UNL A   1      38.520  29.541  29.499  1.00  0.00     0.049 A 
ATOM     38  N   UNL A   1      38.881  30.430  32.403  1.00  0.00    -0.248 NA
ATOM     39  C   UNL A   1      36.969  31.744  32.154  1.00  0.00     0.031 C 
ATOM     40  C   UNL A   1      38.347  29.230  28.070  1.00  0.00     0.029 A 
ATOM     41  N   UNL A   1      39.736  29.026  29.803  1.00  0.00    -0.354 N 
ATOM     42  C   UNL A   1      38.695  31.197  33.544  1.00  0.00     0.074 A 
ATOM     43  C   UNL A   1      37.529  32.022  33.325  1.00  0.00     0.031 C 
ATOM     44  C   UNL A   1      39.372  28.482  27.653  1.00  0.00     0.029 A 
ATOM     45  C   UNL A   1      40.296  28.333  28.760  1.00  0.00     0.049 A 
ATOM     46  H   UNL A   1      40.172  29.139  30.678  1.00  0.00     0.167 HD
ATOM     47  C   UNL A   1      39.444  31.173  34.669  1.00  0.00     0.034 A 
ATOM     48  C   UNL A   1      41.443  27.643  28.726  1.00  0.00     0.034 A 
ATOM     49  C   UNL A   1      40.625  30.361  34.776  1.00  0.00     0.049 A 
ATOM     50  C   UNL A   1      42.219  27.596  30.000  1.00  0.00     0.074 A 
ATOM     51  C   UNL A   1      41.457  30.174  35.861  1.00  0.00     0.029 A 
ATOM     52  N   UNL A   1      41.160  29.622  33.724  1.00  0.00    -0.354 N 
ATOM     53  N   UNL A   1      41.943  28.172  31.148  1.00  0.00    -0.248 NA
ATOM     54  C   UNL A   1      43.436  26.788  29.996  1.00  0.00     0.031 C 
ATOM     55  C   UNL A   1      42.528  29.376  35.444  1.00  0.00     0.029 A 
ATOM     56  C   UNL A   1      42.324  28.998  34.123  1.00  0.00     0.049 A 
ATOM     57  H   UNL A   1      40.765  29.556  32.825  1.00  0.00     0.167 HD
ATOM     58  C   UNL A   1      42.940  27.776  32.020  1.00  0.00     0.074 A 
ATOM     59  C   UNL A   1      43.809  26.888  31.263  1.00  0.00     0.031 C 
ATOM     60  C   UNL A   1      43.134  28.115  33.318  1.00  0.00     0.034 A 
BRANCH  47  61
ATOM     61  C   UNL A   1      39.013  32.034  35.827  1.00  0.00     0.023 A 
ATOM     62  C   UNL A   1      39.406  33.389  35.892  1.00  0.00     0.012 A 
ATOM     63  C   UNL A   1      38.193  31.510  36.844  1.00  0.00     0.148 A 
ATOM     64  C   UNL A   1      39.026  34.192  36.968  1.00  0.00     0.002 A 
ATOM     65  C   UNL A   1      37.776  32.329  37.886  1.00  0.00     0.091 A 
ATOM     66  F   UNL A   1      37.847  30.217  36.781  1.00  0.00    -0.205 F 
ATOM     67  C   UNL A   1      38.205  33.664  37.960  1.00  0.00     0.022 A 
BRANCH  65  68
ATOM     68  S   UNL A   1      36.665  31.761  39.177  1.00  0.00     0.127 S 
ATOM     69  O   UNL A   1      37.453  32.021  40.381  1.00  0.00    -0.237 OA
ATOM     70  O   UNL A   1      35.516  32.647  38.997  1.00  0.00    -0.237 OA
ATOM     71  O   UNL A   1      36.406  30.355  38.902  1.00  0.00    -0.744 OA
ENDBRANCH  65  68
ENDBRANCH  47  61
BRANCH  48  72
ATOM     72  C   UNL A   1      41.848  26.942  27.485  1.00  0.00     0.023 A 
ATOM     73  C   UNL A   1      42.391  27.666  26.408  1.00  0.00     0.012 A 
ATOM     74  C   UNL A   1      41.759  25.539  27.399  1.00  0.00     0.148 A 
ATOM     75  C   UNL A   1      42.789  27.006  25.244  1.00  0.00     0.002 A 
ATOM     76  C   UNL A   1      42.208  24.884  26.264  1.00  0.00     0.091 A 
ATOM     77  F   UNL A   1      41.265  24.871  28.452  1.00  0.00    -0.205 F 
ATOM     78  C   UNL A   1      42.703  25.617  25.174  1.00  0.00     0.022 A 
BRANCH  76  79
ATOM     79  S   UNL A   1      42.245  23.093  26.144  1.00  0.00     0.127 S 
ATOM     80  O   UNL A   1      42.968  22.732  27.361  1.00  0.00    -0.237 OA
ATOM     81  O   UNL A   1      40.820  22.761  26.148  1.00  0.00    -0.237 OA
ATOM     82  O   UNL A   1      42.928  22.793  24.893  1.00  0.00    -0.744 OA
ENDBRANCH  76  79
ENDBRANCH  48  72
BRANCH  60  83
ATOM     83  C   UNL A   1      44.307  27.474  33.993  1.00  0.00     0.023 A 
ATOM     84  C   UNL A   1      45.557  28.122  34.016  1.00  0.00     0.012 A 
ATOM     85  C   UNL A   1      44.138  26.243  34.653  1.00  0.00     0.148 A 
ATOM     86  C   UNL A   1      46.641  27.522  34.649  1.00  0.00     0.002 A 
ATOM     87  C   UNL A   1      45.203  25.690  35.341  1.00  0.00     0.091 A 
ATOM     88  F   UNL A   1      42.939  25.645  34.596  1.00  0.00    -0.205 F 
ATOM     89  C   UNL A   1      46.460  26.316  35.323  1.00  0.00     0.022 A 
BRANCH  87  90
ATOM     90  S   UNL A   1      45.031  24.204  36.328  1.00  0.00     0.127 S 
ATOM     91  O   UNL A   1      43.767  23.664  35.831  1.00  0.00    -0.237 OA
ATOM     92  O   UNL A   1      46.218  23.442  35.940  1.00  0.00    -0.237 OA
ATOM     93  O   UNL A   1      45.015  24.638  37.718  1.00  0.00    -0.744 OA
ENDBRANCH  87  90
ENDBRANCH  60  83
ENDBRANCH  34  35
ENDBRANCH  26  29
ENDBRANCH  24  25
ENDBRANCH  23  24
ENDBRANCH   1  23
TORSDOF 18
ENDMDL
MODEL 3
REMARK VINA RESULT:     -13.7      4.625      9.981
REMARK SMILES CCc1cc(OCCC(=O)NCCCNC(=O)c2ccc(-c3c4nc(c(-c5cccc(S(=O)(=O)[O-])c5F)c5ccc([nH]5)c(-c5cccc(S(=O)(=O)[O-])c5F)c5nc(c(-c6cccc(S(=O)(=O)[O-])c6F)c6ccc3[nH]6)C=C5)C=C4)cc2)nc(-c2cnccn2)n1
REMARK SMILES IDX 12 1 11 2 9 3 10 4 8 6 7 7 6 8 5 9 3 10 4 11 89 12 82 13
REMARK SMILES IDX 81 14 2 15 1 16 83 17 84 18 88 19 85 20 87 21 86 22 13 23
REMARK SMILES IDX 14 24 15 25 16 26 17 28 18 29 19 30 80 31 20 32 79 33 21 34
REMARK SMILES IDX 22 35 23 36 73 37 24 38 78 39 72 40 74 41 25 42 77 43 71 44
REMARK SMILES IDX 70 45 26 47 58 48 38 49 57 50 39 51 42 52 56 53 75 54 40 55
REMARK SMILES IDX 41 56 55 58 76 59 43 60 27 61 28 62 36 63 29 64 31 65 37 66
REMARK SMILES IDX 30 67 32 68 33 69 34 70 35 71 59 72 60 73 68 74 61 75 63 76
REMARK SMILES IDX 69 77 62 78 64 79 65 80 66 81 67 82 44 83 45 84 53 85 46 86
REMARK SMILES IDX 48 87 54 88 47 89 49 90 50 91 51 92 52 93
REMARK H PARENT 11 5 15 27 74 46 42 57
REMARK Flexibility Score: inf
ROOT
ATOM      1  C   UNL A   1      34.379  32.544  28.069  1.00  0.00     0.117 C 
ENDROOT
BRANCH   1   2
ATOM      2  N   UNL A   1      35.568  31.643  27.617  1.00  0.00    -0.356 N 
ATOM      3  C   UNL A   1      35.610  30.286  27.606  1.00  0.00     0.223 C 
ATOM      4  O   UNL A   1      36.688  29.708  27.737  1.00  0.00    -0.275 OA
ATOM      5  H   UNL A   1      36.377  32.109  27.305  1.00  0.00     0.163 HD
BRANCH   3   6
ATOM      6  C   UNL A   1      34.304  29.563  27.374  1.00  0.00     0.141 C 
BRANCH   6   7
ATOM      7  C   UNL A   1      34.254  28.427  26.330  1.00  0.00     0.241 C 
BRANCH   7   8
ATOM      8  O   UNL A   1      33.776  28.670  24.980  1.00  0.00    -0.477 OA
BRANCH   8   9
ATOM      9  C   UNL A   1      32.488  28.194  24.650  1.00  0.00     0.217 A 
ATOM     10  C   UNL A   1      30.541  28.912  22.495  1.00  0.00     0.048 A 
ATOM     11  C   UNL A   1      31.493  29.365  23.896  1.00  0.00     0.092 A 
ATOM     12  N   UNL A   1      30.702  27.243  21.866  1.00  0.00    -0.231 NA
ATOM     13  C   UNL A   1      31.581  25.980  22.881  1.00  0.00     0.183 A 
ATOM     14  N   UNL A   1      32.538  26.529  24.200  1.00  0.00    -0.192 NA
BRANCH  10  15
ATOM     15  C   UNL A   1      29.205  29.656  22.420  1.00  0.00     0.053 C 
ATOM     16  C   UNL A   1      28.025  28.906  23.013  1.00  0.00     0.011 C 
ENDBRANCH  10  15
BRANCH  13  17
ATOM     17  C   UNL A   1      30.695  24.655  23.584  1.00  0.00     0.126 A 
ATOM     18  C   UNL A   1      29.912  25.406  24.943  1.00  0.00     0.143 A 
ATOM     19  N   UNL A   1      31.457  22.955  23.890  1.00  0.00    -0.250 NA
ATOM     20  N   UNL A   1      30.019  24.730  26.515  1.00  0.00    -0.261 NA
ATOM     21  C   UNL A   1      31.562  22.297  25.546  1.00  0.00     0.132 A 
ATOM     22  C   UNL A   1      30.865  23.231  26.820  1.00  0.00     0.131 A 
ENDBRANCH  13  17
ENDBRANCH   8   9
ENDBRANCH   7   8
ENDBRANCH   6   7
ENDBRANCH   3   6
ENDBRANCH   1   2
BRANCH   1  23
ATOM     23  C   UNL A   1      34.411  34.336  29.340  1.00  0.00     0.042 C 
BRANCH  23  24
ATOM     24  C   UNL A   1      35.926  34.541  30.526  1.00  0.00     0.118 C 
BRANCH  24  25
ATOM     25  N   UNL A   1      35.570  34.132  32.252  1.00  0.00    -0.352 N 
ATOM     26  C   UNL A   1      35.966  32.637  33.043  1.00  0.00     0.251 C 
ATOM     27  H   UNL A   1      35.112  34.817  32.791  1.00  0.00     0.163 HD
ATOM     28  O   UNL A   1      35.206  32.712  34.051  1.00  0.00    -0.269 OA
BRANCH  26  29
ATOM     29  C   UNL A   1      37.372  31.287  32.144  1.00  0.00     0.039 A 
ATOM     30  C   UNL A   1      38.317  30.283  32.670  1.00  0.00     0.014 A 
ATOM     31  C   UNL A   1      37.819  31.369  30.622  1.00  0.00     0.014 A 
ATOM     32  C   UNL A   1      39.523  29.865  32.031  1.00  0.00     0.010 A 
ATOM     33  C   UNL A   1      38.997  31.015  30.008  1.00  0.00     0.010 A 
ATOM     34  C   UNL A   1      39.877  30.284  30.742  1.00  0.00    -0.014 A 
BRANCH  34  35
ATOM     35  C   UNL A   1      40.956  29.692  29.963  1.00  0.00     0.031 A 
ATOM     36  C   UNL A   1      40.784  28.392  29.254  1.00  0.00     0.074 A 
ATOM     37  C   UNL A   1      42.141  30.297  30.146  1.00  0.00     0.049 A 
ATOM     38  N   UNL A   1      41.635  27.782  28.481  1.00  0.00    -0.248 NA
ATOM     39  C   UNL A   1      39.518  27.661  29.455  1.00  0.00     0.031 C 
ATOM     40  C   UNL A   1      42.359  31.443  31.045  1.00  0.00     0.029 A 
ATOM     41  N   UNL A   1      43.366  30.056  29.618  1.00  0.00    -0.354 N 
ATOM     42  C   UNL A   1      41.009  26.609  28.083  1.00  0.00     0.074 A 
ATOM     43  C   UNL A   1      39.726  26.559  28.744  1.00  0.00     0.031 C 
ATOM     44  C   UNL A   1      43.617  31.871  30.920  1.00  0.00     0.029 A 
ATOM     45  C   UNL A   1      44.301  30.986  29.997  1.00  0.00     0.049 A 
ATOM     46  H   UNL A   1      43.564  29.294  29.027  1.00  0.00     0.167 HD
ATOM     47  C   UNL A   1      41.489  25.684  27.222  1.00  0.00     0.034 A 
ATOM     48  C   UNL A   1      45.579  31.098  29.617  1.00  0.00     0.034 A 
ATOM     49  C   UNL A   1      42.806  25.788  26.656  1.00  0.00     0.049 A 
ATOM     50  C   UNL A   1      46.062  30.091  28.626  1.00  0.00     0.074 A 
ATOM     51  C   UNL A   1      43.419  24.975  25.724  1.00  0.00     0.029 A 
ATOM     52  N   UNL A   1      43.733  26.764  27.013  1.00  0.00    -0.354 N 
ATOM     53  N   UNL A   1      45.405  29.083  28.100  1.00  0.00    -0.248 NA
ATOM     54  C   UNL A   1      47.433  30.246  28.150  1.00  0.00     0.031 C 
ATOM     55  C   UNL A   1      44.735  25.424  25.568  1.00  0.00     0.029 A 
ATOM     56  C   UNL A   1      44.921  26.562  26.341  1.00  0.00     0.049 A 
ATOM     57  H   UNL A   1      43.564  27.493  27.653  1.00  0.00     0.167 HD
ATOM     58  C   UNL A   1      46.275  28.491  27.204  1.00  0.00     0.074 A 
ATOM     59  C   UNL A   1      47.497  29.279  27.246  1.00  0.00     0.031 C 
ATOM     60  C   UNL A   1      46.096  27.397  26.423  1.00  0.00     0.034 A 
BRANCH  47  61
ATOM     61  C   UNL A   1      40.604  24.520  26.864  1.00  0.00     0.023 A 
ATOM     62  C   UNL A   1      39.288  24.742  26.403  1.00  0.00     0.012 A 
ATOM     63  C   UNL A   1      41.082  23.200  26.959  1.00  0.00     0.148 A 
ATOM     64  C   UNL A   1      38.453  23.670  26.084  1.00  0.00     0.002 A 
ATOM     65  C   UNL A   1      40.263  22.140  26.590  1.00  0.00     0.091 A 
ATOM     66  F   UNL A   1      42.325  23.003  27.420  1.00  0.00    -0.205 F 
ATOM     67  C   UNL A   1      38.943  22.371  26.169  1.00  0.00     0.022 A 
BRANCH  65  68
ATOM     68  S   UNL A   1      40.824  20.434  26.603  1.00  0.00     0.127 S 
ATOM     69  O   UNL A   1      39.714  19.754  25.935  1.00  0.00    -0.237 OA
ATOM     70  O   UNL A   1      42.052  20.514  25.814  1.00  0.00    -0.237 OA
ATOM     71  O   UNL A   1      41.012  20.078  28.001  1.00  0.00    -0.744 OA
ENDBRANCH  65  68
ENDBRANCH  47  61
BRANCH  48  72
ATOM     72  C   UNL A   1      46.412  32.207  30.140  1.00  0.00     0.023 A 
ATOM     73  C   UNL A   1      46.423  33.453  29.486  1.00  0.00     0.012 A 
ATOM     74  C   UNL A   1      47.145  32.046  31.331  1.00  0.00     0.148 A 
ATOM     75  C   UNL A   1      47.194  34.505  29.985  1.00  0.00     0.002 A 
ATOM     76  C   UNL A   1      47.863  33.110  31.853  1.00  0.00     0.091 A 
ATOM     77  F   UNL A   1      47.094  30.857  31.949  1.00  0.00    -0.205 F 
ATOM     78  C   UNL A   1      47.908  34.335  31.170  1.00  0.00     0.022 A 
BRANCH  76  79
ATOM     79  S   UNL A   1      48.708  33.010  33.434  1.00  0.00     0.127 S 
ATOM     80  O   UNL A   1      47.612  32.652  34.331  1.00  0.00    -0.237 OA
ATOM     81  O   UNL A   1      49.681  31.945  33.189  1.00  0.00    -0.237 OA
ATOM     82  O   UNL A   1      49.297  34.324  33.652  1.00  0.00    -0.744 OA
ENDBRANCH  76  79
ENDBRANCH  48  72
BRANCH  60  83
ATOM     83  C   UNL A   1      47.241  27.037  25.528  1.00  0.00     0.023 A 
ATOM     84  C   UNL A   1      48.215  26.113  25.953  1.00  0.00     0.012 A 
ATOM     85  C   UNL A   1      47.309  27.589  24.235  1.00  0.00     0.148 A 
ATOM     86  C   UNL A   1      49.274  25.781  25.114  1.00  0.00     0.002 A 
ATOM     87  C   UNL A   1      48.325  27.197  23.382  1.00  0.00     0.091 A 
ATOM     88  F   UNL A   1      46.375  28.479  23.869  1.00  0.00    -0.205 F 
ATOM     89  C   UNL A   1      49.320  26.310  23.826  1.00  0.00     0.022 A 
BRANCH  87  90
ATOM     90  S   UNL A   1      48.397  27.738  21.675  1.00  0.00     0.127 S 
ATOM     91  O   UNL A   1      47.065  28.309  21.489  1.00  0.00    -0.237 OA
ATOM     92  O   UNL A   1      49.484  28.716  21.712  1.00  0.00    -0.237 OA
ATOM     93  O   UNL A   1      48.677  26.547  20.883  1.00  0.00    -0.744 OA
ENDBRANCH  87  90
ENDBRANCH  60  83
ENDBRANCH  34  35
ENDBRANCH  26  29
ENDBRANCH  24  25
ENDBRANCH  23  24
ENDBRANCH   1  23
TORSDOF 18
ENDMDL
