MODEL 1
REMARK VINA RESULT:     -12.1      0.000      0.000
REMARK SMILES Cc1cccc(CS[C@@H]2CC[C@]([NH3+])(C(=O)NCCCNC(=O)c3ccc(-c4c5nc(c(-c6cccc(S(=O)(=O)[O-])c6F)c6ccc([nH]6)c(-c6cccc(S(=O)(=O)[O-])c6F)c6nc(c(-c7cccc(S(=O)(=O)[O-])c7F)c7ccc4[nH]7)C=C6)C=C5)cc3)C2)c1
REMARK SMILES IDX 18 1 17 2 16 3 14 4 15 5 12 7 9 8 10 9 86 10 11 11 8 12 7 13
REMARK SMILES IDX 6 14 1 15 2 16 3 17 87 18 4 19 5 20 13 21 19 25 20 26 21 27
REMARK SMILES IDX 22 29 23 30 24 31 85 32 25 33 84 34 26 35 27 36 28 37 78 38
REMARK SMILES IDX 29 39 83 40 77 41 79 42 30 43 82 44 76 45 75 46 31 48 63 49
REMARK SMILES IDX 43 50 62 51 44 52 47 53 61 54 80 55 45 56 46 57 60 59 81 60
REMARK SMILES IDX 48 61 32 62 33 63 41 64 34 65 36 66 42 67 35 68 37 69 38 70
REMARK SMILES IDX 39 71 40 72 64 73 65 74 73 75 66 76 68 77 74 78 67 79 69 80
REMARK SMILES IDX 70 81 71 82 72 83 49 84 50 85 58 86 51 87 53 88 59 89 52 90
REMARK SMILES IDX 54 91 55 92 56 93 57 94
REMARK H PARENT 16 6 13 22 13 23 13 24 20 28 79 47 47 58
REMARK Flexibility Score: inf
ROOT
ATOM      1  C   UNL A   1      32.335  30.960  26.868  1.00  0.00     0.042 C 
ENDROOT
BRANCH   1   2
ATOM      2  C   UNL A   1      31.631  30.131  25.787  1.00  0.00     0.118 C 
BRANCH   2   3
ATOM      3  N   UNL A   1      32.494  29.698  24.701  1.00  0.00    -0.351 N 
ATOM      4  C   UNL A   1      32.304  28.768  23.724  1.00  0.00     0.281 C 
ATOM      5  O   UNL A   1      33.173  28.691  22.846  1.00  0.00    -0.268 OA
ATOM      6  H   UNL A   1      33.366  30.154  24.666  1.00  0.00     0.163 HD
BRANCH   4   7
ATOM      7  C   UNL A   1      31.127  27.748  23.753  1.00  0.00     0.175 C 
ATOM      8  C   UNL A   1      30.305  25.788  24.972  1.00  0.00     0.054 C 
ATOM      9  C   UNL A   1      30.446  25.412  23.499  1.00  0.00     0.022 C 
ATOM     10  C   UNL A   1      31.029  27.121  25.164  1.00  0.00     0.093 C 
ATOM     11  C   UNL A   1      31.293  26.510  22.876  1.00  0.00     0.080 C 
BRANCH   8  12
ATOM     12  S   UNL A   1      30.709  24.423  26.125  1.00  0.00    -0.154 SA
BRANCH  12  13
ATOM     13  C   UNL A   1      32.490  24.631  26.468  1.00  0.00     0.105 C 
BRANCH  13  14
ATOM     14  C   UNL A   1      33.445  23.938  25.529  1.00  0.00    -0.038 A 
ATOM     15  C   UNL A   1      34.893  20.437  25.002  1.00  0.00     0.044 C 
ATOM     16  C   UNL A   1      34.587  21.895  24.817  1.00  0.00    -0.051 A 
ATOM     17  C   UNL A   1      35.183  22.603  23.768  1.00  0.00     0.003 A 
ATOM     18  C   UNL A   1      33.717  22.568  25.688  1.00  0.00     0.008 A 
ATOM     19  C   UNL A   1      34.901  23.955  23.582  1.00  0.00     0.001 A 
ATOM     20  C   UNL A   1      34.027  24.616  24.447  1.00  0.00     0.004 A 
ENDBRANCH  13  14
ENDBRANCH  12  13
ENDBRANCH   8  12
BRANCH   7  21
ATOM     21  N   UNL A   1      29.878  28.466  23.416  1.00  0.00    -0.345 N 
ATOM     22  H   UNL A   1      30.107  29.371  23.006  1.00  0.00     0.345 HD
ATOM     23  H   UNL A   1      29.327  28.604  24.262  1.00  0.00     0.345 HD
ATOM     24  H   UNL A   1      29.341  27.915  22.746  1.00  0.00     0.345 HD
ENDBRANCH   7  21
ENDBRANCH   4   7
ENDBRANCH   2   3
ENDBRANCH   1   2
BRANCH   1  25
ATOM     25  C   UNL A   1      33.711  30.416  27.204  1.00  0.00     0.118 C 
BRANCH  25  26
ATOM     26  N   UNL A   1      34.689  31.497  27.384  1.00  0.00    -0.352 N 
ATOM     27  C   UNL A   1      35.921  31.594  28.001  1.00  0.00     0.251 C 
ATOM     28  H   UNL A   1      34.403  32.344  26.971  1.00  0.00     0.163 HD
ATOM     29  O   UNL A   1      36.335  32.729  28.249  1.00  0.00    -0.269 OA
BRANCH  27  30
ATOM     30  C   UNL A   1      36.740  30.406  28.319  1.00  0.00     0.039 A 
ATOM     31  C   UNL A   1      36.647  29.710  29.530  1.00  0.00     0.014 A 
ATOM     32  C   UNL A   1      37.782  30.085  27.472  1.00  0.00     0.014 A 
ATOM     33  C   UNL A   1      37.708  28.873  29.901  1.00  0.00     0.010 A 
ATOM     34  C   UNL A   1      38.557  28.990  27.644  1.00  0.00     0.010 A 
ATOM     35  C   UNL A   1      38.703  28.618  28.964  1.00  0.00    -0.014 A 
BRANCH  35  36
ATOM     36  C   UNL A   1      40.074  28.199  29.193  1.00  0.00     0.031 A 
ATOM     37  C   UNL A   1      40.445  26.811  28.969  1.00  0.00     0.074 A 
ATOM     38  C   UNL A   1      41.003  29.184  29.108  1.00  0.00     0.049 A 
ATOM     39  N   UNL A   1      41.636  26.362  29.126  1.00  0.00    -0.248 NA
ATOM     40  C   UNL A   1      39.475  25.813  28.549  1.00  0.00     0.031 C 
ATOM     41  C   UNL A   1      42.365  29.116  28.588  1.00  0.00     0.029 A 
ATOM     42  N   UNL A   1      40.877  30.518  29.473  1.00  0.00    -0.354 N 
ATOM     43  C   UNL A   1      41.668  25.127  28.529  1.00  0.00     0.074 A 
ATOM     44  C   UNL A   1      40.281  24.764  28.376  1.00  0.00     0.031 C 
ATOM     45  C   UNL A   1      43.010  30.257  28.890  1.00  0.00     0.029 A 
ATOM     46  C   UNL A   1      42.148  31.017  29.777  1.00  0.00     0.049 A 
ATOM     47  H   UNL A   1      40.034  31.027  29.511  1.00  0.00     0.167 HD
ATOM     48  C   UNL A   1      42.871  24.663  28.086  1.00  0.00     0.034 A 
ATOM     49  C   UNL A   1      42.421  31.294  31.093  1.00  0.00     0.034 A 
ATOM     50  C   UNL A   1      43.976  25.535  28.558  1.00  0.00     0.049 A 
ATOM     51  C   UNL A   1      43.372  30.284  31.731  1.00  0.00     0.074 A 
ATOM     52  C   UNL A   1      44.819  26.470  27.979  1.00  0.00     0.029 A 
ATOM     53  N   UNL A   1      44.124  25.710  29.926  1.00  0.00    -0.354 N 
ATOM     54  N   UNL A   1      44.035  29.357  31.088  1.00  0.00    -0.248 NA
ATOM     55  C   UNL A   1      43.574  30.200  33.177  1.00  0.00     0.031 C 
ATOM     56  C   UNL A   1      45.379  27.274  29.029  1.00  0.00     0.029 A 
ATOM     57  C   UNL A   1      44.915  26.802  30.247  1.00  0.00     0.049 A 
ATOM     58  H   UNL A   1      43.711  25.122  30.599  1.00  0.00     0.167 HD
ATOM     59  C   UNL A   1      44.512  28.440  31.992  1.00  0.00     0.074 A 
ATOM     60  C   UNL A   1      44.256  29.050  33.288  1.00  0.00     0.031 C 
ATOM     61  C   UNL A   1      45.007  27.208  31.652  1.00  0.00     0.034 A 
BRANCH  48  62
ATOM     62  C   UNL A   1      43.065  23.542  27.075  1.00  0.00     0.023 A 
ATOM     63  C   UNL A   1      43.754  23.863  25.886  1.00  0.00     0.012 A 
ATOM     64  C   UNL A   1      42.570  22.213  27.149  1.00  0.00     0.148 A 
ATOM     65  C   UNL A   1      43.912  22.950  24.835  1.00  0.00     0.002 A 
ATOM     66  C   UNL A   1      42.741  21.293  26.113  1.00  0.00     0.091 A 
ATOM     67  F   UNL A   1      41.888  21.799  28.210  1.00  0.00    -0.205 F 
ATOM     68  C   UNL A   1      43.404  21.664  24.946  1.00  0.00     0.022 A 
BRANCH  66  69
ATOM     69  S   UNL A   1      42.094  19.608  26.196  1.00  0.00     0.127 S 
ATOM     70  O   UNL A   1      40.650  19.834  26.128  1.00  0.00    -0.237 OA
ATOM     71  O   UNL A   1      42.672  18.996  25.001  1.00  0.00    -0.237 OA
ATOM     72  O   UNL A   1      42.557  19.041  27.458  1.00  0.00    -0.744 OA
ENDBRANCH  66  69
ENDBRANCH  48  62
BRANCH  49  73
ATOM     73  C   UNL A   1      41.208  31.892  31.763  1.00  0.00     0.023 A 
ATOM     74  C   UNL A   1      40.708  33.098  31.206  1.00  0.00     0.012 A 
ATOM     75  C   UNL A   1      40.337  31.095  32.529  1.00  0.00     0.148 A 
ATOM     76  C   UNL A   1      39.342  33.390  31.245  1.00  0.00     0.002 A 
ATOM     77  C   UNL A   1      38.979  31.409  32.584  1.00  0.00     0.091 A 
ATOM     78  F   UNL A   1      40.815  30.002  33.136  1.00  0.00    -0.205 F 
ATOM     79  C   UNL A   1      38.471  32.520  31.896  1.00  0.00     0.022 A 
BRANCH  77  80
ATOM     80  S   UNL A   1      37.835  30.338  33.463  1.00  0.00     0.127 S 
ATOM     81  O   UNL A   1      38.015  30.789  34.840  1.00  0.00    -0.237 OA
ATOM     82  O   UNL A   1      36.540  30.683  32.874  1.00  0.00    -0.237 OA
ATOM     83  O   UNL A   1      38.282  28.985  33.163  1.00  0.00    -0.744 OA
ENDBRANCH  77  80
ENDBRANCH  49  73
BRANCH  61  84
ATOM     84  C   UNL A   1      45.623  26.281  32.686  1.00  0.00     0.023 A 
ATOM     85  C   UNL A   1      47.022  26.099  32.720  1.00  0.00     0.012 A 
ATOM     86  C   UNL A   1      44.854  25.454  33.540  1.00  0.00     0.148 A 
ATOM     87  C   UNL A   1      47.631  25.194  33.595  1.00  0.00     0.002 A 
ATOM     88  C   UNL A   1      45.455  24.469  34.319  1.00  0.00     0.091 A 
ATOM     89  F   UNL A   1      43.535  25.647  33.651  1.00  0.00    -0.205 F 
ATOM     90  C   UNL A   1      46.846  24.360  34.377  1.00  0.00     0.022 A 
BRANCH  88  91
ATOM     91  S   UNL A   1      44.496  23.202  35.165  1.00  0.00     0.127 S 
ATOM     92  O   UNL A   1      43.778  22.579  34.052  1.00  0.00    -0.237 OA
ATOM     93  O   UNL A   1      45.544  22.373  35.754  1.00  0.00    -0.237 OA
ATOM     94  O   UNL A   1      43.640  23.911  36.107  1.00  0.00    -0.744 OA
ENDBRANCH  88  91
ENDBRANCH  61  84
ENDBRANCH  35  36
ENDBRANCH  27  30
ENDBRANCH  25  26
ENDBRANCH   1  25
TORSDOF 17
ENDMDL
MODEL 2
REMARK VINA RESULT:     -11.7      3.880      9.378
REMARK SMILES Cc1cccc(CS[C@@H]2CC[C@]([NH3+])(C(=O)NCCCNC(=O)c3ccc(-c4c5nc(c(-c6cccc(S(=O)(=O)[O-])c6F)c6ccc([nH]6)c(-c6cccc(S(=O)(=O)[O-])c6F)c6nc(c(-c7cccc(S(=O)(=O)[O-])c7F)c7ccc4[nH]7)C=C6)C=C5)cc3)C2)c1
REMARK SMILES IDX 18 1 17 2 16 3 14 4 15 5 12 7 9 8 10 9 86 10 11 11 8 12 7 13
REMARK SMILES IDX 6 14 1 15 2 16 3 17 87 18 4 19 5 20 13 21 19 25 20 26 21 27
REMARK SMILES IDX 22 29 23 30 24 31 85 32 25 33 84 34 26 35 27 36 28 37 78 38
REMARK SMILES IDX 29 39 83 40 77 41 79 42 30 43 82 44 76 45 75 46 31 48 63 49
REMARK SMILES IDX 43 50 62 51 44 52 47 53 61 54 80 55 45 56 46 57 60 59 81 60
REMARK SMILES IDX 48 61 32 62 33 63 41 64 34 65 36 66 42 67 35 68 37 69 38 70
REMARK SMILES IDX 39 71 40 72 64 73 65 74 73 75 66 76 68 77 74 78 67 79 69 80
REMARK SMILES IDX 70 81 71 82 72 83 49 84 50 85 58 86 51 87 53 88 59 89 52 90
REMARK SMILES IDX 54 91 55 92 56 93 57 94
REMARK H PARENT 16 6 13 22 13 23 13 24 20 28 79 47 47 58
REMARK Flexibility Score: inf
ROOT
ATOM      1  C   UNL A   1      36.928  21.813  25.972  1.00  0.00     0.042 C 
ENDROOT
BRANCH   1   2
ATOM      2  C   UNL A   1      35.830  22.809  25.575  1.00  0.00     0.118 C 
BRANCH   2   3
ATOM      3  N   UNL A   1      35.625  22.941  24.142  1.00  0.00    -0.351 N 
ATOM      4  C   UNL A   1      34.486  23.105  23.413  1.00  0.00     0.281 C 
ATOM      5  O   UNL A   1      34.622  23.314  22.200  1.00  0.00    -0.268 OA
ATOM      6  H   UNL A   1      36.451  22.907  23.606  1.00  0.00     0.163 HD
BRANCH   4   7
ATOM      7  C   UNL A   1      33.065  22.914  24.021  1.00  0.00     0.175 C 
ATOM      8  C   UNL A   1      31.057  24.165  24.659  1.00  0.00     0.054 C 
ATOM      9  C   UNL A   1      31.562  23.411  25.887  1.00  0.00     0.022 C 
ATOM     10  C   UNL A   1      32.169  24.106  23.611  1.00  0.00     0.093 C 
ATOM     11  C   UNL A   1      32.977  22.972  25.544  1.00  0.00     0.080 C 
BRANCH   8  12
ATOM     12  S   UNL A   1      30.334  25.804  25.044  1.00  0.00    -0.154 SA
BRANCH  12  13
ATOM     13  C   UNL A   1      31.161  26.314  26.590  1.00  0.00     0.105 C 
BRANCH  13  14
ATOM     14  C   UNL A   1      32.031  27.542  26.518  1.00  0.00    -0.038 A 
ATOM     15  C   UNL A   1      31.605  31.343  26.503  1.00  0.00     0.044 C 
ATOM     16  C   UNL A   1      32.233  29.980  26.496  1.00  0.00    -0.051 A 
ATOM     17  C   UNL A   1      33.625  29.856  26.432  1.00  0.00     0.003 A 
ATOM     18  C   UNL A   1      31.445  28.821  26.544  1.00  0.00     0.008 A 
ATOM     19  C   UNL A   1      34.220  28.596  26.433  1.00  0.00     0.001 A 
ATOM     20  C   UNL A   1      33.430  27.447  26.490  1.00  0.00     0.004 A 
ENDBRANCH  13  14
ENDBRANCH  12  13
ENDBRANCH   8  12
BRANCH   7  21
ATOM     21  N   UNL A   1      32.505  21.643  23.511  1.00  0.00    -0.345 N 
ATOM     22  H   UNL A   1      33.233  21.124  23.020  1.00  0.00     0.345 HD
ATOM     23  H   UNL A   1      31.737  21.843  22.871  1.00  0.00     0.345 HD
ATOM     24  H   UNL A   1      32.160  21.087  24.294  1.00  0.00     0.345 HD
ENDBRANCH   7  21
ENDBRANCH   4   7
ENDBRANCH   2   3
ENDBRANCH   1   2
BRANCH   1  25
ATOM     25  C   UNL A   1      38.308  22.286  25.556  1.00  0.00     0.118 C 
BRANCH  25  26
ATOM     26  N   UNL A   1      39.291  22.092  26.632  1.00  0.00    -0.352 N 
ATOM     27  C   UNL A   1      40.136  22.929  27.333  1.00  0.00     0.251 C 
ATOM     28  H   UNL A   1      39.362  21.152  26.918  1.00  0.00     0.163 HD
ATOM     29  O   UNL A   1      41.064  22.400  27.949  1.00  0.00    -0.269 OA
BRANCH  27  30
ATOM     30  C   UNL A   1      39.930  24.391  27.389  1.00  0.00     0.039 A 
ATOM     31  C   UNL A   1      40.432  25.276  26.428  1.00  0.00     0.014 A 
ATOM     32  C   UNL A   1      39.392  24.931  28.541  1.00  0.00     0.014 A 
ATOM     33  C   UNL A   1      40.537  26.633  26.761  1.00  0.00     0.010 A 
ATOM     34  C   UNL A   1      39.114  26.248  28.674  1.00  0.00     0.010 A 
ATOM     35  C   UNL A   1      39.954  27.066  27.948  1.00  0.00    -0.014 A 
BRANCH  35  36
ATOM     36  C   UNL A   1      40.280  28.239  28.738  1.00  0.00     0.031 A 
ATOM     37  C   UNL A   1      39.405  29.400  28.689  1.00  0.00     0.074 A 
ATOM     38  C   UNL A   1      41.060  28.009  29.825  1.00  0.00     0.049 A 
ATOM     39  N   UNL A   1      39.605  30.468  29.371  1.00  0.00    -0.248 NA
ATOM     40  C   UNL A   1      38.222  29.437  27.844  1.00  0.00     0.031 C 
ATOM     41  C   UNL A   1      41.020  28.651  31.134  1.00  0.00     0.029 A 
ATOM     42  N   UNL A   1      42.080  27.078  29.967  1.00  0.00    -0.354 N 
ATOM     43  C   UNL A   1      38.439  31.189  29.316  1.00  0.00     0.074 A 
ATOM     44  C   UNL A   1      37.711  30.613  28.213  1.00  0.00     0.031 C 
ATOM     45  C   UNL A   1      42.103  28.281  31.840  1.00  0.00     0.029 A 
ATOM     46  C   UNL A   1      42.970  27.540  30.942  1.00  0.00     0.049 A 
ATOM     47  H   UNL A   1      42.163  26.234  29.465  1.00  0.00     0.167 HD
ATOM     48  C   UNL A   1      38.181  32.061  30.331  1.00  0.00     0.034 A 
ATOM     49  C   UNL A   1      44.209  27.958  30.523  1.00  0.00     0.034 A 
ATOM     50  C   UNL A   1      39.368  32.213  31.209  1.00  0.00     0.049 A 
ATOM     51  C   UNL A   1      44.376  29.475  30.571  1.00  0.00     0.074 A 
ATOM     52  C   UNL A   1      39.720  31.795  32.482  1.00  0.00     0.029 A 
ATOM     53  N   UNL A   1      40.550  32.652  30.631  1.00  0.00    -0.354 N 
ATOM     54  N   UNL A   1      43.538  30.312  31.128  1.00  0.00    -0.248 NA
ATOM     55  C   UNL A   1      45.481  30.165  29.907  1.00  0.00     0.031 C 
ATOM     56  C   UNL A   1      41.148  31.891  32.603  1.00  0.00     0.029 A 
ATOM     57  C   UNL A   1      41.660  32.408  31.424  1.00  0.00     0.049 A 
ATOM     58  H   UNL A   1      40.596  33.091  29.751  1.00  0.00     0.167 HD
ATOM     59  C   UNL A   1      43.824  31.584  30.698  1.00  0.00     0.074 A 
ATOM     60  C   UNL A   1      45.089  31.446  29.992  1.00  0.00     0.031 C 
ATOM     61  C   UNL A   1      42.988  32.658  30.858  1.00  0.00     0.034 A 
BRANCH  48  62
ATOM     62  C   UNL A   1      36.814  32.645  30.664  1.00  0.00     0.023 A 
ATOM     63  C   UNL A   1      36.274  32.329  31.929  1.00  0.00     0.012 A 
ATOM     64  C   UNL A   1      35.973  33.419  29.821  1.00  0.00     0.148 A 
ATOM     65  C   UNL A   1      34.986  32.719  32.318  1.00  0.00     0.002 A 
ATOM     66  C   UNL A   1      34.696  33.826  30.211  1.00  0.00     0.091 A 
ATOM     67  F   UNL A   1      36.363  33.761  28.600  1.00  0.00    -0.205 F 
ATOM     68  C   UNL A   1      34.194  33.467  31.460  1.00  0.00     0.022 A 
BRANCH  66  69
ATOM     69  S   UNL A   1      33.616  34.794  29.134  1.00  0.00     0.127 S 
ATOM     70  O   UNL A   1      33.251  33.813  28.111  1.00  0.00    -0.237 OA
ATOM     71  O   UNL A   1      32.529  35.165  30.038  1.00  0.00    -0.237 OA
ATOM     72  O   UNL A   1      34.408  35.914  28.638  1.00  0.00    -0.744 OA
ENDBRANCH  66  69
ENDBRANCH  48  62
BRANCH  49  73
ATOM     73  C   UNL A   1      44.715  27.061  29.420  1.00  0.00     0.023 A 
ATOM     74  C   UNL A   1      44.866  25.687  29.741  1.00  0.00     0.012 A 
ATOM     75  C   UNL A   1      44.567  27.421  28.067  1.00  0.00     0.148 A 
ATOM     76  C   UNL A   1      44.673  24.700  28.770  1.00  0.00     0.002 A 
ATOM     77  C   UNL A   1      44.401  26.429  27.101  1.00  0.00     0.091 A 
ATOM     78  F   UNL A   1      44.514  28.717  27.739  1.00  0.00    -0.205 F 
ATOM     79  C   UNL A   1      44.395  25.073  27.458  1.00  0.00     0.022 A 
BRANCH  77  80
ATOM     80  S   UNL A   1      44.097  26.874  25.387  1.00  0.00     0.127 S 
ATOM     81  O   UNL A   1      43.495  25.647  24.871  1.00  0.00    -0.237 OA
ATOM     82  O   UNL A   1      43.174  28.004  25.496  1.00  0.00    -0.237 OA
ATOM     83  O   UNL A   1      45.405  27.225  24.853  1.00  0.00    -0.744 OA
ENDBRANCH  77  80
ENDBRANCH  49  73
BRANCH  61  84
ATOM     84  C   UNL A   1      43.408  34.063  30.460  1.00  0.00     0.023 A 
ATOM     85  C   UNL A   1      43.560  35.057  31.451  1.00  0.00     0.012 A 
ATOM     86  C   UNL A   1      43.513  34.487  29.113  1.00  0.00     0.148 A 
ATOM     87  C   UNL A   1      43.862  36.384  31.129  1.00  0.00     0.002 A 
ATOM     88  C   UNL A   1      43.690  35.830  28.795  1.00  0.00     0.091 A 
ATOM     89  F   UNL A   1      43.498  33.588  28.124  1.00  0.00    -0.205 F 
ATOM     90  C   UNL A   1      43.901  36.777  29.799  1.00  0.00     0.022 A 
BRANCH  88  91
ATOM     91  S   UNL A   1      43.511  36.446  27.112  1.00  0.00     0.127 S 
ATOM     92  O   UNL A   1      42.173  35.967  26.761  1.00  0.00    -0.237 OA
ATOM     93  O   UNL A   1      43.609  37.890  27.307  1.00  0.00    -0.237 OA
ATOM     94  O   UNL A   1      44.586  35.831  26.346  1.00  0.00    -0.744 OA
ENDBRANCH  88  91
ENDBRANCH  61  84
ENDBRANCH  35  36
ENDBRANCH  27  30
ENDBRANCH  25  26
ENDBRANCH   1  25
TORSDOF 17
ENDMDL
MODEL 3
REMARK VINA RESULT:     -11.4      4.057      9.675
REMARK SMILES Cc1cccc(CS[C@@H]2CC[C@]([NH3+])(C(=O)NCCCNC(=O)c3ccc(-c4c5nc(c(-c6cccc(S(=O)(=O)[O-])c6F)c6ccc([nH]6)c(-c6cccc(S(=O)(=O)[O-])c6F)c6nc(c(-c7cccc(S(=O)(=O)[O-])c7F)c7ccc4[nH]7)C=C6)C=C5)cc3)C2)c1
REMARK SMILES IDX 18 1 17 2 16 3 14 4 15 5 12 7 9 8 10 9 86 10 11 11 8 12 7 13
REMARK SMILES IDX 6 14 1 15 2 16 3 17 87 18 4 19 5 20 13 21 19 25 20 26 21 27
REMARK SMILES IDX 22 29 23 30 24 31 85 32 25 33 84 34 26 35 27 36 28 37 78 38
REMARK SMILES IDX 29 39 83 40 77 41 79 42 30 43 82 44 76 45 75 46 31 48 63 49
REMARK SMILES IDX 43 50 62 51 44 52 47 53 61 54 80 55 45 56 46 57 60 59 81 60
REMARK SMILES IDX 48 61 32 62 33 63 41 64 34 65 36 66 42 67 35 68 37 69 38 70
REMARK SMILES IDX 39 71 40 72 64 73 65 74 73 75 66 76 68 77 74 78 67 79 69 80
REMARK SMILES IDX 70 81 71 82 72 83 49 84 50 85 58 86 51 87 53 88 59 89 52 90
REMARK SMILES IDX 54 91 55 92 56 93 57 94
REMARK H PARENT 16 6 13 22 13 23 13 24 20 28 79 47 47 58
REMARK Flexibility Score: inf
ROOT
ATOM      1  C   UNL A   1      37.653  21.155  25.251  1.00  0.00     0.042 C 
ENDROOT
BRANCH   1   2
ATOM      2  C   UNL A   1      36.259  21.274  24.622  1.00  0.00     0.118 C 
BRANCH   2   3
ATOM      3  N   UNL A   1      35.382  20.145  24.883  1.00  0.00    -0.351 N 
ATOM      4  C   UNL A   1      34.045  20.092  25.138  1.00  0.00     0.281 C 
ATOM      5  O   UNL A   1      33.530  18.967  25.202  1.00  0.00    -0.268 OA
ATOM      6  H   UNL A   1      35.831  19.268  24.874  1.00  0.00     0.163 HD
BRANCH   4   7
ATOM      7  C   UNL A   1      33.202  21.360  25.465  1.00  0.00     0.175 C 
ATOM      8  C   UNL A   1      32.989  23.734  24.898  1.00  0.00     0.054 C 
ATOM      9  C   UNL A   1      33.196  23.619  26.406  1.00  0.00     0.022 C 
ATOM     10  C   UNL A   1      33.316  22.366  24.296  1.00  0.00     0.093 C 
ATOM     11  C   UNL A   1      33.687  22.200  26.644  1.00  0.00     0.080 C 
BRANCH   8  12
ATOM     12  S   UNL A   1      33.787  25.206  24.153  1.00  0.00    -0.154 SA
BRANCH  12  13
ATOM     13  C   UNL A   1      34.221  26.259  25.580  1.00  0.00     0.105 C 
BRANCH  13  14
ATOM     14  C   UNL A   1      33.432  27.532  25.745  1.00  0.00    -0.038 A 
ATOM     15  C   UNL A   1      30.528  29.334  24.027  1.00  0.00     0.044 C 
ATOM     16  C   UNL A   1      31.627  29.003  24.994  1.00  0.00    -0.051 A 
ATOM     17  C   UNL A   1      31.908  29.875  26.052  1.00  0.00     0.003 A 
ATOM     18  C   UNL A   1      32.388  27.834  24.852  1.00  0.00     0.008 A 
ATOM     19  C   UNL A   1      32.922  29.575  26.961  1.00  0.00     0.001 A 
ATOM     20  C   UNL A   1      33.669  28.405  26.818  1.00  0.00     0.004 A 
ENDBRANCH  13  14
ENDBRANCH  12  13
ENDBRANCH   8  12
BRANCH   7  21
ATOM     21  N   UNL A   1      31.794  20.947  25.660  1.00  0.00    -0.345 N 
ATOM     22  H   UNL A   1      31.186  21.535  25.090  1.00  0.00     0.345 HD
ATOM     23  H   UNL A   1      31.543  21.049  26.643  1.00  0.00     0.345 HD
ATOM     24  H   UNL A   1      31.685  19.972  25.380  1.00  0.00     0.345 HD
ENDBRANCH   7  21
ENDBRANCH   4   7
ENDBRANCH   2   3
ENDBRANCH   1   2
BRANCH   1  25
ATOM     25  C   UNL A   1      38.032  22.392  26.044  1.00  0.00     0.118 C 
BRANCH  25  26
ATOM     26  N   UNL A   1      39.373  22.265  26.633  1.00  0.00    -0.352 N 
ATOM     27  C   UNL A   1      40.388  23.154  26.927  1.00  0.00     0.251 C 
ATOM     28  H   UNL A   1      39.597  21.337  26.873  1.00  0.00     0.163 HD
ATOM     29  O   UNL A   1      41.510  22.678  27.120  1.00  0.00    -0.269 OA
BRANCH  27  30
ATOM     30  C   UNL A   1      40.154  24.607  27.050  1.00  0.00     0.039 A 
ATOM     31  C   UNL A   1      40.645  25.545  26.136  1.00  0.00     0.014 A 
ATOM     32  C   UNL A   1      39.597  25.081  28.222  1.00  0.00     0.014 A 
ATOM     33  C   UNL A   1      40.722  26.887  26.533  1.00  0.00     0.010 A 
ATOM     34  C   UNL A   1      39.294  26.385  28.415  1.00  0.00     0.010 A 
ATOM     35  C   UNL A   1      40.123  27.253  27.734  1.00  0.00    -0.014 A 
BRANCH  35  36
ATOM     36  C   UNL A   1      40.421  28.393  28.582  1.00  0.00     0.031 A 
ATOM     37  C   UNL A   1      39.516  29.532  28.591  1.00  0.00     0.074 A 
ATOM     38  C   UNL A   1      41.210  28.129  29.654  1.00  0.00     0.049 A 
ATOM     39  N   UNL A   1      39.691  30.570  29.325  1.00  0.00    -0.248 NA
ATOM     40  C   UNL A   1      38.330  29.581  27.751  1.00  0.00     0.031 C 
ATOM     41  C   UNL A   1      41.157  28.704  30.993  1.00  0.00     0.029 A 
ATOM     42  N   UNL A   1      42.253  27.219  29.748  1.00  0.00    -0.354 N 
ATOM     43  C   UNL A   1      38.507  31.263  29.308  1.00  0.00     0.074 A 
ATOM     44  C   UNL A   1      37.790  30.723  28.179  1.00  0.00     0.031 C 
ATOM     45  C   UNL A   1      42.251  28.328  31.679  1.00  0.00     0.029 A 
ATOM     46  C   UNL A   1      43.135  27.656  30.744  1.00  0.00     0.049 A 
ATOM     47  H   UNL A   1      42.357  26.403  29.205  1.00  0.00     0.167 HD
ATOM     48  C   UNL A   1      38.229  32.076  30.365  1.00  0.00     0.034 A 
ATOM     49  C   UNL A   1      44.361  28.125  30.343  1.00  0.00     0.034 A 
ATOM     50  C   UNL A   1      39.414  32.215  31.247  1.00  0.00     0.049 A 
ATOM     51  C   UNL A   1      44.489  29.642  30.467  1.00  0.00     0.074 A 
ATOM     52  C   UNL A   1      39.780  31.743  32.498  1.00  0.00     0.029 A 
ATOM     53  N   UNL A   1      40.583  32.713  30.690  1.00  0.00    -0.354 N 
ATOM     54  N   UNL A   1      43.631  30.428  31.066  1.00  0.00    -0.248 NA
ATOM     55  C   UNL A   1      45.574  30.392  29.836  1.00  0.00     0.031 C 
ATOM     56  C   UNL A   1      41.206  31.870  32.621  1.00  0.00     0.029 A 
ATOM     57  C   UNL A   1      41.701  32.458  31.468  1.00  0.00     0.049 A 
ATOM     58  H   UNL A   1      40.615  33.196  29.833  1.00  0.00     0.167 HD
ATOM     59  C   UNL A   1      43.884  31.727  30.699  1.00  0.00     0.074 A 
ATOM     60  C   UNL A   1      45.150  31.656  29.985  1.00  0.00     0.031 C 
ATOM     61  C   UNL A   1      43.021  32.770  30.914  1.00  0.00     0.034 A 
BRANCH  48  62
ATOM     62  C   UNL A   1      36.849  32.607  30.729  1.00  0.00     0.023 A 
ATOM     63  C   UNL A   1      36.347  32.265  32.003  1.00  0.00     0.012 A 
ATOM     64  C   UNL A   1      35.963  33.354  29.908  1.00  0.00     0.148 A 
ATOM     65  C   UNL A   1      35.053  32.605  32.420  1.00  0.00     0.002 A 
ATOM     66  C   UNL A   1      34.680  33.712  30.326  1.00  0.00     0.091 A 
ATOM     67  F   UNL A   1      36.315  33.717  28.681  1.00  0.00    -0.205 F 
ATOM     68  C   UNL A   1      34.217  33.328  31.582  1.00  0.00     0.022 A 
BRANCH  66  69
ATOM     69  S   UNL A   1      33.544  34.645  29.276  1.00  0.00     0.127 S 
ATOM     70  O   UNL A   1      32.490  35.015  30.222  1.00  0.00    -0.237 OA
ATOM     71  O   UNL A   1      34.379  35.758  28.828  1.00  0.00    -0.237 OA
ATOM     72  O   UNL A   1      33.110  33.741  28.216  1.00  0.00    -0.744 OA
ENDBRANCH  66  69
ENDBRANCH  48  62
BRANCH  49  73
ATOM     73  C   UNL A   1      44.886  27.297  29.197  1.00  0.00     0.023 A 
ATOM     74  C   UNL A   1      44.186  27.403  27.967  1.00  0.00     0.012 A 
ATOM     75  C   UNL A   1      46.224  26.859  29.172  1.00  0.00     0.148 A 
ATOM     76  C   UNL A   1      44.859  27.273  26.748  1.00  0.00     0.002 A 
ATOM     77  C   UNL A   1      46.880  26.707  27.951  1.00  0.00     0.091 A 
ATOM     78  F   UNL A   1      46.869  26.667  30.329  1.00  0.00    -0.205 F 
ATOM     79  C   UNL A   1      46.218  26.969  26.742  1.00  0.00     0.022 A 
BRANCH  77  80
ATOM     80  S   UNL A   1      48.620  26.260  27.905  1.00  0.00     0.127 S 
ATOM     81  O   UNL A   1      48.883  26.263  26.468  1.00  0.00    -0.237 OA
ATOM     82  O   UNL A   1      49.261  27.349  28.642  1.00  0.00    -0.237 OA
ATOM     83  O   UNL A   1      48.692  24.968  28.572  1.00  0.00    -0.744 OA
ENDBRANCH  77  80
ENDBRANCH  49  73
BRANCH  61  84
ATOM     84  C   UNL A   1      43.403  34.203  30.585  1.00  0.00     0.023 A 
ATOM     85  C   UNL A   1      43.626  35.126  31.629  1.00  0.00     0.012 A 
ATOM     86  C   UNL A   1      43.404  34.722  29.267  1.00  0.00     0.148 A 
ATOM     87  C   UNL A   1      43.897  36.475  31.379  1.00  0.00     0.002 A 
ATOM     88  C   UNL A   1      43.551  36.085  29.032  1.00  0.00     0.091 A 
ATOM     89  F   UNL A   1      43.317  33.894  28.221  1.00  0.00    -0.205 F 
ATOM     90  C   UNL A   1      43.834  36.961  30.082  1.00  0.00     0.022 A 
BRANCH  88  91
ATOM     91  S   UNL A   1      43.242  36.815  27.415  1.00  0.00     0.127 S 
ATOM     92  O   UNL A   1      44.157  36.052  26.564  1.00  0.00    -0.237 OA
ATOM     93  O   UNL A   1      41.827  36.514  27.213  1.00  0.00    -0.237 OA
ATOM     94  O   UNL A   1      43.581  38.226  27.543  1.00  0.00    -0.744 OA
ENDBRANCH  88  91
ENDBRANCH  61  84
ENDBRANCH  35  36
ENDBRANCH  27  30
ENDBRANCH  25  26
ENDBRANCH   1  25
TORSDOF 17
ENDMDL
