MODEL 1
REMARK VINA RESULT:     -12.9      0.000      0.000
REMARK SMILES Cc1nc(NC(=O)[C@H]2[C@@H]3CC[C@@H](C3)[C@@H]2C(=O)NCCCNC(=O)c2ccc(-c3c4nc(c(-c5cccc(S(=O)(=O)[O-])c5F)c5ccc([nH]5)c(-c5cccc(S(=O)(=O)[O-])c5F)c5nc(c(-c6cccc(S(=O)(=O)[O-])c6F)c6ccc3[nH]6)C=C5)C=C4)cc2)sc1-c1ccccc1
REMARK SMILES IDX 19 1 18 2 17 3 15 4 16 5 14 7 8 8 9 9 10 10 13 11 12 12
REMARK SMILES IDX 11 13 6 14 5 15 7 17 4 18 1 19 2 20 3 21 88 22 87 23 89 24
REMARK SMILES IDX 90 25 94 26 91 27 93 28 92 29 20 30 21 31 22 32 23 34 24 35
REMARK SMILES IDX 25 36 86 37 26 38 85 39 27 40 28 41 29 42 79 43 30 44 84 45
REMARK SMILES IDX 78 46 80 47 31 48 83 49 77 50 76 51 32 53 64 54 44 55 63 56
REMARK SMILES IDX 45 57 48 58 62 59 81 60 46 61 47 62 61 64 82 65 49 66 33 67
REMARK SMILES IDX 34 68 42 69 35 70 37 71 43 72 36 73 38 74 39 75 40 76 41 77
REMARK SMILES IDX 65 78 66 79 74 80 67 81 69 82 75 83 68 84 70 85 71 86 72 87
REMARK SMILES IDX 73 88 50 89 51 90 59 91 52 92 54 93 60 94 53 95 55 96 56 97
REMARK SMILES IDX 57 98 58 99
REMARK H PARENT 17 6 5 16 21 33 80 52 48 63
REMARK Flexibility Score: inf
ROOT
ATOM      1  C   UNL A   1      31.417  31.993  26.957  1.00  0.00     0.042 C 
ENDROOT
BRANCH   1   2
ATOM      2  C   UNL A   1      31.429  30.987  25.814  1.00  0.00     0.117 C 
BRANCH   2   3
ATOM      3  N   UNL A   1      32.305  29.851  26.031  1.00  0.00    -0.356 N 
ATOM      4  C   UNL A   1      32.223  28.526  25.734  1.00  0.00     0.224 C 
ATOM      5  O   UNL A   1      33.283  27.904  25.863  1.00  0.00    -0.275 OA
ATOM      6  H   UNL A   1      33.140  30.091  26.494  1.00  0.00     0.163 HD
BRANCH   4   7
ATOM      7  C   UNL A   1      30.917  27.832  25.292  1.00  0.00     0.094 C 
ATOM      8  C   UNL A   1      31.125  26.272  25.208  1.00  0.00     0.094 C 
ATOM      9  C   UNL A   1      30.863  26.029  23.682  1.00  0.00     0.002 C 
ATOM     10  C   UNL A   1      31.953  26.695  22.820  1.00  0.00     0.005 C 
ATOM     11  C   UNL A   1      29.662  26.940  23.447  1.00  0.00     0.009 C 
ATOM     12  C   UNL A   1      30.424  28.193  23.868  1.00  0.00     0.002 C 
ATOM     13  C   UNL A   1      31.585  28.179  22.868  1.00  0.00     0.005 C 
BRANCH   8  14
ATOM     14  C   UNL A   1      30.205  25.294  25.985  1.00  0.00     0.230 C 
ATOM     15  N   UNL A   1      30.336  23.953  26.071  1.00  0.00    -0.302 N 
ATOM     16  H   UNL A   1      29.726  23.506  26.701  1.00  0.00     0.172 HD
ATOM     17  O   UNL A   1      29.219  25.746  26.593  1.00  0.00    -0.274 OA
BRANCH  15  18
ATOM     18  C   UNL A   1      31.193  23.139  25.411  1.00  0.00     0.190 A 
ATOM     19  C   UNL A   1      32.320  21.447  22.495  1.00  0.00     0.068 C 
ATOM     20  C   UNL A   1      32.225  22.005  23.861  1.00  0.00     0.058 A 
ATOM     21  N   UNL A   1      31.028  22.564  24.256  1.00  0.00    -0.225 NA
ATOM     22  C   UNL A   1      33.273  22.167  24.751  1.00  0.00     0.059 A 
ATOM     23  S   UNL A   1      32.702  22.908  26.181  1.00  0.00    -0.096 S 
BRANCH  22  24
ATOM     24  C   UNL A   1      34.671  21.850  24.507  1.00  0.00    -0.006 A 
ATOM     25  C   UNL A   1      35.570  22.862  24.151  1.00  0.00     0.009 A 
ATOM     26  C   UNL A   1      35.162  20.591  24.886  1.00  0.00     0.009 A 
ATOM     27  C   UNL A   1      36.945  22.631  24.223  1.00  0.00     0.001 A 
ATOM     28  C   UNL A   1      36.536  20.364  24.954  1.00  0.00     0.001 A 
ATOM     29  C   UNL A   1      37.426  21.388  24.639  1.00  0.00     0.000 A 
ENDBRANCH  22  24
ENDBRANCH  15  18
ENDBRANCH   8  14
ENDBRANCH   4   7
ENDBRANCH   2   3
ENDBRANCH   1   2
BRANCH   1  30
ATOM     30  C   UNL A   1      32.718  32.774  27.133  1.00  0.00     0.118 C 
BRANCH  30  31
ATOM     31  N   UNL A   1      32.514  34.119  27.638  1.00  0.00    -0.352 N 
ATOM     32  C   UNL A   1      33.141  34.773  28.671  1.00  0.00     0.251 C 
ATOM     33  H   UNL A   1      31.823  34.642  27.171  1.00  0.00     0.163 HD
ATOM     34  O   UNL A   1      32.721  35.869  29.031  1.00  0.00    -0.269 OA
BRANCH  32  35
ATOM     35  C   UNL A   1      34.299  34.164  29.364  1.00  0.00     0.039 A 
ATOM     36  C   UNL A   1      34.052  33.291  30.428  1.00  0.00     0.014 A 
ATOM     37  C   UNL A   1      35.616  34.480  29.016  1.00  0.00     0.014 A 
ATOM     38  C   UNL A   1      35.119  32.709  31.116  1.00  0.00     0.010 A 
ATOM     39  C   UNL A   1      36.680  33.851  29.663  1.00  0.00     0.010 A 
ATOM     40  C   UNL A   1      36.444  32.971  30.731  1.00  0.00    -0.014 A 
BRANCH  40  41
ATOM     41  C   UNL A   1      37.585  32.347  31.451  1.00  0.00     0.031 A 
ATOM     42  C   UNL A   1      38.351  31.211  30.825  1.00  0.00     0.074 A 
ATOM     43  C   UNL A   1      37.902  32.766  32.691  1.00  0.00     0.049 A 
ATOM     44  N   UNL A   1      39.359  30.532  31.309  1.00  0.00    -0.248 NA
ATOM     45  C   UNL A   1      37.913  30.766  29.492  1.00  0.00     0.031 C 
ATOM     46  C   UNL A   1      37.198  33.810  33.436  1.00  0.00     0.029 A 
ATOM     47  N   UNL A   1      38.886  32.348  33.554  1.00  0.00    -0.354 N 
ATOM     48  C   UNL A   1      39.657  29.563  30.358  1.00  0.00     0.074 A 
ATOM     49  C   UNL A   1      38.702  29.720  29.283  1.00  0.00     0.031 C 
ATOM     50  C   UNL A   1      37.772  33.955  34.642  1.00  0.00     0.029 A 
ATOM     51  C   UNL A   1      38.871  33.001  34.765  1.00  0.00     0.049 A 
ATOM     52  H   UNL A   1      39.540  31.649  33.327  1.00  0.00     0.167 HD
ATOM     53  C   UNL A   1      40.653  28.646  30.362  1.00  0.00     0.034 A 
ATOM     54  C   UNL A   1      39.651  32.846  35.854  1.00  0.00     0.034 A 
ATOM     55  C   UNL A   1      41.633  28.520  31.408  1.00  0.00     0.049 A 
ATOM     56  C   UNL A   1      40.776  31.847  35.816  1.00  0.00     0.074 A 
ATOM     57  C   UNL A   1      42.729  27.677  31.463  1.00  0.00     0.029 A 
ATOM     58  N   UNL A   1      41.635  29.255  32.582  1.00  0.00    -0.354 N 
ATOM     59  N   UNL A   1      41.137  31.047  34.842  1.00  0.00    -0.248 NA
ATOM     60  C   UNL A   1      41.626  31.755  37.013  1.00  0.00     0.031 C 
ATOM     61  C   UNL A   1      43.385  27.890  32.681  1.00  0.00     0.029 A 
ATOM     62  C   UNL A   1      42.708  28.880  33.374  1.00  0.00     0.049 A 
ATOM     63  H   UNL A   1      40.971  29.942  32.820  1.00  0.00     0.167 HD
ATOM     64  C   UNL A   1      42.274  30.386  35.291  1.00  0.00     0.074 A 
ATOM     65  C   UNL A   1      42.554  30.893  36.619  1.00  0.00     0.031 C 
ATOM     66  C   UNL A   1      43.010  29.434  34.668  1.00  0.00     0.034 A 
BRANCH  53  67
ATOM     67  C   UNL A   1      40.772  27.736  29.165  1.00  0.00     0.023 A 
ATOM     68  C   UNL A   1      39.969  26.581  29.090  1.00  0.00     0.012 A 
ATOM     69  C   UNL A   1      41.629  28.053  28.092  1.00  0.00     0.148 A 
ATOM     70  C   UNL A   1      40.039  25.737  27.983  1.00  0.00     0.002 A 
ATOM     71  C   UNL A   1      41.662  27.229  26.973  1.00  0.00     0.091 A 
ATOM     72  F   UNL A   1      42.401  29.145  28.191  1.00  0.00    -0.205 F 
ATOM     73  C   UNL A   1      40.876  26.066  26.921  1.00  0.00     0.022 A 
BRANCH  71  74
ATOM     74  S   UNL A   1      42.650  27.609  25.522  1.00  0.00     0.127 S 
ATOM     75  O   UNL A   1      42.407  26.435  24.685  1.00  0.00    -0.237 OA
ATOM     76  O   UNL A   1      42.029  28.842  25.038  1.00  0.00    -0.237 OA
ATOM     77  O   UNL A   1      44.018  27.766  25.998  1.00  0.00    -0.744 OA
ENDBRANCH  71  74
ENDBRANCH  53  67
BRANCH  54  78
ATOM     78  C   UNL A   1      39.438  33.711  37.048  1.00  0.00     0.023 A 
ATOM     79  C   UNL A   1      39.873  35.051  37.020  1.00  0.00     0.012 A 
ATOM     80  C   UNL A   1      38.780  33.227  38.196  1.00  0.00     0.148 A 
ATOM     81  C   UNL A   1      39.685  35.883  38.123  1.00  0.00     0.002 A 
ATOM     82  C   UNL A   1      38.546  34.078  39.270  1.00  0.00     0.091 A 
ATOM     83  F   UNL A   1      38.387  31.946  38.210  1.00  0.00    -0.205 F 
ATOM     84  C   UNL A   1      39.013  35.401  39.243  1.00  0.00     0.022 A 
BRANCH  82  85
ATOM     85  S   UNL A   1      37.565  33.579  40.689  1.00  0.00     0.127 S 
ATOM     86  O   UNL A   1      37.419  34.839  41.410  1.00  0.00    -0.237 OA
ATOM     87  O   UNL A   1      36.343  33.083  40.057  1.00  0.00    -0.237 OA
ATOM     88  O   UNL A   1      38.349  32.548  41.359  1.00  0.00    -0.744 OA
ENDBRANCH  82  85
ENDBRANCH  54  78
BRANCH  66  89
ATOM     89  C   UNL A   1      44.215  28.893  35.393  1.00  0.00     0.023 A 
ATOM     90  C   UNL A   1      45.477  29.489  35.196  1.00  0.00     0.012 A 
ATOM     91  C   UNL A   1      44.084  27.846  36.327  1.00  0.00     0.148 A 
ATOM     92  C   UNL A   1      46.594  29.033  35.894  1.00  0.00     0.002 A 
ATOM     93  C   UNL A   1      45.192  27.427  37.054  1.00  0.00     0.091 A 
ATOM     94  F   UNL A   1      42.879  27.278  36.486  1.00  0.00    -0.205 F 
ATOM     95  C   UNL A   1      46.450  28.012  36.831  1.00  0.00     0.022 A 
BRANCH  93  96
ATOM     96  S   UNL A   1      45.080  26.185  38.347  1.00  0.00     0.127 S 
ATOM     97  O   UNL A   1      46.450  26.161  38.856  1.00  0.00    -0.237 OA
ATOM     98  O   UNL A   1      44.101  26.775  39.262  1.00  0.00    -0.237 OA
ATOM     99  O   UNL A   1      44.632  24.965  37.691  1.00  0.00    -0.744 OA
ENDBRANCH  93  96
ENDBRANCH  66  89
ENDBRANCH  40  41
ENDBRANCH  32  35
ENDBRANCH  30  31
ENDBRANCH   1  30
TORSDOF 16
ENDMDL
MODEL 2
REMARK VINA RESULT:     -12.9      1.643      7.580
REMARK SMILES Cc1nc(NC(=O)[C@H]2[C@@H]3CC[C@@H](C3)[C@@H]2C(=O)NCCCNC(=O)c2ccc(-c3c4nc(c(-c5cccc(S(=O)(=O)[O-])c5F)c5ccc([nH]5)c(-c5cccc(S(=O)(=O)[O-])c5F)c5nc(c(-c6cccc(S(=O)(=O)[O-])c6F)c6ccc3[nH]6)C=C5)C=C4)cc2)sc1-c1ccccc1
REMARK SMILES IDX 19 1 18 2 17 3 15 4 16 5 14 7 8 8 9 9 10 10 13 11 12 12
REMARK SMILES IDX 11 13 6 14 5 15 7 17 4 18 1 19 2 20 3 21 88 22 87 23 89 24
REMARK SMILES IDX 90 25 94 26 91 27 93 28 92 29 20 30 21 31 22 32 23 34 24 35
REMARK SMILES IDX 25 36 86 37 26 38 85 39 27 40 28 41 29 42 79 43 30 44 84 45
REMARK SMILES IDX 78 46 80 47 31 48 83 49 77 50 76 51 32 53 64 54 44 55 63 56
REMARK SMILES IDX 45 57 48 58 62 59 81 60 46 61 47 62 61 64 82 65 49 66 33 67
REMARK SMILES IDX 34 68 42 69 35 70 37 71 43 72 36 73 38 74 39 75 40 76 41 77
REMARK SMILES IDX 65 78 66 79 74 80 67 81 69 82 75 83 68 84 70 85 71 86 72 87
REMARK SMILES IDX 73 88 50 89 51 90 59 91 52 92 54 93 60 94 53 95 55 96 56 97
REMARK SMILES IDX 57 98 58 99
REMARK H PARENT 17 6 5 16 21 33 80 52 48 63
REMARK Flexibility Score: inf
ROOT
ATOM      1  C   UNL A   1      31.344  31.475  26.469  1.00  0.00     0.042 C 
ENDROOT
BRANCH   1   2
ATOM      2  C   UNL A   1      31.383  30.380  25.411  1.00  0.00     0.117 C 
BRANCH   2   3
ATOM      3  N   UNL A   1      32.244  29.261  25.746  1.00  0.00    -0.356 N 
ATOM      4  C   UNL A   1      32.119  27.911  25.642  1.00  0.00     0.224 C 
ATOM      5  O   UNL A   1      33.171  27.282  25.810  1.00  0.00    -0.275 OA
ATOM      6  H   UNL A   1      33.106  29.539  26.133  1.00  0.00     0.163 HD
BRANCH   4   7
ATOM      7  C   UNL A   1      30.779  27.199  25.361  1.00  0.00     0.094 C 
ATOM      8  C   UNL A   1      30.974  25.635  25.367  1.00  0.00     0.094 C 
ATOM      9  C   UNL A   1      30.584  25.291  23.888  1.00  0.00     0.002 C 
ATOM     10  C   UNL A   1      31.598  25.888  22.893  1.00  0.00     0.005 C 
ATOM     11  C   UNL A   1      29.369  26.194  23.693  1.00  0.00     0.009 C 
ATOM     12  C   UNL A   1      30.167  27.467  23.962  1.00  0.00     0.002 C 
ATOM     13  C   UNL A   1      31.239  27.374  22.871  1.00  0.00     0.005 C 
BRANCH   8  14
ATOM     14  C   UNL A   1      30.121  24.721  26.283  1.00  0.00     0.230 C 
ATOM     15  N   UNL A   1      30.353  23.423  26.576  1.00  0.00    -0.302 N 
ATOM     16  H   UNL A   1      29.771  23.032  27.267  1.00  0.00     0.172 HD
ATOM     17  O   UNL A   1      29.095  25.182  26.813  1.00  0.00    -0.274 OA
BRANCH  15  18
ATOM     18  C   UNL A   1      31.279  22.586  26.051  1.00  0.00     0.190 A 
ATOM     19  C   UNL A   1      32.304  20.030  23.803  1.00  0.00     0.068 C 
ATOM     20  C   UNL A   1      32.300  21.107  24.816  1.00  0.00     0.058 A 
ATOM     21  N   UNL A   1      31.086  21.537  25.307  1.00  0.00    -0.225 NA
ATOM     22  C   UNL A   1      33.396  21.851  25.221  1.00  0.00     0.059 A 
ATOM     23  S   UNL A   1      32.903  23.023  26.362  1.00  0.00    -0.096 S 
BRANCH  22  24
ATOM     24  C   UNL A   1      34.753  21.740  24.711  1.00  0.00    -0.006 A 
ATOM     25  C   UNL A   1      35.287  22.754  23.907  1.00  0.00     0.009 A 
ATOM     26  C   UNL A   1      35.603  20.757  25.239  1.00  0.00     0.009 A 
ATOM     27  C   UNL A   1      36.663  22.810  23.677  1.00  0.00     0.001 A 
ATOM     28  C   UNL A   1      36.976  20.816  25.006  1.00  0.00     0.001 A 
ATOM     29  C   UNL A   1      37.506  21.852  24.239  1.00  0.00     0.000 A 
ENDBRANCH  22  24
ENDBRANCH  15  18
ENDBRANCH   8  14
ENDBRANCH   4   7
ENDBRANCH   2   3
ENDBRANCH   1   2
BRANCH   1  30
ATOM     30  C   UNL A   1      32.713  32.022  26.872  1.00  0.00     0.118 C 
BRANCH  30  31
ATOM     31  N   UNL A   1      32.666  33.394  27.341  1.00  0.00    -0.352 N 
ATOM     32  C   UNL A   1      33.455  34.033  28.266  1.00  0.00     0.251 C 
ATOM     33  H   UNL A   1      31.963  33.951  26.935  1.00  0.00     0.163 HD
ATOM     34  O   UNL A   1      33.158  35.169  28.626  1.00  0.00    -0.269 OA
BRANCH  32  35
ATOM     35  C   UNL A   1      34.641  33.363  28.846  1.00  0.00     0.039 A 
ATOM     36  C   UNL A   1      34.435  32.337  29.774  1.00  0.00     0.014 A 
ATOM     37  C   UNL A   1      35.942  33.764  28.530  1.00  0.00     0.014 A 
ATOM     38  C   UNL A   1      35.530  31.691  30.354  1.00  0.00     0.010 A 
ATOM     39  C   UNL A   1      37.034  33.077  29.062  1.00  0.00     0.010 A 
ATOM     40  C   UNL A   1      36.840  32.044  29.992  1.00  0.00    -0.014 A 
BRANCH  40  41
ATOM     41  C   UNL A   1      38.010  31.355  30.596  1.00  0.00     0.031 A 
ATOM     42  C   UNL A   1      38.467  31.706  31.987  1.00  0.00     0.074 A 
ATOM     43  C   UNL A   1      38.696  30.446  29.876  1.00  0.00     0.049 A 
ATOM     44  N   UNL A   1      39.475  31.226  32.670  1.00  0.00    -0.248 NA
ATOM     45  C   UNL A   1      37.706  32.748  32.695  1.00  0.00     0.031 C 
ATOM     46  C   UNL A   1      38.398  30.064  28.494  1.00  0.00     0.029 A 
ATOM     47  N   UNL A   1      39.800  29.695  30.197  1.00  0.00    -0.354 N 
ATOM     48  C   UNL A   1      39.489  31.925  33.871  1.00  0.00     0.074 A 
ATOM     49  C   UNL A   1      38.409  32.886  33.812  1.00  0.00     0.031 C 
ATOM     50  C   UNL A   1      39.294  29.149  28.088  1.00  0.00     0.029 A 
ATOM     51  C   UNL A   1      40.242  28.894  29.169  1.00  0.00     0.049 A 
ATOM     52  H   UNL A   1      40.233  29.726  31.080  1.00  0.00     0.167 HD
ATOM     53  C   UNL A   1      40.304  31.762  34.940  1.00  0.00     0.034 A 
ATOM     54  C   UNL A   1      41.293  28.053  29.103  1.00  0.00     0.034 A 
ATOM     55  C   UNL A   1      41.347  30.774  35.019  1.00  0.00     0.049 A 
ATOM     56  C   UNL A   1      42.159  27.862  30.319  1.00  0.00     0.074 A 
ATOM     57  C   UNL A   1      42.172  30.478  36.091  1.00  0.00     0.029 A 
ATOM     58  N   UNL A   1      41.711  29.925  33.988  1.00  0.00    -0.354 N 
ATOM     59  N   UNL A   1      42.058  28.421  31.500  1.00  0.00    -0.248 NA
ATOM     60  C   UNL A   1      43.261  26.894  30.206  1.00  0.00     0.031 C 
ATOM     61  C   UNL A   1      43.047  29.459  35.700  1.00  0.00     0.029 A 
ATOM     62  C   UNL A   1      42.754  29.108  34.392  1.00  0.00     0.049 A 
ATOM     63  H   UNL A   1      41.291  29.904  33.097  1.00  0.00     0.167 HD
ATOM     64  C   UNL A   1      43.055  27.849  32.281  1.00  0.00     0.074 A 
ATOM     65  C   UNL A   1      43.739  26.884  31.444  1.00  0.00     0.031 C 
ATOM     66  C   UNL A   1      43.387  28.110  33.569  1.00  0.00     0.034 A 
BRANCH  53  67
ATOM     67  C   UNL A   1      40.064  32.639  36.144  1.00  0.00     0.023 A 
ATOM     68  C   UNL A   1      40.771  33.851  36.270  1.00  0.00     0.012 A 
ATOM     69  C   UNL A   1      39.102  32.295  37.113  1.00  0.00     0.148 A 
ATOM     70  C   UNL A   1      40.550  34.693  37.358  1.00  0.00     0.002 A 
ATOM     71  C   UNL A   1      38.856  33.161  38.173  1.00  0.00     0.091 A 
ATOM     72  F   UNL A   1      38.455  31.128  36.988  1.00  0.00    -0.205 F 
ATOM     73  C   UNL A   1      39.586  34.355  38.303  1.00  0.00     0.022 A 
BRANCH  71  74
ATOM     74  S   UNL A   1      37.581  32.850  39.400  1.00  0.00     0.127 S 
ATOM     75  O   UNL A   1      36.379  32.803  38.570  1.00  0.00    -0.237 OA
ATOM     76  O   UNL A   1      37.991  31.558  39.952  1.00  0.00    -0.237 OA
ATOM     77  O   UNL A   1      37.651  33.960  40.341  1.00  0.00    -0.744 OA
ENDBRANCH  71  74
ENDBRANCH  53  67
BRANCH  54  78
ATOM     78  C   UNL A   1      41.540  27.272  27.858  1.00  0.00     0.023 A 
ATOM     79  C   UNL A   1      42.068  27.922  26.726  1.00  0.00     0.012 A 
ATOM     80  C   UNL A   1      41.286  25.887  27.799  1.00  0.00     0.148 A 
ATOM     81  C   UNL A   1      42.310  27.215  25.548  1.00  0.00     0.002 A 
ATOM     82  C   UNL A   1      41.583  25.179  26.641  1.00  0.00     0.091 A 
ATOM     83  F   UNL A   1      40.770  25.289  28.882  1.00  0.00    -0.205 F 
ATOM     84  C   UNL A   1      42.079  25.843  25.508  1.00  0.00     0.022 A 
BRANCH  82  85
ATOM     85  S   UNL A   1      41.449  23.390  26.553  1.00  0.00     0.127 S 
ATOM     86  O   UNL A   1      42.032  22.983  27.827  1.00  0.00    -0.237 OA
ATOM     87  O   UNL A   1      40.004  23.197  26.444  1.00  0.00    -0.237 OA
ATOM     88  O   UNL A   1      42.193  23.003  25.359  1.00  0.00    -0.744 OA
ENDBRANCH  82  85
ENDBRANCH  54  78
BRANCH  66  89
ATOM     89  C   UNL A   1      44.519  27.322  34.176  1.00  0.00     0.023 A 
ATOM     90  C   UNL A   1      45.848  27.755  33.997  1.00  0.00     0.012 A 
ATOM     91  C   UNL A   1      44.261  26.199  34.986  1.00  0.00     0.148 A 
ATOM     92  C   UNL A   1      46.904  27.066  34.591  1.00  0.00     0.002 A 
ATOM     93  C   UNL A   1      45.315  25.544  35.612  1.00  0.00     0.091 A 
ATOM     94  F   UNL A   1      42.991  25.790  35.128  1.00  0.00    -0.205 F 
ATOM     95  C   UNL A   1      46.637  25.969  35.407  1.00  0.00     0.022 A 
BRANCH  93  96
ATOM     96  S   UNL A   1      45.056  24.183  36.756  1.00  0.00     0.127 S 
ATOM     97  O   UNL A   1      44.470  23.168  35.882  1.00  0.00    -0.237 OA
ATOM     98  O   UNL A   1      46.418  23.889  37.205  1.00  0.00    -0.237 OA
ATOM     99  O   UNL A   1      44.178  24.698  37.798  1.00  0.00    -0.744 OA
ENDBRANCH  93  96
ENDBRANCH  66  89
ENDBRANCH  40  41
ENDBRANCH  32  35
ENDBRANCH  30  31
ENDBRANCH   1  30
TORSDOF 16
ENDMDL
MODEL 3
REMARK VINA RESULT:     -12.7      6.009      9.489
REMARK SMILES Cc1nc(NC(=O)[C@H]2[C@@H]3CC[C@@H](C3)[C@@H]2C(=O)NCCCNC(=O)c2ccc(-c3c4nc(c(-c5cccc(S(=O)(=O)[O-])c5F)c5ccc([nH]5)c(-c5cccc(S(=O)(=O)[O-])c5F)c5nc(c(-c6cccc(S(=O)(=O)[O-])c6F)c6ccc3[nH]6)C=C5)C=C4)cc2)sc1-c1ccccc1
REMARK SMILES IDX 19 1 18 2 17 3 15 4 16 5 14 7 8 8 9 9 10 10 13 11 12 12
REMARK SMILES IDX 11 13 6 14 5 15 7 17 4 18 1 19 2 20 3 21 88 22 87 23 89 24
REMARK SMILES IDX 90 25 94 26 91 27 93 28 92 29 20 30 21 31 22 32 23 34 24 35
REMARK SMILES IDX 25 36 86 37 26 38 85 39 27 40 28 41 29 42 79 43 30 44 84 45
REMARK SMILES IDX 78 46 80 47 31 48 83 49 77 50 76 51 32 53 64 54 44 55 63 56
REMARK SMILES IDX 45 57 48 58 62 59 81 60 46 61 47 62 61 64 82 65 49 66 33 67
REMARK SMILES IDX 34 68 42 69 35 70 37 71 43 72 36 73 38 74 39 75 40 76 41 77
REMARK SMILES IDX 65 78 66 79 74 80 67 81 69 82 75 83 68 84 70 85 71 86 72 87
REMARK SMILES IDX 73 88 50 89 51 90 59 91 52 92 54 93 60 94 53 95 55 96 56 97
REMARK SMILES IDX 57 98 58 99
REMARK H PARENT 17 6 5 16 21 33 80 52 48 63
REMARK Flexibility Score: inf
ROOT
ATOM      1  C   UNL A   1      37.599  20.317  24.805  1.00  0.00     0.042 C 
ENDROOT
BRANCH   1   2
ATOM      2  C   UNL A   1      36.161  20.626  25.198  1.00  0.00     0.117 C 
BRANCH   2   3
ATOM      3  N   UNL A   1      35.860  22.043  25.283  1.00  0.00    -0.356 N 
ATOM      4  C   UNL A   1      34.924  22.845  24.707  1.00  0.00     0.224 C 
ATOM      5  O   UNL A   1      34.828  23.969  25.214  1.00  0.00    -0.275 OA
ATOM      6  H   UNL A   1      36.464  22.531  25.889  1.00  0.00     0.163 HD
BRANCH   4   7
ATOM      7  C   UNL A   1      34.058  22.415  23.504  1.00  0.00     0.094 C 
ATOM      8  C   UNL A   1      33.108  23.591  23.062  1.00  0.00     0.094 C 
ATOM      9  C   UNL A   1      31.705  22.941  23.320  1.00  0.00     0.002 C 
ATOM     10  C   UNL A   1      31.477  22.693  24.823  1.00  0.00     0.005 C 
ATOM     11  C   UNL A   1      31.941  21.529  22.791  1.00  0.00     0.009 C 
ATOM     12  C   UNL A   1      33.068  21.255  23.782  1.00  0.00     0.002 C 
ATOM     13  C   UNL A   1      32.341  21.465  25.114  1.00  0.00     0.005 C 
BRANCH   8  14
ATOM     14  C   UNL A   1      33.100  24.115  21.602  1.00  0.00     0.230 C 
ATOM     15  N   UNL A   1      32.698  25.333  21.179  1.00  0.00    -0.302 N 
ATOM     16  H   UNL A   1      32.870  25.533  20.231  1.00  0.00     0.172 HD
ATOM     17  O   UNL A   1      33.481  23.364  20.688  1.00  0.00    -0.274 OA
BRANCH  15  18
ATOM     18  C   UNL A   1      32.090  26.318  21.882  1.00  0.00     0.190 A 
ATOM     19  C   UNL A   1      29.219  28.137  22.925  1.00  0.00     0.068 C 
ATOM     20  C   UNL A   1      30.600  27.624  22.792  1.00  0.00     0.058 A 
ATOM     21  N   UNL A   1      30.885  26.786  21.735  1.00  0.00    -0.225 NA
ATOM     22  C   UNL A   1      31.620  27.776  23.716  1.00  0.00     0.059 A 
ATOM     23  S   UNL A   1      33.019  26.964  23.164  1.00  0.00    -0.096 S 
BRANCH  22  24
ATOM     24  C   UNL A   1      31.526  28.439  25.007  1.00  0.00    -0.006 A 
ATOM     25  C   UNL A   1      31.634  27.696  26.188  1.00  0.00     0.009 A 
ATOM     26  C   UNL A   1      31.593  29.839  25.062  1.00  0.00     0.009 A 
ATOM     27  C   UNL A   1      31.859  28.346  27.403  1.00  0.00     0.001 A 
ATOM     28  C   UNL A   1      31.815  30.484  26.278  1.00  0.00     0.001 A 
ATOM     29  C   UNL A   1      31.965  29.737  27.444  1.00  0.00     0.000 A 
ENDBRANCH  22  24
ENDBRANCH  15  18
ENDBRANCH   8  14
ENDBRANCH   4   7
ENDBRANCH   2   3
ENDBRANCH   1   2
BRANCH   1  30
ATOM     30  C   UNL A   1      38.656  20.913  25.733  1.00  0.00     0.118 C 
BRANCH  30  31
ATOM     31  N   UNL A   1      39.776  20.023  25.973  1.00  0.00    -0.352 N 
ATOM     32  C   UNL A   1      41.054  20.311  26.385  1.00  0.00     0.251 C 
ATOM     33  H   UNL A   1      39.593  19.068  25.817  1.00  0.00     0.163 HD
ATOM     34  O   UNL A   1      41.898  19.419  26.394  1.00  0.00    -0.269 OA
BRANCH  32  35
ATOM     35  C   UNL A   1      41.428  21.683  26.799  1.00  0.00     0.039 A 
ATOM     36  C   UNL A   1      41.708  22.623  25.803  1.00  0.00     0.014 A 
ATOM     37  C   UNL A   1      41.557  22.037  28.146  1.00  0.00     0.014 A 
ATOM     38  C   UNL A   1      42.079  23.923  26.154  1.00  0.00     0.010 A 
ATOM     39  C   UNL A   1      41.867  23.352  28.495  1.00  0.00     0.010 A 
ATOM     40  C   UNL A   1      42.147  24.305  27.504  1.00  0.00    -0.014 A 
BRANCH  40  41
ATOM     41  C   UNL A   1      42.530  25.689  27.886  1.00  0.00     0.031 A 
ATOM     42  C   UNL A   1      43.965  26.135  27.797  1.00  0.00     0.074 A 
ATOM     43  C   UNL A   1      41.595  26.534  28.364  1.00  0.00     0.049 A 
ATOM     44  N   UNL A   1      44.490  27.294  28.103  1.00  0.00    -0.248 NA
ATOM     45  C   UNL A   1      44.943  25.143  27.321  1.00  0.00     0.031 C 
ATOM     46  C   UNL A   1      40.183  26.206  28.564  1.00  0.00     0.029 A 
ATOM     47  N   UNL A   1      41.697  27.836  28.790  1.00  0.00    -0.354 N 
ATOM     48  C   UNL A   1      45.857  27.163  27.888  1.00  0.00     0.074 A 
ATOM     49  C   UNL A   1      46.086  25.802  27.456  1.00  0.00     0.031 C 
ATOM     50  C   UNL A   1      39.549  27.276  29.070  1.00  0.00     0.029 A 
ATOM     51  C   UNL A   1      40.511  28.360  29.251  1.00  0.00     0.049 A 
ATOM     52  H   UNL A   1      42.538  28.346  28.767  1.00  0.00     0.167 HD
ATOM     53  C   UNL A   1      46.829  28.097  28.008  1.00  0.00     0.034 A 
ATOM     54  C   UNL A   1      40.231  29.574  29.764  1.00  0.00     0.034 A 
ATOM     55  C   UNL A   1      46.596  29.465  28.391  1.00  0.00     0.049 A 
ATOM     56  C   UNL A   1      41.323  30.607  29.849  1.00  0.00     0.074 A 
ATOM     57  C   UNL A   1      47.505  30.505  28.460  1.00  0.00     0.029 A 
ATOM     58  N   UNL A   1      45.367  29.980  28.770  1.00  0.00    -0.354 N 
ATOM     59  N   UNL A   1      42.580  30.509  29.492  1.00  0.00    -0.248 NA
ATOM     60  C   UNL A   1      40.949  31.930  30.371  1.00  0.00     0.031 C 
ATOM     61  C   UNL A   1      46.828  31.649  28.900  1.00  0.00     0.029 A 
ATOM     62  C   UNL A   1      45.494  31.323  29.084  1.00  0.00     0.049 A 
ATOM     63  H   UNL A   1      44.528  29.467  28.812  1.00  0.00     0.167 HD
ATOM     64  C   UNL A   1      43.138  31.763  29.710  1.00  0.00     0.074 A 
ATOM     65  C   UNL A   1      42.077  32.611  30.212  1.00  0.00     0.031 C 
ATOM     66  C   UNL A   1      44.418  32.171  29.527  1.00  0.00     0.034 A 
BRANCH  53  67
ATOM     67  C   UNL A   1      48.239  27.688  27.663  1.00  0.00     0.023 A 
ATOM     68  C   UNL A   1      49.057  27.115  28.658  1.00  0.00     0.012 A 
ATOM     69  C   UNL A   1      48.733  27.813  26.350  1.00  0.00     0.148 A 
ATOM     70  C   UNL A   1      50.355  26.703  28.361  1.00  0.00     0.002 A 
ATOM     71  C   UNL A   1      50.014  27.361  26.052  1.00  0.00     0.091 A 
ATOM     72  F   UNL A   1      47.949  28.380  25.422  1.00  0.00    -0.205 F 
ATOM     73  C   UNL A   1      50.830  26.815  27.057  1.00  0.00     0.022 A 
BRANCH  71  74
ATOM     74  S   UNL A   1      50.687  27.392  24.386  1.00  0.00     0.127 S 
ATOM     75  O   UNL A   1      51.890  26.576  24.540  1.00  0.00    -0.237 OA
ATOM     76  O   UNL A   1      49.619  26.762  23.609  1.00  0.00    -0.237 OA
ATOM     77  O   UNL A   1      50.917  28.796  24.073  1.00  0.00    -0.744 OA
ENDBRANCH  71  74
ENDBRANCH  53  67
BRANCH  54  78
ATOM     78  C   UNL A   1      38.836  29.903  30.173  1.00  0.00     0.023 A 
ATOM     79  C   UNL A   1      38.410  29.611  31.484  1.00  0.00     0.012 A 
ATOM     80  C   UNL A   1      37.940  30.529  29.284  1.00  0.00     0.148 A 
ATOM     81  C   UNL A   1      37.111  29.908  31.893  1.00  0.00     0.002 A 
ATOM     82  C   UNL A   1      36.665  30.874  29.715  1.00  0.00     0.091 A 
ATOM     83  F   UNL A   1      38.358  30.784  28.036  1.00  0.00    -0.205 F 
ATOM     84  C   UNL A   1      36.242  30.549  31.013  1.00  0.00     0.022 A 
BRANCH  82  85
ATOM     85  S   UNL A   1      35.535  31.825  28.695  1.00  0.00     0.127 S 
ATOM     86  O   UNL A   1      34.448  32.102  29.629  1.00  0.00    -0.237 OA
ATOM     87  O   UNL A   1      36.351  32.984  28.333  1.00  0.00    -0.237 OA
ATOM     88  O   UNL A   1      35.203  30.957  27.570  1.00  0.00    -0.744 OA
ENDBRANCH  82  85
ENDBRANCH  54  78
BRANCH  66  89
ATOM     89  C   UNL A   1      44.746  33.609  29.836  1.00  0.00     0.023 A 
ATOM     90  C   UNL A   1      45.216  33.959  31.118  1.00  0.00     0.012 A 
ATOM     91  C   UNL A   1      44.664  34.598  28.836  1.00  0.00     0.148 A 
ATOM     92  C   UNL A   1      45.570  35.276  31.408  1.00  0.00     0.002 A 
ATOM     93  C   UNL A   1      45.062  35.899  29.118  1.00  0.00     0.091 A 
ATOM     94  F   UNL A   1      44.196  34.249  27.628  1.00  0.00    -0.205 F 
ATOM     95  C   UNL A   1      45.505  36.243  30.406  1.00  0.00     0.022 A 
BRANCH  93  96
ATOM     96  S   UNL A   1      45.103  37.185  27.864  1.00  0.00     0.127 S 
ATOM     97  O   UNL A   1      43.724  37.167  27.376  1.00  0.00    -0.237 OA
ATOM     98  O   UNL A   1      45.456  38.372  28.645  1.00  0.00    -0.237 OA
ATOM     99  O   UNL A   1      46.115  36.774  26.903  1.00  0.00    -0.744 OA
ENDBRANCH  93  96
ENDBRANCH  66  89
ENDBRANCH  40  41
ENDBRANCH  32  35
ENDBRANCH  30  31
ENDBRANCH   1  30
TORSDOF 16
ENDMDL
