MODEL 1
REMARK VINA RESULT:     -12.6      0.000      0.000
REMARK SMILES CC[N@@H+](C)Cc1cc2c(cc1Cl)C=C(C(=O)NCCCNC(=O)c1ccc(-c3c4nc(c(-c5cccc(S(=O)(=O)[O-])c5F)c5ccc([nH]5)c(-c5cccc(S(=O)(=O)[O-])c5F)c5nc(c(-c6cccc(S(=O)(=O)[O-])c6F)c6ccc3[nH]6)C=C5)C=C4)cc1)[C@@H](C(F)(F)F)O2
REMARK SMILES IDX 19 1 18 2 17 3 15 4 16 5 14 7 6 8 7 9 11 10 8 11 10 12 12 13
REMARK SMILES IDX 9 14 92 15 13 16 87 17 5 18 3 19 4 20 2 22 1 23 88 24 89 25
REMARK SMILES IDX 90 26 91 27 20 28 21 29 22 30 23 32 24 33 25 34 86 35 26 36
REMARK SMILES IDX 85 37 27 38 28 39 29 40 79 41 30 42 84 43 78 44 80 45 31 46
REMARK SMILES IDX 83 47 77 48 76 49 32 51 64 52 44 53 63 54 45 55 48 56 62 57
REMARK SMILES IDX 81 58 46 59 47 60 61 62 82 63 49 64 33 65 34 66 42 67 35 68
REMARK SMILES IDX 37 69 43 70 36 71 38 72 39 73 40 74 41 75 65 76 66 77 74 78
REMARK SMILES IDX 67 79 69 80 75 81 68 82 70 83 71 84 72 85 73 86 50 87 51 88
REMARK SMILES IDX 59 89 52 90 54 91 60 92 53 93 55 94 56 95 57 96 58 97
REMARK H PARENT 17 6 3 21 21 31 80 50 48 61
REMARK Flexibility Score: inf
ROOT
ATOM      1  C   UNL A   1      31.735  31.919  26.651  1.00  0.00     0.042 C 
ENDROOT
BRANCH   1   2
ATOM      2  C   UNL A   1      31.960  30.432  26.422  1.00  0.00     0.118 C 
BRANCH   2   3
ATOM      3  N   UNL A   1      31.613  30.021  25.070  1.00  0.00    -0.352 N 
ATOM      4  C   UNL A   1      31.463  28.855  24.399  1.00  0.00     0.251 C 
ATOM      5  O   UNL A   1      31.119  28.963  23.217  1.00  0.00    -0.270 OA
ATOM      6  H   UNL A   1      31.444  30.797  24.488  1.00  0.00     0.163 HD
BRANCH   4   7
ATOM      7  C   UNL A   1      31.670  27.501  24.982  1.00  0.00     0.067 C 
ATOM      8  C   UNL A   1      33.484  23.097  26.551  1.00  0.00     0.029 A 
ATOM      9  C   UNL A   1      32.306  23.816  26.798  1.00  0.00     0.058 A 
ATOM     10  C   UNL A   1      34.553  23.778  25.939  1.00  0.00     0.050 A 
ATOM     11  C   UNL A   1      32.150  25.106  26.312  1.00  0.00     0.128 A 
ATOM     12  C   UNL A   1      34.412  25.109  25.514  1.00  0.00     0.033 A 
ATOM     13  Cl  UNL A   1      36.084  23.026  25.655  1.00  0.00    -0.084 Cl
ATOM     14  C   UNL A   1      33.191  25.764  25.663  1.00  0.00     0.019 A 
ATOM     15  O   UNL A   1      30.914  25.673  26.460  1.00  0.00    -0.475 OA
ATOM     16  C   UNL A   1      32.950  27.107  25.144  1.00  0.00     0.025 C 
ATOM     17  C   UNL A   1      30.557  26.566  25.367  1.00  0.00     0.314 C 
BRANCH   8  18
ATOM     18  C   UNL A   1      33.508  21.619  26.898  1.00  0.00     0.300 C 
BRANCH  18  19
ATOM     19  N   UNL A   1      33.031  20.688  25.851  1.00  0.00    -0.334 N 
ATOM     20  C   UNL A   1      34.137  20.066  25.122  1.00  0.00     0.333 C 
ATOM     21  H   UNL A   1      32.530  19.982  26.390  1.00  0.00     0.348 HD
BRANCH  19  22
ATOM     22  C   UNL A   1      32.037  21.220  24.909  1.00  0.00     0.258 C 
ATOM     23  C   UNL A   1      32.321  20.888  23.447  1.00  0.00     0.071 C 
ENDBRANCH  19  22
ENDBRANCH  18  19
ENDBRANCH   8  18
BRANCH  17  24
ATOM     24  C   UNL A   1      30.018  25.756  24.166  1.00  0.00     0.429 C 
ATOM     25  F   UNL A   1      30.087  24.425  24.420  1.00  0.00    -0.167 F 
ATOM     26  F   UNL A   1      28.719  26.031  23.898  1.00  0.00    -0.167 F 
ATOM     27  F   UNL A   1      30.701  25.982  23.021  1.00  0.00    -0.167 F 
ENDBRANCH  17  24
ENDBRANCH   4   7
ENDBRANCH   2   3
ENDBRANCH   1   2
BRANCH   1  28
ATOM     28  C   UNL A   1      32.836  32.555  27.490  1.00  0.00     0.118 C 
BRANCH  28  29
ATOM     29  N   UNL A   1      32.580  33.969  27.756  1.00  0.00    -0.352 N 
ATOM     30  C   UNL A   1      33.129  34.809  28.696  1.00  0.00     0.251 C 
ATOM     31  H   UNL A   1      31.907  34.386  27.170  1.00  0.00     0.163 HD
ATOM     32  O   UNL A   1      32.623  35.910  28.891  1.00  0.00    -0.269 OA
BRANCH  30  33
ATOM     33  C   UNL A   1      34.304  34.374  29.478  1.00  0.00     0.039 A 
ATOM     34  C   UNL A   1      35.592  34.646  29.018  1.00  0.00     0.014 A 
ATOM     35  C   UNL A   1      34.120  33.674  30.674  1.00  0.00     0.014 A 
ATOM     36  C   UNL A   1      36.681  34.049  29.638  1.00  0.00     0.010 A 
ATOM     37  C   UNL A   1      35.229  33.165  31.357  1.00  0.00     0.010 A 
ATOM     38  C   UNL A   1      36.516  33.301  30.814  1.00  0.00    -0.014 A 
BRANCH  38  39
ATOM     39  C   UNL A   1      37.710  32.674  31.440  1.00  0.00     0.031 A 
ATOM     40  C   UNL A   1      38.152  33.064  32.826  1.00  0.00     0.074 A 
ATOM     41  C   UNL A   1      38.349  31.687  30.778  1.00  0.00     0.049 A 
ATOM     42  N   UNL A   1      39.139  32.580  33.535  1.00  0.00    -0.248 NA
ATOM     43  C   UNL A   1      37.400  34.131  33.510  1.00  0.00     0.031 C 
ATOM     44  C   UNL A   1      38.018  31.226  29.426  1.00  0.00     0.029 A 
ATOM     45  N   UNL A   1      39.382  30.869  31.159  1.00  0.00    -0.354 N 
ATOM     46  C   UNL A   1      39.156  33.308  34.719  1.00  0.00     0.074 A 
ATOM     47  C   UNL A   1      38.080  34.269  34.642  1.00  0.00     0.031 C 
ATOM     48  C   UNL A   1      38.777  30.164  29.122  1.00  0.00     0.029 A 
ATOM     49  C   UNL A   1      39.694  29.907  30.226  1.00  0.00     0.049 A 
ATOM     50  H   UNL A   1      39.856  30.962  32.017  1.00  0.00     0.167 HD
ATOM     51  C   UNL A   1      39.980  33.170  35.784  1.00  0.00     0.034 A 
ATOM     52  C   UNL A   1      40.616  28.926  30.251  1.00  0.00     0.034 A 
ATOM     53  C   UNL A   1      41.001  32.166  35.891  1.00  0.00     0.049 A 
ATOM     54  C   UNL A   1      41.504  28.792  31.454  1.00  0.00     0.074 A 
ATOM     55  C   UNL A   1      41.861  31.931  36.951  1.00  0.00     0.029 A 
ATOM     56  N   UNL A   1      41.289  31.222  34.920  1.00  0.00    -0.354 N 
ATOM     57  N   UNL A   1      41.465  29.460  32.580  1.00  0.00    -0.248 NA
ATOM     58  C   UNL A   1      42.560  27.772  31.392  1.00  0.00     0.031 C 
ATOM     59  C   UNL A   1      42.669  30.840  36.621  1.00  0.00     0.029 A 
ATOM     60  C   UNL A   1      42.311  30.398  35.357  1.00  0.00     0.049 A 
ATOM     61  H   UNL A   1      40.836  31.148  34.049  1.00  0.00     0.167 HD
ATOM     62  C   UNL A   1      42.483  28.937  33.365  1.00  0.00     0.074 A 
ATOM     63  C   UNL A   1      43.107  27.879  32.596  1.00  0.00     0.031 C 
ATOM     64  C   UNL A   1      42.882  29.317  34.601  1.00  0.00     0.034 A 
BRANCH  51  65
ATOM     65  C   UNL A   1      39.790  34.083  36.964  1.00  0.00     0.023 A 
ATOM     66  C   UNL A   1      40.094  35.450  36.825  1.00  0.00     0.012 A 
ATOM     67  C   UNL A   1      39.176  33.619  38.144  1.00  0.00     0.148 A 
ATOM     68  C   UNL A   1      39.788  36.348  37.847  1.00  0.00     0.002 A 
ATOM     69  C   UNL A   1      38.850  34.525  39.147  1.00  0.00     0.091 A 
ATOM     70  F   UNL A   1      38.900  32.312  38.247  1.00  0.00    -0.205 F 
ATOM     71  C   UNL A   1      39.156  35.888  39.000  1.00  0.00     0.022 A 
BRANCH  69  72
ATOM     72  S   UNL A   1      37.987  34.050  40.649  1.00  0.00     0.127 S 
ATOM     73  O   UNL A   1      36.818  33.354  40.110  1.00  0.00    -0.237 OA
ATOM     74  O   UNL A   1      38.967  33.183  41.301  1.00  0.00    -0.237 OA
ATOM     75  O   UNL A   1      37.690  35.290  41.353  1.00  0.00    -0.744 OA
ENDBRANCH  69  72
ENDBRANCH  51  65
BRANCH  52  76
ATOM     76  C   UNL A   1      40.707  27.967  29.118  1.00  0.00     0.023 A 
ATOM     77  C   UNL A   1      39.840  26.858  29.086  1.00  0.00     0.012 A 
ATOM     78  C   UNL A   1      41.603  28.173  28.053  1.00  0.00     0.148 A 
ATOM     79  C   UNL A   1      39.871  25.964  28.015  1.00  0.00     0.002 A 
ATOM     80  C   UNL A   1      41.597  27.305  26.967  1.00  0.00     0.091 A 
ATOM     81  F   UNL A   1      42.432  29.225  28.115  1.00  0.00    -0.205 F 
ATOM     82  C   UNL A   1      40.739  26.194  26.952  1.00  0.00     0.022 A 
BRANCH  80  83
ATOM     83  S   UNL A   1      42.598  27.594  25.504  1.00  0.00     0.127 S 
ATOM     84  O   UNL A   1      42.058  28.859  25.018  1.00  0.00    -0.237 OA
ATOM     85  O   UNL A   1      43.946  27.673  26.069  1.00  0.00    -0.237 OA
ATOM     86  O   UNL A   1      42.378  26.437  24.646  1.00  0.00    -0.744 OA
ENDBRANCH  80  83
ENDBRANCH  52  76
BRANCH  64  87
ATOM     87  C   UNL A   1      44.040  28.592  35.221  1.00  0.00     0.023 A 
ATOM     88  C   UNL A   1      45.347  29.042  34.958  1.00  0.00     0.012 A 
ATOM     89  C   UNL A   1      43.828  27.563  36.158  1.00  0.00     0.148 A 
ATOM     90  C   UNL A   1      46.433  28.473  35.620  1.00  0.00     0.002 A 
ATOM     91  C   UNL A   1      44.912  27.023  36.837  1.00  0.00     0.091 A 
ATOM     92  F   UNL A   1      42.571  27.152  36.380  1.00  0.00    -0.205 F 
ATOM     93  C   UNL A   1      46.215  27.474  36.567  1.00  0.00     0.022 A 
BRANCH  91  94
ATOM     94  S   UNL A   1      44.729  25.787  38.127  1.00  0.00     0.127 S 
ATOM     95  O   UNL A   1      43.819  26.458  39.054  1.00  0.00    -0.237 OA
ATOM     96  O   UNL A   1      44.139  24.665  37.396  1.00  0.00    -0.237 OA
ATOM     97  O   UNL A   1      46.068  25.540  38.644  1.00  0.00    -0.744 OA
ENDBRANCH  91  94
ENDBRANCH  64  87
ENDBRANCH  38  39
ENDBRANCH  30  33
ENDBRANCH  28  29
ENDBRANCH   1  28
TORSDOF 17
ENDMDL
MODEL 2
REMARK VINA RESULT:     -12.5      2.520      3.339
REMARK SMILES CC[N@@H+](C)Cc1cc2c(cc1Cl)C=C(C(=O)NCCCNC(=O)c1ccc(-c3c4nc(c(-c5cccc(S(=O)(=O)[O-])c5F)c5ccc([nH]5)c(-c5cccc(S(=O)(=O)[O-])c5F)c5nc(c(-c6cccc(S(=O)(=O)[O-])c6F)c6ccc3[nH]6)C=C5)C=C4)cc1)[C@@H](C(F)(F)F)O2
REMARK SMILES IDX 19 1 18 2 17 3 15 4 16 5 14 7 6 8 7 9 11 10 8 11 10 12 12 13
REMARK SMILES IDX 9 14 92 15 13 16 87 17 5 18 3 19 4 20 2 22 1 23 88 24 89 25
REMARK SMILES IDX 90 26 91 27 20 28 21 29 22 30 23 32 24 33 25 34 86 35 26 36
REMARK SMILES IDX 85 37 27 38 28 39 29 40 79 41 30 42 84 43 78 44 80 45 31 46
REMARK SMILES IDX 83 47 77 48 76 49 32 51 64 52 44 53 63 54 45 55 48 56 62 57
REMARK SMILES IDX 81 58 46 59 47 60 61 62 82 63 49 64 33 65 34 66 42 67 35 68
REMARK SMILES IDX 37 69 43 70 36 71 38 72 39 73 40 74 41 75 65 76 66 77 74 78
REMARK SMILES IDX 67 79 69 80 75 81 68 82 70 83 71 84 72 85 73 86 50 87 51 88
REMARK SMILES IDX 59 89 52 90 54 91 60 92 53 93 55 94 56 95 57 96 58 97
REMARK H PARENT 17 6 3 21 21 31 80 50 48 61
REMARK Flexibility Score: inf
ROOT
ATOM      1  C   UNL A   1      32.476  29.813  25.250  1.00  0.00     0.042 C 
ENDROOT
BRANCH   1   2
ATOM      2  C   UNL A   1      31.006  30.160  25.073  1.00  0.00     0.118 C 
BRANCH   2   3
ATOM      3  N   UNL A   1      30.585  30.093  23.681  1.00  0.00    -0.352 N 
ATOM      4  C   UNL A   1      30.457  29.137  22.733  1.00  0.00     0.251 C 
ATOM      5  O   UNL A   1      30.021  29.524  21.644  1.00  0.00    -0.270 OA
ATOM      6  H   UNL A   1      30.325  30.979  23.340  1.00  0.00     0.163 HD
BRANCH   4   7
ATOM      7  C   UNL A   1      30.792  27.698  22.919  1.00  0.00     0.067 C 
ATOM      8  C   UNL A   1      31.397  23.014  24.607  1.00  0.00     0.029 A 
ATOM      9  C   UNL A   1      31.529  23.630  23.353  1.00  0.00     0.058 A 
ATOM     10  C   UNL A   1      30.722  23.723  25.618  1.00  0.00     0.050 A 
ATOM     11  C   UNL A   1      31.148  24.951  23.171  1.00  0.00     0.128 A 
ATOM     12  C   UNL A   1      30.273  25.036  25.403  1.00  0.00     0.033 A 
ATOM     13  Cl  UNL A   1      30.424  23.042  27.179  1.00  0.00    -0.084 Cl
ATOM     14  C   UNL A   1      30.523  25.669  24.187  1.00  0.00     0.019 A 
ATOM     15  O   UNL A   1      31.458  25.519  21.966  1.00  0.00    -0.475 OA
ATOM     16  C   UNL A   1      30.179  27.067  23.942  1.00  0.00     0.025 C 
ATOM     17  C   UNL A   1      31.768  26.938  22.062  1.00  0.00     0.314 C 
BRANCH   8  18
ATOM     18  C   UNL A   1      32.045  21.656  24.810  1.00  0.00     0.300 C 
BRANCH  18  19
ATOM     19  N   UNL A   1      33.513  21.647  24.996  1.00  0.00    -0.334 N 
ATOM     20  C   UNL A   1      33.993  20.368  25.523  1.00  0.00     0.333 C 
ATOM     21  H   UNL A   1      33.859  21.782  24.046  1.00  0.00     0.348 HD
BRANCH  19  22
ATOM     22  C   UNL A   1      34.080  22.760  25.767  1.00  0.00     0.258 C 
ATOM     23  C   UNL A   1      34.175  22.497  27.267  1.00  0.00     0.071 C 
ENDBRANCH  19  22
ENDBRANCH  18  19
ENDBRANCH   8  18
BRANCH  17  24
ATOM     24  C   UNL A   1      33.234  27.138  22.511  1.00  0.00     0.429 C 
ATOM     25  F   UNL A   1      33.322  27.137  23.864  1.00  0.00    -0.167 F 
ATOM     26  F   UNL A   1      34.049  26.151  22.069  1.00  0.00    -0.167 F 
ATOM     27  F   UNL A   1      33.771  28.301  22.074  1.00  0.00    -0.167 F 
ENDBRANCH  17  24
ENDBRANCH   4   7
ENDBRANCH   2   3
ENDBRANCH   1   2
BRANCH   1  28
ATOM     28  C   UNL A   1      32.982  30.113  26.656  1.00  0.00     0.118 C 
BRANCH  28  29
ATOM     29  N   UNL A   1      32.899  31.536  26.980  1.00  0.00    -0.352 N 
ATOM     30  C   UNL A   1      33.741  32.327  27.725  1.00  0.00     0.251 C 
ATOM     31  H   UNL A   1      32.116  32.001  26.607  1.00  0.00     0.163 HD
ATOM     32  O   UNL A   1      33.379  33.454  28.052  1.00  0.00    -0.269 OA
BRANCH  30  33
ATOM     33  C   UNL A   1      35.060  31.811  28.145  1.00  0.00     0.039 A 
ATOM     34  C   UNL A   1      35.204  30.476  28.517  1.00  0.00     0.014 A 
ATOM     35  C   UNL A   1      36.161  32.672  28.182  1.00  0.00     0.014 A 
ATOM     36  C   UNL A   1      36.383  30.054  29.115  1.00  0.00     0.010 A 
ATOM     37  C   UNL A   1      37.383  32.213  28.685  1.00  0.00     0.010 A 
ATOM     38  C   UNL A   1      37.488  30.915  29.208  1.00  0.00    -0.014 A 
BRANCH  38  39
ATOM     39  C   UNL A   1      38.729  30.424  29.863  1.00  0.00     0.031 A 
ATOM     40  C   UNL A   1      39.072  30.826  31.274  1.00  0.00     0.074 A 
ATOM     41  C   UNL A   1      39.509  29.544  29.201  1.00  0.00     0.049 A 
ATOM     42  N   UNL A   1      40.087  30.447  32.007  1.00  0.00    -0.248 NA
ATOM     43  C   UNL A   1      38.169  31.770  31.955  1.00  0.00     0.031 C 
ATOM     44  C   UNL A   1      39.284  29.085  27.827  1.00  0.00     0.029 A 
ATOM     45  N   UNL A   1      40.623  28.851  29.601  1.00  0.00    -0.354 N 
ATOM     46  C   UNL A   1      39.972  31.138  33.209  1.00  0.00     0.074 A 
ATOM     47  C   UNL A   1      38.787  31.959  33.115  1.00  0.00     0.031 C 
ATOM     48  C   UNL A   1      40.181  28.135  27.526  1.00  0.00     0.029 A 
ATOM     49  C   UNL A   1      41.085  27.963  28.656  1.00  0.00     0.049 A 
ATOM     50  H   UNL A   1      41.052  28.977  30.478  1.00  0.00     0.167 HD
ATOM     51  C   UNL A   1      40.770  31.072  34.300  1.00  0.00     0.034 A 
ATOM     52  C   UNL A   1      42.121  27.104  28.692  1.00  0.00     0.034 A 
ATOM     53  C   UNL A   1      41.905  30.200  34.420  1.00  0.00     0.049 A 
ATOM     54  C   UNL A   1      42.977  27.045  29.923  1.00  0.00     0.074 A 
ATOM     55  C   UNL A   1      42.750  30.043  35.505  1.00  0.00     0.029 A 
ATOM     56  N   UNL A   1      42.342  29.328  33.438  1.00  0.00    -0.354 N 
ATOM     57  N   UNL A   1      42.817  27.671  31.063  1.00  0.00    -0.248 NA
ATOM     58  C   UNL A   1      44.154  26.167  29.876  1.00  0.00     0.031 C 
ATOM     59  C   UNL A   1      43.699  29.072  35.180  1.00  0.00     0.029 A 
ATOM     60  C   UNL A   1      43.443  28.625  33.893  1.00  0.00     0.049 A 
ATOM     61  H   UNL A   1      41.931  29.223  32.549  1.00  0.00     0.167 HD
ATOM     62  C   UNL A   1      43.865  27.256  31.873  1.00  0.00     0.074 A 
ATOM     63  C   UNL A   1      44.642  26.306  31.102  1.00  0.00     0.031 C 
ATOM     64  C   UNL A   1      44.170  27.646  33.132  1.00  0.00     0.034 A 
BRANCH  51  65
ATOM     65  C   UNL A   1      40.426  31.919  35.494  1.00  0.00     0.023 A 
ATOM     66  C   UNL A   1      41.132  33.119  35.705  1.00  0.00     0.012 A 
ATOM     67  C   UNL A   1      39.320  31.606  36.308  1.00  0.00     0.148 A 
ATOM     68  C   UNL A   1      40.739  34.000  36.712  1.00  0.00     0.002 A 
ATOM     69  C   UNL A   1      38.919  32.501  37.292  1.00  0.00     0.091 A 
ATOM     70  F   UNL A   1      38.670  30.456  36.084  1.00  0.00    -0.205 F 
ATOM     71  C   UNL A   1      39.628  33.697  37.495  1.00  0.00     0.022 A 
BRANCH  69  72
ATOM     72  S   UNL A   1      37.472  32.238  38.322  1.00  0.00     0.127 S 
ATOM     73  O   UNL A   1      37.321  30.784  38.253  1.00  0.00    -0.237 OA
ATOM     74  O   UNL A   1      37.925  32.743  39.618  1.00  0.00    -0.237 OA
ATOM     75  O   UNL A   1      36.392  32.995  37.705  1.00  0.00    -0.744 OA
ENDBRANCH  69  72
ENDBRANCH  51  65
BRANCH  52  76
ATOM     76  C   UNL A   1      42.370  26.196  27.540  1.00  0.00     0.023 A 
ATOM     77  C   UNL A   1      43.149  26.654  26.461  1.00  0.00     0.012 A 
ATOM     78  C   UNL A   1      41.889  24.873  27.531  1.00  0.00     0.148 A 
ATOM     79  C   UNL A   1      43.437  25.812  25.386  1.00  0.00     0.002 A 
ATOM     80  C   UNL A   1      42.218  24.026  26.480  1.00  0.00     0.091 A 
ATOM     81  F   UNL A   1      41.134  24.466  28.561  1.00  0.00    -0.205 F 
ATOM     82  C   UNL A   1      42.982  24.497  25.401  1.00  0.00     0.022 A 
BRANCH  80  83
ATOM     83  S   UNL A   1      41.773  22.285  26.477  1.00  0.00     0.127 S 
ATOM     84  O   UNL A   1      40.325  22.348  26.309  1.00  0.00    -0.237 OA
ATOM     85  O   UNL A   1      42.510  21.786  25.315  1.00  0.00    -0.237 OA
ATOM     86  O   UNL A   1      42.243  21.761  27.753  1.00  0.00    -0.744 OA
ENDBRANCH  80  83
ENDBRANCH  52  76
BRANCH  64  87
ATOM     87  C   UNL A   1      45.388  27.053  33.777  1.00  0.00     0.023 A 
ATOM     88  C   UNL A   1      46.608  27.752  33.704  1.00  0.00     0.012 A 
ATOM     89  C   UNL A   1      45.294  25.886  34.558  1.00  0.00     0.148 A 
ATOM     90  C   UNL A   1      47.724  27.293  34.402  1.00  0.00     0.002 A 
ATOM     91  C   UNL A   1      46.402  25.453  35.276  1.00  0.00     0.091 A 
ATOM     92  F   UNL A   1      44.120  25.240  34.601  1.00  0.00    -0.205 F 
ATOM     93  C   UNL A   1      47.618  26.153  35.196  1.00  0.00     0.022 A 
BRANCH  91  94
ATOM     94  S   UNL A   1      46.345  24.041  36.384  1.00  0.00     0.127 S 
ATOM     95  O   UNL A   1      46.087  22.943  35.453  1.00  0.00    -0.237 OA
ATOM     96  O   UNL A   1      47.689  24.050  36.962  1.00  0.00    -0.237 OA
ATOM     97  O   UNL A   1      45.272  24.313  37.332  1.00  0.00    -0.744 OA
ENDBRANCH  91  94
ENDBRANCH  64  87
ENDBRANCH  38  39
ENDBRANCH  30  33
ENDBRANCH  28  29
ENDBRANCH   1  28
TORSDOF 17
ENDMDL
MODEL 3
REMARK VINA RESULT:     -12.4      0.370      7.651
REMARK SMILES CC[N@@H+](C)Cc1cc2c(cc1Cl)C=C(C(=O)NCCCNC(=O)c1ccc(-c3c4nc(c(-c5cccc(S(=O)(=O)[O-])c5F)c5ccc([nH]5)c(-c5cccc(S(=O)(=O)[O-])c5F)c5nc(c(-c6cccc(S(=O)(=O)[O-])c6F)c6ccc3[nH]6)C=C5)C=C4)cc1)[C@@H](C(F)(F)F)O2
REMARK SMILES IDX 19 1 18 2 17 3 15 4 16 5 14 7 6 8 7 9 11 10 8 11 10 12 12 13
REMARK SMILES IDX 9 14 92 15 13 16 87 17 5 18 3 19 4 20 2 22 1 23 88 24 89 25
REMARK SMILES IDX 90 26 91 27 20 28 21 29 22 30 23 32 24 33 25 34 86 35 26 36
REMARK SMILES IDX 85 37 27 38 28 39 29 40 79 41 30 42 84 43 78 44 80 45 31 46
REMARK SMILES IDX 83 47 77 48 76 49 32 51 64 52 44 53 63 54 45 55 48 56 62 57
REMARK SMILES IDX 81 58 46 59 47 60 61 62 82 63 49 64 33 65 34 66 42 67 35 68
REMARK SMILES IDX 37 69 43 70 36 71 38 72 39 73 40 74 41 75 65 76 66 77 74 78
REMARK SMILES IDX 67 79 69 80 75 81 68 82 70 83 71 84 72 85 73 86 50 87 51 88
REMARK SMILES IDX 59 89 52 90 54 91 60 92 53 93 55 94 56 95 57 96 58 97
REMARK H PARENT 17 6 3 21 21 31 80 50 48 61
REMARK Flexibility Score: inf
ROOT
ATOM      1  C   UNL A   1      31.655  31.839  26.714  1.00  0.00     0.042 C 
ENDROOT
BRANCH   1   2
ATOM      2  C   UNL A   1      31.845  30.342  26.521  1.00  0.00     0.118 C 
BRANCH   2   3
ATOM      3  N   UNL A   1      31.835  29.958  25.117  1.00  0.00    -0.352 N 
ATOM      4  C   UNL A   1      31.900  28.809  24.406  1.00  0.00     0.251 C 
ATOM      5  O   UNL A   1      31.829  28.939  23.179  1.00  0.00    -0.270 OA
ATOM      6  H   UNL A   1      31.763  30.744  24.528  1.00  0.00     0.163 HD
BRANCH   4   7
ATOM      7  C   UNL A   1      32.039  27.447  24.993  1.00  0.00     0.067 C 
ATOM      8  C   UNL A   1      33.615  22.947  26.545  1.00  0.00     0.029 A 
ATOM      9  C   UNL A   1      32.491  23.741  26.819  1.00  0.00     0.058 A 
ATOM     10  C   UNL A   1      34.708  23.557  25.900  1.00  0.00     0.050 A 
ATOM     11  C   UNL A   1      32.404  25.034  26.327  1.00  0.00     0.128 A 
ATOM     12  C   UNL A   1      34.639  24.892  25.470  1.00  0.00     0.033 A 
ATOM     13  Cl  UNL A   1      36.181  22.708  25.581  1.00  0.00    -0.084 Cl
ATOM     14  C   UNL A   1      33.466  25.623  25.646  1.00  0.00     0.019 A 
ATOM     15  O   UNL A   1      31.210  25.679  26.504  1.00  0.00    -0.475 OA
ATOM     16  C   UNL A   1      33.296  26.975  25.123  1.00  0.00     0.025 C 
ATOM     17  C   UNL A   1      30.880  26.587  25.414  1.00  0.00     0.314 C 
BRANCH   8  18
ATOM     18  C   UNL A   1      33.556  21.473  26.902  1.00  0.00     0.300 C 
BRANCH  18  19
ATOM     19  N   UNL A   1      33.018  20.564  25.864  1.00  0.00    -0.334 N 
ATOM     20  C   UNL A   1      34.078  19.980  25.041  1.00  0.00     0.333 C 
ATOM     21  H   UNL A   1      32.567  19.835  26.417  1.00  0.00     0.348 HD
BRANCH  19  22
ATOM     22  C   UNL A   1      31.953  21.107  25.012  1.00  0.00     0.258 C 
ATOM     23  C   UNL A   1      32.387  21.402  23.579  1.00  0.00     0.071 C 
ENDBRANCH  19  22
ENDBRANCH  18  19
ENDBRANCH   8  18
BRANCH  17  24
ATOM     24  C   UNL A   1      30.259  25.805  24.234  1.00  0.00     0.429 C 
ATOM     25  F   UNL A   1      29.056  26.331  23.895  1.00  0.00    -0.167 F 
ATOM     26  F   UNL A   1      31.029  25.852  23.121  1.00  0.00    -0.167 F 
ATOM     27  F   UNL A   1      30.062  24.495  24.507  1.00  0.00    -0.167 F 
ENDBRANCH  17  24
ENDBRANCH   4   7
ENDBRANCH   2   3
ENDBRANCH   1   2
BRANCH   1  28
ATOM     28  C   UNL A   1      32.888  32.513  27.301  1.00  0.00     0.118 C 
BRANCH  28  29
ATOM     29  N   UNL A   1      32.658  33.927  27.592  1.00  0.00    -0.352 N 
ATOM     30  C   UNL A   1      33.145  34.715  28.607  1.00  0.00     0.251 C 
ATOM     31  H   UNL A   1      32.058  34.387  26.961  1.00  0.00     0.163 HD
ATOM     32  O   UNL A   1      32.662  35.829  28.792  1.00  0.00    -0.269 OA
BRANCH  30  33
ATOM     33  C   UNL A   1      34.226  34.212  29.479  1.00  0.00     0.039 A 
ATOM     34  C   UNL A   1      35.558  34.495  29.180  1.00  0.00     0.014 A 
ATOM     35  C   UNL A   1      33.909  33.435  30.597  1.00  0.00     0.014 A 
ATOM     36  C   UNL A   1      36.570  33.842  29.870  1.00  0.00     0.010 A 
ATOM     37  C   UNL A   1      34.934  32.865  31.359  1.00  0.00     0.010 A 
ATOM     38  C   UNL A   1      36.273  33.019  30.967  1.00  0.00    -0.014 A 
BRANCH  38  39
ATOM     39  C   UNL A   1      37.388  32.334  31.673  1.00  0.00     0.031 A 
ATOM     40  C   UNL A   1      38.176  31.241  30.999  1.00  0.00     0.074 A 
ATOM     41  C   UNL A   1      37.738  32.760  32.904  1.00  0.00     0.049 A 
ATOM     42  N   UNL A   1      39.208  30.578  31.454  1.00  0.00    -0.248 NA
ATOM     43  C   UNL A   1      37.762  30.835  29.644  1.00  0.00     0.031 C 
ATOM     44  C   UNL A   1      37.045  33.805  33.664  1.00  0.00     0.029 A 
ATOM     45  N   UNL A   1      38.780  32.398  33.720  1.00  0.00    -0.354 N 
ATOM     46  C   UNL A   1      39.534  29.651  30.470  1.00  0.00     0.074 A 
ATOM     47  C   UNL A   1      38.596  29.834  29.386  1.00  0.00     0.031 C 
ATOM     48  C   UNL A   1      37.722  34.053  34.794  1.00  0.00     0.029 A 
ATOM     49  C   UNL A   1      38.857  33.142  34.875  1.00  0.00     0.049 A 
ATOM     50  H   UNL A   1      39.412  31.676  33.500  1.00  0.00     0.167 HD
ATOM     51  C   UNL A   1      40.542  28.748  30.462  1.00  0.00     0.034 A 
ATOM     52  C   UNL A   1      39.741  33.097  35.890  1.00  0.00     0.034 A 
ATOM     53  C   UNL A   1      41.518  28.617  31.507  1.00  0.00     0.049 A 
ATOM     54  C   UNL A   1      40.855  32.093  35.843  1.00  0.00     0.074 A 
ATOM     55  C   UNL A   1      42.596  27.749  31.565  1.00  0.00     0.029 A 
ATOM     56  N   UNL A   1      41.552  29.381  32.661  1.00  0.00    -0.354 N 
ATOM     57  N   UNL A   1      41.171  31.264  34.879  1.00  0.00    -0.248 NA
ATOM     58  C   UNL A   1      41.732  32.015  37.019  1.00  0.00     0.031 C 
ATOM     59  C   UNL A   1      43.285  27.992  32.756  1.00  0.00     0.029 A 
ATOM     60  C   UNL A   1      42.635  29.009  33.437  1.00  0.00     0.049 A 
ATOM     61  H   UNL A   1      40.903  30.083  32.895  1.00  0.00     0.167 HD
ATOM     62  C   UNL A   1      42.288  30.574  35.325  1.00  0.00     0.074 A 
ATOM     63  C   UNL A   1      42.610  31.097  36.638  1.00  0.00     0.031 C 
ATOM     64  C   UNL A   1      42.971  29.577  34.714  1.00  0.00     0.034 A 
BRANCH  51  65
ATOM     65  C   UNL A   1      40.696  27.853  29.264  1.00  0.00     0.023 A 
ATOM     66  C   UNL A   1      39.859  26.728  29.140  1.00  0.00     0.012 A 
ATOM     67  C   UNL A   1      41.553  28.207  28.203  1.00  0.00     0.148 A 
ATOM     68  C   UNL A   1      39.871  25.965  27.972  1.00  0.00     0.002 A 
ATOM     69  C   UNL A   1      41.540  27.457  27.033  1.00  0.00     0.091 A 
ATOM     70  F   UNL A   1      42.339  29.282  28.352  1.00  0.00    -0.205 F 
ATOM     71  C   UNL A   1      40.701  26.336  26.918  1.00  0.00     0.022 A 
BRANCH  69  72
ATOM     72  S   UNL A   1      42.529  27.876  25.593  1.00  0.00     0.127 S 
ATOM     73  O   UNL A   1      43.863  28.007  26.180  1.00  0.00    -0.237 OA
ATOM     74  O   UNL A   1      42.347  26.697  24.747  1.00  0.00    -0.237 OA
ATOM     75  O   UNL A   1      41.969  29.111  25.064  1.00  0.00    -0.744 OA
ENDBRANCH  69  72
ENDBRANCH  51  65
BRANCH  52  76
ATOM     76  C   UNL A   1      39.631  34.070  37.010  1.00  0.00     0.023 A 
ATOM     77  C   UNL A   1      40.003  35.411  36.794  1.00  0.00     0.012 A 
ATOM     78  C   UNL A   1      39.113  33.692  38.263  1.00  0.00     0.148 A 
ATOM     79  C   UNL A   1      39.870  36.356  37.811  1.00  0.00     0.002 A 
ATOM     80  C   UNL A   1      38.940  34.647  39.256  1.00  0.00     0.091 A 
ATOM     81  F   UNL A   1      38.783  32.406  38.451  1.00  0.00    -0.205 F 
ATOM     82  C   UNL A   1      39.328  35.978  39.036  1.00  0.00     0.022 A 
BRANCH  80  83
ATOM     83  S   UNL A   1      38.140  34.270  40.820  1.00  0.00     0.127 S 
ATOM     84  O   UNL A   1      36.937  33.572  40.379  1.00  0.00    -0.237 OA
ATOM     85  O   UNL A   1      39.140  33.425  41.476  1.00  0.00    -0.237 OA
ATOM     86  O   UNL A   1      37.927  35.557  41.470  1.00  0.00    -0.744 OA
ENDBRANCH  80  83
ENDBRANCH  52  76
BRANCH  64  87
ATOM     87  C   UNL A   1      44.140  28.979  35.437  1.00  0.00     0.023 A 
ATOM     88  C   UNL A   1      45.407  29.577  35.301  1.00  0.00     0.012 A 
ATOM     89  C   UNL A   1      43.960  27.918  36.346  1.00  0.00     0.148 A 
ATOM     90  C   UNL A   1      46.484  29.125  36.061  1.00  0.00     0.002 A 
ATOM     91  C   UNL A   1      45.031  27.494  37.122  1.00  0.00     0.091 A 
ATOM     92  F   UNL A   1      42.743  27.365  36.446  1.00  0.00    -0.205 F 
ATOM     93  C   UNL A   1      46.294  28.093  36.978  1.00  0.00     0.022 A 
BRANCH  91  94
ATOM     94  S   UNL A   1      44.869  26.225  38.383  1.00  0.00     0.127 S 
ATOM     95  O   UNL A   1      46.005  26.527  39.254  1.00  0.00    -0.237 OA
ATOM     96  O   UNL A   1      43.559  26.529  38.959  1.00  0.00    -0.237 OA
ATOM     97  O   UNL A   1      44.947  24.949  37.685  1.00  0.00    -0.744 OA
ENDBRANCH  91  94
ENDBRANCH  64  87
ENDBRANCH  38  39
ENDBRANCH  30  33
ENDBRANCH  28  29
ENDBRANCH   1  28
TORSDOF 17
ENDMDL
