MODEL 1
REMARK VINA RESULT:     -11.7      0.000      0.000
REMARK SMILES CCOc1cc(OCC)cc(-c2ccc([C@@H](C)C(=O)NCCCNC(=O)c3ccc(-c4c5nc(c(-c6cccc(S(=O)(=O)[O-])c6F)c6ccc([nH]6)c(-c6cccc(S(=O)(=O)[O-])c6F)c6nc(c(-c7cccc(S(=O)(=O)[O-])c7F)c7ccc4[nH]7)C=C6)C=C5)cc3)cc2F)c1
REMARK SMILES IDX 21 1 20 2 18 3 19 4 16 6 17 7 15 8 12 9 13 10 91 11 14 12
REMARK SMILES IDX 90 13 92 14 11 15 4 16 5 17 93 18 6 19 10 20 3 21 2 22 1 23
REMARK SMILES IDX 7 24 8 25 9 26 22 27 23 28 24 29 25 30 26 32 27 33 28 34
REMARK SMILES IDX 89 35 29 36 88 37 30 38 31 39 32 40 82 41 33 42 87 43 81 44
REMARK SMILES IDX 83 45 34 46 86 47 80 48 79 49 35 51 67 52 47 53 66 54 48 55
REMARK SMILES IDX 51 56 65 57 84 58 49 59 50 60 64 62 85 63 52 64 36 65 37 66
REMARK SMILES IDX 45 67 38 68 40 69 46 70 39 71 41 72 42 73 43 74 44 75 68 76
REMARK SMILES IDX 69 77 77 78 70 79 72 80 78 81 71 82 73 83 74 84 75 85 76 86
REMARK SMILES IDX 53 87 54 88 62 89 55 90 57 91 63 92 56 93 58 94 59 95 60 96
REMARK SMILES IDX 61 97
REMARK H PARENT 20 5 24 31 83 50 51 61
REMARK Flexibility Score: inf
ROOT
ATOM      1  C   UNL A   1      31.653  29.094  24.901  1.00  0.00     0.117 C 
ENDROOT
BRANCH   1   2
ATOM      2  N   UNL A   1      31.249  29.595  23.602  1.00  0.00    -0.356 N 
ATOM      3  C   UNL A   1      30.415  29.105  22.645  1.00  0.00     0.227 C 
ATOM      4  O   UNL A   1      30.296  29.794  21.623  1.00  0.00    -0.274 OA
ATOM      5  H   UNL A   1      31.659  30.458  23.364  1.00  0.00     0.163 HD
BRANCH   3   6
ATOM      6  C   UNL A   1      29.628  27.791  22.768  1.00  0.00     0.105 C 
ATOM      7  C   UNL A   1      28.297  27.908  23.511  1.00  0.00     0.023 C 
BRANCH   6   8
ATOM      8  C   UNL A   1      30.486  26.608  23.173  1.00  0.00    -0.033 A 
ATOM      9  C   UNL A   1      31.969  24.278  23.899  1.00  0.00     0.018 A 
ATOM     10  C   UNL A   1      32.225  24.982  22.710  1.00  0.00     0.012 A 
ATOM     11  C   UNL A   1      30.957  24.785  24.722  1.00  0.00     0.131 A 
ATOM     12  C   UNL A   1      31.535  26.147  22.380  1.00  0.00     0.005 A 
ATOM     13  C   UNL A   1      30.214  25.913  24.361  1.00  0.00     0.044 A 
ATOM     14  F   UNL A   1      30.672  24.204  25.897  1.00  0.00    -0.206 F 
BRANCH   9  15
ATOM     15  C   UNL A   1      32.750  23.063  24.204  1.00  0.00    -0.008 A 
ATOM     16  C   UNL A   1      34.789  21.949  24.920  1.00  0.00     0.123 A 
ATOM     17  C   UNL A   1      34.117  20.729  25.005  1.00  0.00     0.092 A 
ATOM     18  C   UNL A   1      34.115  23.101  24.512  1.00  0.00     0.055 A 
ATOM     19  C   UNL A   1      32.770  20.652  24.653  1.00  0.00     0.123 A 
ATOM     20  C   UNL A   1      32.112  21.809  24.240  1.00  0.00     0.055 A 
BRANCH  16  21
ATOM     21  O   UNL A   1      36.144  21.970  25.113  1.00  0.00    -0.494 OA
BRANCH  21  22
ATOM     22  C   UNL A   1      36.763  23.196  24.704  1.00  0.00     0.226 C 
ATOM     23  C   UNL A   1      37.674  23.753  25.790  1.00  0.00     0.049 C 
ENDBRANCH  21  22
ENDBRANCH  16  21
BRANCH  19  24
ATOM     24  O   UNL A   1      32.187  19.420  24.758  1.00  0.00    -0.494 OA
BRANCH  24  25
ATOM     25  C   UNL A   1      32.992  18.252  24.597  1.00  0.00     0.226 C 
ATOM     26  C   UNL A   1      32.617  17.140  25.567  1.00  0.00     0.049 C 
ENDBRANCH  24  25
ENDBRANCH  19  24
ENDBRANCH   9  15
ENDBRANCH   6   8
ENDBRANCH   3   6
ENDBRANCH   1   2
BRANCH   1  27
ATOM     27  C   UNL A   1      33.099  28.600  24.921  1.00  0.00     0.042 C 
BRANCH  27  28
ATOM     28  C   UNL A   1      33.804  28.792  26.258  1.00  0.00     0.118 C 
BRANCH  28  29
ATOM     29  N   UNL A   1      33.739  30.172  26.722  1.00  0.00    -0.352 N 
ATOM     30  C   UNL A   1      34.524  30.855  27.618  1.00  0.00     0.251 C 
ATOM     31  H   UNL A   1      33.011  30.704  26.327  1.00  0.00     0.163 HD
ATOM     32  O   UNL A   1      34.143  31.953  28.017  1.00  0.00    -0.269 OA
BRANCH  30  33
ATOM     33  C   UNL A   1      35.804  30.294  28.113  1.00  0.00     0.039 A 
ATOM     34  C   UNL A   1      36.922  30.329  27.272  1.00  0.00     0.014 A 
ATOM     35  C   UNL A   1      35.902  29.682  29.365  1.00  0.00     0.014 A 
ATOM     36  C   UNL A   1      38.140  29.801  27.706  1.00  0.00     0.010 A 
ATOM     37  C   UNL A   1      37.137  29.234  29.829  1.00  0.00     0.010 A 
ATOM     38  C   UNL A   1      38.267  29.274  29.001  1.00  0.00    -0.014 A 
BRANCH  38  39
ATOM     39  C   UNL A   1      39.570  28.767  29.505  1.00  0.00     0.031 A 
ATOM     40  C   UNL A   1      40.287  29.475  30.624  1.00  0.00     0.074 A 
ATOM     41  C   UNL A   1      40.150  27.712  28.897  1.00  0.00     0.049 A 
ATOM     42  N   UNL A   1      41.445  29.200  31.166  1.00  0.00    -0.248 NA
ATOM     43  C   UNL A   1      39.630  30.664  31.192  1.00  0.00     0.031 C 
ATOM     44  C   UNL A   1      39.597  26.991  27.749  1.00  0.00     0.029 A 
ATOM     45  N   UNL A   1      41.341  27.078  29.144  1.00  0.00    -0.354 N 
ATOM     46  C   UNL A   1      41.676  30.200  32.104  1.00  0.00     0.074 A 
ATOM     47  C   UNL A   1      40.551  31.106  32.036  1.00  0.00     0.031 C 
ATOM     48  C   UNL A   1      40.441  26.007  27.399  1.00  0.00     0.029 A 
ATOM     49  C   UNL A   1      41.608  26.046  28.274  1.00  0.00     0.049 A 
ATOM     50  H   UNL A   1      41.949  27.338  29.874  1.00  0.00     0.167 HD
ATOM     51  C   UNL A   1      42.713  30.336  32.964  1.00  0.00     0.034 A 
ATOM     52  C   UNL A   1      42.673  25.226  28.189  1.00  0.00     0.034 A 
ATOM     53  C   UNL A   1      43.807  29.407  33.060  1.00  0.00     0.049 A 
ATOM     54  C   UNL A   1      43.791  25.372  29.183  1.00  0.00     0.074 A 
ATOM     55  C   UNL A   1      44.852  29.398  33.967  1.00  0.00     0.029 A 
ATOM     56  N   UNL A   1      44.003  28.326  32.214  1.00  0.00    -0.354 N 
ATOM     57  N   UNL A   1      43.907  26.222  30.175  1.00  0.00    -0.248 NA
ATOM     58  C   UNL A   1      44.909  24.424  29.070  1.00  0.00     0.031 C 
ATOM     59  C   UNL A   1      45.696  28.328  33.650  1.00  0.00     0.029 A 
ATOM     60  C   UNL A   1      45.160  27.651  32.566  1.00  0.00     0.049 A 
ATOM     61  H   UNL A   1      43.407  28.074  31.472  1.00  0.00     0.167 HD
ATOM     62  C   UNL A   1      45.090  25.890  30.824  1.00  0.00     0.074 A 
ATOM     63  C   UNL A   1      45.643  24.747  30.126  1.00  0.00     0.031 C 
ATOM     64  C   UNL A   1      45.675  26.486  31.893  1.00  0.00     0.034 A 
BRANCH  51  65
ATOM     65  C   UNL A   1      42.692  31.512  33.908  1.00  0.00     0.023 A 
ATOM     66  C   UNL A   1      43.222  32.751  33.491  1.00  0.00     0.012 A 
ATOM     67  C   UNL A   1      42.105  31.409  35.184  1.00  0.00     0.148 A 
ATOM     68  C   UNL A   1      43.203  33.856  34.341  1.00  0.00     0.002 A 
ATOM     69  C   UNL A   1      42.047  32.528  36.009  1.00  0.00     0.091 A 
ATOM     70  F   UNL A   1      41.624  30.219  35.574  1.00  0.00    -0.205 F 
ATOM     71  C   UNL A   1      42.608  33.747  35.594  1.00  0.00     0.022 A 
BRANCH  69  72
ATOM     72  S   UNL A   1      41.230  32.511  37.608  1.00  0.00     0.127 S 
ATOM     73  O   UNL A   1      41.269  33.926  37.973  1.00  0.00    -0.237 OA
ATOM     74  O   UNL A   1      39.899  32.006  37.269  1.00  0.00    -0.237 OA
ATOM     75  O   UNL A   1      42.019  31.624  38.452  1.00  0.00    -0.744 OA
ENDBRANCH  69  72
ENDBRANCH  51  65
BRANCH  52  76
ATOM     76  C   UNL A   1      42.697  24.144  27.164  1.00  0.00     0.023 A 
ATOM     77  C   UNL A   1      43.411  24.343  25.967  1.00  0.00     0.012 A 
ATOM     78  C   UNL A   1      42.049  22.912  27.382  1.00  0.00     0.148 A 
ATOM     79  C   UNL A   1      43.457  23.346  24.991  1.00  0.00     0.002 A 
ATOM     80  C   UNL A   1      42.145  21.904  26.431  1.00  0.00     0.091 A 
ATOM     81  F   UNL A   1      41.370  22.749  28.525  1.00  0.00    -0.205 F 
ATOM     82  C   UNL A   1      42.833  22.125  25.227  1.00  0.00     0.022 A 
BRANCH  80  83
ATOM     83  S   UNL A   1      41.491  20.253  26.701  1.00  0.00     0.127 S 
ATOM     84  O   UNL A   1      42.275  19.809  27.851  1.00  0.00    -0.237 OA
ATOM     85  O   UNL A   1      40.085  20.537  26.984  1.00  0.00    -0.237 OA
ATOM     86  O   UNL A   1      41.732  19.531  25.459  1.00  0.00    -0.744 OA
ENDBRANCH  80  83
ENDBRANCH  52  76
BRANCH  64  87
ATOM     87  C   UNL A   1      46.966  25.899  32.400  1.00  0.00     0.023 A 
ATOM     88  C   UNL A   1      48.195  26.362  31.891  1.00  0.00     0.012 A 
ATOM     89  C   UNL A   1      46.961  24.936  33.429  1.00  0.00     0.148 A 
ATOM     90  C   UNL A   1      49.400  25.852  32.375  1.00  0.00     0.002 A 
ATOM     91  C   UNL A   1      48.166  24.470  33.942  1.00  0.00     0.091 A 
ATOM     92  F   UNL A   1      45.781  24.494  33.887  1.00  0.00    -0.205 F 
ATOM     93  C   UNL A   1      49.386  24.916  33.406  1.00  0.00     0.022 A 
BRANCH  91  94
ATOM     94  S   UNL A   1      48.246  23.340  35.335  1.00  0.00     0.127 S 
ATOM     95  O   UNL A   1      47.497  24.072  36.356  1.00  0.00    -0.237 OA
ATOM     96  O   UNL A   1      47.565  22.155  34.813  1.00  0.00    -0.237 OA
ATOM     97  O   UNL A   1      49.661  23.148  35.615  1.00  0.00    -0.744 OA
ENDBRANCH  91  94
ENDBRANCH  64  87
ENDBRANCH  38  39
ENDBRANCH  30  33
ENDBRANCH  28  29
ENDBRANCH  27  28
ENDBRANCH   1  27
TORSDOF 19
ENDMDL
MODEL 2
REMARK VINA RESULT:     -11.4      1.638      2.096
REMARK SMILES CCOc1cc(OCC)cc(-c2ccc([C@@H](C)C(=O)NCCCNC(=O)c3ccc(-c4c5nc(c(-c6cccc(S(=O)(=O)[O-])c6F)c6ccc([nH]6)c(-c6cccc(S(=O)(=O)[O-])c6F)c6nc(c(-c7cccc(S(=O)(=O)[O-])c7F)c7ccc4[nH]7)C=C6)C=C5)cc3)cc2F)c1
REMARK SMILES IDX 21 1 20 2 18 3 19 4 16 6 17 7 15 8 12 9 13 10 91 11 14 12
REMARK SMILES IDX 90 13 92 14 11 15 4 16 5 17 93 18 6 19 10 20 3 21 2 22 1 23
REMARK SMILES IDX 7 24 8 25 9 26 22 27 23 28 24 29 25 30 26 32 27 33 28 34
REMARK SMILES IDX 89 35 29 36 88 37 30 38 31 39 32 40 82 41 33 42 87 43 81 44
REMARK SMILES IDX 83 45 34 46 86 47 80 48 79 49 35 51 67 52 47 53 66 54 48 55
REMARK SMILES IDX 51 56 65 57 84 58 49 59 50 60 64 62 85 63 52 64 36 65 37 66
REMARK SMILES IDX 45 67 38 68 40 69 46 70 39 71 41 72 42 73 43 74 44 75 68 76
REMARK SMILES IDX 69 77 77 78 70 79 72 80 78 81 71 82 73 83 74 84 75 85 76 86
REMARK SMILES IDX 53 87 54 88 62 89 55 90 57 91 63 92 56 93 58 94 59 95 60 96
REMARK SMILES IDX 61 97
REMARK H PARENT 20 5 24 31 83 50 51 61
REMARK Flexibility Score: inf
ROOT
ATOM      1  C   UNL A   1      31.107  29.595  24.726  1.00  0.00     0.117 C 
ENDROOT
BRANCH   1   2
ATOM      2  N   UNL A   1      30.704  29.935  23.376  1.00  0.00    -0.356 N 
ATOM      3  C   UNL A   1      29.984  29.266  22.434  1.00  0.00     0.227 C 
ATOM      4  O   UNL A   1      29.827  29.851  21.354  1.00  0.00    -0.274 OA
ATOM      5  H   UNL A   1      31.011  30.823  23.082  1.00  0.00     0.163 HD
BRANCH   3   6
ATOM      6  C   UNL A   1      29.366  27.875  22.638  1.00  0.00     0.105 C 
ATOM      7  C   UNL A   1      28.119  27.850  23.522  1.00  0.00     0.023 C 
BRANCH   6   8
ATOM      8  C   UNL A   1      30.389  26.797  22.943  1.00  0.00    -0.033 A 
ATOM      9  C   UNL A   1      32.198  24.652  23.476  1.00  0.00     0.018 A 
ATOM     10  C   UNL A   1      32.328  25.471  22.340  1.00  0.00     0.012 A 
ATOM     11  C   UNL A   1      31.143  24.951  24.346  1.00  0.00     0.131 A 
ATOM     12  C   UNL A   1      31.475  26.548  22.107  1.00  0.00     0.005 A 
ATOM     13  C   UNL A   1      30.242  25.986  24.078  1.00  0.00     0.044 A 
ATOM     14  F   UNL A   1      30.966  24.251  25.477  1.00  0.00    -0.206 F 
BRANCH   9  15
ATOM     15  C   UNL A   1      33.147  23.540  23.680  1.00  0.00    -0.008 A 
ATOM     16  C   UNL A   1      35.370  22.680  24.159  1.00  0.00     0.123 A 
ATOM     17  C   UNL A   1      34.862  21.389  24.300  1.00  0.00     0.092 A 
ATOM     18  C   UNL A   1      34.522  23.742  23.840  1.00  0.00     0.055 A 
ATOM     19  C   UNL A   1      33.504  21.149  24.094  1.00  0.00     0.123 A 
ATOM     20  C   UNL A   1      32.671  22.219  23.769  1.00  0.00     0.055 A 
BRANCH  16  21
ATOM     21  O   UNL A   1      36.726  22.864  24.206  1.00  0.00    -0.494 OA
BRANCH  21  22
ATOM     22  C   UNL A   1      37.281  22.709  25.518  1.00  0.00     0.226 C 
ATOM     23  C   UNL A   1      37.571  24.057  26.166  1.00  0.00     0.049 C 
ENDBRANCH  21  22
ENDBRANCH  16  21
BRANCH  19  24
ATOM     24  O   UNL A   1      33.087  19.857  24.246  1.00  0.00    -0.494 OA
BRANCH  24  25
ATOM     25  C   UNL A   1      32.899  19.334  25.560  1.00  0.00     0.226 C 
ATOM     26  C   UNL A   1      32.589  17.843  25.563  1.00  0.00     0.049 C 
ENDBRANCH  24  25
ENDBRANCH  19  24
ENDBRANCH   9  15
ENDBRANCH   6   8
ENDBRANCH   3   6
ENDBRANCH   1   2
BRANCH   1  27
ATOM     27  C   UNL A   1      32.553  29.107  24.807  1.00  0.00     0.042 C 
BRANCH  27  28
ATOM     28  C   UNL A   1      33.241  29.413  26.131  1.00  0.00     0.118 C 
BRANCH  28  29
ATOM     29  N   UNL A   1      33.152  30.825  26.485  1.00  0.00    -0.352 N 
ATOM     30  C   UNL A   1      33.861  31.567  27.396  1.00  0.00     0.251 C 
ATOM     31  H   UNL A   1      32.469  31.330  25.987  1.00  0.00     0.163 HD
ATOM     32  O   UNL A   1      33.460  32.694  27.677  1.00  0.00    -0.269 OA
BRANCH  30  33
ATOM     33  C   UNL A   1      35.084  31.037  28.045  1.00  0.00     0.039 A 
ATOM     34  C   UNL A   1      36.239  31.826  28.047  1.00  0.00     0.014 A 
ATOM     35  C   UNL A   1      35.125  29.754  28.596  1.00  0.00     0.014 A 
ATOM     36  C   UNL A   1      37.410  31.351  28.644  1.00  0.00     0.010 A 
ATOM     37  C   UNL A   1      36.266  29.316  29.265  1.00  0.00     0.010 A 
ATOM     38  C   UNL A   1      37.426  30.102  29.284  1.00  0.00    -0.014 A 
BRANCH  38  39
ATOM     39  C   UNL A   1      38.642  29.607  29.980  1.00  0.00     0.031 A 
ATOM     40  C   UNL A   1      39.012  30.130  31.343  1.00  0.00     0.074 A 
ATOM     41  C   UNL A   1      39.461  28.742  29.349  1.00  0.00     0.049 A 
ATOM     42  N   UNL A   1      40.051  29.843  32.083  1.00  0.00    -0.248 NA
ATOM     43  C   UNL A   1      38.110  31.128  31.943  1.00  0.00     0.031 C 
ATOM     44  C   UNL A   1      39.259  28.223  27.994  1.00  0.00     0.029 A 
ATOM     45  N   UNL A   1      40.640  28.165  29.751  1.00  0.00    -0.354 N 
ATOM     46  C   UNL A   1      39.953  30.650  33.211  1.00  0.00     0.074 A 
ATOM     47  C   UNL A   1      38.768  31.463  33.043  1.00  0.00     0.031 C 
ATOM     48  C   UNL A   1      40.270  27.398  27.683  1.00  0.00     0.029 A 
ATOM     49  C   UNL A   1      41.209  27.351  28.799  1.00  0.00     0.049 A 
ATOM     50  H   UNL A   1      41.041  28.320  30.637  1.00  0.00     0.167 HD
ATOM     51  C   UNL A   1      40.757  30.692  34.300  1.00  0.00     0.034 A 
ATOM     52  C   UNL A   1      42.359  26.649  28.822  1.00  0.00     0.034 A 
ATOM     53  C   UNL A   1      41.908  29.849  34.483  1.00  0.00     0.049 A 
ATOM     54  C   UNL A   1      43.211  26.680  30.060  1.00  0.00     0.074 A 
ATOM     55  C   UNL A   1      42.728  29.741  35.593  1.00  0.00     0.029 A 
ATOM     56  N   UNL A   1      42.410  28.977  33.529  1.00  0.00    -0.354 N 
ATOM     57  N   UNL A   1      43.008  27.321  31.185  1.00  0.00    -0.248 NA
ATOM     58  C   UNL A   1      44.433  25.862  30.045  1.00  0.00     0.031 C 
ATOM     59  C   UNL A   1      43.743  28.823  35.298  1.00  0.00     0.029 A 
ATOM     60  C   UNL A   1      43.537  28.338  34.017  1.00  0.00     0.049 A 
ATOM     61  H   UNL A   1      42.022  28.833  32.636  1.00  0.00     0.167 HD
ATOM     62  C   UNL A   1      44.056  26.958  32.024  1.00  0.00     0.074 A 
ATOM     63  C   UNL A   1      44.878  26.024  31.284  1.00  0.00     0.031 C 
ATOM     64  C   UNL A   1      44.321  27.374  33.287  1.00  0.00     0.034 A 
BRANCH  51  65
ATOM     65  C   UNL A   1      40.392  31.651  35.405  1.00  0.00     0.023 A 
ATOM     66  C   UNL A   1      41.130  32.842  35.567  1.00  0.00     0.012 A 
ATOM     67  C   UNL A   1      39.293  31.403  36.250  1.00  0.00     0.148 A 
ATOM     68  C   UNL A   1      40.805  33.750  36.574  1.00  0.00     0.002 A 
ATOM     69  C   UNL A   1      38.945  32.335  37.221  1.00  0.00     0.091 A 
ATOM     70  F   UNL A   1      38.614  30.256  36.096  1.00  0.00    -0.205 F 
ATOM     71  C   UNL A   1      39.708  33.502  37.393  1.00  0.00     0.022 A 
BRANCH  69  72
ATOM     72  S   UNL A   1      37.501  32.145  38.273  1.00  0.00     0.127 S 
ATOM     73  O   UNL A   1      37.204  30.724  38.110  1.00  0.00    -0.237 OA
ATOM     74  O   UNL A   1      38.029  32.510  39.589  1.00  0.00    -0.237 OA
ATOM     75  O   UNL A   1      36.498  33.060  37.746  1.00  0.00    -0.744 OA
ENDBRANCH  69  72
ENDBRANCH  51  65
BRANCH  52  76
ATOM     76  C   UNL A   1      42.731  25.798  27.656  1.00  0.00     0.023 A 
ATOM     77  C   UNL A   1      43.645  26.293  26.705  1.00  0.00     0.012 A 
ATOM     78  C   UNL A   1      42.218  24.496  27.504  1.00  0.00     0.148 A 
ATOM     79  C   UNL A   1      44.018  25.518  25.606  1.00  0.00     0.002 A 
ATOM     80  C   UNL A   1      42.636  23.709  26.439  1.00  0.00     0.091 A 
ATOM     81  F   UNL A   1      41.345  24.049  28.418  1.00  0.00    -0.205 F 
ATOM     82  C   UNL A   1      43.522  24.223  25.479  1.00  0.00     0.022 A 
BRANCH  80  83
ATOM     83  S   UNL A   1      42.159  21.986  26.261  1.00  0.00     0.127 S 
ATOM     84  O   UNL A   1      42.898  21.596  25.062  1.00  0.00    -0.237 OA
ATOM     85  O   UNL A   1      42.660  21.413  27.510  1.00  0.00    -0.237 OA
ATOM     86  O   UNL A   1      40.708  21.995  26.131  1.00  0.00    -0.744 OA
ENDBRANCH  80  83
ENDBRANCH  52  76
BRANCH  64  87
ATOM     87  C   UNL A   1      45.534  26.798  33.971  1.00  0.00     0.023 A 
ATOM     88  C   UNL A   1      46.765  27.481  33.907  1.00  0.00     0.012 A 
ATOM     89  C   UNL A   1      45.437  25.615  34.730  1.00  0.00     0.148 A 
ATOM     90  C   UNL A   1      47.889  26.978  34.563  1.00  0.00     0.002 A 
ATOM     91  C   UNL A   1      46.548  25.148  35.422  1.00  0.00     0.091 A 
ATOM     92  F   UNL A   1      44.262  24.970  34.762  1.00  0.00    -0.205 F 
ATOM     93  C   UNL A   1      47.778  25.820  35.328  1.00  0.00     0.022 A 
BRANCH  91  94
ATOM     94  S   UNL A   1      46.473  23.721  36.511  1.00  0.00     0.127 S 
ATOM     95  O   UNL A   1      46.162  22.645  35.570  1.00  0.00    -0.237 OA
ATOM     96  O   UNL A   1      47.829  23.678  37.060  1.00  0.00    -0.237 OA
ATOM     97  O   UNL A   1      45.435  24.017  37.488  1.00  0.00    -0.744 OA
ENDBRANCH  91  94
ENDBRANCH  64  87
ENDBRANCH  38  39
ENDBRANCH  30  33
ENDBRANCH  28  29
ENDBRANCH  27  28
ENDBRANCH   1  27
TORSDOF 19
ENDMDL
MODEL 3
REMARK VINA RESULT:     -10.9      1.354      2.405
REMARK SMILES CCOc1cc(OCC)cc(-c2ccc([C@@H](C)C(=O)NCCCNC(=O)c3ccc(-c4c5nc(c(-c6cccc(S(=O)(=O)[O-])c6F)c6ccc([nH]6)c(-c6cccc(S(=O)(=O)[O-])c6F)c6nc(c(-c7cccc(S(=O)(=O)[O-])c7F)c7ccc4[nH]7)C=C6)C=C5)cc3)cc2F)c1
REMARK SMILES IDX 21 1 20 2 18 3 19 4 16 6 17 7 15 8 12 9 13 10 91 11 14 12
REMARK SMILES IDX 90 13 92 14 11 15 4 16 5 17 93 18 6 19 10 20 3 21 2 22 1 23
REMARK SMILES IDX 7 24 8 25 9 26 22 27 23 28 24 29 25 30 26 32 27 33 28 34
REMARK SMILES IDX 89 35 29 36 88 37 30 38 31 39 32 40 82 41 33 42 87 43 81 44
REMARK SMILES IDX 83 45 34 46 86 47 80 48 79 49 35 51 67 52 47 53 66 54 48 55
REMARK SMILES IDX 51 56 65 57 84 58 49 59 50 60 64 62 85 63 52 64 36 65 37 66
REMARK SMILES IDX 45 67 38 68 40 69 46 70 39 71 41 72 42 73 43 74 44 75 68 76
REMARK SMILES IDX 69 77 77 78 70 79 72 80 78 81 71 82 73 83 74 84 75 85 76 86
REMARK SMILES IDX 53 87 54 88 62 89 55 90 57 91 63 92 56 93 58 94 59 95 60 96
REMARK SMILES IDX 61 97
REMARK H PARENT 20 5 24 31 83 50 51 61
REMARK Flexibility Score: inf
ROOT
ATOM      1  C   UNL A   1      32.215  29.357  25.356  1.00  0.00     0.117 C 
ENDROOT
BRANCH   1   2
ATOM      2  N   UNL A   1      32.775  29.464  24.024  1.00  0.00    -0.356 N 
ATOM      3  C   UNL A   1      32.528  28.795  22.865  1.00  0.00     0.227 C 
ATOM      4  O   UNL A   1      33.207  29.134  21.886  1.00  0.00    -0.274 OA
ATOM      5  H   UNL A   1      33.471  30.156  23.940  1.00  0.00     0.163 HD
BRANCH   3   6
ATOM      6  C   UNL A   1      31.477  27.686  22.709  1.00  0.00     0.105 C 
ATOM      7  C   UNL A   1      30.061  28.080  23.128  1.00  0.00     0.023 C 
BRANCH   6   8
ATOM      8  C   UNL A   1      31.943  26.335  23.218  1.00  0.00    -0.033 A 
ATOM      9  C   UNL A   1      32.768  23.724  24.029  1.00  0.00     0.018 A 
ATOM     10  C   UNL A   1      33.694  24.718  23.666  1.00  0.00     0.012 A 
ATOM     11  C   UNL A   1      31.416  24.083  23.989  1.00  0.00     0.131 A 
ATOM     12  C   UNL A   1      33.293  26.006  23.318  1.00  0.00     0.005 A 
ATOM     13  C   UNL A   1      31.006  25.353  23.572  1.00  0.00     0.044 A 
ATOM     14  F   UNL A   1      30.464  23.213  24.360  1.00  0.00    -0.206 F 
BRANCH   9  15
ATOM     15  C   UNL A   1      33.256  22.384  24.410  1.00  0.00    -0.008 A 
ATOM     16  C   UNL A   1      32.978  19.977  24.606  1.00  0.00     0.123 A 
ATOM     17  C   UNL A   1      34.327  19.826  24.927  1.00  0.00     0.092 A 
ATOM     18  C   UNL A   1      32.446  21.244  24.362  1.00  0.00     0.055 A 
ATOM     19  C   UNL A   1      35.146  20.950  25.034  1.00  0.00     0.123 A 
ATOM     20  C   UNL A   1      34.598  22.210  24.795  1.00  0.00     0.055 A 
BRANCH  16  21
ATOM     21  O   UNL A   1      32.160  18.881  24.665  1.00  0.00    -0.494 OA
BRANCH  21  22
ATOM     22  C   UNL A   1      32.613  17.782  23.863  1.00  0.00     0.226 C 
ATOM     23  C   UNL A   1      32.410  18.053  22.378  1.00  0.00     0.049 C 
ENDBRANCH  21  22
ENDBRANCH  16  21
BRANCH  19  24
ATOM     24  O   UNL A   1      36.453  20.718  25.359  1.00  0.00    -0.494 OA
BRANCH  24  25
ATOM     25  C   UNL A   1      37.470  21.538  24.785  1.00  0.00     0.226 C 
ATOM     26  C   UNL A   1      37.818  22.740  25.654  1.00  0.00     0.049 C 
ENDBRANCH  24  25
ENDBRANCH  19  24
ENDBRANCH   9  15
ENDBRANCH   6   8
ENDBRANCH   3   6
ENDBRANCH   1   2
BRANCH   1  27
ATOM     27  C   UNL A   1      32.907  28.292  26.206  1.00  0.00     0.042 C 
BRANCH  27  28
ATOM     28  C   UNL A   1      33.584  28.837  27.458  1.00  0.00     0.118 C 
BRANCH  28  29
ATOM     29  N   UNL A   1      33.747  30.284  27.412  1.00  0.00    -0.352 N 
ATOM     30  C   UNL A   1      34.725  31.094  27.934  1.00  0.00     0.251 C 
ATOM     31  H   UNL A   1      33.036  30.762  26.924  1.00  0.00     0.163 HD
ATOM     32  O   UNL A   1      34.535  32.308  27.955  1.00  0.00    -0.269 OA
BRANCH  30  33
ATOM     33  C   UNL A   1      35.988  30.536  28.472  1.00  0.00     0.039 A 
ATOM     34  C   UNL A   1      35.922  29.636  29.542  1.00  0.00     0.014 A 
ATOM     35  C   UNL A   1      37.234  30.931  27.979  1.00  0.00     0.014 A 
ATOM     36  C   UNL A   1      37.096  29.099  30.077  1.00  0.00     0.010 A 
ATOM     37  C   UNL A   1      38.397  30.330  28.456  1.00  0.00     0.010 A 
ATOM     38  C   UNL A   1      38.344  29.419  29.520  1.00  0.00    -0.014 A 
BRANCH  38  39
ATOM     39  C   UNL A   1      39.598  28.808  30.033  1.00  0.00     0.031 A 
ATOM     40  C   UNL A   1      40.278  29.365  31.255  1.00  0.00     0.074 A 
ATOM     41  C   UNL A   1      40.171  27.797  29.348  1.00  0.00     0.049 A 
ATOM     42  N   UNL A   1      41.394  28.986  31.823  1.00  0.00    -0.248 NA
ATOM     43  C   UNL A   1      39.635  30.516  31.911  1.00  0.00     0.031 C 
ATOM     44  C   UNL A   1      39.656  27.222  28.103  1.00  0.00     0.029 A 
ATOM     45  N   UNL A   1      41.322  27.091  29.586  1.00  0.00    -0.354 N 
ATOM     46  C   UNL A   1      41.609  29.873  32.872  1.00  0.00     0.074 A 
ATOM     47  C   UNL A   1      40.524  30.830  32.843  1.00  0.00     0.031 C 
ATOM     48  C   UNL A   1      40.481  26.245  27.695  1.00  0.00     0.029 A 
ATOM     49  C   UNL A   1      41.598  26.143  28.628  1.00  0.00     0.049 A 
ATOM     50  H   UNL A   1      41.899  27.248  30.370  1.00  0.00     0.167 HD
ATOM     51  C   UNL A   1      42.602  29.876  33.793  1.00  0.00     0.034 A 
ATOM     52  C   UNL A   1      42.636  25.292  28.511  1.00  0.00     0.034 A 
ATOM     53  C   UNL A   1      43.653  28.896  33.846  1.00  0.00     0.049 A 
ATOM     54  C   UNL A   1      43.701  25.287  29.571  1.00  0.00     0.074 A 
ATOM     55  C   UNL A   1      44.646  28.750  34.799  1.00  0.00     0.029 A 
ATOM     56  N   UNL A   1      43.856  27.901  32.903  1.00  0.00    -0.354 N 
ATOM     57  N   UNL A   1      43.794  26.024  30.651  1.00  0.00    -0.248 NA
ATOM     58  C   UNL A   1      44.788  24.309  29.416  1.00  0.00     0.031 C 
ATOM     59  C   UNL A   1      45.466  27.682  34.415  1.00  0.00     0.029 A 
ATOM     60  C   UNL A   1      44.966  27.145  33.240  1.00  0.00     0.049 A 
ATOM     61  H   UNL A   1      43.292  27.752  32.109  1.00  0.00     0.167 HD
ATOM     62  C   UNL A   1      44.927  25.577  31.321  1.00  0.00     0.074 A 
ATOM     63  C   UNL A   1      45.474  24.490  30.536  1.00  0.00     0.031 C 
ATOM     64  C   UNL A   1      45.473  26.035  32.475  1.00  0.00     0.034 A 
BRANCH  51  65
ATOM     65  C   UNL A   1      42.572  30.949  34.854  1.00  0.00     0.023 A 
ATOM     66  C   UNL A   1      41.936  30.694  36.086  1.00  0.00     0.012 A 
ATOM     67  C   UNL A   1      43.216  32.186  34.653  1.00  0.00     0.148 A 
ATOM     68  C   UNL A   1      41.906  31.665  37.086  1.00  0.00     0.002 A 
ATOM     69  C   UNL A   1      43.222  33.132  35.673  1.00  0.00     0.091 A 
ATOM     70  F   UNL A   1      43.798  32.420  33.468  1.00  0.00    -0.205 F 
ATOM     71  C   UNL A   1      42.557  32.878  36.883  1.00  0.00     0.022 A 
BRANCH  69  72
ATOM     72  S   UNL A   1      44.100  34.693  35.539  1.00  0.00     0.127 S 
ATOM     73  O   UNL A   1      45.491  34.260  35.659  1.00  0.00    -0.237 OA
ATOM     74  O   UNL A   1      43.718  35.148  34.202  1.00  0.00    -0.237 OA
ATOM     75  O   UNL A   1      43.607  35.525  36.628  1.00  0.00    -0.744 OA
ENDBRANCH  69  72
ENDBRANCH  51  65
BRANCH  52  76
ATOM     76  C   UNL A   1      42.675  24.321  27.380  1.00  0.00     0.023 A 
ATOM     77  C   UNL A   1      43.292  24.696  26.171  1.00  0.00     0.012 A 
ATOM     78  C   UNL A   1      42.141  23.025  27.508  1.00  0.00     0.148 A 
ATOM     79  C   UNL A   1      43.350  23.807  25.096  1.00  0.00     0.002 A 
ATOM     80  C   UNL A   1      42.252  22.126  26.454  1.00  0.00     0.091 A 
ATOM     81  F   UNL A   1      41.554  22.693  28.665  1.00  0.00    -0.205 F 
ATOM     82  C   UNL A   1      42.840  22.520  25.241  1.00  0.00     0.022 A 
BRANCH  80  83
ATOM     83  S   UNL A   1      41.747  20.407  26.589  1.00  0.00     0.127 S 
ATOM     84  O   UNL A   1      42.401  20.004  27.832  1.00  0.00    -0.237 OA
ATOM     85  O   UNL A   1      40.292  20.534  26.669  1.00  0.00    -0.237 OA
ATOM     86  O   UNL A   1      42.240  19.760  25.381  1.00  0.00    -0.744 OA
ENDBRANCH  80  83
ENDBRANCH  52  76
BRANCH  64  87
ATOM     87  C   UNL A   1      46.712  25.344  32.983  1.00  0.00     0.023 A 
ATOM     88  C   UNL A   1      47.984  25.829  32.622  1.00  0.00     0.012 A 
ATOM     89  C   UNL A   1      46.613  24.254  33.871  1.00  0.00     0.148 A 
ATOM     90  C   UNL A   1      49.140  25.221  33.111  1.00  0.00     0.002 A 
ATOM     91  C   UNL A   1      47.768  23.686  34.394  1.00  0.00     0.091 A 
ATOM     92  F   UNL A   1      45.394  23.794  34.187  1.00  0.00    -0.205 F 
ATOM     93  C   UNL A   1      49.032  24.158  34.005  1.00  0.00     0.022 A 
BRANCH  91  94
ATOM     94  S   UNL A   1      47.724  22.379  35.626  1.00  0.00     0.127 S 
ATOM     95  O   UNL A   1      47.212  21.252  34.847  1.00  0.00    -0.237 OA
ATOM     96  O   UNL A   1      49.132  22.266  36.010  1.00  0.00    -0.237 OA
ATOM     97  O   UNL A   1      46.847  22.857  36.685  1.00  0.00    -0.744 OA
ENDBRANCH  91  94
ENDBRANCH  64  87
ENDBRANCH  38  39
ENDBRANCH  30  33
ENDBRANCH  28  29
ENDBRANCH  27  28
ENDBRANCH   1  27
TORSDOF 19
ENDMDL
