MODEL 1
REMARK VINA RESULT:     -12.0      0.000      0.000
REMARK SMILES O=C(/C=C/c1ccc(Br)cc1-n1ccnc1)NCCCNC(=O)c1ccc(-c2c3nc(c(-c4cccc(S(=O)(=O)[O-])c4F)c4ccc([nH]4)c(-c4cccc(S(=O)(=O)[O-])c4F)c4nc(c(-c5cccc(S(=O)(=O)[O-])c5F)c5ccc2[nH]5)C=C4)C=C3)cc1
REMARK SMILES IDX 19 1 18 2 17 3 1 4 2 5 3 7 4 8 5 9 6 10 11 11 7 12 10 13
REMARK SMILES IDX 8 14 9 15 12 16 13 17 16 18 14 19 15 20 20 21 21 22 22 23
REMARK SMILES IDX 23 25 24 26 25 27 86 28 26 29 85 30 27 31 28 32 29 33 79 34
REMARK SMILES IDX 30 35 84 36 78 37 80 38 31 39 83 40 77 41 76 42 32 44 64 45
REMARK SMILES IDX 44 46 63 47 45 48 48 49 62 50 81 51 46 52 47 53 61 55 82 56
REMARK SMILES IDX 49 57 33 58 34 59 42 60 35 61 37 62 43 63 36 64 38 65 39 66
REMARK SMILES IDX 40 67 41 68 65 69 66 70 74 71 67 72 69 73 75 74 68 75 70 76
REMARK SMILES IDX 71 77 72 78 73 79 50 80 51 81 59 82 52 83 54 84 60 85 53 86
REMARK SMILES IDX 55 87 56 88 57 89 58 90
REMARK H PARENT 17 6 21 24 80 43 48 54
REMARK Flexibility Score: inf
ROOT
ATOM      1  C   UNL A   1      37.787  20.429  24.596  1.00  0.00     0.042 C 
ENDROOT
BRANCH   1   2
ATOM      2  C   UNL A   1      36.318  20.350  25.016  1.00  0.00     0.118 C 
BRANCH   2   3
ATOM      3  N   UNL A   1      35.693  21.655  25.155  1.00  0.00    -0.352 N 
ATOM      4  O   UNL A   1      36.512  22.536  23.202  1.00  0.00    -0.270 OA
ATOM      5  C   UNL A   1      35.825  22.646  24.214  1.00  0.00     0.244 C 
ATOM      6  H   UNL A   1      35.153  21.836  25.959  1.00  0.00     0.163 HD
BRANCH   5   7
ATOM      7  C   UNL A   1      35.071  23.911  24.441  1.00  0.00     0.072 C 
ATOM      8  C   UNL A   1      33.988  24.310  23.761  1.00  0.00     0.016 C 
BRANCH   8   9
ATOM      9  C   UNL A   1      33.265  25.583  23.969  1.00  0.00    -0.001 A 
ATOM     10  C   UNL A   1      33.689  26.742  23.306  1.00  0.00     0.011 A 
ATOM     11  C   UNL A   1      32.009  25.598  24.609  1.00  0.00     0.055 A 
ATOM     12  C   UNL A   1      32.860  27.866  23.243  1.00  0.00     0.016 A 
ATOM     13  C   UNL A   1      31.144  26.692  24.479  1.00  0.00     0.043 A 
ATOM     14  C   UNL A   1      31.582  27.826  23.801  1.00  0.00     0.020 A 
ATOM     15  Br  UNL A   1      30.452  29.330  23.605  1.00  0.00    -0.051 Br
BRANCH  11  16
ATOM     16  N   UNL A   1      31.614  24.502  25.407  1.00  0.00    -0.306 N 
ATOM     17  C   UNL A   1      30.904  23.394  25.001  1.00  0.00     0.113 A 
ATOM     18  C   UNL A   1      31.727  24.408  26.767  1.00  0.00     0.204 A 
ATOM     19  C   UNL A   1      30.653  22.675  26.142  1.00  0.00     0.131 A 
ATOM     20  N   UNL A   1      31.081  23.364  27.241  1.00  0.00    -0.245 NA
ENDBRANCH  11  16
ENDBRANCH   8   9
ENDBRANCH   5   7
ENDBRANCH   2   3
ENDBRANCH   1   2
BRANCH   1  21
ATOM     21  C   UNL A   1      38.755  20.507  25.774  1.00  0.00     0.118 C 
BRANCH  21  22
ATOM     22  N   UNL A   1      39.717  19.403  25.800  1.00  0.00    -0.352 N 
ATOM     23  C   UNL A   1      41.088  19.467  25.992  1.00  0.00     0.251 C 
ATOM     24  H   UNL A   1      39.343  18.501  25.664  1.00  0.00     0.163 HD
ATOM     25  O   UNL A   1      41.806  18.533  25.678  1.00  0.00    -0.269 OA
BRANCH  23  26
ATOM     26  C   UNL A   1      41.666  20.687  26.590  1.00  0.00     0.039 A 
ATOM     27  C   UNL A   1      42.293  21.658  25.801  1.00  0.00     0.014 A 
ATOM     28  C   UNL A   1      41.548  20.862  27.962  1.00  0.00     0.014 A 
ATOM     29  C   UNL A   1      42.702  22.860  26.390  1.00  0.00     0.010 A 
ATOM     30  C   UNL A   1      41.865  22.080  28.516  1.00  0.00     0.010 A 
ATOM     31  C   UNL A   1      42.455  23.086  27.751  1.00  0.00    -0.014 A 
BRANCH  31  32
ATOM     32  C   UNL A   1      42.583  24.428  28.347  1.00  0.00     0.031 A 
ATOM     33  C   UNL A   1      41.413  25.325  28.076  1.00  0.00     0.074 A 
ATOM     34  C   UNL A   1      43.497  24.726  29.305  1.00  0.00     0.049 A 
ATOM     35  N   UNL A   1      41.397  26.486  27.502  1.00  0.00    -0.248 NA
ATOM     36  C   UNL A   1      40.065  24.797  28.363  1.00  0.00     0.031 C 
ATOM     37  C   UNL A   1      44.486  23.810  29.894  1.00  0.00     0.029 A 
ATOM     38  N   UNL A   1      43.632  25.843  30.086  1.00  0.00    -0.354 N 
ATOM     39  C   UNL A   1      40.072  26.931  27.589  1.00  0.00     0.074 A 
ATOM     40  C   UNL A   1      39.283  25.777  27.912  1.00  0.00     0.031 C 
ATOM     41  C   UNL A   1      44.902  24.292  31.086  1.00  0.00     0.029 A 
ATOM     42  C   UNL A   1      44.357  25.623  31.263  1.00  0.00     0.049 A 
ATOM     43  H   UNL A   1      43.255  26.719  29.842  1.00  0.00     0.167 HD
ATOM     44  C   UNL A   1      39.778  28.258  27.698  1.00  0.00     0.034 A 
ATOM     45  C   UNL A   1      44.484  26.459  32.323  1.00  0.00     0.034 A 
ATOM     46  C   UNL A   1      40.917  29.064  27.345  1.00  0.00     0.049 A 
ATOM     47  C   UNL A   1      44.133  27.810  31.856  1.00  0.00     0.074 A 
ATOM     48  C   UNL A   1      41.622  29.380  26.207  1.00  0.00     0.029 A 
ATOM     49  N   UNL A   1      41.693  29.404  28.420  1.00  0.00    -0.354 N 
ATOM     50  N   UNL A   1      44.854  28.486  31.010  1.00  0.00    -0.248 NA
ATOM     51  C   UNL A   1      42.801  28.336  32.121  1.00  0.00     0.031 C 
ATOM     52  C   UNL A   1      42.943  29.696  26.646  1.00  0.00     0.029 A 
ATOM     53  C   UNL A   1      42.988  29.594  28.036  1.00  0.00     0.049 A 
ATOM     54  H   UNL A   1      41.362  29.498  29.343  1.00  0.00     0.167 HD
ATOM     55  C   UNL A   1      43.922  29.224  30.308  1.00  0.00     0.074 A 
ATOM     56  C   UNL A   1      42.739  29.259  31.158  1.00  0.00     0.031 C 
ATOM     57  C   UNL A   1      44.080  29.441  28.972  1.00  0.00     0.034 A 
BRANCH  44  58
ATOM     58  C   UNL A   1      38.684  28.858  28.584  1.00  0.00     0.023 A 
ATOM     59  C   UNL A   1      37.785  29.762  27.962  1.00  0.00     0.012 A 
ATOM     60  C   UNL A   1      38.678  28.848  29.998  1.00  0.00     0.148 A 
ATOM     61  C   UNL A   1      36.999  30.659  28.699  1.00  0.00     0.002 A 
ATOM     62  C   UNL A   1      37.846  29.694  30.728  1.00  0.00     0.091 A 
ATOM     63  F   UNL A   1      39.563  28.113  30.672  1.00  0.00    -0.205 F 
ATOM     64  C   UNL A   1      37.030  30.626  30.084  1.00  0.00     0.022 A 
BRANCH  62  65
ATOM     65  S   UNL A   1      37.818  29.666  32.528  1.00  0.00     0.127 S 
ATOM     66  O   UNL A   1      37.457  28.277  32.791  1.00  0.00    -0.237 OA
ATOM     67  O   UNL A   1      39.199  30.022  32.852  1.00  0.00    -0.237 OA
ATOM     68  O   UNL A   1      36.836  30.670  32.922  1.00  0.00    -0.744 OA
ENDBRANCH  62  65
ENDBRANCH  44  58
BRANCH  45  69
ATOM     69  C   UNL A   1      44.769  26.247  33.761  1.00  0.00     0.023 A 
ATOM     70  C   UNL A   1      46.041  26.556  34.278  1.00  0.00     0.012 A 
ATOM     71  C   UNL A   1      43.705  26.089  34.670  1.00  0.00     0.148 A 
ATOM     72  C   UNL A   1      46.235  26.748  35.652  1.00  0.00     0.002 A 
ATOM     73  C   UNL A   1      43.893  26.306  36.032  1.00  0.00     0.091 A 
ATOM     74  F   UNL A   1      42.499  25.801  34.182  1.00  0.00    -0.205 F 
ATOM     75  C   UNL A   1      45.158  26.643  36.527  1.00  0.00     0.022 A 
BRANCH  73  76
ATOM     76  S   UNL A   1      42.536  26.295  37.212  1.00  0.00     0.127 S 
ATOM     77  O   UNL A   1      41.967  24.969  36.979  1.00  0.00    -0.237 OA
ATOM     78  O   UNL A   1      43.226  26.453  38.490  1.00  0.00    -0.237 OA
ATOM     79  O   UNL A   1      41.671  27.404  36.836  1.00  0.00    -0.744 OA
ENDBRANCH  73  76
ENDBRANCH  45  69
BRANCH  57  80
ATOM     80  C   UNL A   1      45.460  29.290  28.404  1.00  0.00     0.023 A 
ATOM     81  C   UNL A   1      46.454  30.280  28.533  1.00  0.00     0.012 A 
ATOM     82  C   UNL A   1      45.791  28.059  27.819  1.00  0.00     0.148 A 
ATOM     83  C   UNL A   1      47.750  30.050  28.067  1.00  0.00     0.002 A 
ATOM     84  C   UNL A   1      47.091  27.815  27.402  1.00  0.00     0.091 A 
ATOM     85  F   UNL A   1      44.825  27.134  27.699  1.00  0.00    -0.205 F 
ATOM     86  C   UNL A   1      48.073  28.812  27.515  1.00  0.00     0.022 A 
BRANCH  84  87
ATOM     87  S   UNL A   1      47.587  26.201  26.802  1.00  0.00     0.127 S 
ATOM     88  O   UNL A   1      49.019  26.387  26.573  1.00  0.00    -0.237 OA
ATOM     89  O   UNL A   1      47.256  25.330  27.931  1.00  0.00    -0.237 OA
ATOM     90  O   UNL A   1      46.786  25.955  25.609  1.00  0.00    -0.744 OA
ENDBRANCH  84  87
ENDBRANCH  57  80
ENDBRANCH  31  32
ENDBRANCH  23  26
ENDBRANCH  21  22
ENDBRANCH   1  21
TORSDOF 15
ENDMDL
MODEL 2
REMARK VINA RESULT:     -11.7      3.183      7.542
REMARK SMILES O=C(/C=C/c1ccc(Br)cc1-n1ccnc1)NCCCNC(=O)c1ccc(-c2c3nc(c(-c4cccc(S(=O)(=O)[O-])c4F)c4ccc([nH]4)c(-c4cccc(S(=O)(=O)[O-])c4F)c4nc(c(-c5cccc(S(=O)(=O)[O-])c5F)c5ccc2[nH]5)C=C4)C=C3)cc1
REMARK SMILES IDX 19 1 18 2 17 3 1 4 2 5 3 7 4 8 5 9 6 10 11 11 7 12 10 13
REMARK SMILES IDX 8 14 9 15 12 16 13 17 16 18 14 19 15 20 20 21 21 22 22 23
REMARK SMILES IDX 23 25 24 26 25 27 86 28 26 29 85 30 27 31 28 32 29 33 79 34
REMARK SMILES IDX 30 35 84 36 78 37 80 38 31 39 83 40 77 41 76 42 32 44 64 45
REMARK SMILES IDX 44 46 63 47 45 48 48 49 62 50 81 51 46 52 47 53 61 55 82 56
REMARK SMILES IDX 49 57 33 58 34 59 42 60 35 61 37 62 43 63 36 64 38 65 39 66
REMARK SMILES IDX 40 67 41 68 65 69 66 70 74 71 67 72 69 73 75 74 68 75 70 76
REMARK SMILES IDX 71 77 72 78 73 79 50 80 51 81 59 82 52 83 54 84 60 85 53 86
REMARK SMILES IDX 55 87 56 88 57 89 58 90
REMARK H PARENT 17 6 21 24 80 43 48 54
REMARK Flexibility Score: inf
ROOT
ATOM      1  C   UNL A   1      32.152  29.035  27.141  1.00  0.00     0.042 C 
ENDROOT
BRANCH   1   2
ATOM      2  C   UNL A   1      31.750  28.610  25.727  1.00  0.00     0.118 C 
BRANCH   2   3
ATOM      3  N   UNL A   1      32.287  27.314  25.346  1.00  0.00    -0.352 N 
ATOM      4  O   UNL A   1      33.834  28.114  23.852  1.00  0.00    -0.270 OA
ATOM      5  C   UNL A   1      33.313  27.173  24.445  1.00  0.00     0.244 C 
ATOM      6  H   UNL A   1      31.899  26.505  25.752  1.00  0.00     0.163 HD
BRANCH   5   7
ATOM      7  C   UNL A   1      33.823  25.794  24.198  1.00  0.00     0.072 C 
ATOM      8  C   UNL A   1      34.618  25.095  25.018  1.00  0.00     0.016 C 
BRANCH   8   9
ATOM      9  C   UNL A   1      35.148  23.740  24.752  1.00  0.00    -0.001 A 
ATOM     10  C   UNL A   1      36.424  23.588  24.195  1.00  0.00     0.011 A 
ATOM     11  C   UNL A   1      34.509  22.603  25.286  1.00  0.00     0.055 A 
ATOM     12  C   UNL A   1      37.063  22.344  24.215  1.00  0.00     0.016 A 
ATOM     13  C   UNL A   1      35.178  21.375  25.381  1.00  0.00     0.043 A 
ATOM     14  C   UNL A   1      36.452  21.254  24.834  1.00  0.00     0.020 A 
ATOM     15  Br  UNL A   1      37.391  19.615  24.933  1.00  0.00    -0.051 Br
BRANCH  11  16
ATOM     16  N   UNL A   1      33.169  22.689  25.722  1.00  0.00    -0.306 N 
ATOM     17  C   UNL A   1      32.727  23.062  26.973  1.00  0.00     0.113 A 
ATOM     18  C   UNL A   1      32.064  22.270  25.034  1.00  0.00     0.204 A 
ATOM     19  C   UNL A   1      31.368  22.873  26.957  1.00  0.00     0.131 A 
ATOM     20  N   UNL A   1      30.983  22.288  25.784  1.00  0.00    -0.245 NA
ENDBRANCH  11  16
ENDBRANCH   8   9
ENDBRANCH   5   7
ENDBRANCH   2   3
ENDBRANCH   1   2
BRANCH   1  21
ATOM     21  C   UNL A   1      33.616  29.452  27.259  1.00  0.00     0.118 C 
BRANCH  21  22
ATOM     22  N   UNL A   1      33.819  30.892  27.088  1.00  0.00    -0.352 N 
ATOM     23  C   UNL A   1      34.816  31.687  27.632  1.00  0.00     0.251 C 
ATOM     24  H   UNL A   1      33.164  31.355  26.516  1.00  0.00     0.163 HD
ATOM     25  O   UNL A   1      34.693  32.898  27.676  1.00  0.00    -0.269 OA
BRANCH  23  26
ATOM     26  C   UNL A   1      36.037  31.038  28.153  1.00  0.00     0.039 A 
ATOM     27  C   UNL A   1      36.265  29.668  27.977  1.00  0.00     0.014 A 
ATOM     28  C   UNL A   1      36.972  31.830  28.803  1.00  0.00     0.014 A 
ATOM     29  C   UNL A   1      37.495  29.124  28.363  1.00  0.00     0.010 A 
ATOM     30  C   UNL A   1      38.211  31.310  29.093  1.00  0.00     0.010 A 
ATOM     31  C   UNL A   1      38.488  29.958  28.894  1.00  0.00    -0.014 A 
BRANCH  31  32
ATOM     32  C   UNL A   1      39.885  29.506  29.030  1.00  0.00     0.031 A 
ATOM     33  C   UNL A   1      40.339  29.365  30.452  1.00  0.00     0.074 A 
ATOM     34  C   UNL A   1      40.588  28.963  28.005  1.00  0.00     0.049 A 
ATOM     35  N   UNL A   1      41.337  29.940  31.044  1.00  0.00    -0.248 NA
ATOM     36  C   UNL A   1      39.487  28.582  31.368  1.00  0.00     0.031 C 
ATOM     37  C   UNL A   1      40.111  28.741  26.630  1.00  0.00     0.029 A 
ATOM     38  N   UNL A   1      41.803  28.332  27.998  1.00  0.00    -0.354 N 
ATOM     39  C   UNL A   1      41.376  29.391  32.332  1.00  0.00     0.074 A 
ATOM     40  C   UNL A   1      40.107  28.755  32.535  1.00  0.00     0.031 C 
ATOM     41  C   UNL A   1      40.878  27.805  26.027  1.00  0.00     0.029 A 
ATOM     42  C   UNL A   1      41.997  27.495  26.893  1.00  0.00     0.049 A 
ATOM     43  H   UNL A   1      42.478  28.456  28.704  1.00  0.00     0.167 HD
ATOM     44  C   UNL A   1      42.556  29.236  32.998  1.00  0.00     0.034 A 
ATOM     45  C   UNL A   1      42.990  26.590  26.707  1.00  0.00     0.034 A 
ATOM     46  C   UNL A   1      43.597  30.015  32.381  1.00  0.00     0.049 A 
ATOM     47  C   UNL A   1      44.084  26.950  27.623  1.00  0.00     0.074 A 
ATOM     48  C   UNL A   1      43.925  31.343  32.243  1.00  0.00     0.029 A 
ATOM     49  N   UNL A   1      44.318  29.313  31.452  1.00  0.00    -0.354 N 
ATOM     50  N   UNL A   1      44.801  28.029  27.495  1.00  0.00    -0.248 NA
ATOM     51  C   UNL A   1      44.226  26.236  28.884  1.00  0.00     0.031 C 
ATOM     52  C   UNL A   1      44.683  31.432  31.038  1.00  0.00     0.029 A 
ATOM     53  C   UNL A   1      44.820  30.153  30.501  1.00  0.00     0.049 A 
ATOM     54  H   UNL A   1      44.455  28.338  31.467  1.00  0.00     0.167 HD
ATOM     55  C   UNL A   1      45.108  28.369  28.797  1.00  0.00     0.074 A 
ATOM     56  C   UNL A   1      44.925  27.147  29.568  1.00  0.00     0.031 C 
ATOM     57  C   UNL A   1      45.148  29.677  29.175  1.00  0.00     0.034 A 
BRANCH  44  58
ATOM     58  C   UNL A   1      42.937  28.036  33.868  1.00  0.00     0.023 A 
ATOM     59  C   UNL A   1      43.689  27.009  33.242  1.00  0.00     0.012 A 
ATOM     60  C   UNL A   1      42.352  27.709  35.113  1.00  0.00     0.148 A 
ATOM     61  C   UNL A   1      43.779  25.717  33.778  1.00  0.00     0.002 A 
ATOM     62  C   UNL A   1      42.500  26.443  35.677  1.00  0.00     0.091 A 
ATOM     63  F   UNL A   1      41.538  28.569  35.724  1.00  0.00    -0.205 F 
ATOM     64  C   UNL A   1      43.182  25.432  34.997  1.00  0.00     0.022 A 
BRANCH  62  65
ATOM     65  S   UNL A   1      41.779  26.031  37.273  1.00  0.00     0.127 S 
ATOM     66  O   UNL A   1      41.516  24.605  37.114  1.00  0.00    -0.237 OA
ATOM     67  O   UNL A   1      42.872  26.363  38.187  1.00  0.00    -0.237 OA
ATOM     68  O   UNL A   1      40.607  26.888  37.410  1.00  0.00    -0.744 OA
ENDBRANCH  62  65
ENDBRANCH  44  58
BRANCH  45  69
ATOM     69  C   UNL A   1      43.102  25.349  25.905  1.00  0.00     0.023 A 
ATOM     70  C   UNL A   1      44.214  25.154  25.065  1.00  0.00     0.012 A 
ATOM     71  C   UNL A   1      42.319  24.228  26.237  1.00  0.00     0.148 A 
ATOM     72  C   UNL A   1      44.560  23.875  24.609  1.00  0.00     0.002 A 
ATOM     73  C   UNL A   1      42.678  22.954  25.806  1.00  0.00     0.091 A 
ATOM     74  F   UNL A   1      41.268  24.409  27.037  1.00  0.00    -0.205 F 
ATOM     75  C   UNL A   1      43.804  22.773  24.996  1.00  0.00     0.022 A 
BRANCH  73  76
ATOM     76  S   UNL A   1      41.819  21.469  26.347  1.00  0.00     0.127 S 
ATOM     77  O   UNL A   1      40.451  21.763  25.928  1.00  0.00    -0.237 OA
ATOM     78  O   UNL A   1      42.486  20.420  25.580  1.00  0.00    -0.237 OA
ATOM     79  O   UNL A   1      42.013  21.399  27.789  1.00  0.00    -0.744 OA
ENDBRANCH  73  76
ENDBRANCH  45  69
BRANCH  57  80
ATOM     80  C   UNL A   1      45.326  30.705  28.098  1.00  0.00     0.023 A 
ATOM     81  C   UNL A   1      44.243  31.279  27.400  1.00  0.00     0.012 A 
ATOM     82  C   UNL A   1      46.622  31.187  27.865  1.00  0.00     0.148 A 
ATOM     83  C   UNL A   1      44.458  32.300  26.472  1.00  0.00     0.002 A 
ATOM     84  C   UNL A   1      46.826  32.235  26.980  1.00  0.00     0.091 A 
ATOM     85  F   UNL A   1      47.638  30.620  28.535  1.00  0.00    -0.205 F 
ATOM     86  C   UNL A   1      45.747  32.789  26.272  1.00  0.00     0.022 A 
BRANCH  84  87
ATOM     87  S   UNL A   1      48.442  32.982  26.780  1.00  0.00     0.127 S 
ATOM     88  O   UNL A   1      48.199  33.959  25.720  1.00  0.00    -0.237 OA
ATOM     89  O   UNL A   1      48.686  33.561  28.102  1.00  0.00    -0.237 OA
ATOM     90  O   UNL A   1      49.347  31.891  26.435  1.00  0.00    -0.744 OA
ENDBRANCH  84  87
ENDBRANCH  57  80
ENDBRANCH  31  32
ENDBRANCH  23  26
ENDBRANCH  21  22
ENDBRANCH   1  21
TORSDOF 15
ENDMDL
MODEL 3
REMARK VINA RESULT:     -11.5      4.360      8.171
REMARK SMILES O=C(/C=C/c1ccc(Br)cc1-n1ccnc1)NCCCNC(=O)c1ccc(-c2c3nc(c(-c4cccc(S(=O)(=O)[O-])c4F)c4ccc([nH]4)c(-c4cccc(S(=O)(=O)[O-])c4F)c4nc(c(-c5cccc(S(=O)(=O)[O-])c5F)c5ccc2[nH]5)C=C4)C=C3)cc1
REMARK SMILES IDX 19 1 18 2 17 3 1 4 2 5 3 7 4 8 5 9 6 10 11 11 7 12 10 13
REMARK SMILES IDX 8 14 9 15 12 16 13 17 16 18 14 19 15 20 20 21 21 22 22 23
REMARK SMILES IDX 23 25 24 26 25 27 86 28 26 29 85 30 27 31 28 32 29 33 79 34
REMARK SMILES IDX 30 35 84 36 78 37 80 38 31 39 83 40 77 41 76 42 32 44 64 45
REMARK SMILES IDX 44 46 63 47 45 48 48 49 62 50 81 51 46 52 47 53 61 55 82 56
REMARK SMILES IDX 49 57 33 58 34 59 42 60 35 61 37 62 43 63 36 64 38 65 39 66
REMARK SMILES IDX 40 67 41 68 65 69 66 70 74 71 67 72 69 73 75 74 68 75 70 76
REMARK SMILES IDX 71 77 72 78 73 79 50 80 51 81 59 82 52 83 54 84 60 85 53 86
REMARK SMILES IDX 55 87 56 88 57 89 58 90
REMARK H PARENT 17 6 21 24 80 43 48 54
REMARK Flexibility Score: inf
ROOT
ATOM      1  C   UNL A   1      45.986  20.698  24.445  1.00  0.00     0.042 C 
ENDROOT
BRANCH   1   2
ATOM      2  C   UNL A   1      45.537  22.159  24.511  1.00  0.00     0.118 C 
BRANCH   2   3
ATOM      3  N   UNL A   1      46.026  22.853  25.691  1.00  0.00    -0.352 N 
ATOM      4  O   UNL A   1      47.037  24.578  24.566  1.00  0.00    -0.270 OA
ATOM      5  C   UNL A   1      46.725  24.033  25.621  1.00  0.00     0.244 C 
ATOM      6  H   UNL A   1      45.847  22.462  26.577  1.00  0.00     0.163 HD
BRANCH   5   7
ATOM      7  C   UNL A   1      47.102  24.683  26.909  1.00  0.00     0.072 C 
ATOM      8  C   UNL A   1      48.315  25.158  27.220  1.00  0.00     0.016 C 
BRANCH   8   9
ATOM      9  C   UNL A   1      48.691  25.770  28.512  1.00  0.00    -0.001 A 
ATOM     10  C   UNL A   1      47.822  25.676  29.607  1.00  0.00     0.011 A 
ATOM     11  C   UNL A   1      50.009  26.214  28.738  1.00  0.00     0.055 A 
ATOM     12  C   UNL A   1      48.273  25.971  30.898  1.00  0.00     0.016 A 
ATOM     13  C   UNL A   1      50.487  26.432  30.038  1.00  0.00     0.043 A 
ATOM     14  C   UNL A   1      49.608  26.317  31.111  1.00  0.00     0.020 A 
ATOM     15  Br  UNL A   1      50.205  26.607  32.882  1.00  0.00    -0.051 Br
BRANCH  11  16
ATOM     16  N   UNL A   1      50.867  26.460  27.643  1.00  0.00    -0.306 N 
ATOM     17  C   UNL A   1      50.801  27.514  26.759  1.00  0.00     0.113 A 
ATOM     18  C   UNL A   1      51.829  25.615  27.163  1.00  0.00     0.204 A 
ATOM     19  C   UNL A   1      51.754  27.259  25.806  1.00  0.00     0.131 A 
ATOM     20  N   UNL A   1      52.315  26.030  26.012  1.00  0.00    -0.245 NA
ENDBRANCH  11  16
ENDBRANCH   8   9
ENDBRANCH   5   7
ENDBRANCH   2   3
ENDBRANCH   1   2
BRANCH   1  21
ATOM     21  C   UNL A   1      45.432  19.837  25.577  1.00  0.00     0.118 C 
BRANCH  21  22
ATOM     22  N   UNL A   1      44.214  19.114  25.204  1.00  0.00    -0.352 N 
ATOM     23  C   UNL A   1      42.928  19.296  25.689  1.00  0.00     0.251 C 
ATOM     24  H   UNL A   1      44.322  18.410  24.524  1.00  0.00     0.163 HD
ATOM     25  O   UNL A   1      42.078  18.436  25.540  1.00  0.00    -0.269 OA
BRANCH  23  26
ATOM     26  C   UNL A   1      42.603  20.556  26.386  1.00  0.00     0.039 A 
ATOM     27  C   UNL A   1      42.561  20.626  27.784  1.00  0.00     0.014 A 
ATOM     28  C   UNL A   1      42.363  21.687  25.617  1.00  0.00     0.014 A 
ATOM     29  C   UNL A   1      42.386  21.868  28.403  1.00  0.00     0.010 A 
ATOM     30  C   UNL A   1      42.287  22.915  26.230  1.00  0.00     0.010 A 
ATOM     31  C   UNL A   1      42.283  23.027  27.620  1.00  0.00    -0.014 A 
BRANCH  31  32
ATOM     32  C   UNL A   1      42.403  24.371  28.211  1.00  0.00     0.031 A 
ATOM     33  C   UNL A   1      41.192  25.231  28.011  1.00  0.00     0.074 A 
ATOM     34  C   UNL A   1      43.362  24.697  29.115  1.00  0.00     0.049 A 
ATOM     35  N   UNL A   1      41.108  26.392  27.442  1.00  0.00    -0.248 NA
ATOM     36  C   UNL A   1      39.881  24.661  28.374  1.00  0.00     0.031 C 
ATOM     37  C   UNL A   1      44.411  23.810  29.643  1.00  0.00     0.029 A 
ATOM     38  N   UNL A   1      43.507  25.816  29.891  1.00  0.00    -0.354 N 
ATOM     39  C   UNL A   1      39.776  26.795  27.608  1.00  0.00     0.074 A 
ATOM     40  C   UNL A   1      39.043  25.618  27.972  1.00  0.00     0.031 C 
ATOM     41  C   UNL A   1      44.880  24.304  30.811  1.00  0.00     0.029 A 
ATOM     42  C   UNL A   1      44.305  25.617  31.023  1.00  0.00     0.049 A 
ATOM     43  H   UNL A   1      43.090  26.681  29.672  1.00  0.00     0.167 HD
ATOM     44  C   UNL A   1      39.448  28.112  27.737  1.00  0.00     0.034 A 
ATOM     45  C   UNL A   1      44.468  26.456  32.076  1.00  0.00     0.034 A 
ATOM     46  C   UNL A   1      40.539  28.954  27.321  1.00  0.00     0.049 A 
ATOM     47  C   UNL A   1      44.048  27.795  31.634  1.00  0.00     0.074 A 
ATOM     48  C   UNL A   1      41.167  29.294  26.145  1.00  0.00     0.029 A 
ATOM     49  N   UNL A   1      41.365  29.317  28.350  1.00  0.00    -0.354 N 
ATOM     50  N   UNL A   1      44.698  28.495  30.750  1.00  0.00    -0.248 NA
ATOM     51  C   UNL A   1      42.718  28.280  31.978  1.00  0.00     0.031 C 
ATOM     52  C   UNL A   1      42.501  29.650  26.508  1.00  0.00     0.029 A 
ATOM     53  C   UNL A   1      42.629  29.547  27.893  1.00  0.00     0.049 A 
ATOM     54  H   UNL A   1      41.086  29.400  29.291  1.00  0.00     0.167 HD
ATOM     55  C   UNL A   1      43.704  29.204  30.106  1.00  0.00     0.074 A 
ATOM     56  C   UNL A   1      42.572  29.201  31.022  1.00  0.00     0.031 C 
ATOM     57  C   UNL A   1      43.778  29.428  28.763  1.00  0.00     0.034 A 
BRANCH  44  58
ATOM     58  C   UNL A   1      38.389  28.677  28.686  1.00  0.00     0.023 A 
ATOM     59  C   UNL A   1      37.389  29.501  28.108  1.00  0.00     0.012 A 
ATOM     60  C   UNL A   1      38.493  28.720  30.096  1.00  0.00     0.148 A 
ATOM     61  C   UNL A   1      36.606  30.375  28.876  1.00  0.00     0.002 A 
ATOM     62  C   UNL A   1      37.667  29.540  30.862  1.00  0.00     0.091 A 
ATOM     63  F   UNL A   1      39.472  28.066  30.721  1.00  0.00    -0.205 F 
ATOM     64  C   UNL A   1      36.746  30.395  30.255  1.00  0.00     0.022 A 
BRANCH  62  65
ATOM     65  S   UNL A   1      37.778  29.578  32.658  1.00  0.00     0.127 S 
ATOM     66  O   UNL A   1      37.407  28.209  33.001  1.00  0.00    -0.237 OA
ATOM     67  O   UNL A   1      39.189  29.908  32.861  1.00  0.00    -0.237 OA
ATOM     68  O   UNL A   1      36.854  30.621  33.089  1.00  0.00    -0.744 OA
ENDBRANCH  62  65
ENDBRANCH  44  58
BRANCH  45  69
ATOM     69  C   UNL A   1      44.842  26.251  33.495  1.00  0.00     0.023 A 
ATOM     70  C   UNL A   1      46.156  26.521  33.921  1.00  0.00     0.012 A 
ATOM     71  C   UNL A   1      43.838  26.142  34.475  1.00  0.00     0.148 A 
ATOM     72  C   UNL A   1      46.450  26.722  35.276  1.00  0.00     0.002 A 
ATOM     73  C   UNL A   1      44.125  26.368  35.818  1.00  0.00     0.091 A 
ATOM     74  F   UNL A   1      42.592  25.890  34.074  1.00  0.00    -0.205 F 
ATOM     75  C   UNL A   1      45.431  26.666  36.222  1.00  0.00     0.022 A 
BRANCH  73  76
ATOM     76  S   UNL A   1      42.851  26.419  37.087  1.00  0.00     0.127 S 
ATOM     77  O   UNL A   1      42.086  27.594  36.675  1.00  0.00    -0.237 OA
ATOM     78  O   UNL A   1      42.166  25.142  36.900  1.00  0.00    -0.237 OA
ATOM     79  O   UNL A   1      43.555  26.563  38.354  1.00  0.00    -0.744 OA
ENDBRANCH  73  76
ENDBRANCH  45  69
BRANCH  57  80
ATOM     80  C   UNL A   1      45.126  29.320  28.115  1.00  0.00     0.023 A 
ATOM     81  C   UNL A   1      45.579  28.147  27.479  1.00  0.00     0.012 A 
ATOM     82  C   UNL A   1      45.911  30.481  28.052  1.00  0.00     0.148 A 
ATOM     83  C   UNL A   1      46.805  28.130  26.810  1.00  0.00     0.002 A 
ATOM     84  C   UNL A   1      47.104  30.474  27.345  1.00  0.00     0.091 A 
ATOM     85  F   UNL A   1      45.464  31.583  28.672  1.00  0.00    -0.205 F 
ATOM     86  C   UNL A   1      47.561  29.298  26.729  1.00  0.00     0.022 A 
BRANCH  84  87
ATOM     87  S   UNL A   1      48.051  31.977  27.105  1.00  0.00     0.127 S 
ATOM     88  O   UNL A   1      48.128  32.510  28.464  1.00  0.00    -0.237 OA
ATOM     89  O   UNL A   1      49.317  31.469  26.574  1.00  0.00    -0.237 OA
ATOM     90  O   UNL A   1      47.290  32.781  26.156  1.00  0.00    -0.744 OA
ENDBRANCH  84  87
ENDBRANCH  57  80
ENDBRANCH  31  32
ENDBRANCH  23  26
ENDBRANCH  21  22
ENDBRANCH   1  21
TORSDOF 15
ENDMDL
