MODEL 1
REMARK VINA RESULT:     -11.7      0.000      0.000
REMARK SMILES Cc1cc(NC(=O)c2ccc(Br)nc2)sc1C(=O)NCCCNC(=O)c1ccc(-c2c3nc(c(-c4cccc(S(=O)(=O)[O-])c4F)c4ccc([nH]4)c(-c4cccc(S(=O)(=O)[O-])c4F)c4nc(c(-c5cccc(S(=O)(=O)[O-])c5F)c5ccc2[nH]5)C=C4)C=C3)cc1
REMARK SMILES IDX 21 1 20 2 19 3 17 4 18 5 16 7 1 8 2 9 3 10 4 11 15 12 5 13
REMARK SMILES IDX 6 14 7 16 8 17 9 18 14 19 10 20 13 21 11 22 12 23 22 24
REMARK SMILES IDX 23 25 24 26 25 28 26 29 27 30 88 31 28 32 87 33 29 34 30 35
REMARK SMILES IDX 31 36 81 37 32 38 86 39 80 40 82 41 33 42 85 43 79 44 78 45
REMARK SMILES IDX 34 47 66 48 46 49 65 50 47 51 50 52 64 53 83 54 48 55 49 56
REMARK SMILES IDX 63 58 84 59 51 60 35 61 36 62 44 63 37 64 39 65 45 66 38 67
REMARK SMILES IDX 40 68 41 69 42 70 43 71 67 72 68 73 76 74 69 75 71 76 77 77
REMARK SMILES IDX 70 78 72 79 73 80 74 81 75 82 52 83 53 84 61 85 54 86 56 87
REMARK SMILES IDX 62 88 55 89 57 90 58 91 59 92 60 93
REMARK H PARENT 19 6 5 15 23 27 82 46 50 57
REMARK Flexibility Score: inf
ROOT
ATOM      1  C   UNL A   1      33.481  27.771  26.822  1.00  0.00     0.042 C 
ENDROOT
BRANCH   1   2
ATOM      2  C   UNL A   1      31.963  27.637  26.761  1.00  0.00     0.118 C 
BRANCH   2   3
ATOM      3  N   UNL A   1      31.390  28.423  25.699  1.00  0.00    -0.351 N 
ATOM      4  C   UNL A   1      31.105  28.171  24.381  1.00  0.00     0.261 C 
ATOM      5  O   UNL A   1      30.408  29.059  23.872  1.00  0.00    -0.268 OA
ATOM      6  H   UNL A   1      31.153  29.338  25.978  1.00  0.00     0.163 HD
BRANCH   4   7
ATOM      7  C   UNL A   1      31.560  27.001  23.616  1.00  0.00     0.097 A 
ATOM      8  C   UNL A   1      33.691  27.458  22.110  1.00  0.00     0.046 C 
ATOM      9  C   UNL A   1      32.520  26.708  22.642  1.00  0.00    -0.025 A 
ATOM     10  C   UNL A   1      32.254  25.436  22.039  1.00  0.00     0.042 A 
ATOM     11  C   UNL A   1      31.529  24.627  22.859  1.00  0.00     0.096 A 
ATOM     12  S   UNL A   1      30.658  25.527  23.981  1.00  0.00    -0.112 S 
BRANCH  11  13
ATOM     13  N   UNL A   1      31.394  23.261  22.913  1.00  0.00    -0.313 N 
ATOM     14  C   UNL A   1      32.397  22.363  23.239  1.00  0.00     0.257 C 
ATOM     15  H   UNL A   1      30.508  22.888  22.702  1.00  0.00     0.171 HD
ATOM     16  O   UNL A   1      32.243  21.153  23.102  1.00  0.00    -0.269 OA
BRANCH  14  17
ATOM     17  C   UNL A   1      33.660  22.845  23.839  1.00  0.00     0.058 A 
ATOM     18  C   UNL A   1      34.820  23.017  23.076  1.00  0.00     0.018 A 
ATOM     19  C   UNL A   1      33.738  23.021  25.211  1.00  0.00     0.126 A 
ATOM     20  C   UNL A   1      36.027  23.273  23.726  1.00  0.00     0.037 A 
ATOM     21  N   UNL A   1      34.899  23.282  25.861  1.00  0.00    -0.249 NA
ATOM     22  C   UNL A   1      36.020  23.381  25.111  1.00  0.00     0.106 A 
ATOM     23  Br  UNL A   1      37.670  23.629  26.011  1.00  0.00    -0.029 Br
ENDBRANCH  14  17
ENDBRANCH  11  13
ENDBRANCH   4   7
ENDBRANCH   2   3
ENDBRANCH   1   2
BRANCH   1  24
ATOM     24  C   UNL A   1      34.049  28.901  25.979  1.00  0.00     0.118 C 
BRANCH  24  25
ATOM     25  N   UNL A   1      33.841  30.196  26.610  1.00  0.00    -0.352 N 
ATOM     26  C   UNL A   1      34.494  30.790  27.661  1.00  0.00     0.251 C 
ATOM     27  H   UNL A   1      33.114  30.733  26.219  1.00  0.00     0.163 HD
ATOM     28  O   UNL A   1      33.975  31.765  28.202  1.00  0.00    -0.269 OA
BRANCH  26  29
ATOM     29  C   UNL A   1      35.799  30.281  28.147  1.00  0.00     0.039 A 
ATOM     30  C   UNL A   1      35.856  29.653  29.395  1.00  0.00     0.014 A 
ATOM     31  C   UNL A   1      36.975  30.470  27.416  1.00  0.00     0.014 A 
ATOM     32  C   UNL A   1      37.077  29.183  29.887  1.00  0.00     0.010 A 
ATOM     33  C   UNL A   1      38.171  29.915  27.861  1.00  0.00     0.010 A 
ATOM     34  C   UNL A   1      38.242  29.286  29.110  1.00  0.00    -0.014 A 
BRANCH  34  35
ATOM     35  C   UNL A   1      39.546  28.763  29.591  1.00  0.00     0.031 A 
ATOM     36  C   UNL A   1      40.284  29.468  30.699  1.00  0.00     0.074 A 
ATOM     37  C   UNL A   1      40.106  27.705  28.971  1.00  0.00     0.049 A 
ATOM     38  N   UNL A   1      41.461  29.204  31.204  1.00  0.00    -0.248 NA
ATOM     39  C   UNL A   1      39.628  30.644  31.297  1.00  0.00     0.031 C 
ATOM     40  C   UNL A   1      39.529  26.989  27.831  1.00  0.00     0.029 A 
ATOM     41  N   UNL A   1      41.300  27.066  29.193  1.00  0.00    -0.354 N 
ATOM     42  C   UNL A   1      41.703  30.199  32.145  1.00  0.00     0.074 A 
ATOM     43  C   UNL A   1      40.568  31.095  32.114  1.00  0.00     0.031 C 
ATOM     44  C   UNL A   1      40.365  26.009  27.457  1.00  0.00     0.029 A 
ATOM     45  C   UNL A   1      41.550  26.043  28.307  1.00  0.00     0.049 A 
ATOM     46  H   UNL A   1      41.919  27.315  29.917  1.00  0.00     0.167 HD
ATOM     47  C   UNL A   1      42.758  30.338  32.983  1.00  0.00     0.034 A 
ATOM     48  C   UNL A   1      42.618  25.231  28.189  1.00  0.00     0.034 A 
ATOM     49  C   UNL A   1      43.860  29.416  33.044  1.00  0.00     0.049 A 
ATOM     50  C   UNL A   1      43.753  25.373  29.165  1.00  0.00     0.074 A 
ATOM     51  C   UNL A   1      44.934  29.415  33.916  1.00  0.00     0.029 A 
ATOM     52  N   UNL A   1      44.032  28.334  32.194  1.00  0.00    -0.354 N 
ATOM     53  N   UNL A   1      43.890  26.227  30.151  1.00  0.00    -0.248 NA
ATOM     54  C   UNL A   1      44.861  24.416  29.039  1.00  0.00     0.031 C 
ATOM     55  C   UNL A   1      45.766  28.342  33.578  1.00  0.00     0.029 A 
ATOM     56  C   UNL A   1      45.197  27.660  32.516  1.00  0.00     0.049 A 
ATOM     57  H   UNL A   1      43.415  28.082  31.469  1.00  0.00     0.167 HD
ATOM     58  C   UNL A   1      45.081  25.889  30.784  1.00  0.00     0.074 A 
ATOM     59  C   UNL A   1      45.614  24.739  30.082  1.00  0.00     0.031 C 
ATOM     60  C   UNL A   1      45.687  26.486  31.840  1.00  0.00     0.034 A 
BRANCH  47  61
ATOM     61  C   UNL A   1      42.742  31.500  33.943  1.00  0.00     0.023 A 
ATOM     62  C   UNL A   1      43.296  32.736  33.549  1.00  0.00     0.012 A 
ATOM     63  C   UNL A   1      42.136  31.390  35.210  1.00  0.00     0.148 A 
ATOM     64  C   UNL A   1      43.283  33.831  34.412  1.00  0.00     0.002 A 
ATOM     65  C   UNL A   1      42.084  32.500  36.047  1.00  0.00     0.091 A 
ATOM     66  F   UNL A   1      41.632  30.203  35.578  1.00  0.00    -0.205 F 
ATOM     67  C   UNL A   1      42.669  33.715  35.656  1.00  0.00     0.022 A 
BRANCH  65  68
ATOM     68  S   UNL A   1      41.247  32.478  37.636  1.00  0.00     0.127 S 
ATOM     69  O   UNL A   1      41.226  33.900  37.978  1.00  0.00    -0.237 OA
ATOM     70  O   UNL A   1      39.942  31.915  37.289  1.00  0.00    -0.237 OA
ATOM     71  O   UNL A   1      42.058  31.638  38.506  1.00  0.00    -0.744 OA
ENDBRANCH  65  68
ENDBRANCH  47  61
BRANCH  48  72
ATOM     72  C   UNL A   1      42.629  24.168  27.144  1.00  0.00     0.023 A 
ATOM     73  C   UNL A   1      43.297  24.402  25.927  1.00  0.00     0.012 A 
ATOM     74  C   UNL A   1      42.019  22.918  27.364  1.00  0.00     0.148 A 
ATOM     75  C   UNL A   1      43.329  23.422  24.933  1.00  0.00     0.002 A 
ATOM     76  C   UNL A   1      42.105  21.926  26.394  1.00  0.00     0.091 A 
ATOM     77  F   UNL A   1      41.382  22.718  28.526  1.00  0.00    -0.205 F 
ATOM     78  C   UNL A   1      42.744  22.182  25.171  1.00  0.00     0.022 A 
BRANCH  76  79
ATOM     79  S   UNL A   1      41.498  20.257  26.667  1.00  0.00     0.127 S 
ATOM     80  O   UNL A   1      41.869  19.597  25.419  1.00  0.00    -0.237 OA
ATOM     81  O   UNL A   1      42.271  19.845  27.838  1.00  0.00    -0.237 OA
ATOM     82  O   UNL A   1      40.068  20.396  26.911  1.00  0.00    -0.744 OA
ENDBRANCH  76  79
ENDBRANCH  48  72
BRANCH  60  83
ATOM     83  C   UNL A   1      46.978  25.888  32.333  1.00  0.00     0.023 A 
ATOM     84  C   UNL A   1      48.195  26.245  31.720  1.00  0.00     0.012 A 
ATOM     85  C   UNL A   1      46.990  25.028  33.449  1.00  0.00     0.148 A 
ATOM     86  C   UNL A   1      49.402  25.729  32.191  1.00  0.00     0.002 A 
ATOM     87  C   UNL A   1      48.199  24.559  33.943  1.00  0.00     0.091 A 
ATOM     88  F   UNL A   1      45.818  24.685  34.004  1.00  0.00    -0.205 F 
ATOM     89  C   UNL A   1      49.406  24.897  33.308  1.00  0.00     0.022 A 
BRANCH  87  90
ATOM     90  S   UNL A   1      48.308  23.563  35.435  1.00  0.00     0.127 S 
ATOM     91  O   UNL A   1      47.604  22.347  35.033  1.00  0.00    -0.237 OA
ATOM     92  O   UNL A   1      49.753  23.406  35.599  1.00  0.00    -0.237 OA
ATOM     93  O   UNL A   1      47.662  24.341  36.483  1.00  0.00    -0.744 OA
ENDBRANCH  87  90
ENDBRANCH  60  83
ENDBRANCH  34  35
ENDBRANCH  26  29
ENDBRANCH  24  25
ENDBRANCH   1  24
TORSDOF 15
ENDMDL
MODEL 2
REMARK VINA RESULT:     -11.7      3.551      8.728
REMARK SMILES Cc1cc(NC(=O)c2ccc(Br)nc2)sc1C(=O)NCCCNC(=O)c1ccc(-c2c3nc(c(-c4cccc(S(=O)(=O)[O-])c4F)c4ccc([nH]4)c(-c4cccc(S(=O)(=O)[O-])c4F)c4nc(c(-c5cccc(S(=O)(=O)[O-])c5F)c5ccc2[nH]5)C=C4)C=C3)cc1
REMARK SMILES IDX 21 1 20 2 19 3 17 4 18 5 16 7 1 8 2 9 3 10 4 11 15 12 5 13
REMARK SMILES IDX 6 14 7 16 8 17 9 18 14 19 10 20 13 21 11 22 12 23 22 24
REMARK SMILES IDX 23 25 24 26 25 28 26 29 27 30 88 31 28 32 87 33 29 34 30 35
REMARK SMILES IDX 31 36 81 37 32 38 86 39 80 40 82 41 33 42 85 43 79 44 78 45
REMARK SMILES IDX 34 47 66 48 46 49 65 50 47 51 50 52 64 53 83 54 48 55 49 56
REMARK SMILES IDX 63 58 84 59 51 60 35 61 36 62 44 63 37 64 39 65 45 66 38 67
REMARK SMILES IDX 40 68 41 69 42 70 43 71 67 72 68 73 76 74 69 75 71 76 77 77
REMARK SMILES IDX 70 78 72 79 73 80 74 81 75 82 52 83 53 84 61 85 54 86 56 87
REMARK SMILES IDX 62 88 55 89 57 90 58 91 59 92 60 93
REMARK H PARENT 19 6 5 15 23 27 82 46 50 57
REMARK Flexibility Score: inf
ROOT
ATOM      1  C   UNL A   1      31.431  32.313  26.576  1.00  0.00     0.042 C 
ENDROOT
BRANCH   1   2
ATOM      2  C   UNL A   1      31.391  30.796  26.427  1.00  0.00     0.118 C 
BRANCH   2   3
ATOM      3  N   UNL A   1      32.419  30.309  25.541  1.00  0.00    -0.351 N 
ATOM      4  C   UNL A   1      32.541  29.191  24.757  1.00  0.00     0.261 C 
ATOM      5  O   UNL A   1      33.500  29.267  23.976  1.00  0.00    -0.268 OA
ATOM      6  H   UNL A   1      33.200  30.907  25.489  1.00  0.00     0.163 HD
BRANCH   4   7
ATOM      7  C   UNL A   1      31.667  28.011  24.807  1.00  0.00     0.097 A 
ATOM      8  C   UNL A   1      30.542  27.401  22.487  1.00  0.00     0.046 C 
ATOM      9  C   UNL A   1      30.792  27.331  23.953  1.00  0.00    -0.025 A 
ATOM     10  C   UNL A   1      29.968  26.424  24.694  1.00  0.00     0.042 A 
ATOM     11  C   UNL A   1      30.548  26.053  25.868  1.00  0.00     0.096 A 
ATOM     12  S   UNL A   1      31.675  27.195  26.373  1.00  0.00    -0.112 S 
BRANCH  11  13
ATOM     13  N   UNL A   1      30.369  24.953  26.671  1.00  0.00    -0.313 N 
ATOM     14  C   UNL A   1      31.080  23.768  26.589  1.00  0.00     0.257 C 
ATOM     15  H   UNL A   1      29.674  25.013  27.367  1.00  0.00     0.171 HD
ATOM     16  O   UNL A   1      30.748  22.775  27.229  1.00  0.00    -0.269 OA
BRANCH  14  17
ATOM     17  C   UNL A   1      32.314  23.697  25.777  1.00  0.00     0.058 A 
ATOM     18  C   UNL A   1      32.279  23.438  24.403  1.00  0.00     0.018 A 
ATOM     19  C   UNL A   1      33.546  23.771  26.405  1.00  0.00     0.126 A 
ATOM     20  C   UNL A   1      33.473  23.178  23.731  1.00  0.00     0.037 A 
ATOM     21  N   UNL A   1      34.720  23.533  25.767  1.00  0.00    -0.249 NA
ATOM     22  C   UNL A   1      34.658  23.221  24.453  1.00  0.00     0.106 A 
ATOM     23  Br  UNL A   1      36.276  22.772  23.571  1.00  0.00    -0.029 Br
ENDBRANCH  14  17
ENDBRANCH  11  13
ENDBRANCH   4   7
ENDBRANCH   2   3
ENDBRANCH   1   2
BRANCH   1  24
ATOM     24  C   UNL A   1      32.738  32.860  27.122  1.00  0.00     0.118 C 
BRANCH  24  25
ATOM     25  N   UNL A   1      32.580  34.215  27.630  1.00  0.00    -0.352 N 
ATOM     26  C   UNL A   1      33.134  34.825  28.727  1.00  0.00     0.251 C 
ATOM     27  H   UNL A   1      31.979  34.786  27.100  1.00  0.00     0.163 HD
ATOM     28  O   UNL A   1      32.649  35.885  29.120  1.00  0.00    -0.269 OA
BRANCH  26  29
ATOM     29  C   UNL A   1      34.294  34.234  29.437  1.00  0.00     0.039 A 
ATOM     30  C   UNL A   1      34.059  33.351  30.496  1.00  0.00     0.014 A 
ATOM     31  C   UNL A   1      35.607  34.587  29.113  1.00  0.00     0.014 A 
ATOM     32  C   UNL A   1      35.133  32.796  31.196  1.00  0.00     0.010 A 
ATOM     33  C   UNL A   1      36.676  33.959  29.745  1.00  0.00     0.010 A 
ATOM     34  C   UNL A   1      36.453  33.075  30.808  1.00  0.00    -0.014 A 
BRANCH  34  35
ATOM     35  C   UNL A   1      37.614  32.470  31.510  1.00  0.00     0.031 A 
ATOM     36  C   UNL A   1      38.374  31.333  30.877  1.00  0.00     0.074 A 
ATOM     37  C   UNL A   1      37.929  32.885  32.752  1.00  0.00     0.049 A 
ATOM     38  N   UNL A   1      39.366  30.632  31.363  1.00  0.00    -0.248 NA
ATOM     39  C   UNL A   1      37.941  30.904  29.536  1.00  0.00     0.031 C 
ATOM     40  C   UNL A   1      37.217  33.920  33.504  1.00  0.00     0.029 A 
ATOM     41  N   UNL A   1      38.912  32.468  33.614  1.00  0.00    -0.354 N 
ATOM     42  C   UNL A   1      39.648  29.660  30.410  1.00  0.00     0.074 A 
ATOM     43  C   UNL A   1      38.697  29.835  29.334  1.00  0.00     0.031 C 
ATOM     44  C   UNL A   1      37.786  34.060  34.711  1.00  0.00     0.029 A 
ATOM     45  C   UNL A   1      38.885  33.107  34.832  1.00  0.00     0.049 A 
ATOM     46  H   UNL A   1      39.575  31.777  33.383  1.00  0.00     0.167 HD
ATOM     47  C   UNL A   1      40.629  28.726  30.412  1.00  0.00     0.034 A 
ATOM     48  C   UNL A   1      39.652  32.937  35.926  1.00  0.00     0.034 A 
ATOM     49  C   UNL A   1      41.602  28.590  31.462  1.00  0.00     0.049 A 
ATOM     50  C   UNL A   1      40.768  31.930  35.884  1.00  0.00     0.074 A 
ATOM     51  C   UNL A   1      42.690  27.738  31.521  1.00  0.00     0.029 A 
ATOM     52  N   UNL A   1      41.601  29.322  32.640  1.00  0.00    -0.354 N 
ATOM     53  N   UNL A   1      41.115  31.125  34.908  1.00  0.00    -0.248 NA
ATOM     54  C   UNL A   1      41.622  31.834  37.076  1.00  0.00     0.031 C 
ATOM     55  C   UNL A   1      43.335  27.941  32.746  1.00  0.00     0.029 A 
ATOM     56  C   UNL A   1      42.666  28.938  33.436  1.00  0.00     0.049 A 
ATOM     57  H   UNL A   1      40.941  30.013  32.874  1.00  0.00     0.167 HD
ATOM     58  C   UNL A   1      42.248  30.453  35.354  1.00  0.00     0.074 A 
ATOM     59  C   UNL A   1      42.539  30.962  36.680  1.00  0.00     0.031 C 
ATOM     60  C   UNL A   1      42.971  29.491  34.731  1.00  0.00     0.034 A 
BRANCH  47  61
ATOM     61  C   UNL A   1      40.735  27.817  29.215  1.00  0.00     0.023 A 
ATOM     62  C   UNL A   1      39.907  26.677  29.132  1.00  0.00     0.012 A 
ATOM     63  C   UNL A   1      41.608  28.112  28.149  1.00  0.00     0.148 A 
ATOM     64  C   UNL A   1      39.974  25.826  28.030  1.00  0.00     0.002 A 
ATOM     65  C   UNL A   1      41.635  27.285  27.032  1.00  0.00     0.091 A 
ATOM     66  F   UNL A   1      42.402  29.187  28.253  1.00  0.00    -0.205 F 
ATOM     67  C   UNL A   1      40.830  26.135  26.977  1.00  0.00     0.022 A 
BRANCH  65  68
ATOM     68  S   UNL A   1      42.644  27.637  25.588  1.00  0.00     0.127 S 
ATOM     69  O   UNL A   1      42.063  28.895  25.122  1.00  0.00    -0.237 OA
ATOM     70  O   UNL A   1      43.981  27.760  26.170  1.00  0.00    -0.237 OA
ATOM     71  O   UNL A   1      42.474  26.500  24.694  1.00  0.00    -0.744 OA
ENDBRANCH  65  68
ENDBRANCH  47  61
BRANCH  48  72
ATOM     72  C   UNL A   1      39.430  33.791  37.128  1.00  0.00     0.023 A 
ATOM     73  C   UNL A   1      39.841  35.138  37.104  1.00  0.00     0.012 A 
ATOM     74  C   UNL A   1      38.781  33.290  38.273  1.00  0.00     0.148 A 
ATOM     75  C   UNL A   1      39.639  35.962  38.212  1.00  0.00     0.002 A 
ATOM     76  C   UNL A   1      38.532  34.132  39.350  1.00  0.00     0.091 A 
ATOM     77  F   UNL A   1      38.406  32.004  38.278  1.00  0.00    -0.205 F 
ATOM     78  C   UNL A   1      38.976  35.464  39.329  1.00  0.00     0.022 A 
BRANCH  76  79
ATOM     79  S   UNL A   1      37.567  33.614  40.774  1.00  0.00     0.127 S 
ATOM     80  O   UNL A   1      38.458  32.645  41.403  1.00  0.00    -0.237 OA
ATOM     81  O   UNL A   1      37.408  34.872  41.503  1.00  0.00    -0.237 OA
ATOM     82  O   UNL A   1      36.326  33.076  40.231  1.00  0.00    -0.744 OA
ENDBRANCH  76  79
ENDBRANCH  48  72
BRANCH  60  83
ATOM     83  C   UNL A   1      44.175  28.946  35.453  1.00  0.00     0.023 A 
ATOM     84  C   UNL A   1      45.434  29.552  35.275  1.00  0.00     0.012 A 
ATOM     85  C   UNL A   1      44.043  27.879  36.364  1.00  0.00     0.148 A 
ATOM     86  C   UNL A   1      46.550  29.083  35.967  1.00  0.00     0.002 A 
ATOM     87  C   UNL A   1      45.147  27.452  37.088  1.00  0.00     0.091 A 
ATOM     88  F   UNL A   1      42.839  27.304  36.504  1.00  0.00    -0.205 F 
ATOM     89  C   UNL A   1      46.405  28.042  36.882  1.00  0.00     0.022 A 
BRANCH  87  90
ATOM     90  S   UNL A   1      45.034  26.185  38.358  1.00  0.00     0.127 S 
ATOM     91  O   UNL A   1      44.078  26.781  39.289  1.00  0.00    -0.237 OA
ATOM     92  O   UNL A   1      44.522  25.038  37.607  1.00  0.00    -0.237 OA
ATOM     93  O   UNL A   1      46.385  26.014  38.873  1.00  0.00    -0.744 OA
ENDBRANCH  87  90
ENDBRANCH  60  83
ENDBRANCH  34  35
ENDBRANCH  26  29
ENDBRANCH  24  25
ENDBRANCH   1  24
TORSDOF 15
ENDMDL
MODEL 3
REMARK VINA RESULT:     -11.7      2.387      7.953
REMARK SMILES Cc1cc(NC(=O)c2ccc(Br)nc2)sc1C(=O)NCCCNC(=O)c1ccc(-c2c3nc(c(-c4cccc(S(=O)(=O)[O-])c4F)c4ccc([nH]4)c(-c4cccc(S(=O)(=O)[O-])c4F)c4nc(c(-c5cccc(S(=O)(=O)[O-])c5F)c5ccc2[nH]5)C=C4)C=C3)cc1
REMARK SMILES IDX 21 1 20 2 19 3 17 4 18 5 16 7 1 8 2 9 3 10 4 11 15 12 5 13
REMARK SMILES IDX 6 14 7 16 8 17 9 18 14 19 10 20 13 21 11 22 12 23 22 24
REMARK SMILES IDX 23 25 24 26 25 28 26 29 27 30 88 31 28 32 87 33 29 34 30 35
REMARK SMILES IDX 31 36 81 37 32 38 86 39 80 40 82 41 33 42 85 43 79 44 78 45
REMARK SMILES IDX 34 47 66 48 46 49 65 50 47 51 50 52 64 53 83 54 48 55 49 56
REMARK SMILES IDX 63 58 84 59 51 60 35 61 36 62 44 63 37 64 39 65 45 66 38 67
REMARK SMILES IDX 40 68 41 69 42 70 43 71 67 72 68 73 76 74 69 75 71 76 77 77
REMARK SMILES IDX 70 78 72 79 73 80 74 81 75 82 52 83 53 84 61 85 54 86 56 87
REMARK SMILES IDX 62 88 55 89 57 90 58 91 59 92 60 93
REMARK H PARENT 19 6 5 15 23 27 82 46 50 57
REMARK Flexibility Score: inf
ROOT
ATOM      1  C   UNL A   1      34.045  29.329  23.552  1.00  0.00     0.042 C 
ENDROOT
BRANCH   1   2
ATOM      2  C   UNL A   1      33.602  28.467  22.375  1.00  0.00     0.118 C 
BRANCH   2   3
ATOM      3  N   UNL A   1      32.210  28.656  22.056  1.00  0.00    -0.351 N 
ATOM      4  C   UNL A   1      31.066  27.967  22.365  1.00  0.00     0.261 C 
ATOM      5  O   UNL A   1      30.042  28.598  22.069  1.00  0.00    -0.268 OA
ATOM      6  H   UNL A   1      32.044  29.450  21.495  1.00  0.00     0.163 HD
BRANCH   4   7
ATOM      7  C   UNL A   1      31.010  26.628  22.969  1.00  0.00     0.097 A 
ATOM      8  C   UNL A   1      32.448  24.806  21.693  1.00  0.00     0.046 C 
ATOM      9  C   UNL A   1      31.469  25.339  22.679  1.00  0.00    -0.025 A 
ATOM     10  C   UNL A   1      30.802  24.371  23.498  1.00  0.00     0.042 A 
ATOM     11  C   UNL A   1      30.330  24.918  24.651  1.00  0.00     0.096 A 
ATOM     12  S   UNL A   1      30.101  26.576  24.484  1.00  0.00    -0.112 S 
BRANCH  11  13
ATOM     13  N   UNL A   1      30.019  24.364  25.869  1.00  0.00    -0.313 N 
ATOM     14  C   UNL A   1      30.850  23.552  26.622  1.00  0.00     0.257 C 
ATOM     15  H   UNL A   1      29.128  24.562  26.239  1.00  0.00     0.171 HD
ATOM     16  O   UNL A   1      30.440  22.961  27.616  1.00  0.00    -0.269 OA
BRANCH  14  17
ATOM     17  C   UNL A   1      32.285  23.439  26.283  1.00  0.00     0.058 A 
ATOM     18  C   UNL A   1      33.131  24.553  26.278  1.00  0.00     0.018 A 
ATOM     19  C   UNL A   1      32.787  22.225  25.845  1.00  0.00     0.126 A 
ATOM     20  C   UNL A   1      34.418  24.425  25.754  1.00  0.00     0.037 A 
ATOM     21  N   UNL A   1      34.038  22.077  25.343  1.00  0.00    -0.249 NA
ATOM     22  C   UNL A   1      34.819  23.180  25.288  1.00  0.00     0.106 A 
ATOM     23  Br  UNL A   1      36.528  23.019  24.483  1.00  0.00    -0.029 Br
ENDBRANCH  14  17
ENDBRANCH  11  13
ENDBRANCH   4   7
ENDBRANCH   2   3
ENDBRANCH   1   2
BRANCH   1  24
ATOM     24  C   UNL A   1      33.349  29.010  24.865  1.00  0.00     0.118 C 
BRANCH  24  25
ATOM     25  N   UNL A   1      32.693  30.184  25.422  1.00  0.00    -0.352 N 
ATOM     26  C   UNL A   1      32.917  30.857  26.597  1.00  0.00     0.251 C 
ATOM     27  H   UNL A   1      31.971  30.556  24.865  1.00  0.00     0.163 HD
ATOM     28  O   UNL A   1      32.066  31.651  26.993  1.00  0.00    -0.269 OA
BRANCH  26  29
ATOM     29  C   UNL A   1      34.154  30.642  27.386  1.00  0.00     0.039 A 
ATOM     30  C   UNL A   1      34.387  29.383  27.948  1.00  0.00     0.014 A 
ATOM     31  C   UNL A   1      35.055  31.683  27.630  1.00  0.00     0.014 A 
ATOM     32  C   UNL A   1      35.534  29.159  28.714  1.00  0.00     0.010 A 
ATOM     33  C   UNL A   1      36.244  31.433  28.309  1.00  0.00     0.010 A 
ATOM     34  C   UNL A   1      36.487  30.177  28.878  1.00  0.00    -0.014 A 
BRANCH  34  35
ATOM     35  C   UNL A   1      37.733  29.957  29.656  1.00  0.00     0.031 A 
ATOM     36  C   UNL A   1      38.811  29.049  29.120  1.00  0.00     0.074 A 
ATOM     37  C   UNL A   1      37.857  30.504  30.881  1.00  0.00     0.049 A 
ATOM     38  N   UNL A   1      39.932  28.680  29.683  1.00  0.00    -0.248 NA
ATOM     39  C   UNL A   1      38.583  28.452  27.794  1.00  0.00     0.031 C 
ATOM     40  C   UNL A   1      36.847  31.333  31.543  1.00  0.00     0.029 A 
ATOM     41  N   UNL A   1      38.872  30.422  31.801  1.00  0.00    -0.354 N 
ATOM     42  C   UNL A   1      40.521  27.781  28.801  1.00  0.00     0.074 A 
ATOM     43  C   UNL A   1      39.615  27.629  27.684  1.00  0.00     0.031 C 
ATOM     44  C   UNL A   1      37.293  31.686  32.758  1.00  0.00     0.029 A 
ATOM     45  C   UNL A   1      38.606  31.085  32.976  1.00  0.00     0.049 A 
ATOM     46  H   UNL A   1      39.711  29.934  31.635  1.00  0.00     0.167 HD
ATOM     47  C   UNL A   1      41.722  27.161  28.894  1.00  0.00     0.034 A 
ATOM     48  C   UNL A   1      39.334  31.191  34.105  1.00  0.00     0.034 A 
ATOM     49  C   UNL A   1      42.640  27.354  29.984  1.00  0.00     0.049 A 
ATOM     50  C   UNL A   1      40.687  30.537  34.163  1.00  0.00     0.074 A 
ATOM     51  C   UNL A   1      43.917  26.845  30.134  1.00  0.00     0.029 A 
ATOM     52  N   UNL A   1      42.376  28.113  31.114  1.00  0.00    -0.354 N 
ATOM     53  N   UNL A   1      41.293  29.815  33.251  1.00  0.00    -0.248 NA
ATOM     54  C   UNL A   1      41.471  30.742  35.388  1.00  0.00     0.031 C 
ATOM     55  C   UNL A   1      44.418  27.280  31.366  1.00  0.00     0.029 A 
ATOM     56  C   UNL A   1      43.463  28.082  31.970  1.00  0.00     0.049 A 
ATOM     57  H   UNL A   1      41.538  28.601  31.283  1.00  0.00     0.167 HD
ATOM     58  C   UNL A   1      42.543  29.510  33.777  1.00  0.00     0.074 A 
ATOM     59  C   UNL A   1      42.614  30.144  35.078  1.00  0.00     0.031 C 
ATOM     60  C   UNL A   1      43.537  28.760  33.238  1.00  0.00     0.034 A 
BRANCH  47  61
ATOM     61  C   UNL A   1      42.137  26.260  27.759  1.00  0.00     0.023 A 
ATOM     62  C   UNL A   1      42.940  26.775  26.721  1.00  0.00     0.012 A 
ATOM     63  C   UNL A   1      41.781  24.897  27.743  1.00  0.00     0.148 A 
ATOM     64  C   UNL A   1      43.349  25.961  25.665  1.00  0.00     0.002 A 
ATOM     65  C   UNL A   1      42.232  24.080  26.713  1.00  0.00     0.091 A 
ATOM     66  F   UNL A   1      40.999  24.428  28.727  1.00  0.00    -0.205 F 
ATOM     67  C   UNL A   1      43.004  24.613  25.667  1.00  0.00     0.022 A 
BRANCH  65  68
ATOM     68  S   UNL A   1      41.909  22.314  26.662  1.00  0.00     0.127 S 
ATOM     69  O   UNL A   1      42.638  21.846  27.840  1.00  0.00    -0.237 OA
ATOM     70  O   UNL A   1      40.451  22.264  26.787  1.00  0.00    -0.237 OA
ATOM     71  O   UNL A   1      42.424  21.848  25.382  1.00  0.00    -0.744 OA
ENDBRANCH  65  68
ENDBRANCH  47  61
BRANCH  48  72
ATOM     72  C   UNL A   1      38.822  32.005  35.243  1.00  0.00     0.023 A 
ATOM     73  C   UNL A   1      38.826  33.410  35.145  1.00  0.00     0.012 A 
ATOM     74  C   UNL A   1      38.297  31.399  36.401  1.00  0.00     0.148 A 
ATOM     75  C   UNL A   1      38.347  34.198  36.192  1.00  0.00     0.002 A 
ATOM     76  C   UNL A   1      37.768  32.188  37.415  1.00  0.00     0.091 A 
ATOM     77  F   UNL A   1      38.309  30.062  36.478  1.00  0.00    -0.205 F 
ATOM     78  C   UNL A   1      37.808  33.588  37.321  1.00  0.00     0.022 A 
BRANCH  76  79
ATOM     79  S   UNL A   1      36.933  31.488  38.843  1.00  0.00     0.127 S 
ATOM     80  O   UNL A   1      37.920  31.696  39.899  1.00  0.00    -0.237 OA
ATOM     81  O   UNL A   1      35.740  32.330  38.937  1.00  0.00    -0.237 OA
ATOM     82  O   UNL A   1      36.659  30.099  38.495  1.00  0.00    -0.744 OA
ENDBRANCH  76  79
ENDBRANCH  48  72
BRANCH  60  83
ATOM     83  C   UNL A   1      44.807  28.611  34.035  1.00  0.00     0.023 A 
ATOM     84  C   UNL A   1      45.852  29.541  33.868  1.00  0.00     0.012 A 
ATOM     85  C   UNL A   1      44.932  27.592  34.999  1.00  0.00     0.148 A 
ATOM     86  C   UNL A   1      47.017  29.437  34.627  1.00  0.00     0.002 A 
ATOM     87  C   UNL A   1      46.073  27.527  35.787  1.00  0.00     0.091 A 
ATOM     88  F   UNL A   1      43.933  26.706  35.127  1.00  0.00    -0.205 F 
ATOM     89  C   UNL A   1      47.123  28.440  35.593  1.00  0.00     0.022 A 
BRANCH  87  90
ATOM     90  S   UNL A   1      46.255  26.337  37.121  1.00  0.00     0.127 S 
ATOM     91  O   UNL A   1      45.091  26.639  37.951  1.00  0.00    -0.237 OA
ATOM     92  O   UNL A   1      46.184  25.061  36.410  1.00  0.00    -0.237 OA
ATOM     93  O   UNL A   1      47.547  26.616  37.732  1.00  0.00    -0.744 OA
ENDBRANCH  87  90
ENDBRANCH  60  83
ENDBRANCH  34  35
ENDBRANCH  26  29
ENDBRANCH  24  25
ENDBRANCH   1  24
TORSDOF 15
ENDMDL
