MODEL 1
REMARK VINA RESULT:     -11.8      0.000      0.000
REMARK SMILES O=C(Cc1cccn(C(F)F)c1=O)NCCCNC(=O)c1ccc(-c2c3nc(c(-c4cccc(S(=O)(=O)[O-])c4F)c4ccc([nH]4)c(-c4cccc(S(=O)(=O)[O-])c4F)c4nc(c(-c5cccc(S(=O)(=O)[O-])c5F)c5ccc2[nH]5)C=C4)C=C3)cc1
REMARK SMILES IDX 16 1 15 2 14 3 1 4 2 5 3 7 4 8 5 9 12 10 6 11 8 12 13 13
REMARK SMILES IDX 7 14 9 15 10 16 11 17 17 18 18 19 19 20 20 22 21 23 22 24
REMARK SMILES IDX 83 25 23 26 82 27 24 28 25 29 26 30 76 31 27 32 81 33 75 34
REMARK SMILES IDX 77 35 28 36 80 37 74 38 73 39 29 41 61 42 41 43 60 44 42 45
REMARK SMILES IDX 45 46 59 47 78 48 43 49 44 50 58 52 79 53 46 54 30 55 31 56
REMARK SMILES IDX 39 57 32 58 34 59 40 60 33 61 35 62 36 63 37 64 38 65 62 66
REMARK SMILES IDX 63 67 71 68 64 69 66 70 72 71 65 72 67 73 68 74 69 75 70 76
REMARK SMILES IDX 47 77 48 78 56 79 49 80 51 81 57 82 50 83 52 84 53 85 54 86
REMARK SMILES IDX 55 87
REMARK H PARENT 14 6 18 21 77 40 45 51
REMARK Flexibility Score: inf
ROOT
ATOM      1  C   UNL A   1      33.045  29.357  24.395  1.00  0.00     0.042 C 
ENDROOT
BRANCH   1   2
ATOM      2  C   UNL A   1      32.482  28.174  23.627  1.00  0.00     0.117 C 
BRANCH   2   3
ATOM      3  N   UNL A   1      31.171  28.448  23.071  1.00  0.00    -0.356 N 
ATOM      4  O   UNL A   1      29.992  27.098  24.523  1.00  0.00    -0.275 OA
ATOM      5  C   UNL A   1      30.019  27.973  23.663  1.00  0.00     0.224 C 
ATOM      6  H   UNL A   1      31.101  28.987  22.251  1.00  0.00     0.163 HD
BRANCH   5   7
ATOM      7  C   UNL A   1      28.742  28.607  23.124  1.00  0.00     0.141 C 
BRANCH   7   8
ATOM      8  C   UNL A   1      28.767  30.089  22.841  1.00  0.00     0.027 A 
ATOM      9  C   UNL A   1      29.179  30.949  23.794  1.00  0.00     0.011 A 
ATOM     10  C   UNL A   1      28.299  30.670  21.532  1.00  0.00     0.258 A 
ATOM     11  C   UNL A   1      29.144  32.375  23.602  1.00  0.00     0.019 A 
ATOM     12  N   UNL A   1      28.168  32.047  21.480  1.00  0.00    -0.258 N 
ATOM     13  O   UNL A   1      28.018  29.958  20.573  1.00  0.00    -0.269 OA
ATOM     14  C   UNL A   1      28.617  32.879  22.483  1.00  0.00     0.095 A 
BRANCH  12  15
ATOM     15  C   UNL A   1      27.591  32.615  20.287  1.00  0.00     0.451 C 
ATOM     16  F   UNL A   1      27.229  33.905  20.527  1.00  0.00    -0.185 F 
ATOM     17  F   UNL A   1      28.531  32.663  19.305  1.00  0.00    -0.185 F 
ENDBRANCH  12  15
ENDBRANCH   7   8
ENDBRANCH   5   7
ENDBRANCH   2   3
ENDBRANCH   1   2
BRANCH   1  18
ATOM     18  C   UNL A   1      32.700  29.360  25.878  1.00  0.00     0.118 C 
BRANCH  18  19
ATOM     19  N   UNL A   1      32.378  30.679  26.412  1.00  0.00    -0.352 N 
ATOM     20  C   UNL A   1      33.146  31.505  27.206  1.00  0.00     0.251 C 
ATOM     21  H   UNL A   1      31.489  31.028  26.172  1.00  0.00     0.163 HD
ATOM     22  O   UNL A   1      32.682  32.556  27.636  1.00  0.00    -0.269 OA
BRANCH  20  23
ATOM     23  C   UNL A   1      34.512  31.077  27.574  1.00  0.00     0.039 A 
ATOM     24  C   UNL A   1      34.776  29.736  27.862  1.00  0.00     0.014 A 
ATOM     25  C   UNL A   1      35.505  32.045  27.742  1.00  0.00     0.014 A 
ATOM     26  C   UNL A   1      35.949  29.401  28.527  1.00  0.00     0.010 A 
ATOM     27  C   UNL A   1      36.725  31.684  28.319  1.00  0.00     0.010 A 
ATOM     28  C   UNL A   1      36.930  30.373  28.783  1.00  0.00    -0.014 A 
BRANCH  28  29
ATOM     29  C   UNL A   1      38.148  30.013  29.553  1.00  0.00     0.031 A 
ATOM     30  C   UNL A   1      39.180  29.077  28.975  1.00  0.00     0.074 A 
ATOM     31  C   UNL A   1      38.343  30.554  30.772  1.00  0.00     0.049 A 
ATOM     32  N   UNL A   1      40.275  28.620  29.528  1.00  0.00    -0.248 NA
ATOM     33  C   UNL A   1      38.960  28.588  27.602  1.00  0.00     0.031 C 
ATOM     34  C   UNL A   1      37.424  31.478  31.440  1.00  0.00     0.029 A 
ATOM     35  N   UNL A   1      39.374  30.407  31.664  1.00  0.00    -0.354 N 
ATOM     36  C   UNL A   1      40.846  27.759  28.598  1.00  0.00     0.074 A 
ATOM     37  C   UNL A   1      39.981  27.756  27.439  1.00  0.00     0.031 C 
ATOM     38  C   UNL A   1      37.943  31.834  32.624  1.00  0.00     0.029 A 
ATOM     39  C   UNL A   1      39.197  31.117  32.827  1.00  0.00     0.049 A 
ATOM     40  H   UNL A   1      40.164  29.846  31.488  1.00  0.00     0.167 HD
ATOM     41  C   UNL A   1      41.994  27.048  28.695  1.00  0.00     0.034 A 
ATOM     42  C   UNL A   1      39.941  31.170  33.948  1.00  0.00     0.034 A 
ATOM     43  C   UNL A   1      42.881  27.090  29.826  1.00  0.00     0.049 A 
ATOM     44  C   UNL A   1      41.204  30.367  34.032  1.00  0.00     0.074 A 
ATOM     45  C   UNL A   1      44.086  26.429  29.993  1.00  0.00     0.029 A 
ATOM     46  N   UNL A   1      42.668  27.834  30.975  1.00  0.00    -0.354 N 
ATOM     47  N   UNL A   1      41.746  29.593  33.123  1.00  0.00    -0.248 NA
ATOM     48  C   UNL A   1      41.967  30.452  35.285  1.00  0.00     0.031 C 
ATOM     49  C   UNL A   1      44.597  26.764  31.250  1.00  0.00     0.029 A 
ATOM     50  C   UNL A   1      43.720  27.649  31.855  1.00  0.00     0.049 A 
ATOM     51  H   UNL A   1      41.886  28.407  31.140  1.00  0.00     0.167 HD
ATOM     52  C   UNL A   1      42.923  29.119  33.683  1.00  0.00     0.074 A 
ATOM     53  C   UNL A   1      43.023  29.699  35.007  1.00  0.00     0.031 C 
ATOM     54  C   UNL A   1      43.834  28.270  33.149  1.00  0.00     0.034 A 
BRANCH  41  55
ATOM     55  C   UNL A   1      42.399  26.181  27.533  1.00  0.00     0.023 A 
ATOM     56  C   UNL A   1      43.285  26.693  26.565  1.00  0.00     0.012 A 
ATOM     57  C   UNL A   1      42.007  24.829  27.472  1.00  0.00     0.148 A 
ATOM     58  C   UNL A   1      43.772  25.872  25.547  1.00  0.00     0.002 A 
ATOM     59  C   UNL A   1      42.520  24.010  26.472  1.00  0.00     0.091 A 
ATOM     60  F   UNL A   1      41.156  24.370  28.400  1.00  0.00    -0.205 F 
ATOM     61  C   UNL A   1      43.399  24.530  25.509  1.00  0.00     0.022 A 
BRANCH  59  62
ATOM     62  S   UNL A   1      42.152  22.254  26.367  1.00  0.00     0.127 S 
ATOM     63  O   UNL A   1      40.707  22.269  26.143  1.00  0.00    -0.237 OA
ATOM     64  O   UNL A   1      42.945  21.845  25.208  1.00  0.00    -0.237 OA
ATOM     65  O   UNL A   1      42.574  21.675  27.635  1.00  0.00    -0.744 OA
ENDBRANCH  59  62
ENDBRANCH  41  55
BRANCH  42  66
ATOM     66  C   UNL A   1      39.505  32.053  35.062  1.00  0.00     0.023 A 
ATOM     67  C   UNL A   1      39.691  33.443  34.951  1.00  0.00     0.012 A 
ATOM     68  C   UNL A   1      38.828  31.529  36.180  1.00  0.00     0.148 A 
ATOM     69  C   UNL A   1      39.211  34.300  35.941  1.00  0.00     0.002 A 
ATOM     70  C   UNL A   1      38.315  32.391  37.140  1.00  0.00     0.091 A 
ATOM     71  F   UNL A   1      38.667  30.201  36.257  1.00  0.00    -0.205 F 
ATOM     72  C   UNL A   1      38.514  33.776  37.028  1.00  0.00     0.022 A 
BRANCH  70  73
ATOM     73  S   UNL A   1      37.308  31.823  38.514  1.00  0.00     0.127 S 
ATOM     74  O   UNL A   1      38.196  32.059  39.651  1.00  0.00    -0.237 OA
ATOM     75  O   UNL A   1      36.158  32.723  38.430  1.00  0.00    -0.237 OA
ATOM     76  O   UNL A   1      37.007  30.426  38.235  1.00  0.00    -0.744 OA
ENDBRANCH  70  73
ENDBRANCH  42  66
BRANCH  54  77
ATOM     77  C   UNL A   1      45.046  27.929  33.967  1.00  0.00     0.023 A 
ATOM     78  C   UNL A   1      46.170  28.777  33.934  1.00  0.00     0.012 A 
ATOM     79  C   UNL A   1      45.024  26.835  34.854  1.00  0.00     0.148 A 
ATOM     80  C   UNL A   1      47.260  28.534  34.767  1.00  0.00     0.002 A 
ATOM     81  C   UNL A   1      46.099  26.621  35.707  1.00  0.00     0.091 A 
ATOM     82  F   UNL A   1      43.944  26.040  34.858  1.00  0.00    -0.205 F 
ATOM     83  C   UNL A   1      47.220  27.465  35.661  1.00  0.00     0.022 A 
BRANCH  81  84
ATOM     84  S   UNL A   1      46.109  25.316  36.941  1.00  0.00     0.127 S 
ATOM     85  O   UNL A   1      44.942  25.666  37.753  1.00  0.00    -0.237 OA
ATOM     86  O   UNL A   1      45.945  24.115  36.122  1.00  0.00    -0.237 OA
ATOM     87  O   UNL A   1      47.390  25.416  37.627  1.00  0.00    -0.744 OA
ENDBRANCH  81  84
ENDBRANCH  54  77
ENDBRANCH  28  29
ENDBRANCH  20  23
ENDBRANCH  18  19
ENDBRANCH   1  18
TORSDOF 15
ENDMDL
MODEL 2
REMARK VINA RESULT:     -11.7      1.686      8.036
REMARK SMILES O=C(Cc1cccn(C(F)F)c1=O)NCCCNC(=O)c1ccc(-c2c3nc(c(-c4cccc(S(=O)(=O)[O-])c4F)c4ccc([nH]4)c(-c4cccc(S(=O)(=O)[O-])c4F)c4nc(c(-c5cccc(S(=O)(=O)[O-])c5F)c5ccc2[nH]5)C=C4)C=C3)cc1
REMARK SMILES IDX 16 1 15 2 14 3 1 4 2 5 3 7 4 8 5 9 12 10 6 11 8 12 13 13
REMARK SMILES IDX 7 14 9 15 10 16 11 17 17 18 18 19 19 20 20 22 21 23 22 24
REMARK SMILES IDX 83 25 23 26 82 27 24 28 25 29 26 30 76 31 27 32 81 33 75 34
REMARK SMILES IDX 77 35 28 36 80 37 74 38 73 39 29 41 61 42 41 43 60 44 42 45
REMARK SMILES IDX 45 46 59 47 78 48 43 49 44 50 58 52 79 53 46 54 30 55 31 56
REMARK SMILES IDX 39 57 32 58 34 59 40 60 33 61 35 62 36 63 37 64 38 65 62 66
REMARK SMILES IDX 63 67 71 68 64 69 66 70 72 71 65 72 67 73 68 74 69 75 70 76
REMARK SMILES IDX 47 77 48 78 56 79 49 80 51 81 57 82 50 83 52 84 53 85 54 86
REMARK SMILES IDX 55 87
REMARK H PARENT 14 6 18 21 77 40 45 51
REMARK Flexibility Score: inf
ROOT
ATOM      1  C   UNL A   1      31.636  28.969  27.351  1.00  0.00     0.042 C 
ENDROOT
BRANCH   1   2
ATOM      2  C   UNL A   1      31.926  27.495  27.131  1.00  0.00     0.117 C 
BRANCH   2   3
ATOM      3  N   UNL A   1      31.560  27.051  25.799  1.00  0.00    -0.356 N 
ATOM      4  O   UNL A   1      29.922  25.571  26.466  1.00  0.00    -0.275 OA
ATOM      5  C   UNL A   1      30.488  26.210  25.584  1.00  0.00     0.224 C 
ATOM      6  H   UNL A   1      32.090  27.359  25.029  1.00  0.00     0.163 HD
BRANCH   5   7
ATOM      7  C   UNL A   1      30.073  26.100  24.122  1.00  0.00     0.141 C 
BRANCH   7   8
ATOM      8  C   UNL A   1      29.966  27.381  23.331  1.00  0.00     0.027 A 
ATOM      9  C   UNL A   1      31.063  27.904  22.748  1.00  0.00     0.011 A 
ATOM     10  C   UNL A   1      28.673  28.144  23.198  1.00  0.00     0.258 A 
ATOM     11  C   UNL A   1      31.030  29.165  22.053  1.00  0.00     0.019 A 
ATOM     12  N   UNL A   1      28.758  29.406  22.636  1.00  0.00    -0.258 N 
ATOM     13  O   UNL A   1      27.608  27.684  23.597  1.00  0.00    -0.269 OA
ATOM     14  C   UNL A   1      29.907  29.886  22.044  1.00  0.00     0.095 A 
BRANCH  12  15
ATOM     15  C   UNL A   1      27.560  30.209  22.625  1.00  0.00     0.451 C 
ATOM     16  F   UNL A   1      27.386  30.781  23.848  1.00  0.00    -0.185 F 
ATOM     17  F   UNL A   1      27.708  31.236  21.747  1.00  0.00    -0.185 F 
ENDBRANCH  12  15
ENDBRANCH   7   8
ENDBRANCH   5   7
ENDBRANCH   2   3
ENDBRANCH   1   2
BRANCH   1  18
ATOM     18  C   UNL A   1      32.394  29.901  26.415  1.00  0.00     0.118 C 
BRANCH  18  19
ATOM     19  N   UNL A   1      32.259  31.316  26.745  1.00  0.00    -0.352 N 
ATOM     20  C   UNL A   1      33.167  32.155  27.357  1.00  0.00     0.251 C 
ATOM     21  H   UNL A   1      31.401  31.729  26.497  1.00  0.00     0.163 HD
ATOM     22  O   UNL A   1      32.855  33.308  27.634  1.00  0.00    -0.269 OA
BRANCH  20  23
ATOM     23  C   UNL A   1      34.499  31.625  27.721  1.00  0.00     0.039 A 
ATOM     24  C   UNL A   1      34.675  30.258  27.946  1.00  0.00     0.014 A 
ATOM     25  C   UNL A   1      35.547  32.520  27.947  1.00  0.00     0.014 A 
ATOM     26  C   UNL A   1      35.815  29.819  28.609  1.00  0.00     0.010 A 
ATOM     27  C   UNL A   1      36.733  32.057  28.522  1.00  0.00     0.010 A 
ATOM     28  C   UNL A   1      36.849  30.715  28.924  1.00  0.00    -0.014 A 
BRANCH  28  29
ATOM     29  C   UNL A   1      38.031  30.243  29.692  1.00  0.00     0.031 A 
ATOM     30  C   UNL A   1      38.263  30.700  31.111  1.00  0.00     0.074 A 
ATOM     31  C   UNL A   1      38.887  29.374  29.120  1.00  0.00     0.049 A 
ATOM     32  N   UNL A   1      39.265  30.424  31.909  1.00  0.00    -0.248 NA
ATOM     33  C   UNL A   1      37.246  31.577  31.717  1.00  0.00     0.031 C 
ATOM     34  C   UNL A   1      38.770  28.851  27.757  1.00  0.00     0.029 A 
ATOM     35  N   UNL A   1      40.021  28.777  29.609  1.00  0.00    -0.354 N 
ATOM     36  C   UNL A   1      39.026  31.126  33.084  1.00  0.00     0.074 A 
ATOM     37  C   UNL A   1      37.781  31.841  32.903  1.00  0.00     0.031 C 
ATOM     38  C   UNL A   1      39.775  27.994  27.528  1.00  0.00     0.029 A 
ATOM     39  C   UNL A   1      40.642  27.956  28.700  1.00  0.00     0.049 A 
ATOM     40  H   UNL A   1      40.356  28.925  30.523  1.00  0.00     0.167 HD
ATOM     41  C   UNL A   1      39.767  31.161  34.216  1.00  0.00     0.034 A 
ATOM     42  C   UNL A   1      41.795  27.265  28.783  1.00  0.00     0.034 A 
ATOM     43  C   UNL A   1      40.977  30.409  34.416  1.00  0.00     0.049 A 
ATOM     44  C   UNL A   1      42.601  27.326  30.045  1.00  0.00     0.074 A 
ATOM     45  C   UNL A   1      41.774  30.356  35.546  1.00  0.00     0.029 A 
ATOM     46  N   UNL A   1      41.561  29.579  33.473  1.00  0.00    -0.354 N 
ATOM     47  N   UNL A   1      42.333  27.963  31.159  1.00  0.00    -0.248 NA
ATOM     48  C   UNL A   1      43.858  26.564  30.072  1.00  0.00     0.031 C 
ATOM     49  C   UNL A   1      42.848  29.502  35.284  1.00  0.00     0.029 A 
ATOM     50  C   UNL A   1      42.708  29.009  33.997  1.00  0.00     0.049 A 
ATOM     51  H   UNL A   1      41.213  29.421  32.567  1.00  0.00     0.167 HD
ATOM     52  C   UNL A   1      43.373  27.661  32.027  1.00  0.00     0.074 A 
ATOM     53  C   UNL A   1      44.272  26.776  31.315  1.00  0.00     0.031 C 
ATOM     54  C   UNL A   1      43.568  28.090  33.297  1.00  0.00     0.034 A 
BRANCH  41  55
ATOM     55  C   UNL A   1      39.284  32.007  35.363  1.00  0.00     0.023 A 
ATOM     56  C   UNL A   1      38.459  31.431  36.348  1.00  0.00     0.012 A 
ATOM     57  C   UNL A   1      39.750  33.326  35.530  1.00  0.00     0.148 A 
ATOM     58  C   UNL A   1      38.098  32.157  37.483  1.00  0.00     0.002 A 
ATOM     59  C   UNL A   1      39.412  34.033  36.679  1.00  0.00     0.091 A 
ATOM     60  F   UNL A   1      40.527  33.854  34.574  1.00  0.00    -0.205 F 
ATOM     61  C   UNL A   1      38.584  33.452  37.653  1.00  0.00     0.022 A 
BRANCH  59  62
ATOM     62  S   UNL A   1      40.031  35.684  37.025  1.00  0.00     0.127 S 
ATOM     63  O   UNL A   1      41.473  35.448  37.097  1.00  0.00    -0.237 OA
ATOM     64  O   UNL A   1      39.593  36.429  35.844  1.00  0.00    -0.237 OA
ATOM     65  O   UNL A   1      39.410  36.096  38.276  1.00  0.00    -0.744 OA
ENDBRANCH  59  62
ENDBRANCH  41  55
BRANCH  42  66
ATOM     66  C   UNL A   1      42.222  26.432  27.628  1.00  0.00     0.023 A 
ATOM     67  C   UNL A   1      43.086  26.983  26.664  1.00  0.00     0.012 A 
ATOM     68  C   UNL A   1      41.850  25.077  27.534  1.00  0.00     0.148 A 
ATOM     69  C   UNL A   1      43.572  26.197  25.620  1.00  0.00     0.002 A 
ATOM     70  C   UNL A   1      42.372  24.289  26.516  1.00  0.00     0.091 A 
ATOM     71  F   UNL A   1      41.026  24.581  28.467  1.00  0.00    -0.205 F 
ATOM     72  C   UNL A   1      43.226  24.850  25.553  1.00  0.00     0.022 A 
BRANCH  70  73
ATOM     73  S   UNL A   1      42.076  22.521  26.411  1.00  0.00     0.127 S 
ATOM     74  O   UNL A   1      40.618  22.469  26.325  1.00  0.00    -0.237 OA
ATOM     75  O   UNL A   1      42.781  22.176  25.177  1.00  0.00    -0.237 OA
ATOM     76  O   UNL A   1      42.652  21.949  27.621  1.00  0.00    -0.744 OA
ENDBRANCH  70  73
ENDBRANCH  42  66
BRANCH  54  77
ATOM     77  C   UNL A   1      44.779  27.591  34.032  1.00  0.00     0.023 A 
ATOM     78  C   UNL A   1      45.969  28.342  34.005  1.00  0.00     0.012 A 
ATOM     79  C   UNL A   1      44.698  26.441  34.841  1.00  0.00     0.148 A 
ATOM     80  C   UNL A   1      47.068  27.949  34.767  1.00  0.00     0.002 A 
ATOM     81  C   UNL A   1      45.785  26.076  35.626  1.00  0.00     0.091 A 
ATOM     82  F   UNL A   1      43.555  25.740  34.840  1.00  0.00    -0.205 F 
ATOM     83  C   UNL A   1      46.972  26.825  35.585  1.00  0.00     0.022 A 
BRANCH  81  84
ATOM     84  S   UNL A   1      45.732  24.688  36.765  1.00  0.00     0.127 S 
ATOM     85  O   UNL A   1      44.627  25.068  37.645  1.00  0.00    -0.237 OA
ATOM     86  O   UNL A   1      45.444  23.566  35.871  1.00  0.00    -0.237 OA
ATOM     87  O   UNL A   1      47.041  24.638  37.403  1.00  0.00    -0.744 OA
ENDBRANCH  81  84
ENDBRANCH  54  77
ENDBRANCH  28  29
ENDBRANCH  20  23
ENDBRANCH  18  19
ENDBRANCH   1  18
TORSDOF 15
ENDMDL
MODEL 3
REMARK VINA RESULT:     -11.6      5.761      7.995
REMARK SMILES O=C(Cc1cccn(C(F)F)c1=O)NCCCNC(=O)c1ccc(-c2c3nc(c(-c4cccc(S(=O)(=O)[O-])c4F)c4ccc([nH]4)c(-c4cccc(S(=O)(=O)[O-])c4F)c4nc(c(-c5cccc(S(=O)(=O)[O-])c5F)c5ccc2[nH]5)C=C4)C=C3)cc1
REMARK SMILES IDX 16 1 15 2 14 3 1 4 2 5 3 7 4 8 5 9 12 10 6 11 8 12 13 13
REMARK SMILES IDX 7 14 9 15 10 16 11 17 17 18 18 19 19 20 20 22 21 23 22 24
REMARK SMILES IDX 83 25 23 26 82 27 24 28 25 29 26 30 76 31 27 32 81 33 75 34
REMARK SMILES IDX 77 35 28 36 80 37 74 38 73 39 29 41 61 42 41 43 60 44 42 45
REMARK SMILES IDX 45 46 59 47 78 48 43 49 44 50 58 52 79 53 46 54 30 55 31 56
REMARK SMILES IDX 39 57 32 58 34 59 40 60 33 61 35 62 36 63 37 64 38 65 62 66
REMARK SMILES IDX 63 67 71 68 64 69 66 70 72 71 65 72 67 73 68 74 69 75 70 76
REMARK SMILES IDX 47 77 48 78 56 79 49 80 51 81 57 82 50 83 52 84 53 85 54 86
REMARK SMILES IDX 55 87
REMARK H PARENT 14 6 18 21 77 40 45 51
REMARK Flexibility Score: inf
ROOT
ATOM      1  C   UNL A   1      35.999  21.505  25.762  1.00  0.00     0.042 C 
ENDROOT
BRANCH   1   2
ATOM      2  C   UNL A   1      34.858  21.004  24.896  1.00  0.00     0.117 C 
BRANCH   2   3
ATOM      3  N   UNL A   1      34.410  21.998  23.939  1.00  0.00    -0.356 N 
ATOM      4  O   UNL A   1      32.232  21.255  23.800  1.00  0.00    -0.275 OA
ATOM      5  C   UNL A   1      33.085  22.106  23.572  1.00  0.00     0.224 C 
ATOM      6  H   UNL A   1      35.070  22.610  23.541  1.00  0.00     0.163 HD
BRANCH   5   7
ATOM      7  C   UNL A   1      32.759  23.383  22.806  1.00  0.00     0.141 C 
BRANCH   7   8
ATOM      8  C   UNL A   1      33.151  24.695  23.442  1.00  0.00     0.027 A 
ATOM      9  C   UNL A   1      33.182  24.808  24.784  1.00  0.00     0.011 A 
ATOM     10  C   UNL A   1      33.470  25.923  22.630  1.00  0.00     0.258 A 
ATOM     11  C   UNL A   1      33.468  26.058  25.439  1.00  0.00     0.019 A 
ATOM     12  N   UNL A   1      33.599  27.110  23.332  1.00  0.00    -0.258 N 
ATOM     13  O   UNL A   1      33.578  25.880  21.409  1.00  0.00    -0.269 OA
ATOM     14  C   UNL A   1      33.633  27.164  24.709  1.00  0.00     0.095 A 
BRANCH  12  15
ATOM     15  C   UNL A   1      33.766  28.319  22.565  1.00  0.00     0.451 C 
ATOM     16  F   UNL A   1      32.892  29.263  23.009  1.00  0.00    -0.185 F 
ATOM     17  F   UNL A   1      35.009  28.826  22.780  1.00  0.00    -0.185 F 
ENDBRANCH  12  15
ENDBRANCH   7   8
ENDBRANCH   5   7
ENDBRANCH   2   3
ENDBRANCH   1   2
BRANCH   1  18
ATOM     18  C   UNL A   1      37.317  21.677  25.020  1.00  0.00     0.118 C 
BRANCH  18  19
ATOM     19  N   UNL A   1      38.322  20.671  25.349  1.00  0.00    -0.352 N 
ATOM     20  C   UNL A   1      39.474  20.805  26.095  1.00  0.00     0.251 C 
ATOM     21  H   UNL A   1      38.154  19.771  24.988  1.00  0.00     0.163 HD
ATOM     22  O   UNL A   1      40.254  19.866  26.204  1.00  0.00    -0.269 OA
BRANCH  20  23
ATOM     23  C   UNL A   1      39.778  22.114  26.713  1.00  0.00     0.039 A 
ATOM     24  C   UNL A   1      39.161  23.275  26.242  1.00  0.00     0.014 A 
ATOM     25  C   UNL A   1      40.771  22.189  27.693  1.00  0.00     0.014 A 
ATOM     26  C   UNL A   1      39.692  24.514  26.581  1.00  0.00     0.010 A 
ATOM     27  C   UNL A   1      41.233  23.440  28.107  1.00  0.00     0.010 A 
ATOM     28  C   UNL A   1      40.748  24.611  27.502  1.00  0.00    -0.014 A 
BRANCH  28  29
ATOM     29  C   UNL A   1      41.349  25.937  27.802  1.00  0.00     0.031 A 
ATOM     30  C   UNL A   1      42.745  26.275  27.343  1.00  0.00     0.074 A 
ATOM     31  C   UNL A   1      40.623  26.856  28.469  1.00  0.00     0.049 A 
ATOM     32  N   UNL A   1      43.440  27.364  27.559  1.00  0.00    -0.248 NA
ATOM     33  C   UNL A   1      43.458  25.267  26.538  1.00  0.00     0.031 C 
ATOM     34  C   UNL A   1      39.259  26.655  28.962  1.00  0.00     0.029 A 
ATOM     35  N   UNL A   1      40.928  28.139  28.847  1.00  0.00    -0.354 N 
ATOM     36  C   UNL A   1      44.678  27.155  26.963  1.00  0.00     0.074 A 
ATOM     37  C   UNL A   1      44.645  25.836  26.371  1.00  0.00     0.031 C 
ATOM     38  C   UNL A   1      38.835  27.781  29.554  1.00  0.00     0.029 A 
ATOM     39  C   UNL A   1      39.917  28.759  29.540  1.00  0.00     0.049 A 
ATOM     40  H   UNL A   1      41.787  28.571  28.641  1.00  0.00     0.167 HD
ATOM     41  C   UNL A   1      45.741  27.992  26.903  1.00  0.00     0.034 A 
ATOM     42  C   UNL A   1      39.868  29.970  30.127  1.00  0.00     0.034 A 
ATOM     43  C   UNL A   1      45.756  29.323  27.447  1.00  0.00     0.049 A 
ATOM     44  C   UNL A   1      41.060  30.874  30.052  1.00  0.00     0.074 A 
ATOM     45  C   UNL A   1      46.779  30.255  27.399  1.00  0.00     0.029 A 
ATOM     46  N   UNL A   1      44.706  29.915  28.128  1.00  0.00    -0.354 N 
ATOM     47  N   UNL A   1      42.206  30.672  29.447  1.00  0.00    -0.248 NA
ATOM     48  C   UNL A   1      40.954  32.177  30.724  1.00  0.00     0.031 C 
ATOM     49  C   UNL A   1      46.351  31.408  28.062  1.00  0.00     0.029 A 
ATOM     50  C   UNL A   1      45.055  31.200  28.505  1.00  0.00     0.049 A 
ATOM     51  H   UNL A   1      43.841  29.486  28.317  1.00  0.00     0.167 HD
ATOM     52  C   UNL A   1      42.947  31.829  29.644  1.00  0.00     0.074 A 
ATOM     53  C   UNL A   1      42.119  32.733  30.416  1.00  0.00     0.031 C 
ATOM     54  C   UNL A   1      44.206  32.109  29.229  1.00  0.00     0.034 A 
BRANCH  41  55
ATOM     55  C   UNL A   1      46.980  27.524  26.189  1.00  0.00     0.023 A 
ATOM     56  C   UNL A   1      47.868  26.650  26.845  1.00  0.00     0.012 A 
ATOM     57  C   UNL A   1      47.196  27.847  24.834  1.00  0.00     0.148 A 
ATOM     58  C   UNL A   1      48.958  26.105  26.165  1.00  0.00     0.002 A 
ATOM     59  C   UNL A   1      48.266  27.276  24.154  1.00  0.00     0.091 A 
ATOM     60  F   UNL A   1      46.341  28.688  24.236  1.00  0.00    -0.205 F 
ATOM     61  C   UNL A   1      49.149  26.409  24.819  1.00  0.00     0.022 A 
BRANCH  59  62
ATOM     62  S   UNL A   1      48.569  27.554  22.405  1.00  0.00     0.127 S 
ATOM     63  O   UNL A   1      47.373  28.300  22.014  1.00  0.00    -0.237 OA
ATOM     64  O   UNL A   1      49.800  28.343  22.429  1.00  0.00    -0.237 OA
ATOM     65  O   UNL A   1      48.698  26.234  21.802  1.00  0.00    -0.744 OA
ENDBRANCH  59  62
ENDBRANCH  41  55
BRANCH  42  66
ATOM     66  C   UNL A   1      38.614  30.391  30.808  1.00  0.00     0.023 A 
ATOM     67  C   UNL A   1      38.479  30.179  32.192  1.00  0.00     0.012 A 
ATOM     68  C   UNL A   1      37.605  31.080  30.108  1.00  0.00     0.148 A 
ATOM     69  C   UNL A   1      37.352  30.644  32.870  1.00  0.00     0.002 A 
ATOM     70  C   UNL A   1      36.507  31.579  30.797  1.00  0.00     0.091 A 
ATOM     71  F   UNL A   1      37.764  31.267  28.790  1.00  0.00    -0.205 F 
ATOM     72  C   UNL A   1      36.375  31.353  32.176  1.00  0.00     0.022 A 
BRANCH  70  73
ATOM     73  S   UNL A   1      35.254  32.599  30.015  1.00  0.00     0.127 S 
ATOM     74  O   UNL A   1      34.765  31.714  28.961  1.00  0.00    -0.237 OA
ATOM     75  O   UNL A   1      34.321  32.821  31.119  1.00  0.00    -0.237 OA
ATOM     76  O   UNL A   1      35.946  33.796  29.555  1.00  0.00    -0.744 OA
ENDBRANCH  70  73
ENDBRANCH  42  66
BRANCH  54  77
ATOM     77  C   UNL A   1      44.773  33.459  29.561  1.00  0.00     0.023 A 
ATOM     78  C   UNL A   1      45.523  33.629  30.741  1.00  0.00     0.012 A 
ATOM     79  C   UNL A   1      44.660  34.525  28.647  1.00  0.00     0.148 A 
ATOM     80  C   UNL A   1      46.146  34.846  31.011  1.00  0.00     0.002 A 
ATOM     81  C   UNL A   1      45.314  35.723  28.906  1.00  0.00     0.091 A 
ATOM     82  F   UNL A   1      43.932  34.338  27.537  1.00  0.00    -0.205 F 
ATOM     83  C   UNL A   1      46.052  35.888  30.090  1.00  0.00     0.022 A 
BRANCH  81  84
ATOM     84  S   UNL A   1      45.311  37.095  27.747  1.00  0.00     0.127 S 
ATOM     85  O   UNL A   1      45.943  36.493  26.572  1.00  0.00    -0.237 OA
ATOM     86  O   UNL A   1      43.882  37.371  27.598  1.00  0.00    -0.237 OA
ATOM     87  O   UNL A   1      46.074  38.162  28.380  1.00  0.00    -0.744 OA
ENDBRANCH  81  84
ENDBRANCH  54  77
ENDBRANCH  28  29
ENDBRANCH  20  23
ENDBRANCH  18  19
ENDBRANCH   1  18
TORSDOF 15
ENDMDL
