MODEL 1
REMARK VINA RESULT:     -11.2      0.000      0.000
REMARK SMILES CCNC(=O)c1ccc(N(CC(=O)NCCCNC(=O)c2ccc(-c3c4nc(c(-c5cccc(S(=O)(=O)[O-])c5F)c5ccc([nH]5)c(-c5cccc(S(=O)(=O)[O-])c5F)c5nc(c(-c6cccc(S(=O)(=O)[O-])c6F)c6ccc3[nH]6)C=C5)C=C4)cc2)C(C)(C)C)nn1
REMARK SMILES IDX 15 1 14 2 12 3 13 4 11 6 10 7 9 8 6 9 7 10 89 11 8 12 88 13
REMARK SMILES IDX 4 14 3 15 5 17 2 18 1 19 84 20 85 21 86 22 87 23 16 24 17 25
REMARK SMILES IDX 18 26 19 27 20 29 21 30 22 31 83 32 23 33 82 34 24 35 25 36
REMARK SMILES IDX 26 37 76 38 27 39 81 40 75 41 77 42 28 43 80 44 74 45 73 46
REMARK SMILES IDX 29 48 61 49 41 50 60 51 42 52 45 53 59 54 78 55 43 56 44 57
REMARK SMILES IDX 58 59 79 60 46 61 30 62 31 63 39 64 32 65 34 66 40 67 33 68
REMARK SMILES IDX 35 69 36 70 37 71 38 72 62 73 63 74 71 75 64 76 66 77 72 78
REMARK SMILES IDX 65 79 67 80 68 81 69 82 70 83 47 84 48 85 56 86 49 87 51 88
REMARK SMILES IDX 57 89 50 90 52 91 53 92 54 93 55 94
REMARK H PARENT 14 5 3 16 18 28 77 47 45 58
REMARK Flexibility Score: inf
ROOT
ATOM      1  C   UNL A   1      31.747  27.925  26.097  1.00  0.00     0.117 C 
ENDROOT
BRANCH   1   2
ATOM      2  N   UNL A   1      30.970  26.815  26.610  1.00  0.00    -0.354 N 
ATOM      3  C   UNL A   1      30.322  25.825  25.931  1.00  0.00     0.239 C 
ATOM      4  O   UNL A   1      29.895  24.875  26.599  1.00  0.00    -0.273 OA
ATOM      5  H   UNL A   1      30.898  26.769  27.590  1.00  0.00     0.163 HD
BRANCH   3   6
ATOM      6  C   UNL A   1      30.181  25.842  24.400  1.00  0.00     0.218 C 
BRANCH   6   7
ATOM      7  N   UNL A   1      31.461  25.704  23.648  1.00  0.00    -0.341 N 
BRANCH   7   8
ATOM      8  C   UNL A   1      32.157  24.516  23.906  1.00  0.00     0.152 A 
ATOM      9  C   UNL A   1      33.788  22.310  24.455  1.00  0.00     0.150 A 
ATOM     10  C   UNL A   1      33.019  22.310  23.315  1.00  0.00     0.040 A 
ATOM     11  N   UNL A   1      33.691  23.311  25.342  1.00  0.00    -0.143 NA
ATOM     12  C   UNL A   1      32.230  23.433  23.037  1.00  0.00     0.051 A 
ATOM     13  N   UNL A   1      32.857  24.391  25.059  1.00  0.00    -0.132 NA
BRANCH   9  14
ATOM     14  C   UNL A   1      34.771  21.240  24.759  1.00  0.00     0.271 C 
ATOM     15  N   UNL A   1      34.357  20.050  25.318  1.00  0.00    -0.351 N 
ATOM     16  H   UNL A   1      35.083  19.438  25.578  1.00  0.00     0.163 HD
ATOM     17  O   UNL A   1      35.963  21.405  24.505  1.00  0.00    -0.267 OA
BRANCH  15  18
ATOM     18  C   UNL A   1      33.011  19.555  25.586  1.00  0.00     0.113 C 
ATOM     19  C   UNL A   1      32.610  18.493  24.580  1.00  0.00     0.027 C 
ENDBRANCH  15  18
ENDBRANCH   9  14
ENDBRANCH   7   8
BRANCH   7  20
ATOM     20  C   UNL A   1      31.814  26.688  22.567  1.00  0.00     0.034 C 
ATOM     21  C   UNL A   1      31.873  25.985  21.195  1.00  0.00     0.034 C 
ATOM     22  C   UNL A   1      30.850  27.896  22.577  1.00  0.00     0.034 C 
ATOM     23  C   UNL A   1      33.217  27.328  22.740  1.00  0.00     0.034 C 
ENDBRANCH   7  20
ENDBRANCH   6   7
ENDBRANCH   3   6
ENDBRANCH   1   2
BRANCH   1  24
ATOM     24  C   UNL A   1      33.118  28.053  26.752  1.00  0.00     0.042 C 
BRANCH  24  25
ATOM     25  C   UNL A   1      33.995  29.154  26.154  1.00  0.00     0.118 C 
BRANCH  25  26
ATOM     26  N   UNL A   1      33.897  30.410  26.888  1.00  0.00    -0.352 N 
ATOM     27  C   UNL A   1      34.661  30.902  27.916  1.00  0.00     0.251 C 
ATOM     28  H   UNL A   1      33.164  31.002  26.598  1.00  0.00     0.163 HD
ATOM     29  O   UNL A   1      34.286  31.904  28.523  1.00  0.00    -0.269 OA
BRANCH  27  30
ATOM     30  C   UNL A   1      35.920  30.233  28.311  1.00  0.00     0.039 A 
ATOM     31  C   UNL A   1      37.016  30.296  27.444  1.00  0.00     0.014 A 
ATOM     32  C   UNL A   1      36.018  29.522  29.511  1.00  0.00     0.014 A 
ATOM     33  C   UNL A   1      38.232  29.715  27.817  1.00  0.00     0.010 A 
ATOM     34  C   UNL A   1      37.246  28.994  29.906  1.00  0.00     0.010 A 
ATOM     35  C   UNL A   1      38.369  29.096  29.071  1.00  0.00    -0.014 A 
BRANCH  35  36
ATOM     36  C   UNL A   1      39.692  28.620  29.552  1.00  0.00     0.031 A 
ATOM     37  C   UNL A   1      40.437  29.360  30.628  1.00  0.00     0.074 A 
ATOM     38  C   UNL A   1      40.271  27.569  28.937  1.00  0.00     0.049 A 
ATOM     39  N   UNL A   1      41.628  29.122  31.115  1.00  0.00    -0.248 NA
ATOM     40  C   UNL A   1      39.768  30.528  31.222  1.00  0.00     0.031 C 
ATOM     41  C   UNL A   1      39.683  26.814  27.828  1.00  0.00     0.029 A 
ATOM     42  N   UNL A   1      41.494  26.975  29.130  1.00  0.00    -0.354 N 
ATOM     43  C   UNL A   1      41.867  30.124  32.048  1.00  0.00     0.074 A 
ATOM     44  C   UNL A   1      40.704  30.988  32.042  1.00  0.00     0.031 C 
ATOM     45  C   UNL A   1      40.546  25.864  27.436  1.00  0.00     0.029 A 
ATOM     46  C   UNL A   1      41.761  25.962  28.240  1.00  0.00     0.049 A 
ATOM     47  H   UNL A   1      42.119  27.248  29.840  1.00  0.00     0.167 HD
ATOM     48  C   UNL A   1      42.943  30.296  32.854  1.00  0.00     0.034 A 
ATOM     49  C   UNL A   1      42.864  25.206  28.073  1.00  0.00     0.034 A 
ATOM     50  C   UNL A   1      44.082  29.417  32.881  1.00  0.00     0.049 A 
ATOM     51  C   UNL A   1      44.036  25.405  28.993  1.00  0.00     0.074 A 
ATOM     52  C   UNL A   1      45.175  29.454  33.731  1.00  0.00     0.029 A 
ATOM     53  N   UNL A   1      44.287  28.354  32.015  1.00  0.00    -0.354 N 
ATOM     54  N   UNL A   1      44.169  26.251  29.986  1.00  0.00    -0.248 NA
ATOM     55  C   UNL A   1      45.197  24.526  28.793  1.00  0.00     0.031 C 
ATOM     56  C   UNL A   1      46.053  28.430  33.360  1.00  0.00     0.029 A 
ATOM     57  C   UNL A   1      45.497  27.740  32.295  1.00  0.00     0.049 A 
ATOM     58  H   UNL A   1      43.663  28.077  31.305  1.00  0.00     0.167 HD
ATOM     59  C   UNL A   1      45.415  25.989  30.545  1.00  0.00     0.074 A 
ATOM     60  C   UNL A   1      45.985  24.887  29.797  1.00  0.00     0.031 C 
ATOM     61  C   UNL A   1      46.039  26.618  31.571  1.00  0.00     0.034 A 
BRANCH  48  62
ATOM     62  C   UNL A   1      42.920  31.455  33.817  1.00  0.00     0.023 A 
ATOM     63  C   UNL A   1      43.387  32.715  33.394  1.00  0.00     0.012 A 
ATOM     64  C   UNL A   1      42.373  31.318  35.108  1.00  0.00     0.148 A 
ATOM     65  C   UNL A   1      43.339  33.815  34.250  1.00  0.00     0.002 A 
ATOM     66  C   UNL A   1      42.289  32.429  35.940  1.00  0.00     0.091 A 
ATOM     67  F   UNL A   1      41.952  30.107  35.500  1.00  0.00    -0.205 F 
ATOM     68  C   UNL A   1      42.781  33.675  35.517  1.00  0.00     0.022 A 
BRANCH  66  69
ATOM     69  S   UNL A   1      41.518  32.366  37.562  1.00  0.00     0.127 S 
ATOM     70  O   UNL A   1      40.178  31.879  37.233  1.00  0.00    -0.237 OA
ATOM     71  O   UNL A   1      42.360  31.397  38.266  1.00  0.00    -0.237 OA
ATOM     72  O   UNL A   1      41.581  33.720  38.089  1.00  0.00    -0.744 OA
ENDBRANCH  66  69
ENDBRANCH  48  62
BRANCH  49  73
ATOM     73  C   UNL A   1      42.885  24.154  27.016  1.00  0.00     0.023 A 
ATOM     74  C   UNL A   1      43.634  24.366  25.843  1.00  0.00     0.012 A 
ATOM     75  C   UNL A   1      42.213  22.928  27.190  1.00  0.00     0.148 A 
ATOM     76  C   UNL A   1      43.687  23.390  24.847  1.00  0.00     0.002 A 
ATOM     77  C   UNL A   1      42.326  21.934  26.225  1.00  0.00     0.091 A 
ATOM     78  F   UNL A   1      41.494  22.749  28.306  1.00  0.00    -0.205 F 
ATOM     79  C   UNL A   1      43.044  22.170  25.043  1.00  0.00     0.022 A 
BRANCH  77  80
ATOM     80  S   UNL A   1      41.676  20.278  26.479  1.00  0.00     0.127 S 
ATOM     81  O   UNL A   1      40.236  20.506  26.417  1.00  0.00    -0.237 OA
ATOM     82  O   UNL A   1      42.239  19.554  25.338  1.00  0.00    -0.237 OA
ATOM     83  O   UNL A   1      42.198  19.841  27.767  1.00  0.00    -0.744 OA
ENDBRANCH  77  80
ENDBRANCH  49  73
BRANCH  61  84
ATOM     84  C   UNL A   1      47.409  26.126  31.960  1.00  0.00     0.023 A 
ATOM     85  C   UNL A   1      48.541  26.608  31.273  1.00  0.00     0.012 A 
ATOM     86  C   UNL A   1      47.582  25.242  33.043  1.00  0.00     0.148 A 
ATOM     87  C   UNL A   1      49.822  26.192  31.636  1.00  0.00     0.002 A 
ATOM     88  C   UNL A   1      48.864  24.869  33.429  1.00  0.00     0.091 A 
ATOM     89  F   UNL A   1      46.491  24.780  33.672  1.00  0.00    -0.205 F 
ATOM     90  C   UNL A   1      49.983  25.334  32.721  1.00  0.00     0.022 A 
BRANCH  88  91
ATOM     91  S   UNL A   1      49.176  23.838  34.867  1.00  0.00     0.127 S 
ATOM     92  O   UNL A   1      48.551  22.578  34.472  1.00  0.00    -0.237 OA
ATOM     93  O   UNL A   1      50.639  23.806  34.915  1.00  0.00    -0.237 OA
ATOM     94  O   UNL A   1      48.550  24.520  35.993  1.00  0.00    -0.744 OA
ENDBRANCH  88  91
ENDBRANCH  61  84
ENDBRANCH  35  36
ENDBRANCH  27  30
ENDBRANCH  25  26
ENDBRANCH  24  25
ENDBRANCH   1  24
TORSDOF 18
ENDMDL
MODEL 2
REMARK VINA RESULT:     -11.0      5.143      8.668
REMARK SMILES CCNC(=O)c1ccc(N(CC(=O)NCCCNC(=O)c2ccc(-c3c4nc(c(-c5cccc(S(=O)(=O)[O-])c5F)c5ccc([nH]5)c(-c5cccc(S(=O)(=O)[O-])c5F)c5nc(c(-c6cccc(S(=O)(=O)[O-])c6F)c6ccc3[nH]6)C=C5)C=C4)cc2)C(C)(C)C)nn1
REMARK SMILES IDX 15 1 14 2 12 3 13 4 11 6 10 7 9 8 6 9 7 10 89 11 8 12 88 13
REMARK SMILES IDX 4 14 3 15 5 17 2 18 1 19 84 20 85 21 86 22 87 23 16 24 17 25
REMARK SMILES IDX 18 26 19 27 20 29 21 30 22 31 83 32 23 33 82 34 24 35 25 36
REMARK SMILES IDX 26 37 76 38 27 39 81 40 75 41 77 42 28 43 80 44 74 45 73 46
REMARK SMILES IDX 29 48 61 49 41 50 60 51 42 52 45 53 59 54 78 55 43 56 44 57
REMARK SMILES IDX 58 59 79 60 46 61 30 62 31 63 39 64 32 65 34 66 40 67 33 68
REMARK SMILES IDX 35 69 36 70 37 71 38 72 62 73 63 74 71 75 64 76 66 77 72 78
REMARK SMILES IDX 65 79 67 80 68 81 69 82 70 83 47 84 48 85 56 86 49 87 51 88
REMARK SMILES IDX 57 89 50 90 52 91 53 92 54 93 55 94
REMARK H PARENT 14 5 3 16 18 28 77 47 45 58
REMARK Flexibility Score: inf
ROOT
ATOM      1  C   UNL A   1      36.579  21.000  25.008  1.00  0.00     0.117 C 
ENDROOT
BRANCH   1   2
ATOM      2  N   UNL A   1      36.593  22.049  24.008  1.00  0.00    -0.354 N 
ATOM      3  C   UNL A   1      35.547  22.703  23.425  1.00  0.00     0.239 C 
ATOM      4  O   UNL A   1      35.821  23.701  22.746  1.00  0.00    -0.273 OA
ATOM      5  H   UNL A   1      37.486  22.330  23.706  1.00  0.00     0.163 HD
BRANCH   3   6
ATOM      6  C   UNL A   1      34.089  22.272  23.647  1.00  0.00     0.218 C 
BRANCH   6   7
ATOM      7  N   UNL A   1      33.339  23.078  24.653  1.00  0.00    -0.341 N 
BRANCH   7   8
ATOM      8  C   UNL A   1      33.207  24.433  24.324  1.00  0.00     0.152 A 
ATOM      9  C   UNL A   1      33.075  27.075  23.410  1.00  0.00     0.150 A 
ATOM     10  C   UNL A   1      33.630  26.817  24.641  1.00  0.00     0.040 A 
ATOM     11  N   UNL A   1      32.519  26.087  22.693  1.00  0.00    -0.143 NA
ATOM     12  C   UNL A   1      33.716  25.488  25.074  1.00  0.00     0.051 A 
ATOM     13  N   UNL A   1      32.577  24.781  23.176  1.00  0.00    -0.132 NA
BRANCH   9  14
ATOM     14  C   UNL A   1      33.077  28.426  22.798  1.00  0.00     0.271 C 
ATOM     15  N   UNL A   1      31.890  29.054  22.487  1.00  0.00    -0.351 N 
ATOM     16  H   UNL A   1      31.985  29.902  21.995  1.00  0.00     0.163 HD
ATOM     17  O   UNL A   1      34.141  29.002  22.570  1.00  0.00    -0.267 OA
BRANCH  15  18
ATOM     18  C   UNL A   1      30.515  28.661  22.773  1.00  0.00     0.113 C 
ATOM     19  C   UNL A   1      29.638  29.875  23.016  1.00  0.00     0.027 C 
ENDBRANCH  15  18
ENDBRANCH   9  14
ENDBRANCH   7   8
BRANCH   7  20
ATOM     20  C   UNL A   1      32.634  22.399  25.794  1.00  0.00     0.034 C 
ATOM     21  C   UNL A   1      32.457  20.894  25.500  1.00  0.00     0.034 C 
ATOM     22  C   UNL A   1      33.359  22.663  27.133  1.00  0.00     0.034 C 
ATOM     23  C   UNL A   1      31.194  22.923  26.037  1.00  0.00     0.034 C 
ENDBRANCH   7  20
ENDBRANCH   6   7
ENDBRANCH   3   6
ENDBRANCH   1   2
BRANCH   1  24
ATOM     24  C   UNL A   1      37.792  20.080  24.931  1.00  0.00     0.042 C 
BRANCH  24  25
ATOM     25  C   UNL A   1      38.879  20.394  25.959  1.00  0.00     0.118 C 
BRANCH  25  26
ATOM     26  N   UNL A   1      39.942  19.396  25.976  1.00  0.00    -0.352 N 
ATOM     27  C   UNL A   1      41.301  19.547  26.086  1.00  0.00     0.251 C 
ATOM     28  H   UNL A   1      39.635  18.463  25.896  1.00  0.00     0.163 HD
ATOM     29  O   UNL A   1      42.036  18.580  25.882  1.00  0.00    -0.269 OA
BRANCH  27  30
ATOM     30  C   UNL A   1      41.893  20.857  26.430  1.00  0.00     0.039 A 
ATOM     31  C   UNL A   1      42.160  21.766  25.400  1.00  0.00     0.014 A 
ATOM     32  C   UNL A   1      42.213  21.185  27.750  1.00  0.00     0.014 A 
ATOM     33  C   UNL A   1      42.674  23.031  25.704  1.00  0.00     0.010 A 
ATOM     34  C   UNL A   1      42.670  22.466  28.057  1.00  0.00     0.010 A 
ATOM     35  C   UNL A   1      42.892  23.406  27.040  1.00  0.00    -0.014 A 
BRANCH  35  36
ATOM     36  C   UNL A   1      43.279  24.797  27.393  1.00  0.00     0.031 A 
ATOM     37  C   UNL A   1      42.275  25.758  27.969  1.00  0.00     0.074 A 
ATOM     38  C   UNL A   1      44.521  25.226  27.093  1.00  0.00     0.049 A 
ATOM     39  N   UNL A   1      42.426  27.023  28.268  1.00  0.00    -0.248 NA
ATOM     40  C   UNL A   1      40.923  25.238  28.224  1.00  0.00     0.031 C 
ATOM     41  C   UNL A   1      45.564  24.412  26.463  1.00  0.00     0.029 A 
ATOM     42  N   UNL A   1      45.110  26.457  27.245  1.00  0.00    -0.354 N 
ATOM     43  C   UNL A   1      41.186  27.460  28.717  1.00  0.00     0.074 A 
ATOM     44  C   UNL A   1      40.286  26.329  28.629  1.00  0.00     0.031 C 
ATOM     45  C   UNL A   1      46.658  25.165  26.276  1.00  0.00     0.029 A 
ATOM     46  C   UNL A   1      46.388  26.523  26.741  1.00  0.00     0.049 A 
ATOM     47  H   UNL A   1      44.660  27.220  27.675  1.00  0.00     0.167 HD
ATOM     48  C   UNL A   1      40.835  28.683  29.184  1.00  0.00     0.034 A 
ATOM     49  C   UNL A   1      47.243  27.560  26.644  1.00  0.00     0.034 A 
ATOM     50  C   UNL A   1      41.740  29.796  29.301  1.00  0.00     0.049 A 
ATOM     51  C   UNL A   1      46.833  28.901  27.187  1.00  0.00     0.074 A 
ATOM     52  C   UNL A   1      41.501  31.043  29.853  1.00  0.00     0.029 A 
ATOM     53  N   UNL A   1      43.050  29.805  28.849  1.00  0.00    -0.354 N 
ATOM     54  N   UNL A   1      45.710  29.246  27.767  1.00  0.00    -0.248 NA
ATOM     55  C   UNL A   1      47.820  29.987  27.092  1.00  0.00     0.031 C 
ATOM     56  C   UNL A   1      42.659  31.815  29.709  1.00  0.00     0.029 A 
ATOM     57  C   UNL A   1      43.626  31.042  29.089  1.00  0.00     0.049 A 
ATOM     58  H   UNL A   1      43.504  29.044  28.420  1.00  0.00     0.167 HD
ATOM     59  C   UNL A   1      45.863  30.580  28.130  1.00  0.00     0.074 A 
ATOM     60  C   UNL A   1      47.199  30.971  27.728  1.00  0.00     0.031 C 
ATOM     61  C   UNL A   1      44.971  31.410  28.723  1.00  0.00     0.034 A 
BRANCH  48  62
ATOM     62  C   UNL A   1      39.416  28.873  29.656  1.00  0.00     0.023 A 
ATOM     63  C   UNL A   1      39.070  28.507  30.972  1.00  0.00     0.012 A 
ATOM     64  C   UNL A   1      38.449  29.476  28.829  1.00  0.00     0.148 A 
ATOM     65  C   UNL A   1      37.776  28.711  31.450  1.00  0.00     0.002 A 
ATOM     66  C   UNL A   1      37.172  29.715  29.326  1.00  0.00     0.091 A 
ATOM     67  F   UNL A   1      38.791  29.799  27.574  1.00  0.00    -0.205 F 
ATOM     68  C   UNL A   1      36.831  29.324  30.631  1.00  0.00     0.022 A 
BRANCH  66  69
ATOM     69  S   UNL A   1      35.907  30.567  28.375  1.00  0.00     0.127 S 
ATOM     70  O   UNL A   1      36.686  31.625  27.731  1.00  0.00    -0.237 OA
ATOM     71  O   UNL A   1      35.445  29.515  27.467  1.00  0.00    -0.237 OA
ATOM     72  O   UNL A   1      34.916  31.016  29.339  1.00  0.00    -0.744 OA
ENDBRANCH  66  69
ENDBRANCH  48  62
BRANCH  49  73
ATOM     73  C   UNL A   1      48.594  27.350  26.049  1.00  0.00     0.023 A 
ATOM     74  C   UNL A   1      49.637  26.859  26.856  1.00  0.00     0.012 A 
ATOM     75  C   UNL A   1      48.835  27.584  24.680  1.00  0.00     0.148 A 
ATOM     76  C   UNL A   1      50.906  26.634  26.319  1.00  0.00     0.002 A 
ATOM     77  C   UNL A   1      50.082  27.294  24.138  1.00  0.00     0.091 A 
ATOM     78  F   UNL A   1      47.834  28.065  23.930  1.00  0.00    -0.205 F 
ATOM     79  C   UNL A   1      51.125  26.839  24.959  1.00  0.00     0.022 A 
BRANCH  77  80
ATOM     80  S   UNL A   1      50.394  27.363  22.370  1.00  0.00     0.127 S 
ATOM     81  O   UNL A   1      51.755  26.844  22.283  1.00  0.00    -0.237 OA
ATOM     82  O   UNL A   1      49.356  26.475  21.845  1.00  0.00    -0.237 OA
ATOM     83  O   UNL A   1      50.218  28.759  21.991  1.00  0.00    -0.744 OA
ENDBRANCH  77  80
ENDBRANCH  49  73
BRANCH  61  84
ATOM     84  C   UNL A   1      45.408  32.828  28.989  1.00  0.00     0.023 A 
ATOM     85  C   UNL A   1      46.068  33.136  30.195  1.00  0.00     0.012 A 
ATOM     86  C   UNL A   1      45.226  33.837  28.024  1.00  0.00     0.148 A 
ATOM     87  C   UNL A   1      46.511  34.434  30.450  1.00  0.00     0.002 A 
ATOM     88  C   UNL A   1      45.711  35.117  28.264  1.00  0.00     0.091 A 
ATOM     89  F   UNL A   1      44.579  33.528  26.890  1.00  0.00    -0.205 F 
ATOM     90  C   UNL A   1      46.344  35.420  29.481  1.00  0.00     0.022 A 
BRANCH  88  91
ATOM     91  S   UNL A   1      45.622  36.429  27.040  1.00  0.00     0.127 S 
ATOM     92  O   UNL A   1      46.250  35.797  25.881  1.00  0.00    -0.237 OA
ATOM     93  O   UNL A   1      44.180  36.640  26.914  1.00  0.00    -0.237 OA
ATOM     94  O   UNL A   1      46.350  37.556  27.607  1.00  0.00    -0.744 OA
ENDBRANCH  88  91
ENDBRANCH  61  84
ENDBRANCH  35  36
ENDBRANCH  27  30
ENDBRANCH  25  26
ENDBRANCH  24  25
ENDBRANCH   1  24
TORSDOF 18
ENDMDL
MODEL 3
REMARK VINA RESULT:     -10.8      2.000      7.778
REMARK SMILES CCNC(=O)c1ccc(N(CC(=O)NCCCNC(=O)c2ccc(-c3c4nc(c(-c5cccc(S(=O)(=O)[O-])c5F)c5ccc([nH]5)c(-c5cccc(S(=O)(=O)[O-])c5F)c5nc(c(-c6cccc(S(=O)(=O)[O-])c6F)c6ccc3[nH]6)C=C5)C=C4)cc2)C(C)(C)C)nn1
REMARK SMILES IDX 15 1 14 2 12 3 13 4 11 6 10 7 9 8 6 9 7 10 89 11 8 12 88 13
REMARK SMILES IDX 4 14 3 15 5 17 2 18 1 19 84 20 85 21 86 22 87 23 16 24 17 25
REMARK SMILES IDX 18 26 19 27 20 29 21 30 22 31 83 32 23 33 82 34 24 35 25 36
REMARK SMILES IDX 26 37 76 38 27 39 81 40 75 41 77 42 28 43 80 44 74 45 73 46
REMARK SMILES IDX 29 48 61 49 41 50 60 51 42 52 45 53 59 54 78 55 43 56 44 57
REMARK SMILES IDX 58 59 79 60 46 61 30 62 31 63 39 64 32 65 34 66 40 67 33 68
REMARK SMILES IDX 35 69 36 70 37 71 38 72 62 73 63 74 71 75 64 76 66 77 72 78
REMARK SMILES IDX 65 79 67 80 68 81 69 82 70 83 47 84 48 85 56 86 49 87 51 88
REMARK SMILES IDX 57 89 50 90 52 91 53 92 54 93 55 94
REMARK H PARENT 14 5 3 16 18 28 77 47 45 58
REMARK Flexibility Score: inf
ROOT
ATOM      1  C   UNL A   1      31.513  27.806  26.364  1.00  0.00     0.117 C 
ENDROOT
BRANCH   1   2
ATOM      2  N   UNL A   1      30.987  26.505  26.728  1.00  0.00    -0.354 N 
ATOM      3  C   UNL A   1      30.560  25.488  25.925  1.00  0.00     0.239 C 
ATOM      4  O   UNL A   1      30.344  24.399  26.469  1.00  0.00    -0.273 OA
ATOM      5  H   UNL A   1      30.930  26.330  27.694  1.00  0.00     0.163 HD
BRANCH   3   6
ATOM      6  C   UNL A   1      30.414  25.656  24.404  1.00  0.00     0.218 C 
BRANCH   6   7
ATOM      7  N   UNL A   1      31.694  25.870  23.668  1.00  0.00    -0.341 N 
BRANCH   7   8
ATOM      8  C   UNL A   1      32.710  24.966  24.002  1.00  0.00     0.152 A 
ATOM      9  C   UNL A   1      34.531  22.996  24.800  1.00  0.00     0.150 A 
ATOM     10  C   UNL A   1      34.778  24.310  25.122  1.00  0.00     0.040 A 
ATOM     11  N   UNL A   1      33.480  22.669  24.033  1.00  0.00    -0.143 NA
ATOM     12  C   UNL A   1      33.844  25.282  24.742  1.00  0.00     0.051 A 
ATOM     13  N   UNL A   1      32.596  23.669  23.629  1.00  0.00    -0.132 NA
BRANCH   9  14
ATOM     14  C   UNL A   1      35.376  21.879  25.287  1.00  0.00     0.271 C 
ATOM     15  N   UNL A   1      34.953  21.088  26.334  1.00  0.00    -0.351 N 
ATOM     16  H   UNL A   1      35.617  20.435  26.656  1.00  0.00     0.163 HD
ATOM     17  O   UNL A   1      36.460  21.643  24.753  1.00  0.00    -0.267 OA
BRANCH  15  18
ATOM     18  C   UNL A   1      33.678  21.065  27.040  1.00  0.00     0.113 C 
ATOM     19  C   UNL A   1      33.558  22.242  27.989  1.00  0.00     0.027 C 
ENDBRANCH  15  18
ENDBRANCH   9  14
ENDBRANCH   7   8
BRANCH   7  20
ATOM     20  C   UNL A   1      31.757  26.852  22.531  1.00  0.00     0.034 C 
ATOM     21  C   UNL A   1      31.759  26.112  21.178  1.00  0.00     0.034 C 
ATOM     22  C   UNL A   1      30.626  27.900  22.637  1.00  0.00     0.034 C 
ATOM     23  C   UNL A   1      33.055  27.702  22.514  1.00  0.00     0.034 C 
ENDBRANCH   7  20
ENDBRANCH   6   7
ENDBRANCH   3   6
ENDBRANCH   1   2
BRANCH   1  24
ATOM     24  C   UNL A   1      33.028  27.903  26.504  1.00  0.00     0.042 C 
BRANCH  24  25
ATOM     25  C   UNL A   1      33.659  29.032  25.689  1.00  0.00     0.118 C 
BRANCH  25  26
ATOM     26  N   UNL A   1      33.116  30.342  26.030  1.00  0.00    -0.352 N 
ATOM     27  C   UNL A   1      33.477  31.224  27.018  1.00  0.00     0.251 C 
ATOM     28  H   UNL A   1      32.371  30.642  25.460  1.00  0.00     0.163 HD
ATOM     29  O   UNL A   1      32.758  32.195  27.255  1.00  0.00    -0.269 OA
BRANCH  27  30
ATOM     30  C   UNL A   1      34.708  31.014  27.809  1.00  0.00     0.039 A 
ATOM     31  C   UNL A   1      34.797  29.884  28.628  1.00  0.00     0.014 A 
ATOM     32  C   UNL A   1      35.759  31.934  27.773  1.00  0.00     0.014 A 
ATOM     33  C   UNL A   1      35.970  29.636  29.348  1.00  0.00     0.010 A 
ATOM     34  C   UNL A   1      36.949  31.656  28.445  1.00  0.00     0.010 A 
ATOM     35  C   UNL A   1      37.072  30.499  29.228  1.00  0.00    -0.014 A 
BRANCH  35  36
ATOM     36  C   UNL A   1      38.379  30.166  29.853  1.00  0.00     0.031 A 
ATOM     37  C   UNL A   1      39.311  29.173  29.216  1.00  0.00     0.074 A 
ATOM     38  C   UNL A   1      38.678  30.688  31.060  1.00  0.00     0.049 A 
ATOM     39  N   UNL A   1      40.455  28.718  29.661  1.00  0.00    -0.248 NA
ATOM     40  C   UNL A   1      38.900  28.604  27.924  1.00  0.00     0.031 C 
ATOM     41  C   UNL A   1      37.821  31.605  31.816  1.00  0.00     0.029 A 
ATOM     42  N   UNL A   1      39.764  30.500  31.878  1.00  0.00    -0.354 N 
ATOM     43  C   UNL A   1      40.886  27.788  28.723  1.00  0.00     0.074 A 
ATOM     44  C   UNL A   1      39.868  27.727  27.694  1.00  0.00     0.031 C 
ATOM     45  C   UNL A   1      38.410  31.892  32.987  1.00  0.00     0.029 A 
ATOM     46  C   UNL A   1      39.668  31.157  33.082  1.00  0.00     0.049 A 
ATOM     47  H   UNL A   1      40.539  29.947  31.626  1.00  0.00     0.167 HD
ATOM     48  C   UNL A   1      42.036  27.070  28.705  1.00  0.00     0.034 A 
ATOM     49  C   UNL A   1      40.487  31.156  34.152  1.00  0.00     0.034 A 
ATOM     50  C   UNL A   1      43.060  27.157  29.711  1.00  0.00     0.049 A 
ATOM     51  C   UNL A   1      41.764  30.365  34.098  1.00  0.00     0.074 A 
ATOM     52  C   UNL A   1      44.301  26.542  29.730  1.00  0.00     0.029 A 
ATOM     53  N   UNL A   1      42.963  27.890  30.883  1.00  0.00    -0.354 N 
ATOM     54  N   UNL A   1      42.234  29.626  33.123  1.00  0.00    -0.248 NA
ATOM     55  C   UNL A   1      42.640  30.433  35.277  1.00  0.00     0.031 C 
ATOM     56  C   UNL A   1      44.941  26.883  30.926  1.00  0.00     0.029 A 
ATOM     57  C   UNL A   1      44.110  27.728  31.642  1.00  0.00     0.049 A 
ATOM     58  H   UNL A   1      42.190  28.445  31.139  1.00  0.00     0.167 HD
ATOM     59  C   UNL A   1      43.470  29.162  33.558  1.00  0.00     0.074 A 
ATOM     60  C   UNL A   1      43.688  29.727  34.874  1.00  0.00     0.031 C 
ATOM     61  C   UNL A   1      44.336  28.327  32.933  1.00  0.00     0.034 A 
BRANCH  48  62
ATOM     62  C   UNL A   1      42.275  26.157  27.529  1.00  0.00     0.023 A 
ATOM     63  C   UNL A   1      42.968  26.647  26.403  1.00  0.00     0.012 A 
ATOM     64  C   UNL A   1      41.884  24.805  27.566  1.00  0.00     0.148 A 
ATOM     65  C   UNL A   1      43.240  25.814  25.319  1.00  0.00     0.002 A 
ATOM     66  C   UNL A   1      42.197  23.970  26.499  1.00  0.00     0.091 A 
ATOM     67  F   UNL A   1      41.209  24.363  28.636  1.00  0.00    -0.205 F 
ATOM     68  C   UNL A   1      42.865  24.475  25.371  1.00  0.00     0.022 A 
BRANCH  66  69
ATOM     69  S   UNL A   1      41.823  22.212  26.504  1.00  0.00     0.127 S 
ATOM     70  O   UNL A   1      42.540  21.763  27.698  1.00  0.00    -0.237 OA
ATOM     71  O   UNL A   1      40.365  22.208  26.634  1.00  0.00    -0.237 OA
ATOM     72  O   UNL A   1      42.322  21.692  25.241  1.00  0.00    -0.744 OA
ENDBRANCH  66  69
ENDBRANCH  48  62
BRANCH  49  73
ATOM     73  C   UNL A   1      40.140  31.977  35.348  1.00  0.00     0.023 A 
ATOM     74  C   UNL A   1      40.737  33.241  35.517  1.00  0.00     0.012 A 
ATOM     75  C   UNL A   1      39.186  31.537  36.287  1.00  0.00     0.148 A 
ATOM     76  C   UNL A   1      40.415  34.038  36.616  1.00  0.00     0.002 A 
ATOM     77  C   UNL A   1      38.820  32.365  37.342  1.00  0.00     0.091 A 
ATOM     78  F   UNL A   1      38.638  30.325  36.117  1.00  0.00    -0.205 F 
ATOM     79  C   UNL A   1      39.448  33.606  37.520  1.00  0.00     0.022 A 
BRANCH  77  80
ATOM     80  S   UNL A   1      37.462  31.959  38.446  1.00  0.00     0.127 S 
ATOM     81  O   UNL A   1      37.202  30.564  38.105  1.00  0.00    -0.237 OA
ATOM     82  O   UNL A   1      38.068  32.174  39.762  1.00  0.00    -0.237 OA
ATOM     83  O   UNL A   1      36.398  32.903  38.130  1.00  0.00    -0.744 OA
ENDBRANCH  77  80
ENDBRANCH  49  73
BRANCH  61  84
ATOM     84  C   UNL A   1      45.612  27.978  33.656  1.00  0.00     0.023 A 
ATOM     85  C   UNL A   1      46.740  28.811  33.516  1.00  0.00     0.012 A 
ATOM     86  C   UNL A   1      45.676  26.869  34.521  1.00  0.00     0.148 A 
ATOM     87  C   UNL A   1      47.922  28.527  34.201  1.00  0.00     0.002 A 
ATOM     88  C   UNL A   1      46.841  26.618  35.235  1.00  0.00     0.091 A 
ATOM     89  F   UNL A   1      44.598  26.077  34.626  1.00  0.00    -0.205 F 
ATOM     90  C   UNL A   1      47.968  27.439  35.068  1.00  0.00     0.022 A 
BRANCH  88  91
ATOM     91  S   UNL A   1      46.967  25.293  36.443  1.00  0.00     0.127 S 
ATOM     92  O   UNL A   1      48.304  25.515  36.990  1.00  0.00    -0.237 OA
ATOM     93  O   UNL A   1      45.871  25.605  37.362  1.00  0.00    -0.237 OA
ATOM     94  O   UNL A   1      46.795  24.053  35.697  1.00  0.00    -0.744 OA
ENDBRANCH  88  91
ENDBRANCH  61  84
ENDBRANCH  35  36
ENDBRANCH  27  30
ENDBRANCH  25  26
ENDBRANCH  24  25
ENDBRANCH   1  24
TORSDOF 18
ENDMDL
