MODEL 1
REMARK VINA RESULT:     -10.9      0.000      0.000
REMARK SMILES NC(=[NH2+])N1CCC[C@H]1C(=O)NCCCNC(=O)c1ccc(-c2c3nc(c(-c4cccc(S(=O)(=O)[O-])c4F)c4ccc([nH]4)c(-c4cccc(S(=O)(=O)[O-])c4F)c4nc(c(-c5cccc(S(=O)(=O)[O-])c5F)c5ccc2[nH]5)C=C4)C=C3)cc1
REMARK SMILES IDX 14 1 13 2 12 3 11 4 9 5 10 6 8 8 4 9 5 10 6 11 7 12 2 13
REMARK SMILES IDX 3 14 1 17 15 20 16 21 17 23 18 24 19 25 80 26 20 27 79 28
REMARK SMILES IDX 21 29 22 30 23 31 73 32 24 33 78 34 72 35 74 36 25 37 77 38
REMARK SMILES IDX 71 39 70 40 26 42 58 43 38 44 57 45 39 46 42 47 56 48 75 49
REMARK SMILES IDX 40 50 41 51 55 53 76 54 43 55 27 56 28 57 36 58 29 59 31 60
REMARK SMILES IDX 37 61 30 62 32 63 33 64 34 65 35 66 59 67 60 68 68 69 61 70
REMARK SMILES IDX 63 71 69 72 62 73 64 74 65 75 66 76 67 77 44 78 45 79 53 80
REMARK SMILES IDX 46 81 48 82 54 83 47 84 49 85 50 86 51 87 52 88
REMARK H PARENT 11 7 3 15 3 16 1 18 1 19 15 22 74 41 42 52
REMARK Flexibility Score: inf
ROOT
ATOM      1  C   UNL A   1      32.686  32.409  27.262  1.00  0.00     0.118 C 
ENDROOT
BRANCH   1   2
ATOM      2  C   UNL A   1      31.371  31.792  26.801  1.00  0.00     0.042 C 
BRANCH   2   3
ATOM      3  C   UNL A   1      31.554  30.705  25.748  1.00  0.00     0.117 C 
BRANCH   3   4
ATOM      4  N   UNL A   1      32.006  29.454  26.329  1.00  0.00    -0.353 N 
ATOM      5  C   UNL A   1      31.774  28.164  25.966  1.00  0.00     0.257 C 
ATOM      6  O   UNL A   1      32.246  27.295  26.712  1.00  0.00    -0.271 OA
ATOM      7  H   UNL A   1      32.581  29.558  27.122  1.00  0.00     0.163 HD
BRANCH   5   8
ATOM      8  C   UNL A   1      31.075  27.741  24.665  1.00  0.00     0.237 C 
ATOM      9  N   UNL A   1      31.866  27.820  23.433  1.00  0.00    -0.253 N 
ATOM     10  C   UNL A   1      31.841  26.539  22.721  1.00  0.00     0.201 C 
ATOM     11  C   UNL A   1      30.670  25.786  23.333  1.00  0.00     0.042 C 
ATOM     12  C   UNL A   1      30.642  26.276  24.767  1.00  0.00     0.055 C 
BRANCH   9  13
ATOM     13  C   UNL A   1      32.362  28.936  22.836  1.00  0.00     0.341 C 
ATOM     14  N   UNL A   1      31.654  29.640  22.022  1.00  0.00    -0.291 N 
ATOM     15  H   UNL A   1      32.037  30.444  21.603  1.00  0.00     0.256 HD
ATOM     16  H   UNL A   1      30.728  29.373  21.819  1.00  0.00     0.256 HD
ATOM     17  N   UNL A   1      33.623  29.296  23.126  1.00  0.00    -0.291 N 
ATOM     18  H   UNL A   1      34.014  30.098  22.712  1.00  0.00     0.256 HD
ATOM     19  H   UNL A   1      34.156  28.756  23.753  1.00  0.00     0.256 HD
ENDBRANCH   9  13
ENDBRANCH   5   8
ENDBRANCH   3   4
ENDBRANCH   2   3
ENDBRANCH   1   2
BRANCH   1  20
ATOM     20  N   UNL A   1      32.556  33.835  27.543  1.00  0.00    -0.352 N 
ATOM     21  C   UNL A   1      33.155  34.597  28.512  1.00  0.00     0.251 C 
ATOM     22  H   UNL A   1      31.948  34.325  26.943  1.00  0.00     0.163 HD
ATOM     23  O   UNL A   1      32.729  35.734  28.736  1.00  0.00    -0.269 OA
BRANCH  21  24
ATOM     24  C   UNL A   1      34.296  34.069  29.287  1.00  0.00     0.039 A 
ATOM     25  C   UNL A   1      34.056  33.182  30.340  1.00  0.00     0.014 A 
ATOM     26  C   UNL A   1      35.603  34.468  28.997  1.00  0.00     0.014 A 
ATOM     27  C   UNL A   1      35.129  32.653  31.061  1.00  0.00     0.010 A 
ATOM     28  C   UNL A   1      36.674  33.868  29.651  1.00  0.00     0.010 A 
ATOM     29  C   UNL A   1      36.451  32.966  30.702  1.00  0.00    -0.014 A 
BRANCH  29  30
ATOM     30  C   UNL A   1      37.613  32.377  31.417  1.00  0.00     0.031 A 
ATOM     31  C   UNL A   1      38.383  31.240  30.794  1.00  0.00     0.074 A 
ATOM     32  C   UNL A   1      37.926  32.809  32.655  1.00  0.00     0.049 A 
ATOM     33  N   UNL A   1      39.367  30.538  31.295  1.00  0.00    -0.248 NA
ATOM     34  C   UNL A   1      37.975  30.814  29.443  1.00  0.00     0.031 C 
ATOM     35  C   UNL A   1      37.213  33.853  33.395  1.00  0.00     0.029 A 
ATOM     36  N   UNL A   1      38.911  32.407  33.522  1.00  0.00    -0.354 N 
ATOM     37  C   UNL A   1      39.675  29.578  30.339  1.00  0.00     0.074 A 
ATOM     38  C   UNL A   1      38.744  29.753  29.247  1.00  0.00     0.031 C 
ATOM     39  C   UNL A   1      37.788  34.013  34.599  1.00  0.00     0.029 A 
ATOM     40  C   UNL A   1      38.885  33.062  34.732  1.00  0.00     0.049 A 
ATOM     41  H   UNL A   1      39.574  31.713  33.300  1.00  0.00     0.167 HD
ATOM     42  C   UNL A   1      40.669  28.658  30.348  1.00  0.00     0.034 A 
ATOM     43  C   UNL A   1      39.652  32.904  35.828  1.00  0.00     0.034 A 
ATOM     44  C   UNL A   1      41.623  28.517  31.413  1.00  0.00     0.049 A 
ATOM     45  C   UNL A   1      40.763  31.886  35.800  1.00  0.00     0.074 A 
ATOM     46  C   UNL A   1      42.704  27.656  31.491  1.00  0.00     0.029 A 
ATOM     47  N   UNL A   1      41.617  29.259  32.584  1.00  0.00    -0.354 N 
ATOM     48  N   UNL A   1      41.120  31.081  34.829  1.00  0.00    -0.248 NA
ATOM     49  C   UNL A   1      41.597  31.781  37.005  1.00  0.00     0.031 C 
ATOM     50  C   UNL A   1      43.342  27.867  32.717  1.00  0.00     0.029 A 
ATOM     51  C   UNL A   1      42.675  28.878  33.389  1.00  0.00     0.049 A 
ATOM     52  H   UNL A   1      40.956  29.954  32.808  1.00  0.00     0.167 HD
ATOM     53  C   UNL A   1      42.247  30.410  35.289  1.00  0.00     0.074 A 
ATOM     54  C   UNL A   1      42.525  30.918  36.615  1.00  0.00     0.031 C 
ATOM     55  C   UNL A   1      42.977  29.445  34.677  1.00  0.00     0.034 A 
BRANCH  42  56
ATOM     56  C   UNL A   1      40.824  27.776  29.136  1.00  0.00     0.023 A 
ATOM     57  C   UNL A   1      40.053  26.599  29.037  1.00  0.00     0.012 A 
ATOM     58  C   UNL A   1      41.660  28.145  28.065  1.00  0.00     0.148 A 
ATOM     59  C   UNL A   1      40.133  25.789  27.905  1.00  0.00     0.002 A 
ATOM     60  C   UNL A   1      41.700  27.357  26.920  1.00  0.00     0.091 A 
ATOM     61  F   UNL A   1      42.396  29.259  28.184  1.00  0.00    -0.205 F 
ATOM     62  C   UNL A   1      40.945  26.174  26.843  1.00  0.00     0.022 A 
BRANCH  60  63
ATOM     63  S   UNL A   1      42.652  27.801  25.463  1.00  0.00     0.127 S 
ATOM     64  O   UNL A   1      42.471  26.619  24.621  1.00  0.00    -0.237 OA
ATOM     65  O   UNL A   1      41.952  28.996  24.994  1.00  0.00    -0.237 OA
ATOM     66  O   UNL A   1      44.013  28.030  25.923  1.00  0.00    -0.744 OA
ENDBRANCH  60  63
ENDBRANCH  42  56
BRANCH  43  67
ATOM     67  C   UNL A   1      39.442  33.760  37.032  1.00  0.00     0.023 A 
ATOM     68  C   UNL A   1      39.918  35.086  37.032  1.00  0.00     0.012 A 
ATOM     69  C   UNL A   1      38.796  33.266  38.182  1.00  0.00     0.148 A 
ATOM     70  C   UNL A   1      39.802  35.886  38.169  1.00  0.00     0.002 A 
ATOM     71  C   UNL A   1      38.631  34.088  39.291  1.00  0.00     0.091 A 
ATOM     72  F   UNL A   1      38.360  31.998  38.172  1.00  0.00    -0.205 F 
ATOM     73  C   UNL A   1      39.152  35.390  39.296  1.00  0.00     0.022 A 
BRANCH  71  74
ATOM     74  S   UNL A   1      37.696  33.568  40.734  1.00  0.00     0.127 S 
ATOM     75  O   UNL A   1      36.463  33.070  40.129  1.00  0.00    -0.237 OA
ATOM     76  O   UNL A   1      38.562  32.535  41.304  1.00  0.00    -0.237 OA
ATOM     77  O   UNL A   1      37.564  34.760  41.561  1.00  0.00    -0.744 OA
ENDBRANCH  71  74
ENDBRANCH  43  67
BRANCH  55  78
ATOM     78  C   UNL A   1      44.183  28.913  35.406  1.00  0.00     0.023 A 
ATOM     79  C   UNL A   1      45.447  29.498  35.196  1.00  0.00     0.012 A 
ATOM     80  C   UNL A   1      44.046  27.879  36.353  1.00  0.00     0.148 A 
ATOM     81  C   UNL A   1      46.564  29.036  35.891  1.00  0.00     0.002 A 
ATOM     82  C   UNL A   1      45.153  27.460  37.080  1.00  0.00     0.091 A 
ATOM     83  F   UNL A   1      42.837  27.326  36.525  1.00  0.00    -0.205 F 
ATOM     84  C   UNL A   1      46.415  28.028  36.839  1.00  0.00     0.022 A 
BRANCH  82  85
ATOM     85  S   UNL A   1      45.039  26.239  38.391  1.00  0.00     0.127 S 
ATOM     86  O   UNL A   1      44.682  25.033  37.645  1.00  0.00    -0.237 OA
ATOM     87  O   UNL A   1      46.398  26.241  38.934  1.00  0.00    -0.237 OA
ATOM     88  O   UNL A   1      44.020  26.728  39.310  1.00  0.00    -0.744 OA
ENDBRANCH  82  85
ENDBRANCH  55  78
ENDBRANCH  29  30
ENDBRANCH  21  24
ENDBRANCH   1  20
TORSDOF 14
ENDMDL
MODEL 2
REMARK VINA RESULT:     -10.9      3.830     10.099
REMARK SMILES NC(=[NH2+])N1CCC[C@H]1C(=O)NCCCNC(=O)c1ccc(-c2c3nc(c(-c4cccc(S(=O)(=O)[O-])c4F)c4ccc([nH]4)c(-c4cccc(S(=O)(=O)[O-])c4F)c4nc(c(-c5cccc(S(=O)(=O)[O-])c5F)c5ccc2[nH]5)C=C4)C=C3)cc1
REMARK SMILES IDX 14 1 13 2 12 3 11 4 9 5 10 6 8 8 4 9 5 10 6 11 7 12 2 13
REMARK SMILES IDX 3 14 1 17 15 20 16 21 17 23 18 24 19 25 80 26 20 27 79 28
REMARK SMILES IDX 21 29 22 30 23 31 73 32 24 33 78 34 72 35 74 36 25 37 77 38
REMARK SMILES IDX 71 39 70 40 26 42 58 43 38 44 57 45 39 46 42 47 56 48 75 49
REMARK SMILES IDX 40 50 41 51 55 53 76 54 43 55 27 56 28 57 36 58 29 59 31 60
REMARK SMILES IDX 37 61 30 62 32 63 33 64 34 65 35 66 59 67 60 68 68 69 61 70
REMARK SMILES IDX 63 71 69 72 62 73 64 74 65 75 66 76 67 77 44 78 45 79 53 80
REMARK SMILES IDX 46 81 48 82 54 83 47 84 49 85 50 86 51 87 52 88
REMARK H PARENT 11 7 3 15 3 16 1 18 1 19 15 22 74 41 42 52
REMARK Flexibility Score: inf
ROOT
ATOM      1  C   UNL A   1      34.866  33.138  28.469  1.00  0.00     0.118 C 
ENDROOT
BRANCH   1   2
ATOM      2  C   UNL A   1      34.026  34.318  28.943  1.00  0.00     0.042 C 
BRANCH   2   3
ATOM      3  C   UNL A   1      34.045  34.499  30.457  1.00  0.00     0.117 C 
BRANCH   3   4
ATOM      4  N   UNL A   1      34.420  33.277  31.146  1.00  0.00    -0.353 N 
ATOM      5  C   UNL A   1      35.490  32.988  31.936  1.00  0.00     0.257 C 
ATOM      6  O   UNL A   1      35.575  31.818  32.331  1.00  0.00    -0.271 OA
ATOM      7  H   UNL A   1      33.792  32.530  31.021  1.00  0.00     0.163 HD
BRANCH   5   8
ATOM      8  C   UNL A   1      36.503  34.028  32.439  1.00  0.00     0.237 C 
ATOM      9  N   UNL A   1      37.055  33.819  33.781  1.00  0.00    -0.253 N 
ATOM     10  C   UNL A   1      38.521  33.837  33.745  1.00  0.00     0.201 C 
ATOM     11  C   UNL A   1      38.860  34.479  32.409  1.00  0.00     0.042 C 
ATOM     12  C   UNL A   1      37.718  34.053  31.508  1.00  0.00     0.055 C 
BRANCH   9  13
ATOM     13  C   UNL A   1      36.390  33.853  34.966  1.00  0.00     0.341 C 
ATOM     14  N   UNL A   1      36.928  33.425  36.056  1.00  0.00    -0.291 N 
ATOM     15  H   UNL A   1      36.425  33.462  36.902  1.00  0.00     0.256 HD
ATOM     16  H   UNL A   1      37.843  33.063  36.043  1.00  0.00     0.256 HD
ATOM     17  N   UNL A   1      35.146  34.358  34.975  1.00  0.00    -0.291 N 
ATOM     18  H   UNL A   1      34.636  34.398  35.816  1.00  0.00     0.256 HD
ATOM     19  H   UNL A   1      34.744  34.688  34.139  1.00  0.00     0.256 HD
ENDBRANCH   9  13
ENDBRANCH   5   8
ENDBRANCH   3   4
ENDBRANCH   2   3
ENDBRANCH   1   2
BRANCH   1  20
ATOM     20  N   UNL A   1      34.044  32.047  27.957  1.00  0.00    -0.352 N 
ATOM     21  C   UNL A   1      34.386  30.753  27.663  1.00  0.00     0.251 C 
ATOM     22  H   UNL A   1      33.099  32.275  27.800  1.00  0.00     0.163 HD
ATOM     23  O   UNL A   1      33.605  30.054  27.013  1.00  0.00    -0.269 OA
BRANCH  21  24
ATOM     24  C   UNL A   1      35.677  30.194  28.116  1.00  0.00     0.039 A 
ATOM     25  C   UNL A   1      36.772  30.211  27.246  1.00  0.00     0.014 A 
ATOM     26  C   UNL A   1      35.805  29.627  29.385  1.00  0.00     0.014 A 
ATOM     27  C   UNL A   1      38.005  29.713  27.673  1.00  0.00     0.010 A 
ATOM     28  C   UNL A   1      37.055  29.220  29.842  1.00  0.00     0.010 A 
ATOM     29  C   UNL A   1      38.166  29.243  28.987  1.00  0.00    -0.014 A 
BRANCH  29  30
ATOM     30  C   UNL A   1      39.480  28.756  29.484  1.00  0.00     0.031 A 
ATOM     31  C   UNL A   1      40.189  29.498  30.589  1.00  0.00     0.074 A 
ATOM     32  C   UNL A   1      40.069  27.698  28.892  1.00  0.00     0.049 A 
ATOM     33  N   UNL A   1      41.374  29.283  31.098  1.00  0.00    -0.248 NA
ATOM     34  C   UNL A   1      39.487  30.652  31.179  1.00  0.00     0.031 C 
ATOM     35  C   UNL A   1      39.518  26.939  27.766  1.00  0.00     0.029 A 
ATOM     36  N   UNL A   1      41.275  27.091  29.138  1.00  0.00    -0.354 N 
ATOM     37  C   UNL A   1      41.570  30.284  32.042  1.00  0.00     0.074 A 
ATOM     38  C   UNL A   1      40.404  31.137  32.004  1.00  0.00     0.031 C 
ATOM     39  C   UNL A   1      40.379  25.966  27.425  1.00  0.00     0.029 A 
ATOM     40  C   UNL A   1      41.557  26.051  28.281  1.00  0.00     0.049 A 
ATOM     41  H   UNL A   1      41.883  27.373  29.860  1.00  0.00     0.167 HD
ATOM     42  C   UNL A   1      42.608  30.458  32.894  1.00  0.00     0.034 A 
ATOM     43  C   UNL A   1      42.647  25.265  28.189  1.00  0.00     0.034 A 
ATOM     44  C   UNL A   1      43.745  29.581  32.963  1.00  0.00     0.049 A 
ATOM     45  C   UNL A   1      43.777  25.470  29.164  1.00  0.00     0.074 A 
ATOM     46  C   UNL A   1      44.822  29.636  33.831  1.00  0.00     0.029 A 
ATOM     47  N   UNL A   1      43.952  28.488  32.137  1.00  0.00    -0.354 N 
ATOM     48  N   UNL A   1      43.879  26.340  30.139  1.00  0.00    -0.248 NA
ATOM     49  C   UNL A   1      44.926  24.560  29.049  1.00  0.00     0.031 C 
ATOM     50  C   UNL A   1      45.687  28.583  33.519  1.00  0.00     0.029 A 
ATOM     51  C   UNL A   1      45.136  27.858  32.476  1.00  0.00     0.049 A 
ATOM     52  H   UNL A   1      43.346  28.202  31.415  1.00  0.00     0.167 HD
ATOM     53  C   UNL A   1      45.078  26.052  30.780  1.00  0.00     0.074 A 
ATOM     54  C   UNL A   1      45.656  24.914  30.098  1.00  0.00     0.031 C 
ATOM     55  C   UNL A   1      45.660  26.684  31.830  1.00  0.00     0.034 A 
BRANCH  42  56
ATOM     56  C   UNL A   1      42.533  31.599  33.875  1.00  0.00     0.023 A 
ATOM     57  C   UNL A   1      43.084  32.848  33.523  1.00  0.00     0.012 A 
ATOM     58  C   UNL A   1      41.852  31.466  35.100  1.00  0.00     0.148 A 
ATOM     59  C   UNL A   1      42.983  33.940  34.385  1.00  0.00     0.002 A 
ATOM     60  C   UNL A   1      41.715  32.570  35.934  1.00  0.00     0.091 A 
ATOM     61  F   UNL A   1      41.347  30.267  35.424  1.00  0.00    -0.205 F 
ATOM     62  C   UNL A   1      42.289  33.803  35.583  1.00  0.00     0.022 A 
BRANCH  60  63
ATOM     63  S   UNL A   1      40.774  32.526  37.464  1.00  0.00     0.127 S 
ATOM     64  O   UNL A   1      41.652  31.737  38.328  1.00  0.00    -0.237 OA
ATOM     65  O   UNL A   1      40.691  33.945  37.812  1.00  0.00    -0.237 OA
ATOM     66  O   UNL A   1      39.501  31.900  37.139  1.00  0.00    -0.744 OA
ENDBRANCH  60  63
ENDBRANCH  42  56
BRANCH  43  67
ATOM     67  C   UNL A   1      42.713  24.174  27.174  1.00  0.00     0.023 A 
ATOM     68  C   UNL A   1      43.405  24.393  25.965  1.00  0.00     0.012 A 
ATOM     69  C   UNL A   1      42.081  22.934  27.383  1.00  0.00     0.148 A 
ATOM     70  C   UNL A   1      43.421  23.420  24.966  1.00  0.00     0.002 A 
ATOM     71  C   UNL A   1      42.150  21.946  26.408  1.00  0.00     0.091 A 
ATOM     72  F   UNL A   1      41.415  22.745  28.532  1.00  0.00    -0.205 F 
ATOM     73  C   UNL A   1      42.800  22.194  25.190  1.00  0.00     0.022 A 
BRANCH  71  74
ATOM     74  S   UNL A   1      41.486  20.298  26.669  1.00  0.00     0.127 S 
ATOM     75  O   UNL A   1      42.194  19.877  27.875  1.00  0.00    -0.237 OA
ATOM     76  O   UNL A   1      40.060  20.569  26.855  1.00  0.00    -0.237 OA
ATOM     77  O   UNL A   1      41.800  19.557  25.455  1.00  0.00    -0.744 OA
ENDBRANCH  71  74
ENDBRANCH  43  67
BRANCH  55  78
ATOM     78  C   UNL A   1      46.961  26.127  32.347  1.00  0.00     0.023 A 
ATOM     79  C   UNL A   1      48.183  26.616  31.849  1.00  0.00     0.012 A 
ATOM     80  C   UNL A   1      46.966  25.168  33.379  1.00  0.00     0.148 A 
ATOM     81  C   UNL A   1      49.394  26.132  32.345  1.00  0.00     0.002 A 
ATOM     82  C   UNL A   1      48.174  24.730  33.905  1.00  0.00     0.091 A 
ATOM     83  F   UNL A   1      45.790  24.704  33.827  1.00  0.00    -0.205 F 
ATOM     84  C   UNL A   1      49.389  25.200  33.379  1.00  0.00     0.022 A 
BRANCH  82  85
ATOM     85  S   UNL A   1      48.266  23.608  35.304  1.00  0.00     0.127 S 
ATOM     86  O   UNL A   1      47.668  22.393  34.751  1.00  0.00    -0.237 OA
ATOM     87  O   UNL A   1      49.708  23.525  35.540  1.00  0.00    -0.237 OA
ATOM     88  O   UNL A   1      47.513  24.240  36.378  1.00  0.00    -0.744 OA
ENDBRANCH  82  85
ENDBRANCH  55  78
ENDBRANCH  29  30
ENDBRANCH  21  24
ENDBRANCH   1  20
TORSDOF 14
ENDMDL
MODEL 3
REMARK VINA RESULT:     -10.9      3.617      9.075
REMARK SMILES NC(=[NH2+])N1CCC[C@H]1C(=O)NCCCNC(=O)c1ccc(-c2c3nc(c(-c4cccc(S(=O)(=O)[O-])c4F)c4ccc([nH]4)c(-c4cccc(S(=O)(=O)[O-])c4F)c4nc(c(-c5cccc(S(=O)(=O)[O-])c5F)c5ccc2[nH]5)C=C4)C=C3)cc1
REMARK SMILES IDX 14 1 13 2 12 3 11 4 9 5 10 6 8 8 4 9 5 10 6 11 7 12 2 13
REMARK SMILES IDX 3 14 1 17 15 20 16 21 17 23 18 24 19 25 80 26 20 27 79 28
REMARK SMILES IDX 21 29 22 30 23 31 73 32 24 33 78 34 72 35 74 36 25 37 77 38
REMARK SMILES IDX 71 39 70 40 26 42 58 43 38 44 57 45 39 46 42 47 56 48 75 49
REMARK SMILES IDX 40 50 41 51 55 53 76 54 43 55 27 56 28 57 36 58 29 59 31 60
REMARK SMILES IDX 37 61 30 62 32 63 33 64 34 65 35 66 59 67 60 68 68 69 61 70
REMARK SMILES IDX 63 71 69 72 62 73 64 74 65 75 66 76 67 77 44 78 45 79 53 80
REMARK SMILES IDX 46 81 48 82 54 83 47 84 49 85 50 86 51 87 52 88
REMARK H PARENT 11 7 3 15 3 16 1 18 1 19 15 22 74 41 42 52
REMARK Flexibility Score: inf
ROOT
ATOM      1  C   UNL A   1      34.002  28.944  26.083  1.00  0.00     0.118 C 
ENDROOT
BRANCH   1   2
ATOM      2  C   UNL A   1      33.215  28.830  24.782  1.00  0.00     0.042 C 
BRANCH   2   3
ATOM      3  C   UNL A   1      31.748  29.213  24.933  1.00  0.00     0.117 C 
BRANCH   3   4
ATOM      4  N   UNL A   1      31.192  29.735  23.696  1.00  0.00    -0.353 N 
ATOM      5  C   UNL A   1      30.616  29.103  22.638  1.00  0.00     0.257 C 
ATOM      6  O   UNL A   1      30.297  29.823  21.682  1.00  0.00    -0.271 OA
ATOM      7  H   UNL A   1      31.240  30.715  23.610  1.00  0.00     0.163 HD
BRANCH   5   8
ATOM      8  C   UNL A   1      30.251  27.611  22.612  1.00  0.00     0.237 C 
ATOM      9  N   UNL A   1      31.364  26.658  22.579  1.00  0.00    -0.253 N 
ATOM     10  C   UNL A   1      31.234  25.675  23.659  1.00  0.00     0.201 C 
ATOM     11  C   UNL A   1      29.787  25.794  24.110  1.00  0.00     0.042 C 
ATOM     12  C   UNL A   1      29.459  27.254  23.872  1.00  0.00     0.055 C 
BRANCH   9  13
ATOM     13  C   UNL A   1      32.275  26.481  21.586  1.00  0.00     0.341 C 
ATOM     14  N   UNL A   1      32.026  25.735  20.565  1.00  0.00    -0.291 N 
ATOM     15  H   UNL A   1      32.703  25.624  19.858  1.00  0.00     0.256 HD
ATOM     16  H   UNL A   1      31.158  25.277  20.491  1.00  0.00     0.256 HD
ATOM     17  N   UNL A   1      33.453  27.117  21.692  1.00  0.00    -0.291 N 
ATOM     18  H   UNL A   1      34.135  27.011  20.991  1.00  0.00     0.256 HD
ATOM     19  H   UNL A   1      33.634  27.689  22.473  1.00  0.00     0.256 HD
ENDBRANCH   9  13
ENDBRANCH   5   8
ENDBRANCH   3   4
ENDBRANCH   2   3
ENDBRANCH   1   2
BRANCH   1  20
ATOM     20  N   UNL A   1      33.845  30.253  26.708  1.00  0.00    -0.352 N 
ATOM     21  C   UNL A   1      34.563  30.834  27.721  1.00  0.00     0.251 C 
ATOM     22  H   UNL A   1      33.114  30.803  26.346  1.00  0.00     0.163 HD
ATOM     23  O   UNL A   1      34.122  31.846  28.271  1.00  0.00    -0.269 OA
BRANCH  21  24
ATOM     24  C   UNL A   1      35.852  30.257  28.157  1.00  0.00     0.039 A 
ATOM     25  C   UNL A   1      36.968  30.369  27.323  1.00  0.00     0.014 A 
ATOM     26  C   UNL A   1      35.957  29.580  29.374  1.00  0.00     0.014 A 
ATOM     27  C   UNL A   1      38.198  29.854  27.737  1.00  0.00     0.010 A 
ATOM     28  C   UNL A   1      37.201  29.153  29.826  1.00  0.00     0.010 A 
ATOM     29  C   UNL A   1      38.334  29.270  29.008  1.00  0.00    -0.014 A 
BRANCH  29  30
ATOM     30  C   UNL A   1      39.643  28.761  29.496  1.00  0.00     0.031 A 
ATOM     31  C   UNL A   1      40.372  29.491  30.595  1.00  0.00     0.074 A 
ATOM     32  C   UNL A   1      40.209  27.692  28.900  1.00  0.00     0.049 A 
ATOM     33  N   UNL A   1      41.557  29.256  31.096  1.00  0.00    -0.248 NA
ATOM     34  C   UNL A   1      39.695  30.657  31.190  1.00  0.00     0.031 C 
ATOM     35  C   UNL A   1      39.637  26.943  27.778  1.00  0.00     0.029 A 
ATOM     36  N   UNL A   1      41.407  27.065  29.137  1.00  0.00    -0.354 N 
ATOM     37  C   UNL A   1      41.778  30.253  32.038  1.00  0.00     0.074 A 
ATOM     38  C   UNL A   1      40.626  31.126  32.008  1.00  0.00     0.031 C 
ATOM     39  C   UNL A   1      40.479  25.955  27.431  1.00  0.00     0.029 A 
ATOM     40  C   UNL A   1      41.664  26.021  28.278  1.00  0.00     0.049 A 
ATOM     41  H   UNL A   1      42.025  27.336  29.854  1.00  0.00     0.167 HD
ATOM     42  C   UNL A   1      42.825  30.409  32.882  1.00  0.00     0.034 A 
ATOM     43  C   UNL A   1      42.740  25.216  28.179  1.00  0.00     0.034 A 
ATOM     44  C   UNL A   1      43.947  29.513  32.943  1.00  0.00     0.049 A 
ATOM     45  C   UNL A   1      43.880  25.401  29.146  1.00  0.00     0.074 A 
ATOM     46  C   UNL A   1      45.030  29.550  33.803  1.00  0.00     0.029 A 
ATOM     47  N   UNL A   1      44.129  28.417  32.116  1.00  0.00    -0.354 N 
ATOM     48  N   UNL A   1      44.005  26.270  30.119  1.00  0.00    -0.248 NA
ATOM     49  C   UNL A   1      45.012  24.472  29.023  1.00  0.00     0.031 C 
ATOM     50  C   UNL A   1      45.876  28.482  33.486  1.00  0.00     0.029 A 
ATOM     51  C   UNL A   1      45.305  27.767  32.446  1.00  0.00     0.049 A 
ATOM     52  H   UNL A   1      43.513  28.141  31.399  1.00  0.00     0.167 HD
ATOM     53  C   UNL A   1      45.203  25.962  30.752  1.00  0.00     0.074 A 
ATOM     54  C   UNL A   1      45.756  24.814  30.066  1.00  0.00     0.031 C 
ATOM     55  C   UNL A   1      45.804  26.583  31.797  1.00  0.00     0.034 A 
BRANCH  42  56
ATOM     56  C   UNL A   1      42.776  31.552  33.864  1.00  0.00     0.023 A 
ATOM     57  C   UNL A   1      43.270  32.815  33.476  1.00  0.00     0.012 A 
ATOM     58  C   UNL A   1      42.172  31.405  35.127  1.00  0.00     0.148 A 
ATOM     59  C   UNL A   1      43.191  33.906  34.340  1.00  0.00     0.002 A 
ATOM     60  C   UNL A   1      42.055  32.508  35.965  1.00  0.00     0.091 A 
ATOM     61  F   UNL A   1      41.722  30.194  35.483  1.00  0.00    -0.205 F 
ATOM     62  C   UNL A   1      42.572  33.755  35.578  1.00  0.00     0.022 A 
BRANCH  60  63
ATOM     63  S   UNL A   1      41.208  32.444  37.549  1.00  0.00     0.127 S 
ATOM     64  O   UNL A   1      39.920  31.864  37.170  1.00  0.00    -0.237 OA
ATOM     65  O   UNL A   1      42.074  31.554  38.322  1.00  0.00    -0.237 OA
ATOM     66  O   UNL A   1      41.150  33.816  38.032  1.00  0.00    -0.744 OA
ENDBRANCH  60  63
ENDBRANCH  42  56
BRANCH  43  67
ATOM     67  C   UNL A   1      42.780  24.124  27.163  1.00  0.00     0.023 A 
ATOM     68  C   UNL A   1      43.451  24.337  25.942  1.00  0.00     0.012 A 
ATOM     69  C   UNL A   1      42.143  22.888  27.386  1.00  0.00     0.148 A 
ATOM     70  C   UNL A   1      43.442  23.363  24.943  1.00  0.00     0.002 A 
ATOM     71  C   UNL A   1      42.188  21.899  26.410  1.00  0.00     0.091 A 
ATOM     72  F   UNL A   1      41.497  22.705  28.547  1.00  0.00    -0.205 F 
ATOM     73  C   UNL A   1      42.817  22.141  25.180  1.00  0.00     0.022 A 
BRANCH  71  74
ATOM     74  S   UNL A   1      41.517  20.255  26.684  1.00  0.00     0.127 S 
ATOM     75  O   UNL A   1      41.861  19.579  25.436  1.00  0.00    -0.237 OA
ATOM     76  O   UNL A   1      42.274  19.809  27.855  1.00  0.00    -0.237 OA
ATOM     77  O   UNL A   1      40.096  20.453  26.931  1.00  0.00    -0.744 OA
ENDBRANCH  71  74
ENDBRANCH  43  67
BRANCH  55  78
ATOM     78  C   UNL A   1      47.098  26.004  32.304  1.00  0.00     0.023 A 
ATOM     79  C   UNL A   1      48.324  26.447  31.772  1.00  0.00     0.012 A 
ATOM     80  C   UNL A   1      47.097  25.072  33.361  1.00  0.00     0.148 A 
ATOM     81  C   UNL A   1      49.530  25.943  32.258  1.00  0.00     0.002 A 
ATOM     82  C   UNL A   1      48.303  24.615  33.876  1.00  0.00     0.091 A 
ATOM     83  F   UNL A   1      45.918  24.652  33.842  1.00  0.00    -0.205 F 
ATOM     84  C   UNL A   1      49.520  25.038  33.317  1.00  0.00     0.022 A 
BRANCH  82  85
ATOM     85  S   UNL A   1      48.390  23.526  35.302  1.00  0.00     0.127 S 
ATOM     86  O   UNL A   1      47.745  22.317  34.793  1.00  0.00    -0.237 OA
ATOM     87  O   UNL A   1      49.834  23.406  35.511  1.00  0.00    -0.237 OA
ATOM     88  O   UNL A   1      47.679  24.209  36.374  1.00  0.00    -0.744 OA
ENDBRANCH  82  85
ENDBRANCH  55  78
ENDBRANCH  29  30
ENDBRANCH  21  24
ENDBRANCH   1  20
TORSDOF 14
ENDMDL
