MODEL 1
REMARK VINA RESULT:     -13.3      0.000      0.000
REMARK SMILES COC(=O)c1ccc([C@H]2Nc3c(C(=O)NCCCNC(=O)c4ccc(-c5c6nc(c(-c7cccc(S(=O)(=O)[O-])c7F)c7ccc([nH]7)c(-c7cccc(S(=O)(=O)[O-])c7F)c7nc(c(-c8cccc(S(=O)(=O)[O-])c8F)c8ccc5[nH]8)C=C7)C=C6)cc4)cccc3[C@H]3[C@H]4CC[C@H](C4)[C@H]32)cc1
REMARK SMILES IDX 17 1 16 2 15 3 13 4 14 5 12 7 9 8 10 9 95 10 11 11 89 13
REMARK SMILES IDX 93 14 88 15 90 16 92 17 94 18 85 19 87 20 91 21 86 22 8 23
REMARK SMILES IDX 5 24 6 25 97 26 7 27 96 28 3 29 4 30 2 31 1 32 18 33 19 34
REMARK SMILES IDX 20 35 21 37 22 38 23 39 84 40 24 41 83 42 25 43 26 44 27 45
REMARK SMILES IDX 77 46 28 47 82 48 76 49 78 50 29 51 81 52 75 53 74 54 30 56
REMARK SMILES IDX 62 57 42 58 61 59 43 60 46 61 60 62 79 63 44 64 45 65 59 67
REMARK SMILES IDX 80 68 47 69 31 70 32 71 40 72 33 73 35 74 41 75 34 76 36 77
REMARK SMILES IDX 37 78 38 79 39 80 63 81 64 82 72 83 65 84 67 85 73 86 66 87
REMARK SMILES IDX 68 88 69 89 70 90 71 91 48 92 49 93 57 94 50 95 52 96 58 97
REMARK SMILES IDX 51 98 53 99 54 100 55 101 56 102
REMARK H PARENT 15 6 10 12 19 36 78 55 46 66
REMARK Flexibility Score: inf
ROOT
ATOM      1  C   UNL A   1      34.178  21.431  25.654  1.00  0.00     0.042 C 
ENDROOT
BRANCH   1   2
ATOM      2  C   UNL A   1      33.940  21.555  24.152  1.00  0.00     0.118 C 
BRANCH   2   3
ATOM      3  N   UNL A   1      32.545  21.558  23.693  1.00  0.00    -0.352 N 
ATOM      4  C   UNL A   1      31.773  22.594  23.159  1.00  0.00     0.253 C 
ATOM      5  O   UNL A   1      30.634  22.365  22.759  1.00  0.00    -0.269 OA
ATOM      6  H   UNL A   1      32.081  20.693  23.774  1.00  0.00     0.163 HD
BRANCH   4   7
ATOM      7  C   UNL A   1      32.300  23.992  23.154  1.00  0.00     0.063 A 
ATOM      8  C   UNL A   1      30.058  26.308  25.121  1.00  0.00     0.113 C 
ATOM      9  N   UNL A   1      30.544  25.031  24.554  1.00  0.00    -0.377 N 
ATOM     10  C   UNL A   1      31.068  26.788  26.210  1.00  0.00     0.027 C 
ATOM     11  C   UNL A   1      31.864  24.909  24.126  1.00  0.00     0.051 A 
ATOM     12  H   UNL A   1      29.932  24.264  24.479  1.00  0.00     0.161 HD
ATOM     13  C   UNL A   1      32.536  26.304  26.042  1.00  0.00     0.030 C 
ATOM     14  C   UNL A   1      31.293  28.265  26.627  1.00  0.00    -0.005 C 
ATOM     15  C   UNL A   1      32.840  25.749  24.678  1.00  0.00    -0.020 A 
ATOM     16  C   UNL A   1      33.383  27.480  26.603  1.00  0.00    -0.003 C 
ATOM     17  C   UNL A   1      32.004  29.101  25.537  1.00  0.00     0.004 C 
ATOM     18  C   UNL A   1      32.433  28.079  27.644  1.00  0.00     0.008 C 
ATOM     19  C   UNL A   1      33.439  24.276  22.393  1.00  0.00     0.016 A 
ATOM     20  C   UNL A   1      34.093  25.863  24.062  1.00  0.00     0.006 A 
ATOM     21  C   UNL A   1      33.461  28.655  25.625  1.00  0.00     0.004 C 
ATOM     22  C   UNL A   1      34.343  25.223  22.853  1.00  0.00     0.001 A 
BRANCH   8  23
ATOM     23  C   UNL A   1      29.543  27.317  24.077  1.00  0.00    -0.025 A 
ATOM     24  C   UNL A   1      28.505  29.296  22.318  1.00  0.00     0.060 A 
ATOM     25  C   UNL A   1      29.874  29.022  22.345  1.00  0.00     0.016 A 
ATOM     26  C   UNL A   1      27.638  28.504  23.065  1.00  0.00     0.016 A 
ATOM     27  C   UNL A   1      30.387  28.053  23.229  1.00  0.00     0.007 A 
ATOM     28  C   UNL A   1      28.155  27.490  23.881  1.00  0.00     0.007 A 
BRANCH  24  29
ATOM     29  C   UNL A   1      27.995  30.426  21.504  1.00  0.00     0.337 C 
ATOM     30  O   UNL A   1      28.001  30.456  20.288  1.00  0.00    -0.246 OA
BRANCH  29  31
ATOM     31  O   UNL A   1      27.611  31.424  22.342  1.00  0.00    -0.465 OA
ATOM     32  C   UNL A   1      28.566  32.470  22.544  1.00  0.00     0.282 C 
ENDBRANCH  29  31
ENDBRANCH  24  29
ENDBRANCH   8  23
ENDBRANCH   4   7
ENDBRANCH   2   3
ENDBRANCH   1   2
BRANCH   1  33
ATOM     33  C   UNL A   1      35.542  21.858  26.178  1.00  0.00     0.118 C 
BRANCH  33  34
ATOM     34  N   UNL A   1      36.627  20.957  25.812  1.00  0.00    -0.352 N 
ATOM     35  C   UNL A   1      37.991  21.136  25.735  1.00  0.00     0.251 C 
ATOM     36  H   UNL A   1      36.329  20.048  25.576  1.00  0.00     0.163 HD
ATOM     37  O   UNL A   1      38.670  20.200  25.310  1.00  0.00    -0.269 OA
BRANCH  35  38
ATOM     38  C   UNL A   1      38.668  22.404  26.122  1.00  0.00     0.039 A 
ATOM     39  C   UNL A   1      39.831  22.327  26.903  1.00  0.00     0.014 A 
ATOM     40  C   UNL A   1      38.161  23.665  25.802  1.00  0.00     0.014 A 
ATOM     41  C   UNL A   1      40.499  23.491  27.311  1.00  0.00     0.010 A 
ATOM     42  C   UNL A   1      38.875  24.822  26.130  1.00  0.00     0.010 A 
ATOM     43  C   UNL A   1      40.041  24.754  26.906  1.00  0.00    -0.014 A 
BRANCH  43  44
ATOM     44  C   UNL A   1      40.747  26.005  27.307  1.00  0.00     0.031 A 
ATOM     45  C   UNL A   1      42.180  26.242  26.894  1.00  0.00     0.074 A 
ATOM     46  C   UNL A   1      40.135  26.901  28.108  1.00  0.00     0.049 A 
ATOM     47  N   UNL A   1      42.971  27.243  27.186  1.00  0.00    -0.248 NA
ATOM     48  C   UNL A   1      42.818  25.203  26.068  1.00  0.00     0.031 C 
ATOM     49  C   UNL A   1      38.783  26.766  28.653  1.00  0.00     0.029 A 
ATOM     50  N   UNL A   1      40.581  28.095  28.623  1.00  0.00    -0.354 N 
ATOM     51  C   UNL A   1      44.204  26.938  26.622  1.00  0.00     0.074 A 
ATOM     52  C   UNL A   1      44.067  25.638  25.998  1.00  0.00     0.031 C 
ATOM     53  C   UNL A   1      38.509  27.833  29.421  1.00  0.00     0.029 A 
ATOM     54  C   UNL A   1      39.668  28.720  29.442  1.00  0.00     0.049 A 
ATOM     55  H   UNL A   1      41.470  28.468  28.426  1.00  0.00     0.167 HD
ATOM     56  C   UNL A   1      45.340  27.677  26.588  1.00  0.00     0.034 A 
ATOM     57  C   UNL A   1      39.751  29.877  30.130  1.00  0.00     0.034 A 
ATOM     58  C   UNL A   1      45.464  28.995  27.152  1.00  0.00     0.049 A 
ATOM     59  C   UNL A   1      40.997  30.715  30.017  1.00  0.00     0.074 A 
ATOM     60  C   UNL A   1      46.543  29.859  27.091  1.00  0.00     0.029 A 
ATOM     61  N   UNL A   1      44.477  29.642  27.879  1.00  0.00    -0.354 N 
ATOM     62  N   UNL A   1      42.094  30.479  29.339  1.00  0.00    -0.248 NA
ATOM     63  C   UNL A   1      40.997  32.002  30.727  1.00  0.00     0.031 C 
ATOM     64  C   UNL A   1      46.212  31.026  27.791  1.00  0.00     0.029 A 
ATOM     65  C   UNL A   1      44.920  30.895  28.271  1.00  0.00     0.049 A 
ATOM     66  H   UNL A   1      43.591  29.266  28.086  1.00  0.00     0.167 HD
ATOM     67  C   UNL A   1      42.897  31.601  29.509  1.00  0.00     0.074 A 
ATOM     68  C   UNL A   1      42.150  32.528  30.333  1.00  0.00     0.031 C 
ATOM     69  C   UNL A   1      44.148  31.836  29.040  1.00  0.00     0.034 A 
BRANCH  56  70
ATOM     70  C   UNL A   1      46.527  27.103  25.857  1.00  0.00     0.023 A 
ATOM     71  C   UNL A   1      47.245  26.035  26.435  1.00  0.00     0.012 A 
ATOM     72  C   UNL A   1      46.901  27.576  24.584  1.00  0.00     0.148 A 
ATOM     73  C   UNL A   1      48.339  25.474  25.777  1.00  0.00     0.002 A 
ATOM     74  C   UNL A   1      47.966  26.982  23.915  1.00  0.00     0.091 A 
ATOM     75  F   UNL A   1      46.220  28.604  24.058  1.00  0.00    -0.205 F 
ATOM     76  C   UNL A   1      48.693  25.941  24.515  1.00  0.00     0.022 A 
BRANCH  74  77
ATOM     77  S   UNL A   1      48.450  27.456  22.250  1.00  0.00     0.127 S 
ATOM     78  O   UNL A   1      49.638  28.268  22.509  1.00  0.00    -0.237 OA
ATOM     79  O   UNL A   1      48.723  26.160  21.627  1.00  0.00    -0.237 OA
ATOM     80  O   UNL A   1      47.312  28.170  21.691  1.00  0.00    -0.744 OA
ENDBRANCH  74  77
ENDBRANCH  56  70
BRANCH  57  81
ATOM     81  C   UNL A   1      38.582  30.358  30.921  1.00  0.00     0.023 A 
ATOM     82  C   UNL A   1      38.509  30.052  32.296  1.00  0.00     0.012 A 
ATOM     83  C   UNL A   1      37.558  31.125  30.334  1.00  0.00     0.148 A 
ATOM     84  C   UNL A   1      37.421  30.471  33.061  1.00  0.00     0.002 A 
ATOM     85  C   UNL A   1      36.504  31.586  31.115  1.00  0.00     0.091 A 
ATOM     86  F   UNL A   1      37.638  31.394  29.023  1.00  0.00    -0.205 F 
ATOM     87  C   UNL A   1      36.425  31.245  32.474  1.00  0.00     0.022 A 
BRANCH  85  88
ATOM     88  S   UNL A   1      35.245  32.696  30.475  1.00  0.00     0.127 S 
ATOM     89  O   UNL A   1      34.758  31.957  29.312  1.00  0.00    -0.237 OA
ATOM     90  O   UNL A   1      34.307  32.770  31.595  1.00  0.00    -0.237 OA
ATOM     91  O   UNL A   1      35.935  33.946  30.188  1.00  0.00    -0.744 OA
ENDBRANCH  85  88
ENDBRANCH  57  81
BRANCH  69  92
ATOM     92  C   UNL A   1      44.781  33.162  29.373  1.00  0.00     0.023 A 
ATOM     93  C   UNL A   1      45.577  33.290  30.528  1.00  0.00     0.012 A 
ATOM     94  C   UNL A   1      44.630  34.270  28.514  1.00  0.00     0.148 A 
ATOM     95  C   UNL A   1      46.178  34.509  30.846  1.00  0.00     0.002 A 
ATOM     96  C   UNL A   1      45.271  35.467  28.812  1.00  0.00     0.091 A 
ATOM     97  F   UNL A   1      43.851  34.140  27.429  1.00  0.00    -0.205 F 
ATOM     98  C   UNL A   1      46.034  35.592  29.983  1.00  0.00     0.022 A 
BRANCH  96  99
ATOM     99  S   UNL A   1      45.213  36.880  27.703  1.00  0.00     0.127 S 
ATOM    100  O   UNL A   1      46.023  36.412  26.580  1.00  0.00    -0.237 OA
ATOM    101  O   UNL A   1      43.783  36.997  27.415  1.00  0.00    -0.237 OA
ATOM    102  O   UNL A   1      45.764  37.997  28.459  1.00  0.00    -0.744 OA
ENDBRANCH  96  99
ENDBRANCH  69  92
ENDBRANCH  43  44
ENDBRANCH  35  38
ENDBRANCH  33  34
ENDBRANCH   1  33
TORSDOF 16
ENDMDL
MODEL 2
REMARK VINA RESULT:     -13.2      5.024     10.477
REMARK SMILES COC(=O)c1ccc([C@H]2Nc3c(C(=O)NCCCNC(=O)c4ccc(-c5c6nc(c(-c7cccc(S(=O)(=O)[O-])c7F)c7ccc([nH]7)c(-c7cccc(S(=O)(=O)[O-])c7F)c7nc(c(-c8cccc(S(=O)(=O)[O-])c8F)c8ccc5[nH]8)C=C7)C=C6)cc4)cccc3[C@H]3[C@H]4CC[C@H](C4)[C@H]32)cc1
REMARK SMILES IDX 17 1 16 2 15 3 13 4 14 5 12 7 9 8 10 9 95 10 11 11 89 13
REMARK SMILES IDX 93 14 88 15 90 16 92 17 94 18 85 19 87 20 91 21 86 22 8 23
REMARK SMILES IDX 5 24 6 25 97 26 7 27 96 28 3 29 4 30 2 31 1 32 18 33 19 34
REMARK SMILES IDX 20 35 21 37 22 38 23 39 84 40 24 41 83 42 25 43 26 44 27 45
REMARK SMILES IDX 77 46 28 47 82 48 76 49 78 50 29 51 81 52 75 53 74 54 30 56
REMARK SMILES IDX 62 57 42 58 61 59 43 60 46 61 60 62 79 63 44 64 45 65 59 67
REMARK SMILES IDX 80 68 47 69 31 70 32 71 40 72 33 73 35 74 41 75 34 76 36 77
REMARK SMILES IDX 37 78 38 79 39 80 63 81 64 82 72 83 65 84 67 85 73 86 66 87
REMARK SMILES IDX 68 88 69 89 70 90 71 91 48 92 49 93 57 94 50 95 52 96 58 97
REMARK SMILES IDX 51 98 53 99 54 100 55 101 56 102
REMARK H PARENT 15 6 10 12 19 36 78 55 46 66
REMARK Flexibility Score: inf
ROOT
ATOM      1  C   UNL A   1      31.345  29.129  24.410  1.00  0.00     0.042 C 
ENDROOT
BRANCH   1   2
ATOM      2  C   UNL A   1      31.691  27.895  23.582  1.00  0.00     0.118 C 
BRANCH   2   3
ATOM      3  N   UNL A   1      30.587  26.993  23.231  1.00  0.00    -0.352 N 
ATOM      4  C   UNL A   1      30.245  25.742  23.752  1.00  0.00     0.253 C 
ATOM      5  O   UNL A   1      29.222  25.178  23.370  1.00  0.00    -0.269 OA
ATOM      6  H   UNL A   1      29.994  27.322  22.518  1.00  0.00     0.163 HD
BRANCH   4   7
ATOM      7  C   UNL A   1      31.166  25.052  24.707  1.00  0.00     0.063 A 
ATOM      8  C   UNL A   1      33.410  22.599  22.916  1.00  0.00     0.113 C 
ATOM      9  N   UNL A   1      32.379  23.648  23.069  1.00  0.00    -0.377 N 
ATOM     10  C   UNL A   1      34.801  23.210  23.270  1.00  0.00     0.027 C 
ATOM     11  C   UNL A   1      32.326  24.419  24.228  1.00  0.00     0.051 A 
ATOM     12  H   UNL A   1      31.727  23.803  22.347  1.00  0.00     0.161 HD
ATOM     13  C   UNL A   1      34.789  24.414  24.253  1.00  0.00     0.030 C 
ATOM     14  C   UNL A   1      36.017  22.408  23.805  1.00  0.00    -0.005 C 
ATOM     15  C   UNL A   1      33.489  24.583  24.990  1.00  0.00    -0.020 A 
ATOM     16  C   UNL A   1      36.114  24.258  25.051  1.00  0.00    -0.003 C 
ATOM     17  C   UNL A   1      35.821  21.905  25.254  1.00  0.00     0.004 C 
ATOM     18  C   UNL A   1      37.013  23.559  24.027  1.00  0.00     0.008 C 
ATOM     19  C   UNL A   1      31.032  25.314  26.073  1.00  0.00     0.016 A 
ATOM     20  C   UNL A   1      33.404  25.083  26.296  1.00  0.00     0.006 A 
ATOM     21  C   UNL A   1      36.026  23.154  26.107  1.00  0.00     0.004 C 
ATOM     22  C   UNL A   1      32.164  25.327  26.876  1.00  0.00     0.001 A 
BRANCH   8  23
ATOM     23  C   UNL A   1      33.020  21.228  23.502  1.00  0.00    -0.025 A 
ATOM     24  C   UNL A   1      32.464  18.610  24.463  1.00  0.00     0.060 A 
ATOM     25  C   UNL A   1      32.782  19.637  25.354  1.00  0.00     0.016 A 
ATOM     26  C   UNL A   1      32.295  18.907  23.114  1.00  0.00     0.016 A 
ATOM     27  C   UNL A   1      33.073  20.929  24.873  1.00  0.00     0.007 A 
ATOM     28  C   UNL A   1      32.510  20.215  22.660  1.00  0.00     0.007 A 
BRANCH  24  29
ATOM     29  C   UNL A   1      32.318  17.221  24.961  1.00  0.00     0.337 C 
ATOM     30  O   UNL A   1      31.774  16.918  26.005  1.00  0.00    -0.246 OA
BRANCH  29  31
ATOM     31  O   UNL A   1      32.961  16.384  24.104  1.00  0.00    -0.465 OA
ATOM     32  C   UNL A   1      34.390  16.453  24.120  1.00  0.00     0.282 C 
ENDBRANCH  29  31
ENDBRANCH  24  29
ENDBRANCH   8  23
ENDBRANCH   4   7
ENDBRANCH   2   3
ENDBRANCH   1   2
BRANCH   1  33
ATOM     33  C   UNL A   1      32.379  29.595  25.426  1.00  0.00     0.118 C 
BRANCH  33  34
ATOM     34  N   UNL A   1      32.133  30.932  25.952  1.00  0.00    -0.352 N 
ATOM     35  C   UNL A   1      32.764  31.670  26.930  1.00  0.00     0.251 C 
ATOM     36  H   UNL A   1      31.374  31.394  25.529  1.00  0.00     0.163 HD
ATOM     37  O   UNL A   1      32.278  32.763  27.226  1.00  0.00    -0.269 OA
BRANCH  35  38
ATOM     38  C   UNL A   1      33.981  31.201  27.646  1.00  0.00     0.039 A 
ATOM     39  C   UNL A   1      34.920  32.158  28.062  1.00  0.00     0.014 A 
ATOM     40  C   UNL A   1      34.264  29.851  27.861  1.00  0.00     0.014 A 
ATOM     41  C   UNL A   1      36.093  31.769  28.724  1.00  0.00     0.010 A 
ATOM     42  C   UNL A   1      35.387  29.470  28.601  1.00  0.00     0.010 A 
ATOM     43  C   UNL A   1      36.328  30.419  29.025  1.00  0.00    -0.014 A 
BRANCH  43  44
ATOM     44  C   UNL A   1      37.556  29.983  29.750  1.00  0.00     0.031 A 
ATOM     45  C   UNL A   1      37.839  30.481  31.147  1.00  0.00     0.074 A 
ATOM     46  C   UNL A   1      38.465  29.200  29.133  1.00  0.00     0.049 A 
ATOM     47  N   UNL A   1      38.875  30.251  31.914  1.00  0.00    -0.248 NA
ATOM     48  C   UNL A   1      36.841  31.380  31.750  1.00  0.00     0.031 C 
ATOM     49  C   UNL A   1      38.366  28.710  27.757  1.00  0.00     0.029 A 
ATOM     50  N   UNL A   1      39.665  28.697  29.577  1.00  0.00    -0.354 N 
ATOM     51  C   UNL A   1      38.676  31.006  33.065  1.00  0.00     0.074 A 
ATOM     52  C   UNL A   1      37.437  31.730  32.881  1.00  0.00     0.031 C 
ATOM     53  C   UNL A   1      39.454  27.976  27.471  1.00  0.00     0.029 A 
ATOM     54  C   UNL A   1      40.339  27.958  28.632  1.00  0.00     0.049 A 
ATOM     55  H   UNL A   1      40.010  28.851  30.486  1.00  0.00     0.167 HD
ATOM     56  C   UNL A   1      39.430  31.069  34.190  1.00  0.00     0.034 A 
ATOM     57  C   UNL A   1      41.532  27.331  28.692  1.00  0.00     0.034 A 
ATOM     58  C   UNL A   1      40.630  30.305  34.404  1.00  0.00     0.049 A 
ATOM     59  C   UNL A   1      42.315  27.357  29.978  1.00  0.00     0.074 A 
ATOM     60  C   UNL A   1      41.413  30.233  35.543  1.00  0.00     0.029 A 
ATOM     61  N   UNL A   1      41.222  29.479  33.462  1.00  0.00    -0.354 N 
ATOM     62  N   UNL A   1      42.023  27.946  31.112  1.00  0.00    -0.248 NA
ATOM     63  C   UNL A   1      43.570  26.592  30.006  1.00  0.00     0.031 C 
ATOM     64  C   UNL A   1      42.485  29.369  35.286  1.00  0.00     0.029 A 
ATOM     65  C   UNL A   1      42.358  28.890  33.992  1.00  0.00     0.049 A 
ATOM     66  H   UNL A   1      40.884  29.330  32.549  1.00  0.00     0.167 HD
ATOM     67  C   UNL A   1      43.036  27.592  31.998  1.00  0.00     0.074 A 
ATOM     68  C   UNL A   1      43.935  26.717  31.276  1.00  0.00     0.031 C 
ATOM     69  C   UNL A   1      43.215  27.973  33.287  1.00  0.00     0.034 A 
BRANCH  56  70
ATOM     70  C   UNL A   1      38.941  31.952  35.311  1.00  0.00     0.023 A 
ATOM     71  C   UNL A   1      39.099  33.350  35.210  1.00  0.00     0.012 A 
ATOM     72  C   UNL A   1      38.282  31.412  36.432  1.00  0.00     0.148 A 
ATOM     73  C   UNL A   1      38.645  34.193  36.223  1.00  0.00     0.002 A 
ATOM     74  C   UNL A   1      37.792  32.263  37.418  1.00  0.00     0.091 A 
ATOM     75  F   UNL A   1      38.157  30.080  36.522  1.00  0.00    -0.205 F 
ATOM     76  C   UNL A   1      37.984  33.650  37.321  1.00  0.00     0.022 A 
BRANCH  74  77
ATOM     77  S   UNL A   1      36.855  31.669  38.832  1.00  0.00     0.127 S 
ATOM     78  O   UNL A   1      37.812  31.861  39.921  1.00  0.00    -0.237 OA
ATOM     79  O   UNL A   1      35.715  32.586  38.855  1.00  0.00    -0.237 OA
ATOM     80  O   UNL A   1      36.514  30.286  38.534  1.00  0.00    -0.744 OA
ENDBRANCH  74  77
ENDBRANCH  56  70
BRANCH  57  81
ATOM     81  C   UNL A   1      42.022  26.549  27.521  1.00  0.00     0.023 A 
ATOM     82  C   UNL A   1      42.745  27.209  26.506  1.00  0.00     0.012 A 
ATOM     83  C   UNL A   1      41.796  25.164  27.411  1.00  0.00     0.148 A 
ATOM     84  C   UNL A   1      43.201  26.512  25.388  1.00  0.00     0.002 A 
ATOM     85  C   UNL A   1      42.302  24.464  26.321  1.00  0.00     0.091 A 
ATOM     86  F   UNL A   1      41.095  24.556  28.379  1.00  0.00    -0.205 F 
ATOM     87  C   UNL A   1      42.989  25.139  25.301  1.00  0.00     0.022 A 
BRANCH  85  88
ATOM     88  S   UNL A   1      42.189  22.676  26.188  1.00  0.00     0.127 S 
ATOM     89  O   UNL A   1      40.744  22.471  26.128  1.00  0.00    -0.237 OA
ATOM     90  O   UNL A   1      42.901  22.419  24.937  1.00  0.00    -0.237 OA
ATOM     91  O   UNL A   1      42.855  22.153  27.374  1.00  0.00    -0.744 OA
ENDBRANCH  85  88
ENDBRANCH  57  81
BRANCH  69  92
ATOM     92  C   UNL A   1      44.408  27.417  34.020  1.00  0.00     0.023 A 
ATOM     93  C   UNL A   1      45.646  28.088  33.957  1.00  0.00     0.012 A 
ATOM     94  C   UNL A   1      44.293  26.257  34.813  1.00  0.00     0.148 A 
ATOM     95  C   UNL A   1      46.759  27.592  34.637  1.00  0.00     0.002 A 
ATOM     96  C   UNL A   1      45.395  25.796  35.526  1.00  0.00     0.091 A 
ATOM     97  F   UNL A   1      43.115  25.616  34.845  1.00  0.00    -0.205 F 
ATOM     98  C   UNL A   1      46.630  26.454  35.429  1.00  0.00     0.022 A 
BRANCH  96  99
ATOM     99  S   UNL A   1      45.285  24.391  36.643  1.00  0.00     0.127 S 
ATOM    100  O   UNL A   1      46.657  24.296  37.137  1.00  0.00    -0.237 OA
ATOM    101  O   UNL A   1      44.311  24.852  37.633  1.00  0.00    -0.237 OA
ATOM    102  O   UNL A   1      44.827  23.275  35.827  1.00  0.00    -0.744 OA
ENDBRANCH  96  99
ENDBRANCH  69  92
ENDBRANCH  43  44
ENDBRANCH  35  38
ENDBRANCH  33  34
ENDBRANCH   1  33
TORSDOF 16
ENDMDL
MODEL 3
REMARK VINA RESULT:     -13.2      4.973     10.357
REMARK SMILES COC(=O)c1ccc([C@H]2Nc3c(C(=O)NCCCNC(=O)c4ccc(-c5c6nc(c(-c7cccc(S(=O)(=O)[O-])c7F)c7ccc([nH]7)c(-c7cccc(S(=O)(=O)[O-])c7F)c7nc(c(-c8cccc(S(=O)(=O)[O-])c8F)c8ccc5[nH]8)C=C7)C=C6)cc4)cccc3[C@H]3[C@H]4CC[C@H](C4)[C@H]32)cc1
REMARK SMILES IDX 17 1 16 2 15 3 13 4 14 5 12 7 9 8 10 9 95 10 11 11 89 13
REMARK SMILES IDX 93 14 88 15 90 16 92 17 94 18 85 19 87 20 91 21 86 22 8 23
REMARK SMILES IDX 5 24 6 25 97 26 7 27 96 28 3 29 4 30 2 31 1 32 18 33 19 34
REMARK SMILES IDX 20 35 21 37 22 38 23 39 84 40 24 41 83 42 25 43 26 44 27 45
REMARK SMILES IDX 77 46 28 47 82 48 76 49 78 50 29 51 81 52 75 53 74 54 30 56
REMARK SMILES IDX 62 57 42 58 61 59 43 60 46 61 60 62 79 63 44 64 45 65 59 67
REMARK SMILES IDX 80 68 47 69 31 70 32 71 40 72 33 73 35 74 41 75 34 76 36 77
REMARK SMILES IDX 37 78 38 79 39 80 63 81 64 82 72 83 65 84 67 85 73 86 66 87
REMARK SMILES IDX 68 88 69 89 70 90 71 91 48 92 49 93 57 94 50 95 52 96 58 97
REMARK SMILES IDX 51 98 53 99 54 100 55 101 56 102
REMARK H PARENT 15 6 10 12 19 36 78 55 46 66
REMARK Flexibility Score: inf
ROOT
ATOM      1  C   UNL A   1      31.399  29.032  25.027  1.00  0.00     0.042 C 
ENDROOT
BRANCH   1   2
ATOM      2  C   UNL A   1      31.580  28.978  23.512  1.00  0.00     0.118 C 
BRANCH   2   3
ATOM      3  N   UNL A   1      32.948  29.110  22.997  1.00  0.00    -0.352 N 
ATOM      4  C   UNL A   1      33.801  28.148  22.448  1.00  0.00     0.253 C 
ATOM      5  O   UNL A   1      34.894  28.485  21.998  1.00  0.00    -0.269 OA
ATOM      6  H   UNL A   1      33.323  30.019  23.046  1.00  0.00     0.163 HD
BRANCH   4   7
ATOM      7  C   UNL A   1      33.422  26.703  22.486  1.00  0.00     0.063 A 
ATOM      8  C   UNL A   1      34.220  25.165  25.842  1.00  0.00     0.113 C 
ATOM      9  N   UNL A   1      34.099  26.227  24.818  1.00  0.00    -0.377 N 
ATOM     10  C   UNL A   1      32.787  24.724  26.275  1.00  0.00     0.027 C 
ATOM     11  C   UNL A   1      33.257  26.054  23.722  1.00  0.00     0.051 A 
ATOM     12  H   UNL A   1      34.618  27.059  24.912  1.00  0.00     0.161 HD
ATOM     13  C   UNL A   1      31.662  24.924  25.221  1.00  0.00     0.030 C 
ATOM     14  C   UNL A   1      32.417  23.326  26.836  1.00  0.00    -0.005 C 
ATOM     15  C   UNL A   1      32.171  25.176  23.829  1.00  0.00    -0.020 A 
ATOM     16  C   UNL A   1      30.689  23.741  25.485  1.00  0.00    -0.003 C 
ATOM     17  C   UNL A   1      32.486  22.208  25.770  1.00  0.00     0.004 C 
ATOM     18  C   UNL A   1      30.895  23.497  26.982  1.00  0.00     0.008 C 
ATOM     19  C   UNL A   1      32.933  26.108  21.319  1.00  0.00     0.016 A 
ATOM     20  C   UNL A   1      31.500  24.752  22.674  1.00  0.00     0.006 A 
ATOM     21  C   UNL A   1      31.225  22.418  24.935  1.00  0.00     0.004 C 
ATOM     22  C   UNL A   1      31.963  25.121  21.416  1.00  0.00     0.001 A 
BRANCH   8  23
ATOM     23  C   UNL A   1      35.275  24.087  25.525  1.00  0.00    -0.025 A 
ATOM     24  C   UNL A   1      37.184  22.015  25.144  1.00  0.00     0.060 A 
ATOM     25  C   UNL A   1      36.099  22.145  24.275  1.00  0.00     0.016 A 
ATOM     26  C   UNL A   1      37.395  22.985  26.120  1.00  0.00     0.016 A 
ATOM     27  C   UNL A   1      35.146  23.162  24.476  1.00  0.00     0.007 A 
ATOM     28  C   UNL A   1      36.481  24.037  26.259  1.00  0.00     0.007 A 
BRANCH  24  29
ATOM     29  C   UNL A   1      38.091  20.848  25.023  1.00  0.00     0.337 C 
ATOM     30  O   UNL A   1      37.823  19.828  24.417  1.00  0.00    -0.246 OA
BRANCH  29  31
ATOM     31  O   UNL A   1      39.206  21.088  25.762  1.00  0.00    -0.465 OA
ATOM     32  C   UNL A   1      40.054  19.959  25.996  1.00  0.00     0.282 C 
ENDBRANCH  29  31
ENDBRANCH  24  29
ENDBRANCH   8  23
ENDBRANCH   4   7
ENDBRANCH   2   3
ENDBRANCH   1   2
BRANCH   1  33
ATOM     33  C   UNL A   1      32.545  29.614  25.842  1.00  0.00     0.118 C 
BRANCH  33  34
ATOM     34  N   UNL A   1      32.339  30.998  26.251  1.00  0.00    -0.352 N 
ATOM     35  C   UNL A   1      33.029  31.817  27.118  1.00  0.00     0.251 C 
ATOM     36  H   UNL A   1      31.562  31.428  25.827  1.00  0.00     0.163 HD
ATOM     37  O   UNL A   1      32.569  32.939  27.334  1.00  0.00    -0.269 OA
BRANCH  35  38
ATOM     38  C   UNL A   1      34.280  31.401  27.809  1.00  0.00     0.039 A 
ATOM     39  C   UNL A   1      35.289  32.360  27.995  1.00  0.00     0.014 A 
ATOM     40  C   UNL A   1      34.523  30.089  28.217  1.00  0.00     0.014 A 
ATOM     41  C   UNL A   1      36.494  32.018  28.623  1.00  0.00     0.010 A 
ATOM     42  C   UNL A   1      35.686  29.769  28.924  1.00  0.00     0.010 A 
ATOM     43  C   UNL A   1      36.697  30.721  29.120  1.00  0.00    -0.014 A 
BRANCH  43  44
ATOM     44  C   UNL A   1      37.960  30.339  29.813  1.00  0.00     0.031 A 
ATOM     45  C   UNL A   1      38.234  30.809  31.221  1.00  0.00     0.074 A 
ATOM     46  C   UNL A   1      38.906  29.633  29.158  1.00  0.00     0.049 A 
ATOM     47  N   UNL A   1      39.294  30.619  31.967  1.00  0.00    -0.248 NA
ATOM     48  C   UNL A   1      37.193  31.625  31.868  1.00  0.00     0.031 C 
ATOM     49  C   UNL A   1      38.816  29.183  27.768  1.00  0.00     0.029 A 
ATOM     50  N   UNL A   1      40.141  29.192  29.569  1.00  0.00    -0.354 N 
ATOM     51  C   UNL A   1      39.068  31.323  33.144  1.00  0.00     0.074 A 
ATOM     52  C   UNL A   1      37.783  31.975  33.001  1.00  0.00     0.031 C 
ATOM     53  C   UNL A   1      39.942  28.527  27.444  1.00  0.00     0.029 A 
ATOM     54  C   UNL A   1      40.844  28.526  28.591  1.00  0.00     0.049 A 
ATOM     55  H   UNL A   1      40.490  29.339  30.478  1.00  0.00     0.167 HD
ATOM     56  C   UNL A   1      39.833  31.397  34.260  1.00  0.00     0.034 A 
ATOM     57  C   UNL A   1      42.074  27.974  28.615  1.00  0.00     0.034 A 
ATOM     58  C   UNL A   1      41.081  30.702  34.433  1.00  0.00     0.049 A 
ATOM     59  C   UNL A   1      42.874  28.007  29.890  1.00  0.00     0.074 A 
ATOM     60  C   UNL A   1      41.885  30.643  35.558  1.00  0.00     0.029 A 
ATOM     61  N   UNL A   1      41.708  29.945  33.456  1.00  0.00    -0.354 N 
ATOM     62  N   UNL A   1      42.565  28.540  31.046  1.00  0.00    -0.248 NA
ATOM     63  C   UNL A   1      44.174  27.320  29.875  1.00  0.00     0.031 C 
ATOM     64  C   UNL A   1      43.004  29.856  35.258  1.00  0.00     0.029 A 
ATOM     65  C   UNL A   1      42.886  29.411  33.951  1.00  0.00     0.049 A 
ATOM     66  H   UNL A   1      41.365  29.805  32.544  1.00  0.00     0.167 HD
ATOM     67  C   UNL A   1      43.611  28.222  31.906  1.00  0.00     0.074 A 
ATOM     68  C   UNL A   1      44.550  27.427  31.143  1.00  0.00     0.031 C 
ATOM     69  C   UNL A   1      43.786  28.571  33.205  1.00  0.00     0.034 A 
BRANCH  56  70
ATOM     70  C   UNL A   1      39.309  32.212  35.416  1.00  0.00     0.023 A 
ATOM     71  C   UNL A   1      39.473  33.613  35.406  1.00  0.00     0.012 A 
ATOM     72  C   UNL A   1      38.611  31.607  36.479  1.00  0.00     0.148 A 
ATOM     73  C   UNL A   1      38.988  34.394  36.454  1.00  0.00     0.002 A 
ATOM     74  C   UNL A   1      38.089  32.399  37.498  1.00  0.00     0.091 A 
ATOM     75  F   UNL A   1      38.479  30.273  36.483  1.00  0.00    -0.205 F 
ATOM     76  C   UNL A   1      38.288  33.789  37.493  1.00  0.00     0.022 A 
BRANCH  74  77
ATOM     77  S   UNL A   1      37.104  31.724  38.841  1.00  0.00     0.127 S 
ATOM     78  O   UNL A   1      37.997  31.908  39.984  1.00  0.00    -0.237 OA
ATOM     79  O   UNL A   1      35.933  32.602  38.836  1.00  0.00    -0.237 OA
ATOM     80  O   UNL A   1      36.826  30.341  38.478  1.00  0.00    -0.744 OA
ENDBRANCH  74  77
ENDBRANCH  56  70
BRANCH  57  81
ATOM     81  C   UNL A   1      42.593  27.260  27.412  1.00  0.00     0.023 A 
ATOM     82  C   UNL A   1      43.222  28.002  26.391  1.00  0.00     0.012 A 
ATOM     83  C   UNL A   1      42.486  25.863  27.278  1.00  0.00     0.148 A 
ATOM     84  C   UNL A   1      43.702  27.369  25.244  1.00  0.00     0.002 A 
ATOM     85  C   UNL A   1      43.015  25.233  26.158  1.00  0.00     0.091 A 
ATOM     86  F   UNL A   1      41.873  25.177  28.253  1.00  0.00    -0.205 F 
ATOM     87  C   UNL A   1      43.607  25.985  25.132  1.00  0.00     0.022 A 
BRANCH  85  88
ATOM     88  S   UNL A   1      43.056  23.445  25.989  1.00  0.00     0.127 S 
ATOM     89  O   UNL A   1      43.388  23.285  24.575  1.00  0.00    -0.237 OA
ATOM     90  O   UNL A   1      44.124  23.076  26.918  1.00  0.00    -0.237 OA
ATOM     91  O   UNL A   1      41.733  22.984  26.386  1.00  0.00    -0.744 OA
ENDBRANCH  85  88
ENDBRANCH  57  81
BRANCH  69  92
ATOM     92  C   UNL A   1      45.023  28.067  33.902  1.00  0.00     0.023 A 
ATOM     93  C   UNL A   1      46.205  28.834  33.877  1.00  0.00     0.012 A 
ATOM     94  C   UNL A   1      45.002  26.858  34.627  1.00  0.00     0.148 A 
ATOM     95  C   UNL A   1      47.357  28.386  34.525  1.00  0.00     0.002 A 
ATOM     96  C   UNL A   1      46.139  26.443  35.311  1.00  0.00     0.091 A 
ATOM     97  F   UNL A   1      43.876  26.128  34.624  1.00  0.00    -0.205 F 
ATOM     98  C   UNL A   1      47.320  27.198  35.250  1.00  0.00     0.022 A 
BRANCH  96  99
ATOM     99  S   UNL A   1      46.144  24.972  36.345  1.00  0.00     0.127 S 
ATOM    100  O   UNL A   1      47.505  24.986  36.877  1.00  0.00    -0.237 OA
ATOM    101  O   UNL A   1      45.102  25.275  37.328  1.00  0.00    -0.237 OA
ATOM    102  O   UNL A   1      45.823  23.865  35.455  1.00  0.00    -0.744 OA
ENDBRANCH  96  99
ENDBRANCH  69  92
ENDBRANCH  43  44
ENDBRANCH  35  38
ENDBRANCH  33  34
ENDBRANCH   1  33
TORSDOF 16
ENDMDL
