MODEL 1
REMARK VINA RESULT:     -10.7      0.000      0.000
REMARK SMILES CCc1nnsc1C(=O)N[C@](C)(CC)C(=O)NCCCNC(=O)c1ccc(-c2c3nc(c(-c4cccc(S(=O)(=O)[O-])c4F)c4ccc([nH]4)c(-c4cccc(S(=O)(=O)[O-])c4F)c4nc(c(-c5cccc(S(=O)(=O)[O-])c5F)c5ccc2[nH]5)C=C4)C=C3)cc1
REMARK SMILES IDX 19 1 18 2 17 3 15 4 16 5 11 7 12 8 10 9 8 10 9 11 7 13 3 14
REMARK SMILES IDX 4 15 5 16 6 17 2 18 1 19 13 20 14 21 20 22 21 23 22 24 23 26
REMARK SMILES IDX 24 27 25 28 86 29 26 30 85 31 27 32 28 33 29 34 79 35 30 36
REMARK SMILES IDX 84 37 78 38 80 39 31 40 83 41 77 42 76 43 32 45 64 46 44 47
REMARK SMILES IDX 63 48 45 49 48 50 62 51 81 52 46 53 47 54 61 56 82 57 49 58
REMARK SMILES IDX 33 59 34 60 42 61 35 62 37 63 43 64 36 65 38 66 39 67 40 68
REMARK SMILES IDX 41 69 65 70 66 71 74 72 67 73 69 74 75 75 68 76 70 77 71 78
REMARK SMILES IDX 72 79 73 80 50 81 51 82 59 83 52 84 54 85 60 86 53 87 55 88
REMARK SMILES IDX 56 89 57 90 58 91
REMARK H PARENT 17 6 10 12 21 25 80 44 48 55
REMARK Flexibility Score: inf
ROOT
ATOM      1  C   UNL A   1      37.994  19.925  24.964  1.00  0.00     0.042 C 
ENDROOT
BRANCH   1   2
ATOM      2  C   UNL A   1      37.018  21.077  24.748  1.00  0.00     0.117 C 
BRANCH   2   3
ATOM      3  N   UNL A   1      35.734  20.765  25.368  1.00  0.00    -0.354 N 
ATOM      4  C   UNL A   1      34.765  21.617  25.831  1.00  0.00     0.245 C 
ATOM      5  O   UNL A   1      34.090  21.238  26.792  1.00  0.00    -0.272 OA
ATOM      6  H   UNL A   1      35.536  19.806  25.466  1.00  0.00     0.163 HD
BRANCH   4   7
ATOM      7  C   UNL A   1      34.632  23.042  25.258  1.00  0.00     0.116 C 
ATOM      8  C   UNL A   1      35.856  23.957  25.359  1.00  0.00     0.045 C 
BRANCH   7   9
ATOM      9  N   UNL A   1      33.513  23.716  25.934  1.00  0.00    -0.337 N 
ATOM     10  C   UNL A   1      32.875  24.931  25.872  1.00  0.00     0.265 C 
ATOM     11  O   UNL A   1      31.896  24.907  26.637  1.00  0.00    -0.268 OA
ATOM     12  H   UNL A   1      33.109  23.135  26.620  1.00  0.00     0.164 HD
BRANCH  10  13
ATOM     13  C   UNL A   1      33.188  26.143  25.101  1.00  0.00     0.136 A 
ATOM     14  C   UNL A   1      33.395  26.675  23.814  1.00  0.00     0.088 A 
ATOM     15  N   UNL A   1      33.698  28.049  23.778  1.00  0.00    -0.142 NA
ATOM     16  N   UNL A   1      33.768  28.598  24.963  1.00  0.00    -0.090 NA
ATOM     17  S   UNL A   1      33.458  27.527  26.175  1.00  0.00    -0.006 S 
BRANCH  14  18
ATOM     18  C   UNL A   1      33.415  26.119  22.428  1.00  0.00     0.056 C 
ATOM     19  C   UNL A   1      32.075  25.617  21.924  1.00  0.00     0.011 C 
ENDBRANCH  14  18
ENDBRANCH  10  13
ENDBRANCH   7   9
BRANCH   7  20
ATOM     20  C   UNL A   1      34.346  22.841  23.731  1.00  0.00     0.035 C 
ATOM     21  C   UNL A   1      33.021  22.125  23.442  1.00  0.00     0.007 C 
ENDBRANCH   7  20
ENDBRANCH   4   7
ENDBRANCH   2   3
ENDBRANCH   1   2
BRANCH   1  22
ATOM     22  C   UNL A   1      39.059  20.255  25.997  1.00  0.00     0.118 C 
BRANCH  22  23
ATOM     23  N   UNL A   1      40.110  19.247  26.028  1.00  0.00    -0.352 N 
ATOM     24  C   UNL A   1      41.473  19.416  26.074  1.00  0.00     0.251 C 
ATOM     25  H   UNL A   1      39.801  18.313  26.012  1.00  0.00     0.163 HD
ATOM     26  O   UNL A   1      42.213  18.466  25.851  1.00  0.00    -0.269 OA
BRANCH  24  27
ATOM     27  C   UNL A   1      42.034  20.749  26.380  1.00  0.00     0.039 A 
ATOM     28  C   UNL A   1      42.299  21.630  25.329  1.00  0.00     0.014 A 
ATOM     29  C   UNL A   1      42.297  21.128  27.699  1.00  0.00     0.014 A 
ATOM     30  C   UNL A   1      42.774  22.912  25.609  1.00  0.00     0.010 A 
ATOM     31  C   UNL A   1      42.680  22.434  27.981  1.00  0.00     0.010 A 
ATOM     32  C   UNL A   1      42.934  23.337  26.939  1.00  0.00    -0.014 A 
BRANCH  32  33
ATOM     33  C   UNL A   1      43.361  24.722  27.260  1.00  0.00     0.031 A 
ATOM     34  C   UNL A   1      42.390  25.692  27.877  1.00  0.00     0.074 A 
ATOM     35  C   UNL A   1      44.600  25.130  26.919  1.00  0.00     0.049 A 
ATOM     36  N   UNL A   1      42.566  26.953  28.177  1.00  0.00    -0.248 NA
ATOM     37  C   UNL A   1      41.037  25.191  28.169  1.00  0.00     0.031 C 
ATOM     38  C   UNL A   1      45.606  24.306  26.245  1.00  0.00     0.029 A 
ATOM     39  N   UNL A   1      45.215  26.348  27.068  1.00  0.00    -0.354 N 
ATOM     40  C   UNL A   1      41.342  27.403  28.659  1.00  0.00     0.074 A 
ATOM     41  C   UNL A   1      40.421  26.290  28.576  1.00  0.00     0.031 C 
ATOM     42  C   UNL A   1      46.714  25.039  26.046  1.00  0.00     0.029 A 
ATOM     43  C   UNL A   1      46.486  26.392  26.543  1.00  0.00     0.049 A 
ATOM     44  H   UNL A   1      44.787  27.118  27.508  1.00  0.00     0.167 HD
ATOM     45  C   UNL A   1      41.020  28.621  29.152  1.00  0.00     0.034 A 
ATOM     46  C   UNL A   1      47.363  27.411  26.457  1.00  0.00     0.034 A 
ATOM     47  C   UNL A   1      41.948  29.714  29.265  1.00  0.00     0.049 A 
ATOM     48  C   UNL A   1      46.989  28.747  27.036  1.00  0.00     0.074 A 
ATOM     49  C   UNL A   1      41.744  30.961  29.830  1.00  0.00     0.029 A 
ATOM     50  N   UNL A   1      43.250  29.699  28.789  1.00  0.00    -0.354 N 
ATOM     51  N   UNL A   1      45.878  29.107  27.631  1.00  0.00    -0.248 NA
ATOM     52  C   UNL A   1      48.002  29.811  26.962  1.00  0.00     0.031 C 
ATOM     53  C   UNL A   1      42.911  31.712  29.664  1.00  0.00     0.029 A 
ATOM     54  C   UNL A   1      43.857  30.919  29.033  1.00  0.00     0.049 A 
ATOM     55  H   UNL A   1      43.679  28.934  28.344  1.00  0.00     0.167 HD
ATOM     56  C   UNL A   1      46.071  30.423  28.036  1.00  0.00     0.074 A 
ATOM     57  C   UNL A   1      47.414  30.790  27.636  1.00  0.00     0.031 C 
ATOM     58  C   UNL A   1      45.210  31.257  28.672  1.00  0.00     0.034 A 
BRANCH  45  59
ATOM     59  C   UNL A   1      39.611  28.828  29.647  1.00  0.00     0.023 A 
ATOM     60  C   UNL A   1      39.240  28.354  30.922  1.00  0.00     0.012 A 
ATOM     61  C   UNL A   1      38.672  29.543  28.877  1.00  0.00     0.148 A 
ATOM     62  C   UNL A   1      37.948  28.551  31.408  1.00  0.00     0.002 A 
ATOM     63  C   UNL A   1      37.400  29.779  29.388  1.00  0.00     0.091 A 
ATOM     64  F   UNL A   1      39.035  29.970  27.660  1.00  0.00    -0.205 F 
ATOM     65  C   UNL A   1      37.033  29.272  30.645  1.00  0.00     0.022 A 
BRANCH  63  66
ATOM     66  S   UNL A   1      36.176  30.768  28.522  1.00  0.00     0.127 S 
ATOM     67  O   UNL A   1      35.134  30.903  29.540  1.00  0.00    -0.237 OA
ATOM     68  O   UNL A   1      36.918  31.996  28.241  1.00  0.00    -0.237 OA
ATOM     69  O   UNL A   1      35.799  30.001  27.344  1.00  0.00    -0.744 OA
ENDBRANCH  63  66
ENDBRANCH  45  59
BRANCH  46  70
ATOM     70  C   UNL A   1      48.704  27.190  25.845  1.00  0.00     0.023 A 
ATOM     71  C   UNL A   1      49.757  26.691  26.636  1.00  0.00     0.012 A 
ATOM     72  C   UNL A   1      48.936  27.449  24.479  1.00  0.00     0.148 A 
ATOM     73  C   UNL A   1      51.024  26.488  26.090  1.00  0.00     0.002 A 
ATOM     74  C   UNL A   1      50.184  27.189  23.928  1.00  0.00     0.091 A 
ATOM     75  F   UNL A   1      47.923  27.930  23.745  1.00  0.00    -0.205 F 
ATOM     76  C   UNL A   1      51.236  26.728  24.735  1.00  0.00     0.022 A 
BRANCH  74  77
ATOM     77  S   UNL A   1      50.510  27.341  22.168  1.00  0.00     0.127 S 
ATOM     78  O   UNL A   1      50.373  28.780  21.961  1.00  0.00    -0.237 OA
ATOM     79  O   UNL A   1      51.879  26.831  22.071  1.00  0.00    -0.237 OA
ATOM     80  O   UNL A   1      49.512  26.510  21.508  1.00  0.00    -0.744 OA
ENDBRANCH  74  77
ENDBRANCH  46  70
BRANCH  58  81
ATOM     81  C   UNL A   1      45.701  32.639  29.017  1.00  0.00     0.023 A 
ATOM     82  C   UNL A   1      46.372  32.866  30.235  1.00  0.00     0.012 A 
ATOM     83  C   UNL A   1      45.557  33.698  28.098  1.00  0.00     0.148 A 
ATOM     84  C   UNL A   1      46.861  34.134  30.548  1.00  0.00     0.002 A 
ATOM     85  C   UNL A   1      46.094  34.944  28.393  1.00  0.00     0.091 A 
ATOM     86  F   UNL A   1      44.900  33.465  26.953  1.00  0.00    -0.205 F 
ATOM     87  C   UNL A   1      46.734  35.168  29.624  1.00  0.00     0.022 A 
BRANCH  85  88
ATOM     88  S   UNL A   1      46.066  36.308  27.225  1.00  0.00     0.127 S 
ATOM     89  O   UNL A   1      46.569  35.669  26.009  1.00  0.00    -0.237 OA
ATOM     90  O   UNL A   1      44.645  36.653  27.188  1.00  0.00    -0.237 OA
ATOM     91  O   UNL A   1      46.926  37.340  27.788  1.00  0.00    -0.744 OA
ENDBRANCH  85  88
ENDBRANCH  58  81
ENDBRANCH  32  33
ENDBRANCH  24  27
ENDBRANCH  22  23
ENDBRANCH   1  22
TORSDOF 17
ENDMDL
MODEL 2
REMARK VINA RESULT:     -10.6      6.386     11.589
REMARK SMILES CCc1nnsc1C(=O)N[C@](C)(CC)C(=O)NCCCNC(=O)c1ccc(-c2c3nc(c(-c4cccc(S(=O)(=O)[O-])c4F)c4ccc([nH]4)c(-c4cccc(S(=O)(=O)[O-])c4F)c4nc(c(-c5cccc(S(=O)(=O)[O-])c5F)c5ccc2[nH]5)C=C4)C=C3)cc1
REMARK SMILES IDX 19 1 18 2 17 3 15 4 16 5 11 7 12 8 10 9 8 10 9 11 7 13 3 14
REMARK SMILES IDX 4 15 5 16 6 17 2 18 1 19 13 20 14 21 20 22 21 23 22 24 23 26
REMARK SMILES IDX 24 27 25 28 86 29 26 30 85 31 27 32 28 33 29 34 79 35 30 36
REMARK SMILES IDX 84 37 78 38 80 39 31 40 83 41 77 42 76 43 32 45 64 46 44 47
REMARK SMILES IDX 63 48 45 49 48 50 62 51 81 52 46 53 47 54 61 56 82 57 49 58
REMARK SMILES IDX 33 59 34 60 42 61 35 62 37 63 43 64 36 65 38 66 39 67 40 68
REMARK SMILES IDX 41 69 65 70 66 71 74 72 67 73 69 74 75 75 68 76 70 77 71 78
REMARK SMILES IDX 72 79 73 80 50 81 51 82 59 83 52 84 54 85 60 86 53 87 55 88
REMARK SMILES IDX 56 89 57 90 58 91
REMARK H PARENT 17 6 10 12 21 25 80 44 48 55
REMARK Flexibility Score: inf
ROOT
ATOM      1  C   UNL A   1      31.511  31.326  26.556  1.00  0.00     0.042 C 
ENDROOT
BRANCH   1   2
ATOM      2  C   UNL A   1      31.797  29.918  26.047  1.00  0.00     0.117 C 
BRANCH   2   3
ATOM      3  N   UNL A   1      32.237  29.971  24.657  1.00  0.00    -0.354 N 
ATOM      4  C   UNL A   1      32.860  29.007  23.906  1.00  0.00     0.245 C 
ATOM      5  O   UNL A   1      33.644  29.387  23.033  1.00  0.00    -0.272 OA
ATOM      6  H   UNL A   1      32.062  30.820  24.191  1.00  0.00     0.163 HD
BRANCH   4   7
ATOM      7  C   UNL A   1      32.688  27.513  24.248  1.00  0.00     0.116 C 
ATOM      8  C   UNL A   1      33.348  27.005  25.532  1.00  0.00     0.045 C 
BRANCH   7   9
ATOM      9  N   UNL A   1      33.212  26.714  23.129  1.00  0.00    -0.337 N 
ATOM     10  C   UNL A   1      33.397  25.386  22.833  1.00  0.00     0.265 C 
ATOM     11  O   UNL A   1      33.799  25.291  21.660  1.00  0.00    -0.268 OA
ATOM     12  H   UNL A   1      33.513  27.291  22.389  1.00  0.00     0.164 HD
BRANCH  10  13
ATOM     13  C   UNL A   1      33.212  24.182  23.656  1.00  0.00     0.136 A 
ATOM     14  C   UNL A   1      32.348  23.501  24.533  1.00  0.00     0.088 A 
ATOM     15  N   UNL A   1      32.836  22.273  25.018  1.00  0.00    -0.142 NA
ATOM     16  N   UNL A   1      34.037  21.984  24.589  1.00  0.00    -0.090 NA
ATOM     17  S   UNL A   1      34.641  23.135  23.578  1.00  0.00    -0.006 S 
BRANCH  14  18
ATOM     18  C   UNL A   1      31.011  23.784  25.134  1.00  0.00     0.056 C 
ATOM     19  C   UNL A   1      30.713  23.023  26.413  1.00  0.00     0.011 C 
ENDBRANCH  14  18
ENDBRANCH  10  13
ENDBRANCH   7   9
BRANCH   7  20
ATOM     20  C   UNL A   1      31.144  27.312  24.426  1.00  0.00     0.035 C 
ATOM     21  C   UNL A   1      30.376  27.243  23.100  1.00  0.00     0.007 C 
ENDBRANCH   7  20
ENDBRANCH   4   7
ENDBRANCH   2   3
ENDBRANCH   1   2
BRANCH   1  22
ATOM     22  C   UNL A   1      32.768  32.031  27.045  1.00  0.00     0.118 C 
BRANCH  22  23
ATOM     23  N   UNL A   1      32.527  33.444  27.304  1.00  0.00    -0.352 N 
ATOM     24  C   UNL A   1      33.059  34.249  28.281  1.00  0.00     0.251 C 
ATOM     25  H   UNL A   1      31.893  33.884  26.693  1.00  0.00     0.163 HD
ATOM     26  O   UNL A   1      32.565  35.348  28.501  1.00  0.00    -0.269 OA
BRANCH  24  27
ATOM     27  C   UNL A   1      34.217  33.776  29.069  1.00  0.00     0.039 A 
ATOM     28  C   UNL A   1      34.001  32.880  30.119  1.00  0.00     0.014 A 
ATOM     29  C   UNL A   1      35.510  34.212  28.771  1.00  0.00     0.014 A 
ATOM     30  C   UNL A   1      35.092  32.380  30.832  1.00  0.00     0.010 A 
ATOM     31  C   UNL A   1      36.600  33.643  29.420  1.00  0.00     0.010 A 
ATOM     32  C   UNL A   1      36.403  32.730  30.465  1.00  0.00    -0.014 A 
BRANCH  32  33
ATOM     33  C   UNL A   1      37.579  32.147  31.159  1.00  0.00     0.031 A 
ATOM     34  C   UNL A   1      38.338  31.006  30.538  1.00  0.00     0.074 A 
ATOM     35  C   UNL A   1      37.913  32.592  32.387  1.00  0.00     0.049 A 
ATOM     36  N   UNL A   1      39.354  30.336  31.017  1.00  0.00    -0.248 NA
ATOM     37  C   UNL A   1      37.879  30.535  29.221  1.00  0.00     0.031 C 
ATOM     38  C   UNL A   1      37.206  33.640  33.128  1.00  0.00     0.029 A 
ATOM     39  N   UNL A   1      38.914  32.202  33.240  1.00  0.00    -0.354 N 
ATOM     40  C   UNL A   1      39.634  29.348  30.081  1.00  0.00     0.074 A 
ATOM     41  C   UNL A   1      38.657  29.481  29.022  1.00  0.00     0.031 C 
ATOM     42  C   UNL A   1      37.801  33.814  34.319  1.00  0.00     0.029 A 
ATOM     43  C   UNL A   1      38.904  32.868  34.444  1.00  0.00     0.049 A 
ATOM     44  H   UNL A   1      39.577  31.510  33.012  1.00  0.00     0.167 HD
ATOM     45  C   UNL A   1      40.629  28.431  30.086  1.00  0.00     0.034 A 
ATOM     46  C   UNL A   1      39.686  32.723  35.531  1.00  0.00     0.034 A 
ATOM     47  C   UNL A   1      41.619  28.324  31.124  1.00  0.00     0.049 A 
ATOM     48  C   UNL A   1      40.800  31.714  35.500  1.00  0.00     0.074 A 
ATOM     49  C   UNL A   1      42.719  27.487  31.180  1.00  0.00     0.029 A 
ATOM     50  N   UNL A   1      41.621  29.066  32.295  1.00  0.00    -0.354 N 
ATOM     51  N   UNL A   1      41.146  30.895  34.537  1.00  0.00    -0.248 NA
ATOM     52  C   UNL A   1      41.656  31.632  36.693  1.00  0.00     0.031 C 
ATOM     53  C   UNL A   1      43.366  27.697  32.401  1.00  0.00     0.029 A 
ATOM     54  C   UNL A   1      42.693  28.696  33.087  1.00  0.00     0.049 A 
ATOM     55  H   UNL A   1      40.958  29.755  32.528  1.00  0.00     0.167 HD
ATOM     56  C   UNL A   1      42.279  30.229  34.990  1.00  0.00     0.074 A 
ATOM     57  C   UNL A   1      42.573  30.755  36.307  1.00  0.00     0.031 C 
ATOM     58  C   UNL A   1      43.003  29.260  34.377  1.00  0.00     0.034 A 
BRANCH  45  59
ATOM     59  C   UNL A   1      40.723  27.491  28.911  1.00  0.00     0.023 A 
ATOM     60  C   UNL A   1      39.799  26.433  28.785  1.00  0.00     0.012 A 
ATOM     61  C   UNL A   1      41.686  27.689  27.902  1.00  0.00     0.148 A 
ATOM     62  C   UNL A   1      39.855  25.564  27.696  1.00  0.00     0.002 A 
ATOM     63  C   UNL A   1      41.706  26.848  26.794  1.00  0.00     0.091 A 
ATOM     64  F   UNL A   1      42.569  28.687  28.048  1.00  0.00    -0.205 F 
ATOM     65  C   UNL A   1      40.801  25.778  26.697  1.00  0.00     0.022 A 
BRANCH  63  66
ATOM     66  S   UNL A   1      42.828  27.089  25.413  1.00  0.00     0.127 S 
ATOM     67  O   UNL A   1      42.226  28.239  24.741  1.00  0.00    -0.237 OA
ATOM     68  O   UNL A   1      44.092  27.372  26.093  1.00  0.00    -0.237 OA
ATOM     69  O   UNL A   1      42.809  25.845  24.657  1.00  0.00    -0.744 OA
ENDBRANCH  63  66
ENDBRANCH  45  59
BRANCH  46  70
ATOM     70  C   UNL A   1      39.474  33.594  36.722  1.00  0.00     0.023 A 
ATOM     71  C   UNL A   1      39.877  34.943  36.678  1.00  0.00     0.012 A 
ATOM     72  C   UNL A   1      38.857  33.101  37.889  1.00  0.00     0.148 A 
ATOM     73  C   UNL A   1      39.703  35.775  37.784  1.00  0.00     0.002 A 
ATOM     74  C   UNL A   1      38.633  33.950  38.965  1.00  0.00     0.091 A 
ATOM     75  F   UNL A   1      38.487  31.813  37.914  1.00  0.00    -0.205 F 
ATOM     76  C   UNL A   1      39.072  35.282  38.923  1.00  0.00     0.022 A 
BRANCH  74  77
ATOM     77  S   UNL A   1      37.710  33.439  40.419  1.00  0.00     0.127 S 
ATOM     78  O   UNL A   1      36.450  32.991  39.831  1.00  0.00    -0.237 OA
ATOM     79  O   UNL A   1      38.557  32.369  40.950  1.00  0.00    -0.237 OA
ATOM     80  O   UNL A   1      37.627  34.617  41.270  1.00  0.00    -0.744 OA
ENDBRANCH  74  77
ENDBRANCH  46  70
BRANCH  58  81
ATOM     81  C   UNL A   1      44.214  28.728  35.098  1.00  0.00     0.023 A 
ATOM     82  C   UNL A   1      45.478  29.314  34.883  1.00  0.00     0.012 A 
ATOM     83  C   UNL A   1      44.083  27.692  36.044  1.00  0.00     0.148 A 
ATOM     84  C   UNL A   1      46.598  28.853  35.574  1.00  0.00     0.002 A 
ATOM     85  C   UNL A   1      45.194  27.275  36.767  1.00  0.00     0.091 A 
ATOM     86  F   UNL A   1      42.876  27.136  36.221  1.00  0.00    -0.205 F 
ATOM     87  C   UNL A   1      46.455  27.844  36.523  1.00  0.00     0.022 A 
BRANCH  85  88
ATOM     88  S   UNL A   1      45.088  26.052  38.078  1.00  0.00     0.127 S 
ATOM     89  O   UNL A   1      46.463  26.026  38.574  1.00  0.00    -0.237 OA
ATOM     90  O   UNL A   1      44.122  26.663  38.992  1.00  0.00    -0.237 OA
ATOM     91  O   UNL A   1      44.629  24.821  37.446  1.00  0.00    -0.744 OA
ENDBRANCH  85  88
ENDBRANCH  58  81
ENDBRANCH  32  33
ENDBRANCH  24  27
ENDBRANCH  22  23
ENDBRANCH   1  22
TORSDOF 17
ENDMDL
MODEL 3
REMARK VINA RESULT:     -10.6      2.170      8.047
REMARK SMILES CCc1nnsc1C(=O)N[C@](C)(CC)C(=O)NCCCNC(=O)c1ccc(-c2c3nc(c(-c4cccc(S(=O)(=O)[O-])c4F)c4ccc([nH]4)c(-c4cccc(S(=O)(=O)[O-])c4F)c4nc(c(-c5cccc(S(=O)(=O)[O-])c5F)c5ccc2[nH]5)C=C4)C=C3)cc1
REMARK SMILES IDX 19 1 18 2 17 3 15 4 16 5 11 7 12 8 10 9 8 10 9 11 7 13 3 14
REMARK SMILES IDX 4 15 5 16 6 17 2 18 1 19 13 20 14 21 20 22 21 23 22 24 23 26
REMARK SMILES IDX 24 27 25 28 86 29 26 30 85 31 27 32 28 33 29 34 79 35 30 36
REMARK SMILES IDX 84 37 78 38 80 39 31 40 83 41 77 42 76 43 32 45 64 46 44 47
REMARK SMILES IDX 63 48 45 49 48 50 62 51 81 52 46 53 47 54 61 56 82 57 49 58
REMARK SMILES IDX 33 59 34 60 42 61 35 62 37 63 43 64 36 65 38 66 39 67 40 68
REMARK SMILES IDX 41 69 65 70 66 71 74 72 67 73 69 74 75 75 68 76 70 77 71 78
REMARK SMILES IDX 72 79 73 80 50 81 51 82 59 83 52 84 54 85 60 86 53 87 55 88
REMARK SMILES IDX 56 89 57 90 58 91
REMARK H PARENT 17 6 10 12 21 25 80 44 48 55
REMARK Flexibility Score: inf
ROOT
ATOM      1  C   UNL A   1      36.533  22.183  23.837  1.00  0.00     0.042 C 
ENDROOT
BRANCH   1   2
ATOM      2  C   UNL A   1      35.554  23.313  23.540  1.00  0.00     0.117 C 
BRANCH   2   3
ATOM      3  N   UNL A   1      34.183  22.820  23.625  1.00  0.00    -0.354 N 
ATOM      4  C   UNL A   1      33.126  23.315  24.345  1.00  0.00     0.245 C 
ATOM      5  O   UNL A   1      32.291  22.504  24.753  1.00  0.00    -0.272 OA
ATOM      6  H   UNL A   1      33.990  22.018  23.088  1.00  0.00     0.163 HD
BRANCH   4   7
ATOM      7  C   UNL A   1      33.074  24.804  24.742  1.00  0.00     0.116 C 
ATOM      8  C   UNL A   1      34.257  25.360  25.539  1.00  0.00     0.045 C 
BRANCH   7   9
ATOM      9  N   UNL A   1      31.854  25.035  25.531  1.00  0.00    -0.337 N 
ATOM     10  C   UNL A   1      31.112  26.110  25.957  1.00  0.00     0.265 C 
ATOM     11  O   UNL A   1      30.090  25.688  26.526  1.00  0.00    -0.268 OA
ATOM     12  H   UNL A   1      31.461  24.185  25.838  1.00  0.00     0.164 HD
BRANCH  10  13
ATOM     13  C   UNL A   1      31.362  27.555  25.849  1.00  0.00     0.136 A 
ATOM     14  C   UNL A   1      31.271  28.686  25.017  1.00  0.00     0.088 A 
ATOM     15  N   UNL A   1      31.741  29.884  25.586  1.00  0.00    -0.142 NA
ATOM     16  N   UNL A   1      32.217  29.735  26.795  1.00  0.00    -0.090 NA
ATOM     17  S   UNL A   1      32.114  28.181  27.328  1.00  0.00    -0.006 S 
BRANCH  14  18
ATOM     18  C   UNL A   1      30.823  28.937  23.615  1.00  0.00     0.056 C 
ATOM     19  C   UNL A   1      29.631  28.111  23.170  1.00  0.00     0.011 C 
ENDBRANCH  14  18
ENDBRANCH  10  13
ENDBRANCH   7   9
BRANCH   7  20
ATOM     20  C   UNL A   1      33.040  25.585  23.385  1.00  0.00     0.035 C 
ATOM     21  C   UNL A   1      31.846  25.219  22.494  1.00  0.00     0.007 C 
ENDBRANCH   7  20
ENDBRANCH   4   7
ENDBRANCH   2   3
ENDBRANCH   1   2
BRANCH   1  22
ATOM     22  C   UNL A   1      36.688  21.930  25.329  1.00  0.00     0.118 C 
BRANCH  22  23
ATOM     23  N   UNL A   1      37.641  20.861  25.598  1.00  0.00    -0.352 N 
ATOM     24  C   UNL A   1      38.957  20.950  25.979  1.00  0.00     0.251 C 
ATOM     25  H   UNL A   1      37.293  19.947  25.490  1.00  0.00     0.163 HD
ATOM     26  O   UNL A   1      39.675  19.958  25.927  1.00  0.00    -0.269 OA
BRANCH  24  27
ATOM     27  C   UNL A   1      39.502  22.245  26.437  1.00  0.00     0.039 A 
ATOM     28  C   UNL A   1      40.690  22.259  27.169  1.00  0.00     0.014 A 
ATOM     29  C   UNL A   1      38.842  23.441  26.143  1.00  0.00     0.014 A 
ATOM     30  C   UNL A   1      41.246  23.480  27.556  1.00  0.00     0.010 A 
ATOM     31  C   UNL A   1      39.444  24.657  26.447  1.00  0.00     0.010 A 
ATOM     32  C   UNL A   1      40.646  24.690  27.168  1.00  0.00    -0.014 A 
BRANCH  32  33
ATOM     33  C   UNL A   1      41.263  25.999  27.501  1.00  0.00     0.031 A 
ATOM     34  C   UNL A   1      42.692  26.281  27.123  1.00  0.00     0.074 A 
ATOM     35  C   UNL A   1      40.562  26.901  28.215  1.00  0.00     0.049 A 
ATOM     36  N   UNL A   1      43.416  27.342  27.375  1.00  0.00    -0.248 NA
ATOM     37  C   UNL A   1      43.414  25.226  26.394  1.00  0.00     0.031 C 
ATOM     38  C   UNL A   1      39.195  26.711  28.707  1.00  0.00     0.029 A 
ATOM     39  N   UNL A   1      40.909  28.146  28.676  1.00  0.00    -0.354 N 
ATOM     40  C   UNL A   1      44.680  27.069  26.868  1.00  0.00     0.074 A 
ATOM     41  C   UNL A   1      44.638  25.728  26.327  1.00  0.00     0.031 C 
ATOM     42  C   UNL A   1      38.819  27.803  29.392  1.00  0.00     0.029 A 
ATOM     43  C   UNL A   1      39.926  28.752  29.422  1.00  0.00     0.049 A 
ATOM     44  H   UNL A   1      41.781  28.565  28.490  1.00  0.00     0.167 HD
ATOM     45  C   UNL A   1      45.771  27.870  26.830  1.00  0.00     0.034 A 
ATOM     46  C   UNL A   1      39.922  29.934  30.070  1.00  0.00     0.034 A 
ATOM     47  C   UNL A   1      45.798  29.215  27.339  1.00  0.00     0.049 A 
ATOM     48  C   UNL A   1      41.137  30.815  29.990  1.00  0.00     0.074 A 
ATOM     49  C   UNL A   1      46.826  30.139  27.270  1.00  0.00     0.029 A 
ATOM     50  N   UNL A   1      44.758  29.823  28.024  1.00  0.00    -0.354 N 
ATOM     51  N   UNL A   1      42.271  30.602  29.368  1.00  0.00    -0.248 NA
ATOM     52  C   UNL A   1      41.062  32.116  30.671  1.00  0.00     0.031 C 
ATOM     53  C   UNL A   1      46.421  31.294  27.946  1.00  0.00     0.029 A 
ATOM     54  C   UNL A   1      45.124  31.105  28.398  1.00  0.00     0.049 A 
ATOM     55  H   UNL A   1      43.888  29.406  28.216  1.00  0.00     0.167 HD
ATOM     56  C   UNL A   1      43.029  31.754  29.551  1.00  0.00     0.074 A 
ATOM     57  C   UNL A   1      42.215  32.669  30.324  1.00  0.00     0.031 C 
ATOM     58  C   UNL A   1      44.288  32.025  29.127  1.00  0.00     0.034 A 
BRANCH  45  59
ATOM     59  C   UNL A   1      47.018  27.327  26.180  1.00  0.00     0.023 A 
ATOM     60  C   UNL A   1      47.261  27.578  24.814  1.00  0.00     0.012 A 
ATOM     61  C   UNL A   1      47.977  26.621  26.933  1.00  0.00     0.148 A 
ATOM     62  C   UNL A   1      48.418  27.102  24.197  1.00  0.00     0.002 A 
ATOM     63  C   UNL A   1      49.151  26.192  26.323  1.00  0.00     0.091 A 
ATOM     64  F   UNL A   1      47.721  26.375  28.225  1.00  0.00    -0.205 F 
ATOM     65  C   UNL A   1      49.366  26.419  24.954  1.00  0.00     0.022 A 
BRANCH  63  66
ATOM     66  S   UNL A   1      50.472  25.379  27.227  1.00  0.00     0.127 S 
ATOM     67  O   UNL A   1      50.866  26.420  28.174  1.00  0.00    -0.237 OA
ATOM     68  O   UNL A   1      49.776  24.240  27.827  1.00  0.00    -0.237 OA
ATOM     69  O   UNL A   1      51.479  25.024  26.237  1.00  0.00    -0.744 OA
ENDBRANCH  63  66
ENDBRANCH  45  59
BRANCH  46  70
ATOM     70  C   UNL A   1      38.703  30.374  30.807  1.00  0.00     0.023 A 
ATOM     71  C   UNL A   1      38.591  30.110  32.186  1.00  0.00     0.012 A 
ATOM     72  C   UNL A   1      37.667  31.072  30.156  1.00  0.00     0.148 A 
ATOM     73  C   UNL A   1      37.455  30.499  32.895  1.00  0.00     0.002 A 
ATOM     74  C   UNL A   1      36.564  31.509  30.880  1.00  0.00     0.091 A 
ATOM     75  F   UNL A   1      37.789  31.307  28.842  1.00  0.00    -0.205 F 
ATOM     76  C   UNL A   1      36.446  31.206  32.245  1.00  0.00     0.022 A 
BRANCH  74  77
ATOM     77  S   UNL A   1      35.284  32.540  30.157  1.00  0.00     0.127 S 
ATOM     78  O   UNL A   1      34.359  32.697  31.276  1.00  0.00    -0.237 OA
ATOM     79  O   UNL A   1      36.035  33.746  29.803  1.00  0.00    -0.237 OA
ATOM     80  O   UNL A   1      34.774  31.794  29.015  1.00  0.00    -0.744 OA
ENDBRANCH  74  77
ENDBRANCH  46  70
BRANCH  58  81
ATOM     81  C   UNL A   1      44.859  33.381  29.449  1.00  0.00     0.023 A 
ATOM     82  C   UNL A   1      45.539  33.591  30.666  1.00  0.00     0.012 A 
ATOM     83  C   UNL A   1      44.782  34.429  28.510  1.00  0.00     0.148 A 
ATOM     84  C   UNL A   1      46.101  34.833  30.957  1.00  0.00     0.002 A 
ATOM     85  C   UNL A   1      45.392  35.647  28.785  1.00  0.00     0.091 A 
ATOM     86  F   UNL A   1      44.117  34.215  27.366  1.00  0.00    -0.205 F 
ATOM     87  C   UNL A   1      46.040  35.855  30.014  1.00  0.00     0.022 A 
BRANCH  85  88
ATOM     88  S   UNL A   1      45.450  36.987  27.591  1.00  0.00     0.127 S 
ATOM     89  O   UNL A   1      46.131  38.034  28.351  1.00  0.00    -0.237 OA
ATOM     90  O   UNL A   1      46.244  36.403  26.510  1.00  0.00    -0.237 OA
ATOM     91  O   UNL A   1      44.065  37.274  27.238  1.00  0.00    -0.744 OA
ENDBRANCH  85  88
ENDBRANCH  58  81
ENDBRANCH  32  33
ENDBRANCH  24  27
ENDBRANCH  22  23
ENDBRANCH   1  22
TORSDOF 17
ENDMDL
