MODEL 1
REMARK VINA RESULT:     -11.7      0.000      0.000
REMARK SMILES C[C@@](NC(=O)CCOC1CC[NH2+]CC1)(C(=O)NCCCNC(=O)c1ccc(-c2c3nc(c(-c4cccc(S(=O)(=O)[O-])c4F)c4ccc([nH]4)c(-c4cccc(S(=O)(=O)[O-])c4F)c4nc(c(-c5cccc(S(=O)(=O)[O-])c5F)c5ccc2[nH]5)C=C4)C=C3)cc1)C(F)(F)F
REMARK SMILES IDX 18 1 17 2 15 3 16 4 2 6 1 7 3 8 4 9 5 11 6 12 7 13 8 14 9 15
REMARK SMILES IDX 10 16 14 17 11 18 13 19 12 20 87 23 88 24 89 25 90 26 19 27
REMARK SMILES IDX 20 28 21 29 22 30 23 32 24 33 25 34 86 35 26 36 85 37 27 38
REMARK SMILES IDX 28 39 29 40 79 41 30 42 84 43 78 44 80 45 31 46 83 47 77 48
REMARK SMILES IDX 76 49 32 51 64 52 44 53 63 54 45 55 48 56 62 57 81 58 46 59
REMARK SMILES IDX 47 60 61 62 82 63 49 64 33 65 34 66 42 67 35 68 37 69 43 70
REMARK SMILES IDX 36 71 38 72 39 73 40 74 41 75 65 76 66 77 74 78 67 79 69 80
REMARK SMILES IDX 75 81 68 82 70 83 71 84 72 85 73 86 50 87 51 88 59 89 52 90
REMARK SMILES IDX 54 91 60 92 53 93 55 94 56 95 57 96 58 97
REMARK H PARENT 17 5 3 10 12 21 12 22 21 31 80 50 48 61
REMARK Flexibility Score: inf
ROOT
ATOM      1  C   UNL A   1      35.941  23.371  23.838  1.00  0.00     0.117 C 
ENDROOT
BRANCH   1   2
ATOM      2  N   UNL A   1      34.803  23.317  22.946  1.00  0.00    -0.354 N 
ATOM      3  C   UNL A   1      33.625  24.003  23.007  1.00  0.00     0.254 C 
ATOM      4  O   UNL A   1      33.142  24.271  21.900  1.00  0.00    -0.272 OA
ATOM      5  H   UNL A   1      34.892  22.698  22.186  1.00  0.00     0.163 HD
BRANCH   3   6
ATOM      6  C   UNL A   1      32.950  24.499  24.320  1.00  0.00     0.212 C 
ATOM      7  C   UNL A   1      31.463  24.839  24.073  1.00  0.00     0.056 C 
BRANCH   6   8
ATOM      8  N   UNL A   1      32.975  23.638  25.549  1.00  0.00    -0.334 N 
ATOM      9  C   UNL A   1      32.999  22.284  25.687  1.00  0.00     0.223 C 
ATOM     10  H   UNL A   1      32.973  24.136  26.397  1.00  0.00     0.164 HD
ATOM     11  O   UNL A   1      33.778  21.788  26.502  1.00  0.00    -0.275 OA
BRANCH   9  12
ATOM     12  C   UNL A   1      31.905  21.472  25.066  1.00  0.00     0.128 C 
BRANCH  12  13
ATOM     13  C   UNL A   1      32.467  20.667  23.891  1.00  0.00     0.170 C 
BRANCH  13  14
ATOM     14  O   UNL A   1      32.460  19.252  24.085  1.00  0.00    -0.377 OA
BRANCH  14  15
ATOM     15  C   UNL A   1      33.455  18.667  24.941  1.00  0.00     0.129 C 
ATOM     16  C   UNL A   1      34.498  17.850  24.185  1.00  0.00     0.093 C 
ATOM     17  C   UNL A   1      32.737  17.723  25.921  1.00  0.00     0.093 C 
ATOM     18  C   UNL A   1      33.827  16.690  23.458  1.00  0.00     0.263 C 
ATOM     19  C   UNL A   1      32.131  16.530  25.181  1.00  0.00     0.263 C 
ATOM     20  N   UNL A   1      33.145  15.808  24.405  1.00  0.00    -0.346 N 
ATOM     21  H   UNL A   1      33.833  15.414  25.047  1.00  0.00     0.346 HD
ATOM     22  H   UNL A   1      32.676  15.073  23.875  1.00  0.00     0.346 HD
ENDBRANCH  14  15
ENDBRANCH  13  14
ENDBRANCH  12  13
ENDBRANCH   9  12
ENDBRANCH   6   8
BRANCH   6  23
ATOM     23  C   UNL A   1      33.656  25.852  24.621  1.00  0.00     0.420 C 
ATOM     24  F   UNL A   1      32.848  26.736  25.246  1.00  0.00    -0.168 F 
ATOM     25  F   UNL A   1      34.708  25.638  25.463  1.00  0.00    -0.168 F 
ATOM     26  F   UNL A   1      34.178  26.442  23.523  1.00  0.00    -0.168 F 
ENDBRANCH   6  23
ENDBRANCH   3   6
ENDBRANCH   1   2
BRANCH   1  27
ATOM     27  C   UNL A   1      36.744  22.084  23.916  1.00  0.00     0.042 C 
BRANCH  27  28
ATOM     28  C   UNL A   1      36.972  21.606  25.349  1.00  0.00     0.118 C 
BRANCH  28  29
ATOM     29  N   UNL A   1      38.175  20.787  25.527  1.00  0.00    -0.352 N 
ATOM     30  C   UNL A   1      39.401  21.060  26.108  1.00  0.00     0.251 C 
ATOM     31  H   UNL A   1      38.096  19.875  25.165  1.00  0.00     0.163 HD
ATOM     32  O   UNL A   1      40.284  20.222  26.080  1.00  0.00    -0.269 OA
BRANCH  30  33
ATOM     33  C   UNL A   1      39.660  22.390  26.710  1.00  0.00     0.039 A 
ATOM     34  C   UNL A   1      40.695  22.531  27.639  1.00  0.00     0.014 A 
ATOM     35  C   UNL A   1      38.935  23.507  26.309  1.00  0.00     0.014 A 
ATOM     36  C   UNL A   1      41.104  23.811  28.033  1.00  0.00     0.010 A 
ATOM     37  C   UNL A   1      39.433  24.772  26.586  1.00  0.00     0.010 A 
ATOM     38  C   UNL A   1      40.539  24.945  27.433  1.00  0.00    -0.014 A 
BRANCH  38  39
ATOM     39  C   UNL A   1      41.088  26.322  27.608  1.00  0.00     0.031 A 
ATOM     40  C   UNL A   1      42.484  26.632  27.130  1.00  0.00     0.074 A 
ATOM     41  C   UNL A   1      40.423  27.227  28.358  1.00  0.00     0.049 A 
ATOM     42  N   UNL A   1      43.262  27.636  27.439  1.00  0.00    -0.248 NA
ATOM     43  C   UNL A   1      43.116  25.640  26.242  1.00  0.00     0.031 C 
ATOM     44  C   UNL A   1      39.102  27.033  28.962  1.00  0.00     0.029 A 
ATOM     45  N   UNL A   1      40.790  28.483  28.781  1.00  0.00    -0.354 N 
ATOM     46  C   UNL A   1      44.496  27.349  26.866  1.00  0.00     0.074 A 
ATOM     47  C   UNL A   1      44.370  26.064  26.214  1.00  0.00     0.031 C 
ATOM     48  C   UNL A   1      38.767  28.127  29.665  1.00  0.00     0.029 A 
ATOM     49  C   UNL A   1      39.867  29.083  29.609  1.00  0.00     0.049 A 
ATOM     50  H   UNL A   1      41.635  28.914  28.516  1.00  0.00     0.167 HD
ATOM     51  C   UNL A   1      45.625  28.098  26.856  1.00  0.00     0.034 A 
ATOM     52  C   UNL A   1      39.905  30.259  30.266  1.00  0.00     0.034 A 
ATOM     53  C   UNL A   1      45.704  29.427  27.398  1.00  0.00     0.049 A 
ATOM     54  C   UNL A   1      41.122  31.133  30.126  1.00  0.00     0.074 A 
ATOM     55  C   UNL A   1      46.757  30.321  27.330  1.00  0.00     0.029 A 
ATOM     56  N   UNL A   1      44.681  30.063  28.082  1.00  0.00    -0.354 N 
ATOM     57  N   UNL A   1      42.234  30.896  29.475  1.00  0.00    -0.248 NA
ATOM     58  C   UNL A   1      41.081  32.449  30.783  1.00  0.00     0.031 C 
ATOM     59  C   UNL A   1      46.367  31.502  27.969  1.00  0.00     0.029 A 
ATOM     60  C   UNL A   1      45.068  31.344  28.425  1.00  0.00     0.049 A 
ATOM     61  H   UNL A   1      43.807  29.660  28.293  1.00  0.00     0.167 HD
ATOM     62  C   UNL A   1      43.005  32.046  29.604  1.00  0.00     0.074 A 
ATOM     63  C   UNL A   1      42.228  32.983  30.389  1.00  0.00     0.031 C 
ATOM     64  C   UNL A   1      44.249  32.295  29.131  1.00  0.00     0.034 A 
BRANCH  51  65
ATOM     65  C   UNL A   1      46.839  27.532  26.167  1.00  0.00     0.023 A 
ATOM     66  C   UNL A   1      47.679  26.638  26.863  1.00  0.00     0.012 A 
ATOM     67  C   UNL A   1      47.126  27.842  24.824  1.00  0.00     0.148 A 
ATOM     68  C   UNL A   1      48.809  26.100  26.251  1.00  0.00     0.002 A 
ATOM     69  C   UNL A   1      48.227  27.262  24.204  1.00  0.00     0.091 A 
ATOM     70  F   UNL A   1      46.328  28.707  24.180  1.00  0.00    -0.205 F 
ATOM     71  C   UNL A   1      49.077  26.404  24.919  1.00  0.00     0.022 A 
BRANCH  69  72
ATOM     72  S   UNL A   1      48.608  27.522  22.467  1.00  0.00     0.127 S 
ATOM     73  O   UNL A   1      47.453  28.302  22.025  1.00  0.00    -0.237 OA
ATOM     74  O   UNL A   1      49.861  28.275  22.533  1.00  0.00    -0.237 OA
ATOM     75  O   UNL A   1      48.731  26.194  21.882  1.00  0.00    -0.744 OA
ENDBRANCH  69  72
ENDBRANCH  51  65
BRANCH  52  76
ATOM     76  C   UNL A   1      38.718  30.719  31.043  1.00  0.00     0.023 A 
ATOM     77  C   UNL A   1      38.714  30.552  32.442  1.00  0.00     0.012 A 
ATOM     78  C   UNL A   1      37.620  31.348  30.426  1.00  0.00     0.148 A 
ATOM     79  C   UNL A   1      37.627  30.971  33.209  1.00  0.00     0.002 A 
ATOM     80  C   UNL A   1      36.562  31.811  31.201  1.00  0.00     0.091 A 
ATOM     81  F   UNL A   1      37.635  31.491  29.093  1.00  0.00    -0.205 F 
ATOM     82  C   UNL A   1      36.555  31.610  32.591  1.00  0.00     0.022 A 
BRANCH  80  83
ATOM     83  S   UNL A   1      35.204  32.762  30.506  1.00  0.00     0.127 S 
ATOM     84  O   UNL A   1      35.884  33.974  30.059  1.00  0.00    -0.237 OA
ATOM     85  O   UNL A   1      34.735  31.885  29.433  1.00  0.00    -0.237 OA
ATOM     86  O   UNL A   1      34.251  32.931  31.596  1.00  0.00    -0.744 OA
ENDBRANCH  80  83
ENDBRANCH  52  76
BRANCH  64  87
ATOM     87  C   UNL A   1      44.840  33.656  29.379  1.00  0.00     0.023 A 
ATOM     88  C   UNL A   1      45.584  33.893  30.551  1.00  0.00     0.012 A 
ATOM     89  C   UNL A   1      44.757  34.657  28.391  1.00  0.00     0.148 A 
ATOM     90  C   UNL A   1      46.224  35.116  30.743  1.00  0.00     0.002 A 
ATOM     91  C   UNL A   1      45.434  35.857  28.571  1.00  0.00     0.091 A 
ATOM     92  F   UNL A   1      44.027  34.413  27.294  1.00  0.00    -0.205 F 
ATOM     93  C   UNL A   1      46.162  36.091  29.749  1.00  0.00     0.022 A 
BRANCH  91  94
ATOM     94  S   UNL A   1      45.492  37.127  27.302  1.00  0.00     0.127 S 
ATOM     95  O   UNL A   1      46.132  36.414  26.197  1.00  0.00    -0.237 OA
ATOM     96  O   UNL A   1      44.075  37.427  27.098  1.00  0.00    -0.237 OA
ATOM     97  O   UNL A   1      46.265  38.225  27.867  1.00  0.00    -0.744 OA
ENDBRANCH  91  94
ENDBRANCH  64  87
ENDBRANCH  38  39
ENDBRANCH  30  33
ENDBRANCH  28  29
ENDBRANCH  27  28
ENDBRANCH   1  27
TORSDOF 19
ENDMDL
MODEL 2
REMARK VINA RESULT:     -11.7      5.133     10.075
REMARK SMILES C[C@@](NC(=O)CCOC1CC[NH2+]CC1)(C(=O)NCCCNC(=O)c1ccc(-c2c3nc(c(-c4cccc(S(=O)(=O)[O-])c4F)c4ccc([nH]4)c(-c4cccc(S(=O)(=O)[O-])c4F)c4nc(c(-c5cccc(S(=O)(=O)[O-])c5F)c5ccc2[nH]5)C=C4)C=C3)cc1)C(F)(F)F
REMARK SMILES IDX 18 1 17 2 15 3 16 4 2 6 1 7 3 8 4 9 5 11 6 12 7 13 8 14 9 15
REMARK SMILES IDX 10 16 14 17 11 18 13 19 12 20 87 23 88 24 89 25 90 26 19 27
REMARK SMILES IDX 20 28 21 29 22 30 23 32 24 33 25 34 86 35 26 36 85 37 27 38
REMARK SMILES IDX 28 39 29 40 79 41 30 42 84 43 78 44 80 45 31 46 83 47 77 48
REMARK SMILES IDX 76 49 32 51 64 52 44 53 63 54 45 55 48 56 62 57 81 58 46 59
REMARK SMILES IDX 47 60 61 62 82 63 49 64 33 65 34 66 42 67 35 68 37 69 43 70
REMARK SMILES IDX 36 71 38 72 39 73 40 74 41 75 65 76 66 77 74 78 67 79 69 80
REMARK SMILES IDX 75 81 68 82 70 83 71 84 72 85 73 86 50 87 51 88 59 89 52 90
REMARK SMILES IDX 54 91 60 92 53 93 55 94 56 95 57 96 58 97
REMARK H PARENT 17 5 3 10 12 21 12 22 21 31 80 50 48 61
REMARK Flexibility Score: inf
ROOT
ATOM      1  C   UNL A   1      31.234  28.588  25.384  1.00  0.00     0.117 C 
ENDROOT
BRANCH   1   2
ATOM      2  N   UNL A   1      30.853  28.196  24.044  1.00  0.00    -0.354 N 
ATOM      3  C   UNL A   1      31.492  27.360  23.176  1.00  0.00     0.254 C 
ATOM      4  O   UNL A   1      30.728  26.718  22.443  1.00  0.00    -0.272 OA
ATOM      5  H   UNL A   1      30.014  28.588  23.712  1.00  0.00     0.163 HD
BRANCH   3   6
ATOM      6  C   UNL A   1      33.032  27.134  23.125  1.00  0.00     0.212 C 
ATOM      7  C   UNL A   1      33.593  26.879  24.541  1.00  0.00     0.056 C 
BRANCH   6   8
ATOM      8  N   UNL A   1      33.603  26.051  22.256  1.00  0.00    -0.334 N 
ATOM      9  C   UNL A   1      33.087  24.851  21.874  1.00  0.00     0.223 C 
ATOM     10  H   UNL A   1      34.502  26.241  21.904  1.00  0.00     0.164 HD
ATOM     11  O   UNL A   1      33.189  24.513  20.694  1.00  0.00    -0.275 OA
BRANCH   9  12
ATOM     12  C   UNL A   1      32.672  23.871  22.929  1.00  0.00     0.128 C 
BRANCH  12  13
ATOM     13  C   UNL A   1      33.730  22.772  23.052  1.00  0.00     0.170 C 
BRANCH  13  14
ATOM     14  O   UNL A   1      34.803  23.078  23.944  1.00  0.00    -0.377 OA
BRANCH  14  15
ATOM     15  C   UNL A   1      34.858  22.409  25.214  1.00  0.00     0.129 C 
ATOM     16  C   UNL A   1      35.448  23.271  26.326  1.00  0.00     0.093 C 
ATOM     17  C   UNL A   1      35.753  21.168  25.054  1.00  0.00     0.093 C 
ATOM     18  C   UNL A   1      36.884  23.654  25.985  1.00  0.00     0.263 C 
ATOM     19  C   UNL A   1      37.202  21.574  24.782  1.00  0.00     0.263 C 
ATOM     20  N   UNL A   1      37.717  22.461  25.830  1.00  0.00    -0.346 N 
ATOM     21  H   UNL A   1      37.735  21.952  26.714  1.00  0.00     0.346 HD
ATOM     22  H   UNL A   1      38.655  22.761  25.562  1.00  0.00     0.346 HD
ENDBRANCH  14  15
ENDBRANCH  13  14
ENDBRANCH  12  13
ENDBRANCH   9  12
ENDBRANCH   6   8
BRANCH   6  23
ATOM     23  C   UNL A   1      33.602  28.510  22.678  1.00  0.00     0.420 C 
ATOM     24  F   UNL A   1      34.535  28.400  21.707  1.00  0.00    -0.168 F 
ATOM     25  F   UNL A   1      32.598  29.271  22.155  1.00  0.00    -0.168 F 
ATOM     26  F   UNL A   1      34.119  29.234  23.696  1.00  0.00    -0.168 F 
ENDBRANCH   6  23
ENDBRANCH   3   6
ENDBRANCH   1   2
BRANCH   1  27
ATOM     27  C   UNL A   1      31.511  30.072  25.553  1.00  0.00     0.042 C 
BRANCH  27  28
ATOM     28  C   UNL A   1      32.169  30.410  26.889  1.00  0.00     0.118 C 
BRANCH  28  29
ATOM     29  N   UNL A   1      32.344  31.846  27.129  1.00  0.00    -0.352 N 
ATOM     30  C   UNL A   1      33.426  32.583  27.576  1.00  0.00     0.251 C 
ATOM     31  H   UNL A   1      31.543  32.384  26.938  1.00  0.00     0.163 HD
ATOM     32  O   UNL A   1      33.308  33.781  27.760  1.00  0.00    -0.269 OA
BRANCH  30  33
ATOM     33  C   UNL A   1      34.708  31.907  27.890  1.00  0.00     0.039 A 
ATOM     34  C   UNL A   1      35.836  32.681  28.184  1.00  0.00     0.014 A 
ATOM     35  C   UNL A   1      34.783  30.521  27.968  1.00  0.00     0.014 A 
ATOM     36  C   UNL A   1      36.979  32.069  28.710  1.00  0.00     0.010 A 
ATOM     37  C   UNL A   1      35.858  29.936  28.622  1.00  0.00     0.010 A 
ATOM     38  C   UNL A   1      36.963  30.702  29.025  1.00  0.00    -0.014 A 
BRANCH  38  39
ATOM     39  C   UNL A   1      38.038  30.032  29.814  1.00  0.00     0.031 A 
ATOM     40  C   UNL A   1      38.277  30.444  31.245  1.00  0.00     0.074 A 
ATOM     41  C   UNL A   1      38.916  29.208  29.201  1.00  0.00     0.049 A 
ATOM     42  N   UNL A   1      39.318  30.230  32.007  1.00  0.00    -0.248 NA
ATOM     43  C   UNL A   1      37.234  31.271  31.879  1.00  0.00     0.031 C 
ATOM     44  C   UNL A   1      38.862  28.792  27.798  1.00  0.00     0.029 A 
ATOM     45  N   UNL A   1      40.058  28.605  29.675  1.00  0.00    -0.354 N 
ATOM     46  C   UNL A   1      39.098  30.969  33.164  1.00  0.00     0.074 A 
ATOM     47  C   UNL A   1      37.838  31.659  32.992  1.00  0.00     0.031 C 
ATOM     48  C   UNL A   1      39.911  27.999  27.527  1.00  0.00     0.029 A 
ATOM     49  C   UNL A   1      40.744  27.888  28.719  1.00  0.00     0.049 A 
ATOM     50  H   UNL A   1      40.357  28.678  30.610  1.00  0.00     0.167 HD
ATOM     51  C   UNL A   1      39.859  31.046  34.282  1.00  0.00     0.034 A 
ATOM     52  C   UNL A   1      41.920  27.232  28.785  1.00  0.00     0.034 A 
ATOM     53  C   UNL A   1      41.044  30.261  34.495  1.00  0.00     0.049 A 
ATOM     54  C   UNL A   1      42.678  27.224  30.084  1.00  0.00     0.074 A 
ATOM     55  C   UNL A   1      41.818  30.167  35.637  1.00  0.00     0.029 A 
ATOM     56  N   UNL A   1      41.609  29.414  33.555  1.00  0.00    -0.354 N 
ATOM     57  N   UNL A   1      42.389  27.830  31.209  1.00  0.00    -0.248 NA
ATOM     58  C   UNL A   1      43.907  26.416  30.137  1.00  0.00     0.031 C 
ATOM     59  C   UNL A   1      42.849  29.256  35.389  1.00  0.00     0.029 A 
ATOM     60  C   UNL A   1      42.710  28.777  34.096  1.00  0.00     0.049 A 
ATOM     61  H   UNL A   1      41.275  29.285  32.638  1.00  0.00     0.167 HD
ATOM     62  C   UNL A   1      43.370  27.444  32.114  1.00  0.00     0.074 A 
ATOM     63  C   UNL A   1      44.258  26.543  31.409  1.00  0.00     0.031 C 
ATOM     64  C   UNL A   1      43.531  27.816  33.406  1.00  0.00     0.034 A 
BRANCH  51  65
ATOM     65  C   UNL A   1      39.389  31.948  35.393  1.00  0.00     0.023 A 
ATOM     66  C   UNL A   1      38.495  31.449  36.364  1.00  0.00     0.012 A 
ATOM     67  C   UNL A   1      39.863  33.270  35.507  1.00  0.00     0.148 A 
ATOM     68  C   UNL A   1      38.045  32.263  37.401  1.00  0.00     0.002 A 
ATOM     69  C   UNL A   1      39.447  34.059  36.574  1.00  0.00     0.091 A 
ATOM     70  F   UNL A   1      40.697  33.736  34.567  1.00  0.00    -0.205 F 
ATOM     71  C   UNL A   1      38.528  33.563  37.512  1.00  0.00     0.022 A 
BRANCH  69  72
ATOM     72  S   UNL A   1      40.079  35.718  36.853  1.00  0.00     0.127 S 
ATOM     73  O   UNL A   1      39.433  36.072  38.116  1.00  0.00    -0.237 OA
ATOM     74  O   UNL A   1      41.521  35.488  36.951  1.00  0.00    -0.237 OA
ATOM     75  O   UNL A   1      39.669  36.502  35.696  1.00  0.00    -0.744 OA
ENDBRANCH  69  72
ENDBRANCH  51  65
BRANCH  52  76
ATOM     76  C   UNL A   1      42.407  26.454  27.609  1.00  0.00     0.023 A 
ATOM     77  C   UNL A   1      43.265  27.082  26.685  1.00  0.00     0.012 A 
ATOM     78  C   UNL A   1      42.067  25.102  27.416  1.00  0.00     0.148 A 
ATOM     79  C   UNL A   1      43.748  26.392  25.574  1.00  0.00     0.002 A 
ATOM     80  C   UNL A   1      42.593  24.402  26.335  1.00  0.00     0.091 A 
ATOM     81  F   UNL A   1      41.242  24.520  28.299  1.00  0.00    -0.205 F 
ATOM     82  C   UNL A   1      43.421  25.049  25.403  1.00  0.00     0.022 A 
BRANCH  80  83
ATOM     83  S   UNL A   1      42.332  22.638  26.110  1.00  0.00     0.127 S 
ATOM     84  O   UNL A   1      43.064  22.382  24.873  1.00  0.00    -0.237 OA
ATOM     85  O   UNL A   1      42.947  22.083  27.316  1.00  0.00    -0.237 OA
ATOM     86  O   UNL A   1      40.886  22.465  26.044  1.00  0.00    -0.744 OA
ENDBRANCH  80  83
ENDBRANCH  52  76
BRANCH  64  87
ATOM     87  C   UNL A   1      44.667  27.207  34.182  1.00  0.00     0.023 A 
ATOM     88  C   UNL A   1      45.919  27.849  34.213  1.00  0.00     0.012 A 
ATOM     89  C   UNL A   1      44.452  26.061  34.974  1.00  0.00     0.148 A 
ATOM     90  C   UNL A   1      46.947  27.351  35.011  1.00  0.00     0.002 A 
ATOM     91  C   UNL A   1      45.468  25.597  35.800  1.00  0.00     0.091 A 
ATOM     92  F   UNL A   1      43.257  25.457  34.912  1.00  0.00    -0.205 F 
ATOM     93  C   UNL A   1      46.718  26.236  35.814  1.00  0.00     0.022 A 
BRANCH  91  94
ATOM     94  S   UNL A   1      45.229  24.230  36.940  1.00  0.00     0.127 S 
ATOM     95  O   UNL A   1      44.840  23.151  36.033  1.00  0.00    -0.237 OA
ATOM     96  O   UNL A   1      46.560  24.081  37.530  1.00  0.00    -0.237 OA
ATOM     97  O   UNL A   1      44.199  24.661  37.876  1.00  0.00    -0.744 OA
ENDBRANCH  91  94
ENDBRANCH  64  87
ENDBRANCH  38  39
ENDBRANCH  30  33
ENDBRANCH  28  29
ENDBRANCH  27  28
ENDBRANCH   1  27
TORSDOF 19
ENDMDL
MODEL 3
REMARK VINA RESULT:     -11.7      5.223      7.373
REMARK SMILES C[C@@](NC(=O)CCOC1CC[NH2+]CC1)(C(=O)NCCCNC(=O)c1ccc(-c2c3nc(c(-c4cccc(S(=O)(=O)[O-])c4F)c4ccc([nH]4)c(-c4cccc(S(=O)(=O)[O-])c4F)c4nc(c(-c5cccc(S(=O)(=O)[O-])c5F)c5ccc2[nH]5)C=C4)C=C3)cc1)C(F)(F)F
REMARK SMILES IDX 18 1 17 2 15 3 16 4 2 6 1 7 3 8 4 9 5 11 6 12 7 13 8 14 9 15
REMARK SMILES IDX 10 16 14 17 11 18 13 19 12 20 87 23 88 24 89 25 90 26 19 27
REMARK SMILES IDX 20 28 21 29 22 30 23 32 24 33 25 34 86 35 26 36 85 37 27 38
REMARK SMILES IDX 28 39 29 40 79 41 30 42 84 43 78 44 80 45 31 46 83 47 77 48
REMARK SMILES IDX 76 49 32 51 64 52 44 53 63 54 45 55 48 56 62 57 81 58 46 59
REMARK SMILES IDX 47 60 61 62 82 63 49 64 33 65 34 66 42 67 35 68 37 69 43 70
REMARK SMILES IDX 36 71 38 72 39 73 40 74 41 75 65 76 66 77 74 78 67 79 69 80
REMARK SMILES IDX 75 81 68 82 70 83 71 84 72 85 73 86 50 87 51 88 59 89 52 90
REMARK SMILES IDX 54 91 60 92 53 93 55 94 56 95 57 96 58 97
REMARK H PARENT 17 5 3 10 12 21 12 22 21 31 80 50 48 61
REMARK Flexibility Score: inf
ROOT
ATOM      1  C   UNL A   1      33.551  28.082  24.101  1.00  0.00     0.117 C 
ENDROOT
BRANCH   1   2
ATOM      2  N   UNL A   1      32.696  27.731  22.988  1.00  0.00    -0.354 N 
ATOM      3  C   UNL A   1      31.595  26.925  22.967  1.00  0.00     0.254 C 
ATOM      4  O   UNL A   1      30.734  27.274  22.149  1.00  0.00    -0.272 OA
ATOM      5  H   UNL A   1      32.944  28.130  22.123  1.00  0.00     0.163 HD
BRANCH   3   6
ATOM      6  C   UNL A   1      31.357  25.715  23.918  1.00  0.00     0.212 C 
ATOM      7  C   UNL A   1      30.296  24.760  23.329  1.00  0.00     0.056 C 
BRANCH   6   8
ATOM      8  N   UNL A   1      32.509  24.845  24.330  1.00  0.00    -0.334 N 
ATOM      9  C   UNL A   1      33.696  24.591  23.715  1.00  0.00     0.223 C 
ATOM     10  H   UNL A   1      32.384  24.382  25.188  1.00  0.00     0.164 HD
ATOM     11  O   UNL A   1      34.726  24.609  24.389  1.00  0.00    -0.275 OA
BRANCH   9  12
ATOM     12  C   UNL A   1      33.687  24.028  22.326  1.00  0.00     0.128 C 
BRANCH  12  13
ATOM     13  C   UNL A   1      33.004  22.659  22.332  1.00  0.00     0.170 C 
BRANCH  13  14
ATOM     14  O   UNL A   1      33.263  21.872  23.496  1.00  0.00    -0.377 OA
BRANCH  14  15
ATOM     15  C   UNL A   1      32.166  21.191  24.128  1.00  0.00     0.129 C 
ATOM     16  C   UNL A   1      31.932  21.631  25.570  1.00  0.00     0.093 C 
ATOM     17  C   UNL A   1      32.489  19.688  24.140  1.00  0.00     0.093 C 
ATOM     18  C   UNL A   1      33.164  21.327  26.415  1.00  0.00     0.263 C 
ATOM     19  C   UNL A   1      33.684  19.395  25.048  1.00  0.00     0.263 C 
ATOM     20  N   UNL A   1      33.459  19.894  26.409  1.00  0.00    -0.346 N 
ATOM     21  H   UNL A   1      32.671  19.392  26.819  1.00  0.00     0.346 HD
ATOM     22  H   UNL A   1      34.310  19.742  26.949  1.00  0.00     0.346 HD
ENDBRANCH  14  15
ENDBRANCH  13  14
ENDBRANCH  12  13
ENDBRANCH   9  12
ENDBRANCH   6   8
BRANCH   6  23
ATOM     23  C   UNL A   1      30.709  26.350  25.182  1.00  0.00     0.420 C 
ATOM     24  F   UNL A   1      30.258  27.604  24.966  1.00  0.00    -0.168 F 
ATOM     25  F   UNL A   1      29.623  25.614  25.555  1.00  0.00    -0.168 F 
ATOM     26  F   UNL A   1      31.530  26.363  26.256  1.00  0.00    -0.168 F 
ENDBRANCH   6  23
ENDBRANCH   3   6
ENDBRANCH   1   2
BRANCH   1  27
ATOM     27  C   UNL A   1      33.297  29.464  24.681  1.00  0.00     0.042 C 
BRANCH  27  28
ATOM     28  C   UNL A   1      32.688  29.424  26.081  1.00  0.00     0.118 C 
BRANCH  28  29
ATOM     29  N   UNL A   1      32.397  30.743  26.650  1.00  0.00    -0.352 N 
ATOM     30  C   UNL A   1      33.177  31.631  27.371  1.00  0.00     0.251 C 
ATOM     31  H   UNL A   1      31.477  31.055  26.491  1.00  0.00     0.163 HD
ATOM     32  O   UNL A   1      32.685  32.659  27.799  1.00  0.00    -0.269 OA
BRANCH  30  33
ATOM     33  C   UNL A   1      34.591  31.303  27.674  1.00  0.00     0.039 A 
ATOM     34  C   UNL A   1      35.535  32.333  27.732  1.00  0.00     0.014 A 
ATOM     35  C   UNL A   1      34.972  29.999  27.971  1.00  0.00     0.014 A 
ATOM     36  C   UNL A   1      36.812  32.075  28.246  1.00  0.00     0.010 A 
ATOM     37  C   UNL A   1      36.183  29.777  28.612  1.00  0.00     0.010 A 
ATOM     38  C   UNL A   1      37.113  30.815  28.782  1.00  0.00    -0.014 A 
BRANCH  38  39
ATOM     39  C   UNL A   1      38.350  30.535  29.569  1.00  0.00     0.031 A 
ATOM     40  C   UNL A   1      39.377  29.576  29.023  1.00  0.00     0.074 A 
ATOM     41  C   UNL A   1      38.460  30.980  30.839  1.00  0.00     0.049 A 
ATOM     42  N   UNL A   1      40.350  28.962  29.644  1.00  0.00    -0.248 NA
ATOM     43  C   UNL A   1      39.247  29.203  27.603  1.00  0.00     0.031 C 
ATOM     44  C   UNL A   1      37.498  31.841  31.531  1.00  0.00     0.029 A 
ATOM     45  N   UNL A   1      39.415  30.728  31.796  1.00  0.00    -0.354 N 
ATOM     46  C   UNL A   1      40.881  28.066  28.722  1.00  0.00     0.074 A 
ATOM     47  C   UNL A   1      40.105  28.198  27.509  1.00  0.00     0.031 C 
ATOM     48  C   UNL A   1      37.913  32.054  32.790  1.00  0.00     0.029 A 
ATOM     49  C   UNL A   1      39.143  31.305  33.018  1.00  0.00     0.049 A 
ATOM     50  H   UNL A   1      40.220  30.187  31.624  1.00  0.00     0.167 HD
ATOM     51  C   UNL A   1      41.938  27.230  28.860  1.00  0.00     0.034 A 
ATOM     52  C   UNL A   1      39.796  31.225  34.195  1.00  0.00     0.034 A 
ATOM     53  C   UNL A   1      42.780  27.195  30.024  1.00  0.00     0.049 A 
ATOM     54  C   UNL A   1      41.046  30.392  34.280  1.00  0.00     0.074 A 
ATOM     55  C   UNL A   1      43.947  26.479  30.218  1.00  0.00     0.029 A 
ATOM     56  N   UNL A   1      42.562  27.928  31.179  1.00  0.00    -0.354 N 
ATOM     57  N   UNL A   1      41.602  29.648  33.357  1.00  0.00    -0.248 NA
ATOM     58  C   UNL A   1      41.777  30.412  35.557  1.00  0.00     0.031 C 
ATOM     59  C   UNL A   1      44.439  26.786  31.491  1.00  0.00     0.029 A 
ATOM     60  C   UNL A   1      43.581  27.699  32.083  1.00  0.00     0.049 A 
ATOM     61  H   UNL A   1      41.793  28.524  31.332  1.00  0.00     0.167 HD
ATOM     62  C   UNL A   1      42.769  29.147  33.923  1.00  0.00     0.074 A 
ATOM     63  C   UNL A   1      42.845  29.681  35.267  1.00  0.00     0.031 C 
ATOM     64  C   UNL A   1      43.685  28.308  33.384  1.00  0.00     0.034 A 
BRANCH  51  65
ATOM     65  C   UNL A   1      42.291  26.344  27.694  1.00  0.00     0.023 A 
ATOM     66  C   UNL A   1      43.119  26.843  26.667  1.00  0.00     0.012 A 
ATOM     67  C   UNL A   1      41.847  25.008  27.633  1.00  0.00     0.148 A 
ATOM     68  C   UNL A   1      43.461  26.045  25.577  1.00  0.00     0.002 A 
ATOM     69  C   UNL A   1      42.234  24.203  26.567  1.00  0.00     0.091 A 
ATOM     70  F   UNL A   1      41.046  24.553  28.607  1.00  0.00    -0.205 F 
ATOM     71  C   UNL A   1      43.027  24.724  25.532  1.00  0.00     0.022 A 
BRANCH  69  72
ATOM     72  S   UNL A   1      41.799  22.463  26.462  1.00  0.00     0.127 S 
ATOM     73  O   UNL A   1      42.347  21.946  27.715  1.00  0.00    -0.237 OA
ATOM     74  O   UNL A   1      40.337  22.511  26.412  1.00  0.00    -0.237 OA
ATOM     75  O   UNL A   1      42.430  21.966  25.247  1.00  0.00    -0.744 OA
ENDBRANCH  69  72
ENDBRANCH  51  65
BRANCH  52  76
ATOM     76  C   UNL A   1      39.329  32.027  35.363  1.00  0.00     0.023 A 
ATOM     77  C   UNL A   1      39.570  33.415  35.376  1.00  0.00     0.012 A 
ATOM     78  C   UNL A   1      38.623  31.445  36.433  1.00  0.00     0.148 A 
ATOM     79  C   UNL A   1      39.148  34.204  36.446  1.00  0.00     0.002 A 
ATOM     80  C   UNL A   1      38.157  32.244  37.472  1.00  0.00     0.091 A 
ATOM     81  F   UNL A   1      38.409  30.121  36.410  1.00  0.00    -0.205 F 
ATOM     82  C   UNL A   1      38.433  33.621  37.489  1.00  0.00     0.022 A 
BRANCH  80  83
ATOM     83  S   UNL A   1      37.115  31.602  38.788  1.00  0.00     0.127 S 
ATOM     84  O   UNL A   1      37.987  31.734  39.952  1.00  0.00    -0.237 OA
ATOM     85  O   UNL A   1      35.981  32.526  38.758  1.00  0.00    -0.237 OA
ATOM     86  O   UNL A   1      36.785  30.239  38.391  1.00  0.00    -0.744 OA
ENDBRANCH  80  83
ENDBRANCH  52  76
BRANCH  64  87
ATOM     87  C   UNL A   1      44.893  27.956  34.208  1.00  0.00     0.023 A 
ATOM     88  C   UNL A   1      46.036  28.777  34.163  1.00  0.00     0.012 A 
ATOM     89  C   UNL A   1      44.845  26.878  35.115  1.00  0.00     0.148 A 
ATOM     90  C   UNL A   1      47.121  28.521  34.999  1.00  0.00     0.002 A 
ATOM     91  C   UNL A   1      45.913  26.656  35.975  1.00  0.00     0.091 A 
ATOM     92  F   UNL A   1      43.754  26.099  35.124  1.00  0.00    -0.205 F 
ATOM     93  C   UNL A   1      47.055  27.472  35.914  1.00  0.00     0.022 A 
BRANCH  91  94
ATOM     94  S   UNL A   1      45.872  25.392  37.251  1.00  0.00     0.127 S 
ATOM     95  O   UNL A   1      45.696  24.176  36.459  1.00  0.00    -0.237 OA
ATOM     96  O   UNL A   1      47.190  25.532  37.870  1.00  0.00    -0.237 OA
ATOM     97  O   UNL A   1      44.757  25.736  38.123  1.00  0.00    -0.744 OA
ENDBRANCH  91  94
ENDBRANCH  64  87
ENDBRANCH  38  39
ENDBRANCH  30  33
ENDBRANCH  28  29
ENDBRANCH  27  28
ENDBRANCH   1  27
TORSDOF 19
ENDMDL
