MODEL 1
REMARK VINA RESULT:     -12.8      0.000      0.000
REMARK SMILES Cc1ccc(C(=O)NCCCNC(=O)c2ccc(-c3c4nc(c(-c5cccc(S(=O)(=O)[O-])c5F)c5ccc([nH]5)c(-c5cccc(S(=O)(=O)[O-])c5F)c5nc(c(-c6cccc(S(=O)(=O)[O-])c6F)c6ccc3[nH]6)C=C5)C=C4)cc2)c(Oc2cccc(F)c2C(N)=O)c1
REMARK SMILES IDX 10 1 9 2 8 3 6 4 7 5 5 7 1 8 2 9 3 10 90 11 4 12 78 13 79 14
REMARK SMILES IDX 80 15 81 16 86 17 82 18 84 19 83 20 85 21 87 22 88 23 89 24
REMARK SMILES IDX 11 27 12 28 13 29 14 31 15 32 16 33 77 34 17 35 76 36 18 37
REMARK SMILES IDX 19 38 20 39 70 40 21 41 75 42 69 43 71 44 22 45 74 46 68 47
REMARK SMILES IDX 67 48 23 50 55 51 35 52 54 53 36 54 39 55 53 56 72 57 37 58
REMARK SMILES IDX 38 59 52 61 73 62 40 63 24 64 25 65 33 66 26 67 28 68 34 69
REMARK SMILES IDX 27 70 29 71 30 72 31 73 32 74 56 75 57 76 65 77 58 78 60 79
REMARK SMILES IDX 66 80 59 81 61 82 62 83 63 84 64 85 41 86 42 87 50 88 43 89
REMARK SMILES IDX 45 90 51 91 44 92 46 93 47 94 48 95 49 96
REMARK H PARENT 8 6 88 25 88 26 12 30 71 49 39 60
REMARK Flexibility Score: inf
ROOT
ATOM      1  C   UNL A   1      34.333  30.448  27.186  1.00  0.00     0.042 C 
ENDROOT
BRANCH   1   2
ATOM      2  C   UNL A   1      34.428  28.978  26.837  1.00  0.00     0.118 C 
BRANCH   2   3
ATOM      3  N   UNL A   1      33.187  28.255  27.019  1.00  0.00    -0.352 N 
ATOM      4  C   UNL A   1      32.497  27.267  26.371  1.00  0.00     0.255 C 
ATOM      5  O   UNL A   1      31.546  26.800  27.010  1.00  0.00    -0.269 OA
ATOM      6  H   UNL A   1      32.710  28.556  27.826  1.00  0.00     0.163 HD
BRANCH   4   7
ATOM      7  C   UNL A   1      32.691  26.756  24.974  1.00  0.00     0.082 A 
ATOM      8  C   UNL A   1      32.669  25.573  20.788  1.00  0.00     0.044 C 
ATOM      9  C   UNL A   1      32.653  25.972  22.231  1.00  0.00    -0.047 A 
ATOM     10  C   UNL A   1      31.680  26.833  22.726  1.00  0.00     0.004 A 
ATOM     11  C   UNL A   1      33.600  25.458  23.116  1.00  0.00     0.051 A 
ATOM     12  C   UNL A   1      31.698  27.209  24.072  1.00  0.00     0.018 A 
ATOM     13  C   UNL A   1      33.658  25.880  24.460  1.00  0.00     0.140 A 
BRANCH  13  14
ATOM     14  O   UNL A   1      34.591  25.302  25.264  1.00  0.00    -0.456 OA
BRANCH  14  15
ATOM     15  C   UNL A   1      34.590  23.948  25.555  1.00  0.00     0.143 A 
ATOM     16  C   UNL A   1      33.583  23.652  26.500  1.00  0.00     0.048 A 
ATOM     17  C   UNL A   1      35.468  22.926  25.157  1.00  0.00     0.117 A 
ATOM     18  C   UNL A   1      33.436  22.377  27.040  1.00  0.00     0.007 A 
ATOM     19  C   UNL A   1      35.288  21.641  25.694  1.00  0.00     0.139 A 
ATOM     20  C   UNL A   1      34.291  21.366  26.628  1.00  0.00     0.040 A 
ATOM     21  F   UNL A   1      36.111  20.635  25.359  1.00  0.00    -0.206 F 
BRANCH  17  22
ATOM     22  C   UNL A   1      36.605  23.039  24.218  1.00  0.00     0.255 C 
ATOM     23  N   UNL A   1      37.865  22.854  24.708  1.00  0.00    -0.365 N 
ATOM     24  O   UNL A   1      36.420  23.267  23.029  1.00  0.00    -0.269 OA
ATOM     25  H   UNL A   1      38.000  22.672  25.666  1.00  0.00     0.159 HD
ATOM     26  H   UNL A   1      38.640  22.902  24.103  1.00  0.00     0.159 HD
ENDBRANCH  17  22
ENDBRANCH  14  15
ENDBRANCH  13  14
ENDBRANCH   4   7
ENDBRANCH   2   3
ENDBRANCH   1   2
BRANCH   1  27
ATOM     27  C   UNL A   1      34.671  30.709  28.641  1.00  0.00     0.118 C 
BRANCH  27  28
ATOM     28  N   UNL A   1      35.773  31.652  28.842  1.00  0.00    -0.352 N 
ATOM     29  C   UNL A   1      37.134  31.366  28.906  1.00  0.00     0.251 C 
ATOM     30  H   UNL A   1      35.522  32.599  28.946  1.00  0.00     0.163 HD
ATOM     31  O   UNL A   1      37.954  32.250  29.131  1.00  0.00    -0.269 OA
BRANCH  29  32
ATOM     32  C   UNL A   1      37.548  29.974  28.610  1.00  0.00     0.039 A 
ATOM     33  C   UNL A   1      37.698  29.127  29.710  1.00  0.00     0.014 A 
ATOM     34  C   UNL A   1      38.256  29.756  27.433  1.00  0.00     0.014 A 
ATOM     35  C   UNL A   1      38.795  28.278  29.755  1.00  0.00     0.010 A 
ATOM     36  C   UNL A   1      39.414  29.010  27.525  1.00  0.00     0.010 A 
ATOM     37  C   UNL A   1      39.719  28.339  28.717  1.00  0.00    -0.014 A 
BRANCH  37  38
ATOM     38  C   UNL A   1      41.001  27.659  28.739  1.00  0.00     0.031 A 
ATOM     39  C   UNL A   1      40.986  26.202  28.540  1.00  0.00     0.074 A 
ATOM     40  C   UNL A   1      42.170  28.325  28.876  1.00  0.00     0.049 A 
ATOM     41  N   UNL A   1      41.885  25.393  28.977  1.00  0.00    -0.248 NA
ATOM     42  C   UNL A   1      39.873  25.543  27.871  1.00  0.00     0.031 C 
ATOM     43  C   UNL A   1      43.506  27.798  28.620  1.00  0.00     0.029 A 
ATOM     44  N   UNL A   1      42.399  29.565  29.480  1.00  0.00    -0.354 N 
ATOM     45  C   UNL A   1      41.621  24.159  28.420  1.00  0.00     0.074 A 
ATOM     46  C   UNL A   1      40.310  24.286  27.833  1.00  0.00     0.031 C 
ATOM     47  C   UNL A   1      44.402  28.545  29.284  1.00  0.00     0.029 A 
ATOM     48  C   UNL A   1      43.657  29.477  30.111  1.00  0.00     0.049 A 
ATOM     49  H   UNL A   1      41.799  30.345  29.466  1.00  0.00     0.167 HD
ATOM     50  C   UNL A   1      42.614  23.229  28.379  1.00  0.00     0.034 A 
ATOM     51  C   UNL A   1      43.867  29.700  31.442  1.00  0.00     0.034 A 
ATOM     52  C   UNL A   1      43.808  23.715  29.092  1.00  0.00     0.049 A 
ATOM     53  C   UNL A   1      44.455  28.497  32.158  1.00  0.00     0.074 A 
ATOM     54  C   UNL A   1      44.966  24.338  28.654  1.00  0.00     0.029 A 
ATOM     55  N   UNL A   1      43.773  23.882  30.473  1.00  0.00    -0.354 N 
ATOM     56  N   UNL A   1      44.640  27.332  31.601  1.00  0.00    -0.248 NA
ATOM     57  C   UNL A   1      44.827  28.496  33.571  1.00  0.00     0.031 C 
ATOM     58  C   UNL A   1      45.582  24.958  29.774  1.00  0.00     0.029 A 
ATOM     59  C   UNL A   1      44.821  24.686  30.899  1.00  0.00     0.049 A 
ATOM     60  H   UNL A   1      43.096  23.483  31.067  1.00  0.00     0.167 HD
ATOM     61  C   UNL A   1      44.961  26.408  32.562  1.00  0.00     0.074 A 
ATOM     62  C   UNL A   1      45.163  27.208  33.758  1.00  0.00     0.031 C 
ATOM     63  C   UNL A   1      44.953  25.060  32.306  1.00  0.00     0.034 A 
BRANCH  50  64
ATOM     64  C   UNL A   1      42.646  22.052  27.411  1.00  0.00     0.023 A 
ATOM     65  C   UNL A   1      41.736  20.998  27.653  1.00  0.00     0.012 A 
ATOM     66  C   UNL A   1      43.544  21.846  26.337  1.00  0.00     0.148 A 
ATOM     67  C   UNL A   1      41.788  19.781  26.962  1.00  0.00     0.002 A 
ATOM     68  C   UNL A   1      43.648  20.608  25.694  1.00  0.00     0.091 A 
ATOM     69  F   UNL A   1      44.247  22.868  25.847  1.00  0.00    -0.205 F 
ATOM     70  C   UNL A   1      42.772  19.570  26.009  1.00  0.00     0.022 A 
BRANCH  68  71
ATOM     71  S   UNL A   1      44.943  20.245  24.492  1.00  0.00     0.127 S 
ATOM     72  O   UNL A   1      46.158  20.580  25.238  1.00  0.00    -0.237 OA
ATOM     73  O   UNL A   1      44.754  18.817  24.247  1.00  0.00    -0.237 OA
ATOM     74  O   UNL A   1      44.691  21.115  23.348  1.00  0.00    -0.744 OA
ENDBRANCH  68  71
ENDBRANCH  50  64
BRANCH  51  75
ATOM     75  C   UNL A   1      42.891  30.660  32.035  1.00  0.00     0.023 A 
ATOM     76  C   UNL A   1      42.887  31.967  31.492  1.00  0.00     0.012 A 
ATOM     77  C   UNL A   1      41.755  30.203  32.720  1.00  0.00     0.148 A 
ATOM     78  C   UNL A   1      41.709  32.713  31.450  1.00  0.00     0.002 A 
ATOM     79  C   UNL A   1      40.586  30.959  32.680  1.00  0.00     0.091 A 
ATOM     80  F   UNL A   1      41.799  29.007  33.321  1.00  0.00    -0.205 F 
ATOM     81  C   UNL A   1      40.544  32.182  31.992  1.00  0.00     0.022 A 
BRANCH  79  82
ATOM     82  S   UNL A   1      39.065  30.333  33.398  1.00  0.00     0.127 S 
ATOM     83  O   UNL A   1      38.059  31.053  32.625  1.00  0.00    -0.237 OA
ATOM     84  O   UNL A   1      39.147  28.901  33.112  1.00  0.00    -0.237 OA
ATOM     85  O   UNL A   1      39.167  30.668  34.811  1.00  0.00    -0.744 OA
ENDBRANCH  79  82
ENDBRANCH  51  75
BRANCH  63  86
ATOM     86  C   UNL A   1      45.068  23.972  33.362  1.00  0.00     0.023 A 
ATOM     87  C   UNL A   1      44.016  23.079  33.646  1.00  0.00     0.012 A 
ATOM     88  C   UNL A   1      46.300  23.725  34.024  1.00  0.00     0.148 A 
ATOM     89  C   UNL A   1      44.141  22.058  34.595  1.00  0.00     0.002 A 
ATOM     90  C   UNL A   1      46.454  22.636  34.879  1.00  0.00     0.091 A 
ATOM     91  F   UNL A   1      47.332  24.563  33.848  1.00  0.00    -0.205 F 
ATOM     92  C   UNL A   1      45.366  21.824  35.200  1.00  0.00     0.022 A 
BRANCH  90  93
ATOM     93  S   UNL A   1      48.081  22.143  35.472  1.00  0.00     0.127 S 
ATOM     94  O   UNL A   1      48.854  22.097  34.234  1.00  0.00    -0.237 OA
ATOM     95  O   UNL A   1      48.435  23.244  36.370  1.00  0.00    -0.237 OA
ATOM     96  O   UNL A   1      47.866  20.871  36.148  1.00  0.00    -0.744 OA
ENDBRANCH  90  93
ENDBRANCH  63  86
ENDBRANCH  37  38
ENDBRANCH  29  32
ENDBRANCH  27  28
ENDBRANCH   1  27
TORSDOF 16
ENDMDL
MODEL 2
REMARK VINA RESULT:     -12.7      1.757      3.145
REMARK SMILES Cc1ccc(C(=O)NCCCNC(=O)c2ccc(-c3c4nc(c(-c5cccc(S(=O)(=O)[O-])c5F)c5ccc([nH]5)c(-c5cccc(S(=O)(=O)[O-])c5F)c5nc(c(-c6cccc(S(=O)(=O)[O-])c6F)c6ccc3[nH]6)C=C5)C=C4)cc2)c(Oc2cccc(F)c2C(N)=O)c1
REMARK SMILES IDX 10 1 9 2 8 3 6 4 7 5 5 7 1 8 2 9 3 10 90 11 4 12 78 13 79 14
REMARK SMILES IDX 80 15 81 16 86 17 82 18 84 19 83 20 85 21 87 22 88 23 89 24
REMARK SMILES IDX 11 27 12 28 13 29 14 31 15 32 16 33 77 34 17 35 76 36 18 37
REMARK SMILES IDX 19 38 20 39 70 40 21 41 75 42 69 43 71 44 22 45 74 46 68 47
REMARK SMILES IDX 67 48 23 50 55 51 35 52 54 53 36 54 39 55 53 56 72 57 37 58
REMARK SMILES IDX 38 59 52 61 73 62 40 63 24 64 25 65 33 66 26 67 28 68 34 69
REMARK SMILES IDX 27 70 29 71 30 72 31 73 32 74 56 75 57 76 65 77 58 78 60 79
REMARK SMILES IDX 66 80 59 81 61 82 62 83 63 84 64 85 41 86 42 87 50 88 43 89
REMARK SMILES IDX 45 90 51 91 44 92 46 93 47 94 48 95 49 96
REMARK H PARENT 8 6 88 25 88 26 12 30 71 49 39 60
REMARK Flexibility Score: inf
ROOT
ATOM      1  C   UNL A   1      33.360  31.407  27.428  1.00  0.00     0.042 C 
ENDROOT
BRANCH   1   2
ATOM      2  C   UNL A   1      32.449  30.621  26.508  1.00  0.00     0.118 C 
BRANCH   2   3
ATOM      3  N   UNL A   1      31.807  29.493  27.149  1.00  0.00    -0.352 N 
ATOM      4  C   UNL A   1      31.859  28.128  27.066  1.00  0.00     0.255 C 
ATOM      5  O   UNL A   1      31.262  27.535  27.974  1.00  0.00    -0.269 OA
ATOM      6  H   UNL A   1      31.156  29.787  27.827  1.00  0.00     0.163 HD
BRANCH   4   7
ATOM      7  C   UNL A   1      32.459  27.282  25.983  1.00  0.00     0.082 A 
ATOM      8  C   UNL A   1      34.531  24.520  23.337  1.00  0.00     0.044 C 
ATOM      9  C   UNL A   1      33.840  25.477  24.259  1.00  0.00    -0.047 A 
ATOM     10  C   UNL A   1      33.948  25.347  25.639  1.00  0.00     0.004 A 
ATOM     11  C   UNL A   1      33.097  26.540  23.745  1.00  0.00     0.051 A 
ATOM     12  C   UNL A   1      33.276  26.238  26.480  1.00  0.00     0.018 A 
ATOM     13  C   UNL A   1      32.370  27.404  24.589  1.00  0.00     0.140 A 
BRANCH  13  14
ATOM     14  O   UNL A   1      31.700  28.437  24.008  1.00  0.00    -0.456 OA
BRANCH  14  15
ATOM     15  C   UNL A   1      30.354  28.368  23.690  1.00  0.00     0.143 A 
ATOM     16  C   UNL A   1      29.911  29.605  23.173  1.00  0.00     0.048 A 
ATOM     17  C   UNL A   1      29.414  27.348  23.908  1.00  0.00     0.117 A 
ATOM     18  C   UNL A   1      28.571  29.836  22.870  1.00  0.00     0.007 A 
ATOM     19  C   UNL A   1      28.071  27.591  23.573  1.00  0.00     0.139 A 
ATOM     20  C   UNL A   1      27.649  28.818  23.066  1.00  0.00     0.040 A 
ATOM     21  F   UNL A   1      27.132  26.655  23.778  1.00  0.00    -0.206 F 
BRANCH  17  22
ATOM     22  C   UNL A   1      29.665  26.006  24.476  1.00  0.00     0.255 C 
ATOM     23  N   UNL A   1      29.997  24.996  23.620  1.00  0.00    -0.365 N 
ATOM     24  O   UNL A   1      29.604  25.811  25.683  1.00  0.00    -0.269 OA
ATOM     25  H   UNL A   1      30.043  25.166  22.652  1.00  0.00     0.159 HD
ATOM     26  H   UNL A   1      30.190  24.097  23.971  1.00  0.00     0.159 HD
ENDBRANCH  17  22
ENDBRANCH  14  15
ENDBRANCH  13  14
ENDBRANCH   4   7
ENDBRANCH   2   3
ENDBRANCH   1   2
BRANCH   1  27
ATOM     27  C   UNL A   1      34.743  30.790  27.518  1.00  0.00     0.118 C 
BRANCH  27  28
ATOM     28  N   UNL A   1      35.737  31.640  28.178  1.00  0.00    -0.352 N 
ATOM     29  C   UNL A   1      36.991  31.267  28.651  1.00  0.00     0.251 C 
ATOM     30  H   UNL A   1      35.489  32.585  28.300  1.00  0.00     0.163 HD
ATOM     31  O   UNL A   1      37.711  32.071  29.234  1.00  0.00    -0.269 OA
BRANCH  29  32
ATOM     32  C   UNL A   1      37.447  29.889  28.350  1.00  0.00     0.039 A 
ATOM     33  C   UNL A   1      37.583  29.030  29.443  1.00  0.00     0.014 A 
ATOM     34  C   UNL A   1      38.196  29.704  27.193  1.00  0.00     0.014 A 
ATOM     35  C   UNL A   1      38.698  28.206  29.511  1.00  0.00     0.010 A 
ATOM     36  C   UNL A   1      39.367  28.983  27.311  1.00  0.00     0.010 A 
ATOM     37  C   UNL A   1      39.652  28.303  28.502  1.00  0.00    -0.014 A 
BRANCH  37  38
ATOM     38  C   UNL A   1      40.948  27.652  28.556  1.00  0.00     0.031 A 
ATOM     39  C   UNL A   1      40.968  26.193  28.377  1.00  0.00     0.074 A 
ATOM     40  C   UNL A   1      42.099  28.346  28.702  1.00  0.00     0.049 A 
ATOM     41  N   UNL A   1      41.878  25.410  28.840  1.00  0.00    -0.248 NA
ATOM     42  C   UNL A   1      39.881  25.500  27.700  1.00  0.00     0.031 C 
ATOM     43  C   UNL A   1      43.450  27.846  28.476  1.00  0.00     0.029 A 
ATOM     44  N   UNL A   1      42.290  29.599  29.292  1.00  0.00    -0.354 N 
ATOM     45  C   UNL A   1      41.650  24.163  28.297  1.00  0.00     0.074 A 
ATOM     46  C   UNL A   1      40.347  24.252  27.687  1.00  0.00     0.031 C 
ATOM     47  C   UNL A   1      44.319  28.621  29.144  1.00  0.00     0.029 A 
ATOM     48  C   UNL A   1      43.539  29.548  29.945  1.00  0.00     0.049 A 
ATOM     49  H   UNL A   1      41.673  30.365  29.257  1.00  0.00     0.167 HD
ATOM     50  C   UNL A   1      42.665  23.254  28.286  1.00  0.00     0.034 A 
ATOM     51  C   UNL A   1      43.722  29.795  31.276  1.00  0.00     0.034 A 
ATOM     52  C   UNL A   1      43.835  23.778  29.010  1.00  0.00     0.049 A 
ATOM     53  C   UNL A   1      44.325  28.614  32.018  1.00  0.00     0.074 A 
ATOM     54  C   UNL A   1      44.987  24.420  28.583  1.00  0.00     0.029 A 
ATOM     55  N   UNL A   1      43.774  23.962  30.388  1.00  0.00    -0.354 N 
ATOM     56  N   UNL A   1      44.545  27.447  31.481  1.00  0.00    -0.248 NA
ATOM     57  C   UNL A   1      44.673  28.642  33.437  1.00  0.00     0.031 C 
ATOM     58  C   UNL A   1      45.570  25.069  29.703  1.00  0.00     0.029 A 
ATOM     59  C   UNL A   1      44.796  24.796  30.820  1.00  0.00     0.049 A 
ATOM     60  H   UNL A   1      43.096  23.557  30.977  1.00  0.00     0.167 HD
ATOM     61  C   UNL A   1      44.870  26.543  32.460  1.00  0.00     0.074 A 
ATOM     62  C   UNL A   1      45.034  27.364  33.648  1.00  0.00     0.031 C 
ATOM     63  C   UNL A   1      44.897  25.192  32.224  1.00  0.00     0.034 A 
BRANCH  50  64
ATOM     64  C   UNL A   1      42.739  22.065  27.334  1.00  0.00     0.023 A 
ATOM     65  C   UNL A   1      41.871  20.981  27.596  1.00  0.00     0.012 A 
ATOM     66  C   UNL A   1      43.642  21.878  26.261  1.00  0.00     0.148 A 
ATOM     67  C   UNL A   1      41.967  19.757  26.922  1.00  0.00     0.002 A 
ATOM     68  C   UNL A   1      43.791  20.635  25.636  1.00  0.00     0.091 A 
ATOM     69  F   UNL A   1      44.303  22.919  25.753  1.00  0.00    -0.205 F 
ATOM     70  C   UNL A   1      42.955  19.569  25.969  1.00  0.00     0.022 A 
BRANCH  68  71
ATOM     71  S   UNL A   1      45.095  20.304  24.435  1.00  0.00     0.127 S 
ATOM     72  O   UNL A   1      44.719  21.181  23.323  1.00  0.00    -0.237 OA
ATOM     73  O   UNL A   1      46.297  20.718  25.155  1.00  0.00    -0.237 OA
ATOM     74  O   UNL A   1      45.010  18.882  24.123  1.00  0.00    -0.744 OA
ENDBRANCH  68  71
ENDBRANCH  50  64
BRANCH  51  75
ATOM     75  C   UNL A   1      42.715  30.740  31.839  1.00  0.00     0.023 A 
ATOM     76  C   UNL A   1      42.703  32.045  31.290  1.00  0.00     0.012 A 
ATOM     77  C   UNL A   1      41.570  30.267  32.497  1.00  0.00     0.148 A 
ATOM     78  C   UNL A   1      41.514  32.771  31.214  1.00  0.00     0.002 A 
ATOM     79  C   UNL A   1      40.390  31.003  32.423  1.00  0.00     0.091 A 
ATOM     80  F   UNL A   1      41.618  29.074  33.104  1.00  0.00    -0.205 F 
ATOM     81  C   UNL A   1      40.345  32.222  31.728  1.00  0.00     0.022 A 
BRANCH  79  82
ATOM     82  S   UNL A   1      38.861  30.355  33.104  1.00  0.00     0.127 S 
ATOM     83  O   UNL A   1      38.989  30.722  34.510  1.00  0.00    -0.237 OA
ATOM     84  O   UNL A   1      37.844  31.102  32.366  1.00  0.00    -0.237 OA
ATOM     85  O   UNL A   1      38.901  28.933  32.795  1.00  0.00    -0.744 OA
ENDBRANCH  79  82
ENDBRANCH  51  75
BRANCH  63  86
ATOM     86  C   UNL A   1      45.018  24.122  33.296  1.00  0.00     0.023 A 
ATOM     87  C   UNL A   1      43.953  23.264  33.633  1.00  0.00     0.012 A 
ATOM     88  C   UNL A   1      46.264  23.854  33.921  1.00  0.00     0.148 A 
ATOM     89  C   UNL A   1      44.083  22.258  34.598  1.00  0.00     0.002 A 
ATOM     90  C   UNL A   1      46.419  22.777  34.792  1.00  0.00     0.091 A 
ATOM     91  F   UNL A   1      47.312  24.659  33.694  1.00  0.00    -0.205 F 
ATOM     92  C   UNL A   1      45.321  22.002  35.166  1.00  0.00     0.022 A 
BRANCH  90  93
ATOM     93  S   UNL A   1      48.051  22.252  35.340  1.00  0.00     0.127 S 
ATOM     94  O   UNL A   1      48.697  21.902  34.078  1.00  0.00    -0.237 OA
ATOM     95  O   UNL A   1      48.574  23.462  35.977  1.00  0.00    -0.237 OA
ATOM     96  O   UNL A   1      47.802  21.154  36.265  1.00  0.00    -0.744 OA
ENDBRANCH  90  93
ENDBRANCH  63  86
ENDBRANCH  37  38
ENDBRANCH  29  32
ENDBRANCH  27  28
ENDBRANCH   1  27
TORSDOF 16
ENDMDL
MODEL 3
REMARK VINA RESULT:     -12.7      4.319     10.323
REMARK SMILES Cc1ccc(C(=O)NCCCNC(=O)c2ccc(-c3c4nc(c(-c5cccc(S(=O)(=O)[O-])c5F)c5ccc([nH]5)c(-c5cccc(S(=O)(=O)[O-])c5F)c5nc(c(-c6cccc(S(=O)(=O)[O-])c6F)c6ccc3[nH]6)C=C5)C=C4)cc2)c(Oc2cccc(F)c2C(N)=O)c1
REMARK SMILES IDX 10 1 9 2 8 3 6 4 7 5 5 7 1 8 2 9 3 10 90 11 4 12 78 13 79 14
REMARK SMILES IDX 80 15 81 16 86 17 82 18 84 19 83 20 85 21 87 22 88 23 89 24
REMARK SMILES IDX 11 27 12 28 13 29 14 31 15 32 16 33 77 34 17 35 76 36 18 37
REMARK SMILES IDX 19 38 20 39 70 40 21 41 75 42 69 43 71 44 22 45 74 46 68 47
REMARK SMILES IDX 67 48 23 50 55 51 35 52 54 53 36 54 39 55 53 56 72 57 37 58
REMARK SMILES IDX 38 59 52 61 73 62 40 63 24 64 25 65 33 66 26 67 28 68 34 69
REMARK SMILES IDX 27 70 29 71 30 72 31 73 32 74 56 75 57 76 65 77 58 78 60 79
REMARK SMILES IDX 66 80 59 81 61 82 62 83 63 84 64 85 41 86 42 87 50 88 43 89
REMARK SMILES IDX 45 90 51 91 44 92 46 93 47 94 48 95 49 96
REMARK H PARENT 8 6 88 25 88 26 12 30 71 49 39 60
REMARK Flexibility Score: inf
ROOT
ATOM      1  C   UNL A   1      38.139  21.257  25.392  1.00  0.00     0.042 C 
ENDROOT
BRANCH   1   2
ATOM      2  C   UNL A   1      36.649  21.184  25.133  1.00  0.00     0.118 C 
BRANCH   2   3
ATOM      3  N   UNL A   1      36.191  22.096  24.107  1.00  0.00    -0.352 N 
ATOM      4  C   UNL A   1      35.176  22.999  23.947  1.00  0.00     0.255 C 
ATOM      5  O   UNL A   1      35.288  23.728  22.953  1.00  0.00    -0.269 OA
ATOM      6  H   UNL A   1      36.765  22.055  23.307  1.00  0.00     0.163 HD
BRANCH   4   7
ATOM      7  C   UNL A   1      33.925  23.149  24.761  1.00  0.00     0.082 A 
ATOM      8  C   UNL A   1      30.125  22.984  26.873  1.00  0.00     0.044 C 
ATOM      9  C   UNL A   1      31.422  23.034  26.124  1.00  0.00    -0.047 A 
ATOM     10  C   UNL A   1      31.874  21.938  25.400  1.00  0.00     0.004 A 
ATOM     11  C   UNL A   1      32.186  24.201  26.115  1.00  0.00     0.051 A 
ATOM     12  C   UNL A   1      33.098  22.000  24.727  1.00  0.00     0.018 A 
ATOM     13  C   UNL A   1      33.447  24.249  25.487  1.00  0.00     0.140 A 
BRANCH  13  14
ATOM     14  O   UNL A   1      34.112  25.437  25.495  1.00  0.00    -0.456 OA
BRANCH  14  15
ATOM     15  C   UNL A   1      33.589  26.588  24.930  1.00  0.00     0.143 A 
ATOM     16  C   UNL A   1      33.809  26.591  23.535  1.00  0.00     0.048 A 
ATOM     17  C   UNL A   1      33.020  27.723  25.529  1.00  0.00     0.117 A 
ATOM     18  C   UNL A   1      33.471  27.684  22.741  1.00  0.00     0.007 A 
ATOM     19  C   UNL A   1      32.663  28.807  24.709  1.00  0.00     0.139 A 
ATOM     20  C   UNL A   1      32.889  28.794  23.334  1.00  0.00     0.040 A 
ATOM     21  F   UNL A   1      32.131  29.920  25.235  1.00  0.00    -0.206 F 
BRANCH  17  22
ATOM     22  C   UNL A   1      32.748  27.935  26.968  1.00  0.00     0.255 C 
ATOM     23  N   UNL A   1      33.621  28.704  27.681  1.00  0.00    -0.365 N 
ATOM     24  O   UNL A   1      31.754  27.455  27.498  1.00  0.00    -0.269 OA
ATOM     25  H   UNL A   1      34.416  29.083  27.242  1.00  0.00     0.159 HD
ATOM     26  H   UNL A   1      33.455  28.879  28.635  1.00  0.00     0.159 HD
ENDBRANCH  17  22
ENDBRANCH  14  15
ENDBRANCH  13  14
ENDBRANCH   4   7
ENDBRANCH   2   3
ENDBRANCH   1   2
BRANCH   1  27
ATOM     27  C   UNL A   1      38.567  22.636  25.856  1.00  0.00     0.118 C 
BRANCH  27  28
ATOM     28  N   UNL A   1      39.939  22.700  26.365  1.00  0.00    -0.352 N 
ATOM     29  C   UNL A   1      40.646  23.832  26.759  1.00  0.00     0.251 C 
ATOM     30  H   UNL A   1      40.416  21.842  26.437  1.00  0.00     0.163 HD
ATOM     31  O   UNL A   1      41.814  23.752  27.121  1.00  0.00    -0.269 OA
BRANCH  29  32
ATOM     32  C   UNL A   1      39.903  25.115  26.798  1.00  0.00     0.039 A 
ATOM     33  C   UNL A   1      40.541  26.215  26.221  1.00  0.00     0.014 A 
ATOM     34  C   UNL A   1      38.963  25.277  27.810  1.00  0.00     0.014 A 
ATOM     35  C   UNL A   1      40.496  27.436  26.883  1.00  0.00     0.010 A 
ATOM     36  C   UNL A   1      39.018  26.450  28.536  1.00  0.00     0.010 A 
ATOM     37  C   UNL A   1      39.849  27.495  28.113  1.00  0.00    -0.014 A 
BRANCH  37  38
ATOM     38  C   UNL A   1      39.903  28.647  28.995  1.00  0.00     0.031 A 
ATOM     39  C   UNL A   1      38.915  29.711  28.761  1.00  0.00     0.074 A 
ATOM     40  C   UNL A   1      40.773  28.727  30.026  1.00  0.00     0.049 A 
ATOM     41  N   UNL A   1      39.079  30.946  29.081  1.00  0.00    -0.248 NA
ATOM     42  C   UNL A   1      37.667  29.443  28.060  1.00  0.00     0.031 C 
ATOM     43  C   UNL A   1      40.723  29.674  31.135  1.00  0.00     0.029 A 
ATOM     44  N   UNL A   1      42.011  28.094  30.170  1.00  0.00    -0.354 N 
ATOM     45  C   UNL A   1      37.868  31.576  28.885  1.00  0.00     0.074 A 
ATOM     46  C   UNL A   1      37.065  30.627  28.155  1.00  0.00     0.031 C 
ATOM     47  C   UNL A   1      41.946  29.769  31.681  1.00  0.00     0.029 A 
ATOM     48  C   UNL A   1      42.852  29.005  30.842  1.00  0.00     0.049 A 
ATOM     49  H   UNL A   1      42.248  27.189  29.862  1.00  0.00     0.167 HD
ATOM     50  C   UNL A   1      37.635  32.764  29.509  1.00  0.00     0.034 A 
ATOM     51  C   UNL A   1      44.048  29.450  30.356  1.00  0.00     0.034 A 
ATOM     52  C   UNL A   1      38.844  33.224  30.214  1.00  0.00     0.049 A 
ATOM     53  C   UNL A   1      44.092  30.959  30.186  1.00  0.00     0.074 A 
ATOM     54  C   UNL A   1      39.255  33.107  31.532  1.00  0.00     0.029 A 
ATOM     55  N   UNL A   1      39.964  33.618  29.488  1.00  0.00    -0.354 N 
ATOM     56  N   UNL A   1      43.070  31.747  30.371  1.00  0.00    -0.248 NA
ATOM     57  C   UNL A   1      45.276  31.689  29.737  1.00  0.00     0.031 C 
ATOM     58  C   UNL A   1      40.654  33.349  31.579  1.00  0.00     0.029 A 
ATOM     59  C   UNL A   1      41.091  33.645  30.298  1.00  0.00     0.049 A 
ATOM     60  H   UNL A   1      39.957  33.845  28.530  1.00  0.00     0.167 HD
ATOM     61  C   UNL A   1      43.370  33.005  29.915  1.00  0.00     0.074 A 
ATOM     62  C   UNL A   1      44.791  32.938  29.623  1.00  0.00     0.031 C 
ATOM     63  C   UNL A   1      42.404  33.965  29.741  1.00  0.00     0.034 A 
BRANCH  50  64
ATOM     64  C   UNL A   1      36.245  33.328  29.786  1.00  0.00     0.023 A 
ATOM     65  C   UNL A   1      35.580  33.951  28.706  1.00  0.00     0.012 A 
ATOM     66  C   UNL A   1      35.570  33.379  31.028  1.00  0.00     0.148 A 
ATOM     67  C   UNL A   1      34.391  34.673  28.866  1.00  0.00     0.002 A 
ATOM     68  C   UNL A   1      34.423  34.159  31.209  1.00  0.00     0.091 A 
ATOM     69  F   UNL A   1      35.962  32.597  32.036  1.00  0.00    -0.205 F 
ATOM     70  C   UNL A   1      33.833  34.813  30.127  1.00  0.00     0.022 A 
BRANCH  68  71
ATOM     71  S   UNL A   1      33.683  34.435  32.830  1.00  0.00     0.127 S 
ATOM     72  O   UNL A   1      32.532  35.281  32.504  1.00  0.00    -0.237 OA
ATOM     73  O   UNL A   1      33.340  33.079  33.253  1.00  0.00    -0.237 OA
ATOM     74  O   UNL A   1      34.701  35.102  33.634  1.00  0.00    -0.744 OA
ENDBRANCH  68  71
ENDBRANCH  50  64
BRANCH  51  75
ATOM     75  C   UNL A   1      44.718  28.465  29.459  1.00  0.00     0.023 A 
ATOM     76  C   UNL A   1      45.054  27.217  30.037  1.00  0.00     0.012 A 
ATOM     77  C   UNL A   1      44.597  28.559  28.065  1.00  0.00     0.148 A 
ATOM     78  C   UNL A   1      45.058  26.055  29.264  1.00  0.00     0.002 A 
ATOM     79  C   UNL A   1      44.610  27.395  27.300  1.00  0.00     0.091 A 
ATOM     80  F   UNL A   1      44.380  29.760  27.513  1.00  0.00    -0.205 F 
ATOM     81  C   UNL A   1      44.777  26.139  27.905  1.00  0.00     0.022 A 
BRANCH  79  82
ATOM     82  S   UNL A   1      44.289  27.454  25.535  1.00  0.00     0.127 S 
ATOM     83  O   UNL A   1      43.938  26.066  25.255  1.00  0.00    -0.237 OA
ATOM     84  O   UNL A   1      43.176  28.397  25.448  1.00  0.00    -0.237 OA
ATOM     85  O   UNL A   1      45.533  27.942  24.957  1.00  0.00    -0.744 OA
ENDBRANCH  79  82
ENDBRANCH  51  75
BRANCH  63  86
ATOM     86  C   UNL A   1      42.613  35.292  29.030  1.00  0.00     0.023 A 
ATOM     87  C   UNL A   1      41.944  35.623  27.834  1.00  0.00     0.012 A 
ATOM     88  C   UNL A   1      43.402  36.317  29.615  1.00  0.00     0.148 A 
ATOM     89  C   UNL A   1      42.115  36.860  27.203  1.00  0.00     0.002 A 
ATOM     90  C   UNL A   1      43.474  37.586  29.045  1.00  0.00     0.091 A 
ATOM     91  F   UNL A   1      44.112  36.063  30.723  1.00  0.00    -0.205 F 
ATOM     92  C   UNL A   1      42.866  37.850  27.817  1.00  0.00     0.022 A 
BRANCH  90  93
ATOM     93  S   UNL A   1      44.213  38.965  29.936  1.00  0.00     0.127 S 
ATOM     94  O   UNL A   1      43.806  40.107  29.121  1.00  0.00    -0.237 OA
ATOM     95  O   UNL A   1      43.555  38.884  31.242  1.00  0.00    -0.237 OA
ATOM     96  O   UNL A   1      45.639  38.670  29.970  1.00  0.00    -0.744 OA
ENDBRANCH  90  93
ENDBRANCH  63  86
ENDBRANCH  37  38
ENDBRANCH  29  32
ENDBRANCH  27  28
ENDBRANCH   1  27
TORSDOF 16
ENDMDL
