MODEL 1
REMARK VINA RESULT:     -12.1      0.000      0.000
REMARK SMILES CCCCOc1ccc(-c2nc(C)c(C(=O)NCCCNC(=O)c3ccc(-c4c5nc(c(-c6cccc(S(=O)(=O)[O-])c6F)c6ccc([nH]6)c(-c6cccc(S(=O)(=O)[O-])c6F)c6nc(c(-c7cccc(S(=O)(=O)[O-])c7F)c7ccc4[nH]7)C=C6)C=C5)cc3)s2)cc1OC
REMARK SMILES IDX 18 1 17 2 15 3 16 4 14 6 10 7 11 8 87 9 12 10 13 11 9 12
REMARK SMILES IDX 6 13 7 14 89 15 8 16 88 17 5 18 4 19 3 20 2 21 1 22 90 23
REMARK SMILES IDX 91 24 19 25 20 26 21 27 22 28 23 30 24 31 25 32 86 33 26 34
REMARK SMILES IDX 85 35 27 36 28 37 29 38 79 39 30 40 84 41 78 42 80 43 31 44
REMARK SMILES IDX 83 45 77 46 76 47 32 49 64 50 44 51 63 52 45 53 48 54 62 55
REMARK SMILES IDX 81 56 46 57 47 58 61 60 82 61 49 62 33 63 34 64 42 65 35 66
REMARK SMILES IDX 37 67 43 68 36 69 38 70 39 71 40 72 41 73 65 74 66 75 74 76
REMARK SMILES IDX 67 77 69 78 75 79 68 80 70 81 71 82 72 83 73 84 50 85 51 86
REMARK SMILES IDX 59 87 52 88 54 89 60 90 53 91 55 92 56 93 57 94 58 95
REMARK H PARENT 17 5 21 29 80 48 48 59
REMARK Flexibility Score: inf
ROOT
ATOM      1  C   UNL A   1      32.647  29.293  24.740  1.00  0.00     0.118 C 
ENDROOT
BRANCH   1   2
ATOM      2  N   UNL A   1      31.801  29.442  23.579  1.00  0.00    -0.351 N 
ATOM      3  C   UNL A   1      31.087  28.555  22.819  1.00  0.00     0.263 C 
ATOM      4  O   UNL A   1      30.469  29.095  21.894  1.00  0.00    -0.268 OA
ATOM      5  H   UNL A   1      31.722  30.374  23.271  1.00  0.00     0.163 HD
BRANCH   3   6
ATOM      6  C   UNL A   1      30.996  27.125  23.088  1.00  0.00     0.115 A 
ATOM      7  C   UNL A   1      31.771  24.816  23.416  1.00  0.00     0.124 A 
ATOM      8  N   UNL A   1      30.486  24.908  23.659  1.00  0.00    -0.241 NA
ATOM      9  S   UNL A   1      32.482  26.247  22.831  1.00  0.00    -0.108 S 
ATOM     10  C   UNL A   1      30.051  26.225  23.573  1.00  0.00     0.062 A 
ATOM     11  C   UNL A   1      28.673  26.412  24.093  1.00  0.00     0.068 C 
BRANCH   7  12
ATOM     12  C   UNL A   1      32.541  23.592  23.648  1.00  0.00     0.014 A 
ATOM     13  C   UNL A   1      33.873  21.251  24.437  1.00  0.00     0.161 A 
ATOM     14  C   UNL A   1      32.539  21.192  24.025  1.00  0.00     0.051 A 
ATOM     15  C   UNL A   1      34.581  22.454  24.350  1.00  0.00     0.161 A 
ATOM     16  C   UNL A   1      31.875  22.358  23.646  1.00  0.00     0.015 A 
ATOM     17  C   UNL A   1      33.902  23.621  23.990  1.00  0.00     0.061 A 
BRANCH  13  18
ATOM     18  O   UNL A   1      34.469  20.125  24.937  1.00  0.00    -0.490 OA
BRANCH  18  19
ATOM     19  C   UNL A   1      33.639  18.957  24.824  1.00  0.00     0.230 C 
BRANCH  19  20
ATOM     20  C   UNL A   1      34.402  17.795  24.178  1.00  0.00     0.041 C 
BRANCH  20  21
ATOM     21  C   UNL A   1      33.640  17.040  23.083  1.00  0.00     0.000 C 
ATOM     22  C   UNL A   1      32.550  17.864  22.416  1.00  0.00     0.004 C 
ENDBRANCH  20  21
ENDBRANCH  19  20
ENDBRANCH  18  19
ENDBRANCH  13  18
BRANCH  15  23
ATOM     23  O   UNL A   1      35.884  22.658  24.722  1.00  0.00    -0.493 OA
ATOM     24  C   UNL A   1      36.678  23.398  23.804  1.00  0.00     0.278 C 
ENDBRANCH  15  23
ENDBRANCH   7  12
ENDBRANCH   3   6
ENDBRANCH   1   2
BRANCH   1  25
ATOM     25  C   UNL A   1      31.814  29.381  26.016  1.00  0.00     0.042 C 
BRANCH  25  26
ATOM     26  C   UNL A   1      32.576  29.946  27.204  1.00  0.00     0.118 C 
BRANCH  26  27
ATOM     27  N   UNL A   1      32.771  31.381  27.077  1.00  0.00    -0.352 N 
ATOM     28  C   UNL A   1      33.762  32.182  27.588  1.00  0.00     0.251 C 
ATOM     29  H   UNL A   1      32.089  31.849  26.544  1.00  0.00     0.163 HD
ATOM     30  O   UNL A   1      33.592  33.400  27.593  1.00  0.00    -0.269 OA
BRANCH  28  31
ATOM     31  C   UNL A   1      35.019  31.606  28.120  1.00  0.00     0.039 A 
ATOM     32  C   UNL A   1      35.033  30.261  28.507  1.00  0.00     0.014 A 
ATOM     33  C   UNL A   1      36.158  32.392  28.319  1.00  0.00     0.014 A 
ATOM     34  C   UNL A   1      36.182  29.708  29.078  1.00  0.00     0.010 A 
ATOM     35  C   UNL A   1      37.331  31.817  28.800  1.00  0.00     0.010 A 
ATOM     36  C   UNL A   1      37.343  30.482  29.226  1.00  0.00    -0.014 A 
BRANCH  36  37
ATOM     37  C   UNL A   1      38.556  29.941  29.892  1.00  0.00     0.031 A 
ATOM     38  C   UNL A   1      38.935  30.435  31.267  1.00  0.00     0.074 A 
ATOM     39  C   UNL A   1      39.347  29.063  29.246  1.00  0.00     0.049 A 
ATOM     40  N   UNL A   1      39.981  30.137  31.994  1.00  0.00    -0.248 NA
ATOM     41  C   UNL A   1      38.035  31.418  31.895  1.00  0.00     0.031 C 
ATOM     42  C   UNL A   1      39.124  28.565  27.887  1.00  0.00     0.029 A 
ATOM     43  N   UNL A   1      40.508  28.449  29.638  1.00  0.00    -0.354 N 
ATOM     44  C   UNL A   1      39.885  30.924  33.137  1.00  0.00     0.074 A 
ATOM     45  C   UNL A   1      38.705  31.745  32.990  1.00  0.00     0.031 C 
ATOM     46  C   UNL A   1      40.112  27.714  27.563  1.00  0.00     0.029 A 
ATOM     47  C   UNL A   1      41.048  27.624  28.680  1.00  0.00     0.049 A 
ATOM     48  H   UNL A   1      40.917  28.586  30.523  1.00  0.00     0.167 HD
ATOM     49  C   UNL A   1      40.684  30.937  34.231  1.00  0.00     0.034 A 
ATOM     50  C   UNL A   1      42.168  26.875  28.704  1.00  0.00     0.034 A 
ATOM     51  C   UNL A   1      41.822  30.074  34.399  1.00  0.00     0.049 A 
ATOM     52  C   UNL A   1      43.000  26.855  29.959  1.00  0.00     0.074 A 
ATOM     53  C   UNL A   1      42.663  29.958  35.491  1.00  0.00     0.029 A 
ATOM     54  N   UNL A   1      42.270  29.169  33.449  1.00  0.00    -0.354 N 
ATOM     55  N   UNL A   1      42.819  27.508  31.081  1.00  0.00    -0.248 NA
ATOM     56  C   UNL A   1      44.164  25.957  29.968  1.00  0.00     0.031 C 
ATOM     57  C   UNL A   1      43.624  28.983  35.198  1.00  0.00     0.029 A 
ATOM     58  C   UNL A   1      43.368  28.480  33.933  1.00  0.00     0.049 A 
ATOM     59  H   UNL A   1      41.868  29.037  32.560  1.00  0.00     0.167 HD
ATOM     60  C   UNL A   1      43.812  27.063  31.946  1.00  0.00     0.074 A 
ATOM     61  C   UNL A   1      44.583  26.073  31.222  1.00  0.00     0.031 C 
ATOM     62  C   UNL A   1      44.073  27.446  33.220  1.00  0.00     0.034 A 
BRANCH  49  63
ATOM     63  C   UNL A   1      40.313  31.866  35.359  1.00  0.00     0.023 A 
ATOM     64  C   UNL A   1      41.015  33.079  35.518  1.00  0.00     0.012 A 
ATOM     65  C   UNL A   1      39.248  31.568  36.231  1.00  0.00     0.148 A 
ATOM     66  C   UNL A   1      40.694  33.959  36.550  1.00  0.00     0.002 A 
ATOM     67  C   UNL A   1      38.903  32.473  37.230  1.00  0.00     0.091 A 
ATOM     68  F   UNL A   1      38.603  30.402  36.081  1.00  0.00    -0.205 F 
ATOM     69  C   UNL A   1      39.633  33.661  37.399  1.00  0.00     0.022 A 
BRANCH  67  70
ATOM     70  S   UNL A   1      37.501  32.221  38.326  1.00  0.00     0.127 S 
ATOM     71  O   UNL A   1      38.008  32.767  39.584  1.00  0.00    -0.237 OA
ATOM     72  O   UNL A   1      36.461  33.029  37.686  1.00  0.00    -0.237 OA
ATOM     73  O   UNL A   1      37.243  30.788  38.323  1.00  0.00    -0.744 OA
ENDBRANCH  67  70
ENDBRANCH  49  63
BRANCH  50  74
ATOM     74  C   UNL A   1      42.514  26.008  27.543  1.00  0.00     0.023 A 
ATOM     75  C   UNL A   1      43.333  26.525  26.519  1.00  0.00     0.012 A 
ATOM     76  C   UNL A   1      42.061  24.679  27.451  1.00  0.00     0.148 A 
ATOM     77  C   UNL A   1      43.661  25.749  25.407  1.00  0.00     0.002 A 
ATOM     78  C   UNL A   1      42.435  23.893  26.366  1.00  0.00     0.091 A 
ATOM     79  F   UNL A   1      41.275  24.206  28.429  1.00  0.00    -0.205 F 
ATOM     80  C   UNL A   1      43.220  24.431  25.334  1.00  0.00     0.022 A 
BRANCH  78  81
ATOM     81  S   UNL A   1      42.020  22.148  26.258  1.00  0.00     0.127 S 
ATOM     82  O   UNL A   1      42.762  21.738  25.067  1.00  0.00    -0.237 OA
ATOM     83  O   UNL A   1      42.552  21.630  27.521  1.00  0.00    -0.237 OA
ATOM     84  O   UNL A   1      40.572  22.098  26.154  1.00  0.00    -0.744 OA
ENDBRANCH  78  81
ENDBRANCH  50  74
BRANCH  62  85
ATOM     85  C   UNL A   1      45.197  26.750  33.940  1.00  0.00     0.023 A 
ATOM     86  C   UNL A   1      46.509  27.258  33.859  1.00  0.00     0.012 A 
ATOM     87  C   UNL A   1      44.940  25.626  34.748  1.00  0.00     0.148 A 
ATOM     88  C   UNL A   1      47.553  26.634  34.539  1.00  0.00     0.002 A 
ATOM     89  C   UNL A   1      45.976  25.039  35.463  1.00  0.00     0.091 A 
ATOM     90  F   UNL A   1      43.689  25.143  34.797  1.00  0.00    -0.205 F 
ATOM     91  C   UNL A   1      47.285  25.533  35.349  1.00  0.00     0.022 A 
BRANCH  89  92
ATOM     92  S   UNL A   1      45.696  23.681  36.606  1.00  0.00     0.127 S 
ATOM     93  O   UNL A   1      47.052  23.388  37.060  1.00  0.00    -0.237 OA
ATOM     94  O   UNL A   1      44.832  24.294  37.616  1.00  0.00    -0.237 OA
ATOM     95  O   UNL A   1      45.051  22.634  35.823  1.00  0.00    -0.744 OA
ENDBRANCH  89  92
ENDBRANCH  62  85
ENDBRANCH  36  37
ENDBRANCH  28  31
ENDBRANCH  26  27
ENDBRANCH  25  26
ENDBRANCH   1  25
TORSDOF 19
ENDMDL
MODEL 2
REMARK VINA RESULT:     -11.4      5.039     10.250
REMARK SMILES CCCCOc1ccc(-c2nc(C)c(C(=O)NCCCNC(=O)c3ccc(-c4c5nc(c(-c6cccc(S(=O)(=O)[O-])c6F)c6ccc([nH]6)c(-c6cccc(S(=O)(=O)[O-])c6F)c6nc(c(-c7cccc(S(=O)(=O)[O-])c7F)c7ccc4[nH]7)C=C6)C=C5)cc3)s2)cc1OC
REMARK SMILES IDX 18 1 17 2 15 3 16 4 14 6 10 7 11 8 87 9 12 10 13 11 9 12
REMARK SMILES IDX 6 13 7 14 89 15 8 16 88 17 5 18 4 19 3 20 2 21 1 22 90 23
REMARK SMILES IDX 91 24 19 25 20 26 21 27 22 28 23 30 24 31 25 32 86 33 26 34
REMARK SMILES IDX 85 35 27 36 28 37 29 38 79 39 30 40 84 41 78 42 80 43 31 44
REMARK SMILES IDX 83 45 77 46 76 47 32 49 64 50 44 51 63 52 45 53 48 54 62 55
REMARK SMILES IDX 81 56 46 57 47 58 61 60 82 61 49 62 33 63 34 64 42 65 35 66
REMARK SMILES IDX 37 67 43 68 36 69 38 70 39 71 40 72 41 73 65 74 66 75 74 76
REMARK SMILES IDX 67 77 69 78 75 79 68 80 70 81 71 82 72 83 73 84 50 85 51 86
REMARK SMILES IDX 59 87 52 88 54 89 60 90 53 91 55 92 56 93 57 94 58 95
REMARK H PARENT 17 5 21 29 80 48 48 59
REMARK Flexibility Score: inf
ROOT
ATOM      1  C   UNL A   1      35.982  21.240  24.745  1.00  0.00     0.118 C 
ENDROOT
BRANCH   1   2
ATOM      2  N   UNL A   1      35.227  21.079  25.964  1.00  0.00    -0.351 N 
ATOM      3  C   UNL A   1      34.024  21.574  26.395  1.00  0.00     0.263 C 
ATOM      4  O   UNL A   1      33.715  21.182  27.526  1.00  0.00    -0.268 OA
ATOM      5  H   UNL A   1      35.667  20.493  26.622  1.00  0.00     0.163 HD
BRANCH   3   6
ATOM      6  C   UNL A   1      33.150  22.424  25.598  1.00  0.00     0.115 A 
ATOM      7  C   UNL A   1      31.996  24.476  24.891  1.00  0.00     0.124 A 
ATOM      8  N   UNL A   1      31.759  23.501  24.046  1.00  0.00    -0.241 NA
ATOM      9  S   UNL A   1      32.894  24.018  26.262  1.00  0.00    -0.108 S 
ATOM     10  C   UNL A   1      32.482  22.362  24.377  1.00  0.00     0.062 A 
ATOM     11  C   UNL A   1      32.451  21.329  23.312  1.00  0.00     0.068 C 
BRANCH   7  12
ATOM     12  C   UNL A   1      31.545  25.852  24.668  1.00  0.00     0.014 A 
ATOM     13  C   UNL A   1      30.746  28.424  23.878  1.00  0.00     0.161 A 
ATOM     14  C   UNL A   1      29.856  27.352  23.775  1.00  0.00     0.051 A 
ATOM     15  C   UNL A   1      31.996  28.241  24.480  1.00  0.00     0.161 A 
ATOM     16  C   UNL A   1      30.259  26.072  24.155  1.00  0.00     0.015 A 
ATOM     17  C   UNL A   1      32.399  26.952  24.838  1.00  0.00     0.061 A 
BRANCH  13  18
ATOM     18  O   UNL A   1      30.386  29.644  23.374  1.00  0.00    -0.490 OA
BRANCH  18  19
ATOM     19  C   UNL A   1      29.980  29.581  21.996  1.00  0.00     0.230 C 
BRANCH  19  20
ATOM     20  C   UNL A   1      28.848  30.572  21.706  1.00  0.00     0.041 C 
BRANCH  20  21
ATOM     21  C   UNL A   1      28.693  31.706  22.726  1.00  0.00     0.000 C 
ATOM     22  C   UNL A   1      27.499  31.536  23.653  1.00  0.00     0.004 C 
ENDBRANCH  20  21
ENDBRANCH  19  20
ENDBRANCH  18  19
ENDBRANCH  13  18
BRANCH  15  23
ATOM     23  O   UNL A   1      32.966  29.196  24.642  1.00  0.00    -0.493 OA
ATOM     24  C   UNL A   1      32.976  29.856  25.901  1.00  0.00     0.278 C 
ENDBRANCH  15  23
ENDBRANCH   7  12
ENDBRANCH   3   6
ENDBRANCH   1   2
BRANCH   1  25
ATOM     25  C   UNL A   1      36.432  22.690  24.587  1.00  0.00     0.042 C 
BRANCH  25  26
ATOM     26  C   UNL A   1      37.292  23.190  25.737  1.00  0.00     0.118 C 
BRANCH  26  27
ATOM     27  N   UNL A   1      38.318  22.224  26.094  1.00  0.00    -0.352 N 
ATOM     28  C   UNL A   1      39.623  22.426  26.467  1.00  0.00     0.251 C 
ATOM     29  H   UNL A   1      38.033  21.282  26.063  1.00  0.00     0.163 HD
ATOM     30  O   UNL A   1      40.394  21.468  26.460  1.00  0.00    -0.269 OA
BRANCH  28  31
ATOM     31  C   UNL A   1      40.108  23.764  26.880  1.00  0.00     0.039 A 
ATOM     32  C   UNL A   1      40.652  23.918  28.160  1.00  0.00     0.014 A 
ATOM     33  C   UNL A   1      39.957  24.884  26.056  1.00  0.00     0.014 A 
ATOM     34  C   UNL A   1      41.051  25.182  28.604  1.00  0.00     0.010 A 
ATOM     35  C   UNL A   1      40.442  26.124  26.462  1.00  0.00     0.010 A 
ATOM     36  C   UNL A   1      40.954  26.295  27.756  1.00  0.00    -0.014 A 
BRANCH  36  37
ATOM     37  C   UNL A   1      41.306  27.660  28.224  1.00  0.00     0.031 A 
ATOM     38  C   UNL A   1      42.749  28.101  28.219  1.00  0.00     0.074 A 
ATOM     39  C   UNL A   1      40.350  28.475  28.709  1.00  0.00     0.049 A 
ATOM     40  N   UNL A   1      43.273  29.223  28.640  1.00  0.00    -0.248 NA
ATOM     41  C   UNL A   1      43.740  27.140  27.701  1.00  0.00     0.031 C 
ATOM     42  C   UNL A   1      38.931  28.136  28.831  1.00  0.00     0.029 A 
ATOM     43  N   UNL A   1      40.431  29.750  29.208  1.00  0.00    -0.354 N 
ATOM     44  C   UNL A   1      44.647  29.086  28.478  1.00  0.00     0.074 A 
ATOM     45  C   UNL A   1      44.883  27.756  27.962  1.00  0.00     0.031 C 
ATOM     46  C   UNL A   1      38.273  29.181  29.361  1.00  0.00     0.029 A 
ATOM     47  C   UNL A   1      39.225  30.253  29.638  1.00  0.00     0.049 A 
ATOM     48  H   UNL A   1      41.273  30.258  29.255  1.00  0.00     0.167 HD
ATOM     49  C   UNL A   1      45.627  29.995  28.701  1.00  0.00     0.034 A 
ATOM     50  C   UNL A   1      38.923  31.446  30.185  1.00  0.00     0.034 A 
ATOM     51  C   UNL A   1      45.381  31.337  29.155  1.00  0.00     0.049 A 
ATOM     52  C   UNL A   1      40.019  32.464  30.356  1.00  0.00     0.074 A 
ATOM     53  C   UNL A   1      46.291  32.360  29.353  1.00  0.00     0.029 A 
ATOM     54  N   UNL A   1      44.131  31.845  29.471  1.00  0.00    -0.354 N 
ATOM     55  N   UNL A   1      41.296  32.360  30.073  1.00  0.00    -0.248 NA
ATOM     56  C   UNL A   1      39.626  33.781  30.877  1.00  0.00     0.031 C 
ATOM     57  C   UNL A   1      45.588  33.488  29.793  1.00  0.00     0.029 A 
ATOM     58  C   UNL A   1      44.240  33.171  29.850  1.00  0.00     0.049 A 
ATOM     59  H   UNL A   1      43.289  31.336  29.433  1.00  0.00     0.167 HD
ATOM     60  C   UNL A   1      41.847  33.609  30.332  1.00  0.00     0.074 A 
ATOM     61  C   UNL A   1      40.762  34.458  30.780  1.00  0.00     0.031 C 
ATOM     62  C   UNL A   1      43.135  34.017  30.222  1.00  0.00     0.034 A 
BRANCH  49  63
ATOM     63  C   UNL A   1      47.044  29.589  28.388  1.00  0.00     0.023 A 
ATOM     64  C   UNL A   1      47.584  29.877  27.117  1.00  0.00     0.012 A 
ATOM     65  C   UNL A   1      47.856  28.964  29.355  1.00  0.00     0.148 A 
ATOM     66  C   UNL A   1      48.892  29.514  26.799  1.00  0.00     0.002 A 
ATOM     67  C   UNL A   1      49.176  28.648  29.045  1.00  0.00     0.091 A 
ATOM     68  F   UNL A   1      47.324  28.678  30.551  1.00  0.00    -0.205 F 
ATOM     69  C   UNL A   1      49.689  28.910  27.764  1.00  0.00     0.022 A 
BRANCH  67  70
ATOM     70  S   UNL A   1      50.311  27.940  30.244  1.00  0.00     0.127 S 
ATOM     71  O   UNL A   1      49.819  26.567  30.341  1.00  0.00    -0.237 OA
ATOM     72  O   UNL A   1      51.601  28.078  29.566  1.00  0.00    -0.237 OA
ATOM     73  O   UNL A   1      50.171  28.742  31.451  1.00  0.00    -0.744 OA
ENDBRANCH  67  70
ENDBRANCH  49  63
BRANCH  50  74
ATOM     74  C   UNL A   1      37.510  31.781  30.519  1.00  0.00     0.023 A 
ATOM     75  C   UNL A   1      37.005  31.444  31.791  1.00  0.00     0.012 A 
ATOM     76  C   UNL A   1      36.671  32.443  29.603  1.00  0.00     0.148 A 
ATOM     77  C   UNL A   1      35.681  31.723  32.130  1.00  0.00     0.002 A 
ATOM     78  C   UNL A   1      35.368  32.767  29.967  1.00  0.00     0.091 A 
ATOM     79  F   UNL A   1      37.164  32.748  28.394  1.00  0.00    -0.205 F 
ATOM     80  C   UNL A   1      34.865  32.392  31.222  1.00  0.00     0.022 A 
BRANCH  78  81
ATOM     81  S   UNL A   1      34.292  33.742  28.909  1.00  0.00     0.127 S 
ATOM     82  O   UNL A   1      35.220  34.736  28.373  1.00  0.00    -0.237 OA
ATOM     83  O   UNL A   1      33.834  32.744  27.939  1.00  0.00    -0.237 OA
ATOM     84  O   UNL A   1      33.246  34.251  29.780  1.00  0.00    -0.744 OA
ENDBRANCH  78  81
ENDBRANCH  50  74
BRANCH  62  85
ATOM     85  C   UNL A   1      43.438  35.460  30.527  1.00  0.00     0.023 A 
ATOM     86  C   UNL A   1      43.880  35.831  31.812  1.00  0.00     0.012 A 
ATOM     87  C   UNL A   1      43.343  36.438  29.518  1.00  0.00     0.148 A 
ATOM     88  C   UNL A   1      44.183  37.161  32.099  1.00  0.00     0.002 A 
ATOM     89  C   UNL A   1      43.696  37.752  29.797  1.00  0.00     0.091 A 
ATOM     90  F   UNL A   1      42.900  36.069  28.306  1.00  0.00    -0.205 F 
ATOM     91  C   UNL A   1      44.103  38.118  31.090  1.00  0.00     0.022 A 
BRANCH  89  92
ATOM     92  S   UNL A   1      43.715  39.023  28.528  1.00  0.00     0.127 S 
ATOM     93  O   UNL A   1      42.289  39.229  28.289  1.00  0.00    -0.237 OA
ATOM     94  O   UNL A   1      44.387  40.133  29.205  1.00  0.00    -0.237 OA
ATOM     95  O   UNL A   1      44.467  38.458  27.415  1.00  0.00    -0.744 OA
ENDBRANCH  89  92
ENDBRANCH  62  85
ENDBRANCH  36  37
ENDBRANCH  28  31
ENDBRANCH  26  27
ENDBRANCH  25  26
ENDBRANCH   1  25
TORSDOF 19
ENDMDL
MODEL 3
REMARK VINA RESULT:     -11.3      2.233      2.600
REMARK SMILES CCCCOc1ccc(-c2nc(C)c(C(=O)NCCCNC(=O)c3ccc(-c4c5nc(c(-c6cccc(S(=O)(=O)[O-])c6F)c6ccc([nH]6)c(-c6cccc(S(=O)(=O)[O-])c6F)c6nc(c(-c7cccc(S(=O)(=O)[O-])c7F)c7ccc4[nH]7)C=C6)C=C5)cc3)s2)cc1OC
REMARK SMILES IDX 18 1 17 2 15 3 16 4 14 6 10 7 11 8 87 9 12 10 13 11 9 12
REMARK SMILES IDX 6 13 7 14 89 15 8 16 88 17 5 18 4 19 3 20 2 21 1 22 90 23
REMARK SMILES IDX 91 24 19 25 20 26 21 27 22 28 23 30 24 31 25 32 86 33 26 34
REMARK SMILES IDX 85 35 27 36 28 37 29 38 79 39 30 40 84 41 78 42 80 43 31 44
REMARK SMILES IDX 83 45 77 46 76 47 32 49 64 50 44 51 63 52 45 53 48 54 62 55
REMARK SMILES IDX 81 56 46 57 47 58 61 60 82 61 49 62 33 63 34 64 42 65 35 66
REMARK SMILES IDX 37 67 43 68 36 69 38 70 39 71 40 72 41 73 65 74 66 75 74 76
REMARK SMILES IDX 67 77 69 78 75 79 68 80 70 81 71 82 72 83 73 84 50 85 51 86
REMARK SMILES IDX 59 87 52 88 54 89 60 90 53 91 55 92 56 93 57 94 58 95
REMARK H PARENT 17 5 21 29 80 48 48 59
REMARK Flexibility Score: inf
ROOT
ATOM      1  C   UNL A   1      31.573  29.625  24.975  1.00  0.00     0.118 C 
ENDROOT
BRANCH   1   2
ATOM      2  N   UNL A   1      31.054  29.694  23.630  1.00  0.00    -0.351 N 
ATOM      3  C   UNL A   1      30.668  28.743  22.724  1.00  0.00     0.263 C 
ATOM      4  O   UNL A   1      30.263  29.224  21.658  1.00  0.00    -0.268 OA
ATOM      5  H   UNL A   1      30.958  30.616  23.295  1.00  0.00     0.163 HD
BRANCH   3   6
ATOM      6  C   UNL A   1      30.666  27.309  22.983  1.00  0.00     0.115 A 
ATOM      7  C   UNL A   1      31.580  25.047  23.281  1.00  0.00     0.124 A 
ATOM      8  N   UNL A   1      30.296  25.063  23.549  1.00  0.00    -0.241 NA
ATOM      9  S   UNL A   1      32.195  26.521  22.692  1.00  0.00    -0.108 S 
ATOM     10  C   UNL A   1      29.784  26.353  23.480  1.00  0.00     0.062 A 
ATOM     11  C   UNL A   1      28.408  26.457  24.028  1.00  0.00     0.068 C 
BRANCH   7  12
ATOM     12  C   UNL A   1      32.424  23.869  23.489  1.00  0.00     0.014 A 
ATOM     13  C   UNL A   1      33.853  21.562  24.207  1.00  0.00     0.161 A 
ATOM     14  C   UNL A   1      32.599  21.448  23.601  1.00  0.00     0.051 A 
ATOM     15  C   UNL A   1      34.449  22.819  24.353  1.00  0.00     0.161 A 
ATOM     16  C   UNL A   1      31.885  22.596  23.257  1.00  0.00     0.015 A 
ATOM     17  C   UNL A   1      33.717  23.964  24.025  1.00  0.00     0.061 A 
BRANCH  13  18
ATOM     18  O   UNL A   1      34.480  20.435  24.663  1.00  0.00    -0.490 OA
BRANCH  18  19
ATOM     19  C   UNL A   1      33.595  19.307  24.767  1.00  0.00     0.230 C 
BRANCH  19  20
ATOM     20  C   UNL A   1      34.259  18.031  24.235  1.00  0.00     0.041 C 
BRANCH  20  21
ATOM     21  C   UNL A   1      33.421  17.222  23.240  1.00  0.00     0.000 C 
ATOM     22  C   UNL A   1      32.508  18.076  22.373  1.00  0.00     0.004 C 
ENDBRANCH  20  21
ENDBRANCH  19  20
ENDBRANCH  18  19
ENDBRANCH  13  18
BRANCH  15  23
ATOM     23  O   UNL A   1      35.665  23.079  24.930  1.00  0.00    -0.493 OA
ATOM     24  C   UNL A   1      36.196  22.039  25.742  1.00  0.00     0.278 C 
ENDBRANCH  15  23
ENDBRANCH   7  12
ENDBRANCH   3   6
ENDBRANCH   1   2
BRANCH   1  25
ATOM     25  C   UNL A   1      33.065  29.307  24.952  1.00  0.00     0.042 C 
BRANCH  25  26
ATOM     26  C   UNL A   1      33.715  29.326  26.326  1.00  0.00     0.118 C 
BRANCH  26  27
ATOM     27  N   UNL A   1      33.738  30.667  26.886  1.00  0.00    -0.352 N 
ATOM     28  C   UNL A   1      34.547  31.200  27.858  1.00  0.00     0.251 C 
ATOM     29  H   UNL A   1      33.072  31.287  26.511  1.00  0.00     0.163 HD
ATOM     30  O   UNL A   1      34.223  32.267  28.377  1.00  0.00    -0.269 OA
BRANCH  28  31
ATOM     31  C   UNL A   1      35.794  30.519  28.281  1.00  0.00     0.039 A 
ATOM     32  C   UNL A   1      35.761  29.698  29.414  1.00  0.00     0.014 A 
ATOM     33  C   UNL A   1      37.009  30.743  27.627  1.00  0.00     0.014 A 
ATOM     34  C   UNL A   1      36.935  29.100  29.879  1.00  0.00     0.010 A 
ATOM     35  C   UNL A   1      38.158  30.072  28.034  1.00  0.00     0.010 A 
ATOM     36  C   UNL A   1      38.144  29.278  29.189  1.00  0.00    -0.014 A 
BRANCH  36  37
ATOM     37  C   UNL A   1      39.419  28.711  29.698  1.00  0.00     0.031 A 
ATOM     38  C   UNL A   1      40.096  29.346  30.888  1.00  0.00     0.074 A 
ATOM     39  C   UNL A   1      39.999  27.675  29.062  1.00  0.00     0.049 A 
ATOM     40  N   UNL A   1      41.238  29.044  31.449  1.00  0.00    -0.248 NA
ATOM     41  C   UNL A   1      39.414  30.495  31.510  1.00  0.00     0.031 C 
ATOM     42  C   UNL A   1      39.477  27.021  27.860  1.00  0.00     0.029 A 
ATOM     43  N   UNL A   1      41.164  27.003  29.327  1.00  0.00    -0.354 N 
ATOM     44  C   UNL A   1      41.429  29.985  32.455  1.00  0.00     0.074 A 
ATOM     45  C   UNL A   1      40.308  30.897  32.401  1.00  0.00     0.031 C 
ATOM     46  C   UNL A   1      40.315  26.035  27.497  1.00  0.00     0.029 A 
ATOM     47  C   UNL A   1      41.442  26.002  28.425  1.00  0.00     0.049 A 
ATOM     48  H   UNL A   1      41.748  27.216  30.090  1.00  0.00     0.167 HD
ATOM     49  C   UNL A   1      42.425  30.065  33.369  1.00  0.00     0.034 A 
ATOM     50  C   UNL A   1      42.484  25.151  28.360  1.00  0.00     0.034 A 
ATOM     51  C   UNL A   1      43.505  29.120  33.458  1.00  0.00     0.049 A 
ATOM     52  C   UNL A   1      43.542  25.217  29.430  1.00  0.00     0.074 A 
ATOM     53  C   UNL A   1      44.532  29.068  34.383  1.00  0.00     0.029 A 
ATOM     54  N   UNL A   1      43.688  28.052  32.594  1.00  0.00    -0.354 N 
ATOM     55  N   UNL A   1      43.634  26.033  30.452  1.00  0.00    -0.248 NA
ATOM     56  C   UNL A   1      44.613  24.212  29.365  1.00  0.00     0.031 C 
ATOM     57  C   UNL A   1      45.340  27.967  34.074  1.00  0.00     0.029 A 
ATOM     58  C   UNL A   1      44.803  27.324  32.970  1.00  0.00     0.049 A 
ATOM     59  H   UNL A   1      43.110  27.842  31.825  1.00  0.00     0.167 HD
ATOM     60  C   UNL A   1      44.740  25.611  31.179  1.00  0.00     0.074 A 
ATOM     61  C   UNL A   1      45.277  24.456  30.488  1.00  0.00     0.031 C 
ATOM     62  C   UNL A   1      45.275  26.135  32.309  1.00  0.00     0.034 A 
BRANCH  49  63
ATOM     63  C   UNL A   1      42.353  31.174  34.389  1.00  0.00     0.023 A 
ATOM     64  C   UNL A   1      41.694  30.946  35.615  1.00  0.00     0.012 A 
ATOM     65  C   UNL A   1      42.967  32.420  34.159  1.00  0.00     0.148 A 
ATOM     66  C   UNL A   1      41.612  31.952  36.577  1.00  0.00     0.002 A 
ATOM     67  C   UNL A   1      42.922  33.403  35.143  1.00  0.00     0.091 A 
ATOM     68  F   UNL A   1      43.572  32.629  32.980  1.00  0.00    -0.205 F 
ATOM     69  C   UNL A   1      42.233  33.174  36.346  1.00  0.00     0.022 A 
BRANCH  67  70
ATOM     70  S   UNL A   1      43.758  34.984  34.976  1.00  0.00     0.127 S 
ATOM     71  O   UNL A   1      43.050  35.574  33.841  1.00  0.00    -0.237 OA
ATOM     72  O   UNL A   1      43.478  35.619  36.265  1.00  0.00    -0.237 OA
ATOM     73  O   UNL A   1      45.162  34.673  34.746  1.00  0.00    -0.744 OA
ENDBRANCH  67  70
ENDBRANCH  49  63
BRANCH  50  74
ATOM     74  C   UNL A   1      42.530  24.101  27.303  1.00  0.00     0.023 A 
ATOM     75  C   UNL A   1      43.134  24.398  26.065  1.00  0.00     0.012 A 
ATOM     76  C   UNL A   1      42.002  22.814  27.516  1.00  0.00     0.148 A 
ATOM     77  C   UNL A   1      43.176  23.447  25.045  1.00  0.00     0.002 A 
ATOM     78  C   UNL A   1      42.095  21.854  26.515  1.00  0.00     0.091 A 
ATOM     79  F   UNL A   1      41.422  22.552  28.696  1.00  0.00    -0.205 F 
ATOM     80  C   UNL A   1      42.665  22.173  25.273  1.00  0.00     0.022 A 
BRANCH  78  81
ATOM     81  S   UNL A   1      41.580  20.151  26.769  1.00  0.00     0.127 S 
ATOM     82  O   UNL A   1      42.137  19.491  25.589  1.00  0.00    -0.237 OA
ATOM     83  O   UNL A   1      42.246  19.817  28.031  1.00  0.00    -0.237 OA
ATOM     84  O   UNL A   1      40.130  20.191  26.851  1.00  0.00    -0.744 OA
ENDBRANCH  78  81
ENDBRANCH  50  74
BRANCH  62  85
ATOM     85  C   UNL A   1      46.462  25.431  32.911  1.00  0.00     0.023 A 
ATOM     86  C   UNL A   1      47.768  25.847  32.586  1.00  0.00     0.012 A 
ATOM     87  C   UNL A   1      46.278  24.396  33.848  1.00  0.00     0.148 A 
ATOM     88  C   UNL A   1      48.874  25.216  33.154  1.00  0.00     0.002 A 
ATOM     89  C   UNL A   1      47.383  23.805  34.448  1.00  0.00     0.091 A 
ATOM     90  F   UNL A   1      45.028  23.999  34.129  1.00  0.00    -0.205 F 
ATOM     91  C   UNL A   1      48.681  24.205  34.093  1.00  0.00     0.022 A 
BRANCH  89  92
ATOM     92  S   UNL A   1      47.218  22.567  35.739  1.00  0.00     0.127 S 
ATOM     93  O   UNL A   1      46.378  21.566  35.087  1.00  0.00    -0.237 OA
ATOM     94  O   UNL A   1      48.605  22.152  35.955  1.00  0.00    -0.237 OA
ATOM     95  O   UNL A   1      46.615  23.257  36.872  1.00  0.00    -0.744 OA
ENDBRANCH  89  92
ENDBRANCH  62  85
ENDBRANCH  36  37
ENDBRANCH  28  31
ENDBRANCH  26  27
ENDBRANCH  25  26
ENDBRANCH   1  25
TORSDOF 19
ENDMDL
