MODEL 1
REMARK VINA RESULT:     -10.4      0.000      0.000
REMARK SMILES CCCCC[NH2+][C@](C)(C(=O)NCCCNC(=O)c1ccc(-c2c3nc(c(-c4cccc(S(=O)(=O)[O-])c4F)c4ccc([nH]4)c(-c4cccc(S(=O)(=O)[O-])c4F)c4nc(c(-c5cccc(S(=O)(=O)[O-])c5F)c5ccc2[nH]5)C=C4)C=C3)cc1)C(F)(F)F
REMARK SMILES IDX 12 1 11 2 9 3 10 4 7 6 8 7 6 8 5 11 4 12 3 13 2 14 1 15
REMARK SMILES IDX 81 16 82 17 83 18 84 19 13 20 14 21 15 22 16 23 17 25 18 26
REMARK SMILES IDX 19 27 80 28 20 29 79 30 21 31 22 32 23 33 73 34 24 35 78 36
REMARK SMILES IDX 72 37 74 38 25 39 77 40 71 41 70 42 26 44 58 45 38 46 57 47
REMARK SMILES IDX 39 48 42 49 56 50 75 51 40 52 41 53 55 55 76 56 43 57 27 58
REMARK SMILES IDX 28 59 36 60 29 61 31 62 37 63 30 64 32 65 33 66 34 67 35 68
REMARK SMILES IDX 59 69 60 70 68 71 61 72 63 73 69 74 62 75 64 76 65 77 66 78
REMARK SMILES IDX 67 79 44 80 45 81 53 82 46 83 48 84 54 85 47 86 49 87 50 88
REMARK SMILES IDX 51 89 52 90
REMARK H PARENT 11 5 6 9 6 10 15 24 74 43 42 54
REMARK Flexibility Score: inf
ROOT
ATOM      1  C   UNL A   1      32.224  30.051  25.813  1.00  0.00     0.118 C 
ENDROOT
BRANCH   1   2
ATOM      2  N   UNL A   1      31.706  28.853  26.449  1.00  0.00    -0.350 N 
ATOM      3  C   UNL A   1      31.601  27.553  26.040  1.00  0.00     0.290 C 
ATOM      4  O   UNL A   1      31.173  26.771  26.894  1.00  0.00    -0.267 OA
ATOM      5  H   UNL A   1      31.362  29.006  27.358  1.00  0.00     0.163 HD
BRANCH   3   6
ATOM      6  C   UNL A   1      32.032  27.084  24.633  1.00  0.00     0.268 C 
ATOM      7  C   UNL A   1      31.500  25.657  24.372  1.00  0.00     0.101 C 
BRANCH   6   8
ATOM      8  N   UNL A   1      31.483  28.002  23.559  1.00  0.00    -0.326 N 
ATOM      9  H   UNL A   1      31.814  28.948  23.748  1.00  0.00     0.347 HD
ATOM     10  H   UNL A   1      31.815  27.636  22.666  1.00  0.00     0.347 HD
BRANCH   8  11
ATOM     11  C   UNL A   1      30.020  28.035  23.480  1.00  0.00     0.261 C 
BRANCH  11  12
ATOM     12  C   UNL A   1      29.511  29.266  22.712  1.00  0.00     0.061 C 
BRANCH  12  13
ATOM     13  C   UNL A   1      29.257  30.530  23.547  1.00  0.00     0.006 C 
BRANCH  13  14
ATOM     14  C   UNL A   1      28.082  31.394  23.085  1.00  0.00    -0.003 C 
ATOM     15  C   UNL A   1      28.480  32.553  22.189  1.00  0.00     0.004 C 
ENDBRANCH  13  14
ENDBRANCH  12  13
ENDBRANCH  11  12
ENDBRANCH   8  11
ENDBRANCH   6   8
BRANCH   6  16
ATOM     16  C   UNL A   1      33.588  26.966  24.650  1.00  0.00     0.453 C 
ATOM     17  F   UNL A   1      34.198  28.062  24.138  1.00  0.00    -0.164 F 
ATOM     18  F   UNL A   1      34.040  26.851  25.931  1.00  0.00    -0.164 F 
ATOM     19  F   UNL A   1      34.056  25.885  23.987  1.00  0.00    -0.164 F 
ENDBRANCH   6  16
ENDBRANCH   3   6
ENDBRANCH   1   2
BRANCH   1  20
ATOM     20  C   UNL A   1      31.771  31.321  26.509  1.00  0.00     0.042 C 
BRANCH  20  21
ATOM     21  C   UNL A   1      32.881  32.019  27.283  1.00  0.00     0.118 C 
BRANCH  21  22
ATOM     22  N   UNL A   1      32.631  33.444  27.486  1.00  0.00    -0.352 N 
ATOM     23  C   UNL A   1      33.179  34.318  28.393  1.00  0.00     0.251 C 
ATOM     24  H   UNL A   1      31.967  33.840  26.876  1.00  0.00     0.163 HD
ATOM     25  O   UNL A   1      32.704  35.444  28.518  1.00  0.00    -0.269 OA
BRANCH  23  26
ATOM     26  C   UNL A   1      34.320  33.894  29.231  1.00  0.00     0.039 A 
ATOM     27  C   UNL A   1      34.099  33.013  30.292  1.00  0.00     0.014 A 
ATOM     28  C   UNL A   1      35.610  34.353  28.958  1.00  0.00     0.014 A 
ATOM     29  C   UNL A   1      35.186  32.525  31.021  1.00  0.00     0.010 A 
ATOM     30  C   UNL A   1      36.695  33.788  29.613  1.00  0.00     0.010 A 
ATOM     31  C   UNL A   1      36.497  32.873  30.657  1.00  0.00    -0.014 A 
BRANCH  31  32
ATOM     32  C   UNL A   1      37.680  32.286  31.338  1.00  0.00     0.031 A 
ATOM     33  C   UNL A   1      38.445  31.161  30.692  1.00  0.00     0.074 A 
ATOM     34  C   UNL A   1      37.992  32.685  32.589  1.00  0.00     0.049 A 
ATOM     35  N   UNL A   1      39.440  30.462  31.170  1.00  0.00    -0.248 NA
ATOM     36  C   UNL A   1      38.009  30.739  29.349  1.00  0.00     0.031 C 
ATOM     37  C   UNL A   1      37.265  33.696  33.363  1.00  0.00     0.029 A 
ATOM     38  N   UNL A   1      38.979  32.263  33.444  1.00  0.00    -0.354 N 
ATOM     39  C   UNL A   1      39.715  29.491  30.215  1.00  0.00     0.074 A 
ATOM     40  C   UNL A   1      38.762  29.669  29.143  1.00  0.00     0.031 C 
ATOM     41  C   UNL A   1      37.828  33.812  34.575  1.00  0.00     0.029 A 
ATOM     42  C   UNL A   1      38.936  32.867  34.679  1.00  0.00     0.049 A 
ATOM     43  H   UNL A   1      39.655  31.591  33.196  1.00  0.00     0.167 HD
ATOM     44  C   UNL A   1      40.689  28.551  30.217  1.00  0.00     0.034 A 
ATOM     45  C   UNL A   1      39.693  32.674  35.777  1.00  0.00     0.034 A 
ATOM     46  C   UNL A   1      41.676  28.421  31.254  1.00  0.00     0.049 A 
ATOM     47  C   UNL A   1      40.819  31.677  35.721  1.00  0.00     0.074 A 
ATOM     48  C   UNL A   1      42.780  27.589  31.289  1.00  0.00     0.029 A 
ATOM     49  N   UNL A   1      41.672  29.134  32.442  1.00  0.00    -0.354 N 
ATOM     50  N   UNL A   1      41.180  30.898  34.730  1.00  0.00    -0.248 NA
ATOM     51  C   UNL A   1      41.667  31.561  36.916  1.00  0.00     0.031 C 
ATOM     52  C   UNL A   1      43.430  27.780  32.511  1.00  0.00     0.029 A 
ATOM     53  C   UNL A   1      42.748  28.753  33.224  1.00  0.00     0.049 A 
ATOM     54  H   UNL A   1      41.005  29.813  32.692  1.00  0.00     0.167 HD
ATOM     55  C   UNL A   1      42.314  30.225  35.169  1.00  0.00     0.074 A 
ATOM     56  C   UNL A   1      42.595  30.707  36.505  1.00  0.00     0.031 C 
ATOM     57  C   UNL A   1      43.048  29.282  34.529  1.00  0.00     0.034 A 
BRANCH  44  58
ATOM     58  C   UNL A   1      40.778  27.622  29.035  1.00  0.00     0.023 A 
ATOM     59  C   UNL A   1      39.882  26.538  28.930  1.00  0.00     0.012 A 
ATOM     60  C   UNL A   1      41.693  27.867  27.993  1.00  0.00     0.148 A 
ATOM     61  C   UNL A   1      39.916  25.693  27.822  1.00  0.00     0.002 A 
ATOM     62  C   UNL A   1      41.690  27.048  26.870  1.00  0.00     0.091 A 
ATOM     63  F   UNL A   1      42.551  28.889  28.121  1.00  0.00    -0.205 F 
ATOM     64  C   UNL A   1      40.811  25.955  26.787  1.00  0.00     0.022 A 
BRANCH  62  65
ATOM     65  S   UNL A   1      42.744  27.348  25.447  1.00  0.00     0.127 S 
ATOM     66  O   UNL A   1      42.604  26.095  24.707  1.00  0.00    -0.237 OA
ATOM     67  O   UNL A   1      42.095  28.501  24.822  1.00  0.00    -0.237 OA
ATOM     68  O   UNL A   1      44.073  27.614  25.979  1.00  0.00    -0.744 OA
ENDBRANCH  62  65
ENDBRANCH  44  58
BRANCH  45  69
ATOM     69  C   UNL A   1      39.447  33.483  37.005  1.00  0.00     0.023 A 
ATOM     70  C   UNL A   1      39.932  34.804  37.073  1.00  0.00     0.012 A 
ATOM     71  C   UNL A   1      38.718  32.963  38.092  1.00  0.00     0.148 A 
ATOM     72  C   UNL A   1      39.729  35.579  38.215  1.00  0.00     0.002 A 
ATOM     73  C   UNL A   1      38.469  33.760  39.203  1.00  0.00     0.091 A 
ATOM     74  F   UNL A   1      38.275  31.700  38.014  1.00  0.00    -0.205 F 
ATOM     75  C   UNL A   1      38.990  35.062  39.276  1.00  0.00     0.022 A 
BRANCH  73  76
ATOM     76  S   UNL A   1      37.409  33.222  40.549  1.00  0.00     0.127 S 
ATOM     77  O   UNL A   1      38.179  32.118  41.115  1.00  0.00    -0.237 OA
ATOM     78  O   UNL A   1      37.345  34.422  41.384  1.00  0.00    -0.237 OA
ATOM     79  O   UNL A   1      36.142  32.862  39.927  1.00  0.00    -0.744 OA
ENDBRANCH  73  76
ENDBRANCH  45  69
BRANCH  57  80
ATOM     80  C   UNL A   1      44.252  28.727  35.244  1.00  0.00     0.023 A 
ATOM     81  C   UNL A   1      45.524  29.289  35.014  1.00  0.00     0.012 A 
ATOM     82  C   UNL A   1      44.108  27.706  36.203  1.00  0.00     0.148 A 
ATOM     83  C   UNL A   1      46.639  28.818  35.706  1.00  0.00     0.002 A 
ATOM     84  C   UNL A   1      45.214  27.279  36.926  1.00  0.00     0.091 A 
ATOM     85  F   UNL A   1      42.892  27.175  36.394  1.00  0.00    -0.205 F 
ATOM     86  C   UNL A   1      46.482  27.825  36.670  1.00  0.00     0.022 A 
BRANCH  84  87
ATOM     87  S   UNL A   1      45.089  26.075  38.253  1.00  0.00     0.127 S 
ATOM     88  O   UNL A   1      44.637  24.885  37.536  1.00  0.00    -0.237 OA
ATOM     89  O   UNL A   1      46.467  26.008  38.742  1.00  0.00    -0.237 OA
ATOM     90  O   UNL A   1      44.138  26.629  39.208  1.00  0.00    -0.744 OA
ENDBRANCH  84  87
ENDBRANCH  57  80
ENDBRANCH  31  32
ENDBRANCH  23  26
ENDBRANCH  21  22
ENDBRANCH  20  21
ENDBRANCH   1  20
TORSDOF 19
ENDMDL
MODEL 2
REMARK VINA RESULT:     -10.0      1.986      8.173
REMARK SMILES CCCCC[NH2+][C@](C)(C(=O)NCCCNC(=O)c1ccc(-c2c3nc(c(-c4cccc(S(=O)(=O)[O-])c4F)c4ccc([nH]4)c(-c4cccc(S(=O)(=O)[O-])c4F)c4nc(c(-c5cccc(S(=O)(=O)[O-])c5F)c5ccc2[nH]5)C=C4)C=C3)cc1)C(F)(F)F
REMARK SMILES IDX 12 1 11 2 9 3 10 4 7 6 8 7 6 8 5 11 4 12 3 13 2 14 1 15
REMARK SMILES IDX 81 16 82 17 83 18 84 19 13 20 14 21 15 22 16 23 17 25 18 26
REMARK SMILES IDX 19 27 80 28 20 29 79 30 21 31 22 32 23 33 73 34 24 35 78 36
REMARK SMILES IDX 72 37 74 38 25 39 77 40 71 41 70 42 26 44 58 45 38 46 57 47
REMARK SMILES IDX 39 48 42 49 56 50 75 51 40 52 41 53 55 55 76 56 43 57 27 58
REMARK SMILES IDX 28 59 36 60 29 61 31 62 37 63 30 64 32 65 33 66 34 67 35 68
REMARK SMILES IDX 59 69 60 70 68 71 61 72 63 73 69 74 62 75 64 76 65 77 66 78
REMARK SMILES IDX 67 79 44 80 45 81 53 82 46 83 48 84 54 85 47 86 49 87 50 88
REMARK SMILES IDX 51 89 52 90
REMARK H PARENT 11 5 6 9 6 10 15 24 74 43 42 54
REMARK Flexibility Score: inf
ROOT
ATOM      1  C   UNL A   1      32.900  29.118  24.849  1.00  0.00     0.118 C 
ENDROOT
BRANCH   1   2
ATOM      2  N   UNL A   1      32.672  27.740  25.244  1.00  0.00    -0.350 N 
ATOM      3  C   UNL A   1      32.327  26.616  24.547  1.00  0.00     0.290 C 
ATOM      4  O   UNL A   1      32.299  25.577  25.214  1.00  0.00    -0.267 OA
ATOM      5  H   UNL A   1      32.789  27.582  26.209  1.00  0.00     0.163 HD
BRANCH   3   6
ATOM      6  C   UNL A   1      32.044  26.631  23.029  1.00  0.00     0.268 C 
ATOM      7  C   UNL A   1      31.207  25.392  22.642  1.00  0.00     0.101 C 
BRANCH   6   8
ATOM      8  N   UNL A   1      31.273  27.872  22.629  1.00  0.00    -0.326 N 
ATOM      9  H   UNL A   1      31.535  28.629  23.262  1.00  0.00     0.347 HD
ATOM     10  H   UNL A   1      31.516  28.066  21.657  1.00  0.00     0.347 HD
BRANCH   8  11
ATOM     11  C   UNL A   1      29.816  27.721  22.673  1.00  0.00     0.261 C 
BRANCH  11  12
ATOM     12  C   UNL A   1      29.133  28.904  23.381  1.00  0.00     0.061 C 
BRANCH  12  13
ATOM     13  C   UNL A   1      27.753  29.311  22.843  1.00  0.00     0.006 C 
BRANCH  13  14
ATOM     14  C   UNL A   1      27.612  30.783  22.452  1.00  0.00    -0.003 C 
ATOM     15  C   UNL A   1      28.146  31.111  21.070  1.00  0.00     0.004 C 
ENDBRANCH  13  14
ENDBRANCH  12  13
ENDBRANCH  11  12
ENDBRANCH   8  11
ENDBRANCH   6   8
BRANCH   6  16
ATOM     16  C   UNL A   1      33.419  26.462  22.309  1.00  0.00     0.453 C 
ATOM     17  F   UNL A   1      34.199  25.522  22.893  1.00  0.00    -0.164 F 
ATOM     18  F   UNL A   1      33.233  26.047  21.024  1.00  0.00    -0.164 F 
ATOM     19  F   UNL A   1      34.135  27.607  22.236  1.00  0.00    -0.164 F 
ENDBRANCH   6  16
ENDBRANCH   3   6
ENDBRANCH   1   2
BRANCH   1  20
ATOM     20  C   UNL A   1      31.878  30.071  25.441  1.00  0.00     0.042 C 
BRANCH  20  21
ATOM     21  C   UNL A   1      32.226  30.537  26.849  1.00  0.00     0.118 C 
BRANCH  21  22
ATOM     22  N   UNL A   1      32.363  31.987  26.955  1.00  0.00    -0.352 N 
ATOM     23  C   UNL A   1      33.342  32.742  27.556  1.00  0.00     0.251 C 
ATOM     24  H   UNL A   1      31.642  32.505  26.528  1.00  0.00     0.163 HD
ATOM     25  O   UNL A   1      33.182  33.953  27.688  1.00  0.00    -0.269 OA
BRANCH  23  26
ATOM     26  C   UNL A   1      34.569  32.093  28.061  1.00  0.00     0.039 A 
ATOM     27  C   UNL A   1      35.731  32.852  28.212  1.00  0.00     0.014 A 
ATOM     28  C   UNL A   1      34.567  30.738  28.399  1.00  0.00     0.014 A 
ATOM     29  C   UNL A   1      36.864  32.271  28.788  1.00  0.00     0.010 A 
ATOM     30  C   UNL A   1      35.656  30.193  29.065  1.00  0.00     0.010 A 
ATOM     31  C   UNL A   1      36.820  30.950  29.262  1.00  0.00    -0.014 A 
BRANCH  31  32
ATOM     32  C   UNL A   1      37.968  30.338  29.979  1.00  0.00     0.031 A 
ATOM     33  C   UNL A   1      38.289  30.755  31.390  1.00  0.00     0.074 A 
ATOM     34  C   UNL A   1      38.791  29.497  29.319  1.00  0.00     0.049 A 
ATOM     35  N   UNL A   1      39.298  30.405  32.142  1.00  0.00    -0.248 NA
ATOM     36  C   UNL A   1      37.378  31.723  32.026  1.00  0.00     0.031 C 
ATOM     37  C   UNL A   1      38.646  29.095  27.917  1.00  0.00     0.029 A 
ATOM     38  N   UNL A   1      39.935  28.859  29.727  1.00  0.00    -0.354 N 
ATOM     39  C   UNL A   1      39.174  31.143  33.313  1.00  0.00     0.074 A 
ATOM     40  C   UNL A   1      38.008  31.983  33.162  1.00  0.00     0.031 C 
ATOM     41  C   UNL A   1      39.661  28.282  27.584  1.00  0.00     0.029 A 
ATOM     42  C   UNL A   1      40.546  28.127  28.734  1.00  0.00     0.049 A 
ATOM     43  H   UNL A   1      40.286  28.918  30.645  1.00  0.00     0.167 HD
ATOM     44  C   UNL A   1      39.944  31.105  34.426  1.00  0.00     0.034 A 
ATOM     45  C   UNL A   1      41.695  27.423  28.743  1.00  0.00     0.034 A 
ATOM     46  C   UNL A   1      41.063  30.219  34.596  1.00  0.00     0.049 A 
ATOM     47  C   UNL A   1      42.487  27.337  30.019  1.00  0.00     0.074 A 
ATOM     48  C   UNL A   1      41.828  30.011  35.730  1.00  0.00     0.029 A 
ATOM     49  N   UNL A   1      41.582  29.401  33.606  1.00  0.00    -0.354 N 
ATOM     50  N   UNL A   1      42.244  27.897  31.179  1.00  0.00    -0.248 NA
ATOM     51  C   UNL A   1      43.689  26.490  30.001  1.00  0.00     0.031 C 
ATOM     52  C   UNL A   1      42.828  29.086  35.417  1.00  0.00     0.029 A 
ATOM     53  C   UNL A   1      42.666  28.695  34.098  1.00  0.00     0.049 A 
ATOM     54  H   UNL A   1      41.231  29.331  32.689  1.00  0.00     0.167 HD
ATOM     55  C   UNL A   1      43.241  27.446  32.037  1.00  0.00     0.074 A 
ATOM     56  C   UNL A   1      44.076  26.546  31.269  1.00  0.00     0.031 C 
ATOM     57  C   UNL A   1      43.454  27.760  33.338  1.00  0.00     0.034 A 
BRANCH  44  58
ATOM     58  C   UNL A   1      39.573  32.007  35.573  1.00  0.00     0.023 A 
ATOM     59  C   UNL A   1      40.064  33.328  35.608  1.00  0.00     0.012 A 
ATOM     60  C   UNL A   1      38.680  31.574  36.571  1.00  0.00     0.148 A 
ATOM     61  C   UNL A   1      39.697  34.195  36.637  1.00  0.00     0.002 A 
ATOM     62  C   UNL A   1      38.282  32.457  37.568  1.00  0.00     0.091 A 
ATOM     63  F   UNL A   1      38.242  30.307  36.533  1.00  0.00    -0.205 F 
ATOM     64  C   UNL A   1      38.797  33.764  37.608  1.00  0.00     0.022 A 
BRANCH  62  65
ATOM     65  S   UNL A   1      37.065  32.026  38.817  1.00  0.00     0.127 S 
ATOM     66  O   UNL A   1      36.981  30.575  38.659  1.00  0.00    -0.237 OA
ATOM     67  O   UNL A   1      37.719  32.468  40.048  1.00  0.00    -0.237 OA
ATOM     68  O   UNL A   1      35.857  32.763  38.472  1.00  0.00    -0.744 OA
ENDBRANCH  62  65
ENDBRANCH  44  58
BRANCH  45  69
ATOM     69  C   UNL A   1      42.133  26.695  27.518  1.00  0.00     0.023 A 
ATOM     70  C   UNL A   1      42.780  27.402  26.486  1.00  0.00     0.012 A 
ATOM     71  C   UNL A   1      41.934  25.308  27.380  1.00  0.00     0.148 A 
ATOM     72  C   UNL A   1      43.189  26.749  25.322  1.00  0.00     0.002 A 
ATOM     73  C   UNL A   1      42.395  24.653  26.244  1.00  0.00     0.091 A 
ATOM     74  F   UNL A   1      41.306  24.654  28.367  1.00  0.00    -0.205 F 
ATOM     75  C   UNL A   1      43.005  25.374  25.205  1.00  0.00     0.022 A 
BRANCH  73  76
ATOM     76  S   UNL A   1      42.327  22.866  26.075  1.00  0.00     0.127 S 
ATOM     77  O   UNL A   1      42.952  22.664  24.771  1.00  0.00    -0.237 OA
ATOM     78  O   UNL A   1      43.125  22.422  27.218  1.00  0.00    -0.237 OA
ATOM     79  O   UNL A   1      40.914  22.520  26.165  1.00  0.00    -0.744 OA
ENDBRANCH  73  76
ENDBRANCH  45  69
BRANCH  57  80
ATOM     80  C   UNL A   1      44.616  27.102  34.035  1.00  0.00     0.023 A 
ATOM     81  C   UNL A   1      45.898  27.680  33.957  1.00  0.00     0.012 A 
ATOM     82  C   UNL A   1      44.417  25.958  34.833  1.00  0.00     0.148 A 
ATOM     83  C   UNL A   1      46.973  27.109  34.639  1.00  0.00     0.002 A 
ATOM     84  C   UNL A   1      45.481  25.426  35.549  1.00  0.00     0.091 A 
ATOM     85  F   UNL A   1      43.193  25.415  34.879  1.00  0.00    -0.205 F 
ATOM     86  C   UNL A   1      46.762  25.992  35.444  1.00  0.00     0.022 A 
BRANCH  84  87
ATOM     87  S   UNL A   1      45.281  24.050  36.686  1.00  0.00     0.127 S 
ATOM     88  O   UNL A   1      44.762  23.007  35.804  1.00  0.00    -0.237 OA
ATOM     89  O   UNL A   1      46.651  23.830  37.151  1.00  0.00    -0.237 OA
ATOM     90  O   UNL A   1      44.362  24.512  37.718  1.00  0.00    -0.744 OA
ENDBRANCH  84  87
ENDBRANCH  57  80
ENDBRANCH  31  32
ENDBRANCH  23  26
ENDBRANCH  21  22
ENDBRANCH  20  21
ENDBRANCH   1  20
TORSDOF 19
ENDMDL
MODEL 3
REMARK VINA RESULT:     -10.0      3.351      8.763
REMARK SMILES CCCCC[NH2+][C@](C)(C(=O)NCCCNC(=O)c1ccc(-c2c3nc(c(-c4cccc(S(=O)(=O)[O-])c4F)c4ccc([nH]4)c(-c4cccc(S(=O)(=O)[O-])c4F)c4nc(c(-c5cccc(S(=O)(=O)[O-])c5F)c5ccc2[nH]5)C=C4)C=C3)cc1)C(F)(F)F
REMARK SMILES IDX 12 1 11 2 9 3 10 4 7 6 8 7 6 8 5 11 4 12 3 13 2 14 1 15
REMARK SMILES IDX 81 16 82 17 83 18 84 19 13 20 14 21 15 22 16 23 17 25 18 26
REMARK SMILES IDX 19 27 80 28 20 29 79 30 21 31 22 32 23 33 73 34 24 35 78 36
REMARK SMILES IDX 72 37 74 38 25 39 77 40 71 41 70 42 26 44 58 45 38 46 57 47
REMARK SMILES IDX 39 48 42 49 56 50 75 51 40 52 41 53 55 55 76 56 43 57 27 58
REMARK SMILES IDX 28 59 36 60 29 61 31 62 37 63 30 64 32 65 33 66 34 67 35 68
REMARK SMILES IDX 59 69 60 70 68 71 61 72 63 73 69 74 62 75 64 76 65 77 66 78
REMARK SMILES IDX 67 79 44 80 45 81 53 82 46 83 48 84 54 85 47 86 49 87 50 88
REMARK SMILES IDX 51 89 52 90
REMARK H PARENT 11 5 6 9 6 10 15 24 74 43 42 54
REMARK Flexibility Score: inf
ROOT
ATOM      1  C   UNL A   1      33.100  26.299  26.059  1.00  0.00     0.118 C 
ENDROOT
BRANCH   1   2
ATOM      2  N   UNL A   1      32.093  25.456  26.678  1.00  0.00    -0.350 N 
ATOM      3  C   UNL A   1      31.752  24.142  26.519  1.00  0.00     0.290 C 
ATOM      4  O   UNL A   1      30.878  23.733  27.290  1.00  0.00    -0.267 OA
ATOM      5  H   UNL A   1      31.545  25.924  27.349  1.00  0.00     0.163 HD
BRANCH   3   6
ATOM      6  C   UNL A   1      32.441  23.220  25.489  1.00  0.00     0.268 C 
ATOM      7  C   UNL A   1      31.717  21.856  25.442  1.00  0.00     0.101 C 
BRANCH   6   8
ATOM      8  N   UNL A   1      32.404  23.828  24.101  1.00  0.00    -0.326 N 
ATOM      9  H   UNL A   1      32.877  24.732  24.136  1.00  0.00     0.347 HD
ATOM     10  H   UNL A   1      32.864  23.163  23.479  1.00  0.00     0.347 HD
BRANCH   8  11
ATOM     11  C   UNL A   1      31.056  24.037  23.567  1.00  0.00     0.261 C 
BRANCH  11  12
ATOM     12  C   UNL A   1      30.815  25.500  23.158  1.00  0.00     0.061 C 
BRANCH  12  13
ATOM     13  C   UNL A   1      29.875  26.311  24.062  1.00  0.00     0.006 C 
BRANCH  13  14
ATOM     14  C   UNL A   1      29.194  27.506  23.392  1.00  0.00    -0.003 C 
ATOM     15  C   UNL A   1      30.028  28.774  23.390  1.00  0.00     0.004 C 
ENDBRANCH  13  14
ENDBRANCH  12  13
ENDBRANCH  11  12
ENDBRANCH   8  11
ENDBRANCH   6   8
BRANCH   6  16
ATOM     16  C   UNL A   1      33.875  22.928  26.029  1.00  0.00     0.453 C 
ATOM     17  F   UNL A   1      34.230  21.629  25.883  1.00  0.00    -0.164 F 
ATOM     18  F   UNL A   1      34.800  23.648  25.334  1.00  0.00    -0.164 F 
ATOM     19  F   UNL A   1      34.041  23.256  27.331  1.00  0.00    -0.164 F 
ENDBRANCH   6  16
ENDBRANCH   3   6
ENDBRANCH   1   2
BRANCH   1  20
ATOM     20  C   UNL A   1      32.823  27.778  26.257  1.00  0.00     0.042 C 
BRANCH  20  21
ATOM     21  C   UNL A   1      34.085  28.615  26.414  1.00  0.00     0.118 C 
BRANCH  21  22
ATOM     22  N   UNL A   1      33.808  30.022  26.694  1.00  0.00    -0.352 N 
ATOM     23  C   UNL A   1      34.445  30.898  27.540  1.00  0.00     0.251 C 
ATOM     24  H   UNL A   1      33.047  30.402  26.198  1.00  0.00     0.163 HD
ATOM     25  O   UNL A   1      33.946  31.998  27.766  1.00  0.00    -0.269 OA
BRANCH  23  26
ATOM     26  C   UNL A   1      35.711  30.505  28.193  1.00  0.00     0.039 A 
ATOM     27  C   UNL A   1      35.669  29.781  29.386  1.00  0.00     0.014 A 
ATOM     28  C   UNL A   1      36.938  30.839  27.617  1.00  0.00     0.014 A 
ATOM     29  C   UNL A   1      36.859  29.316  29.952  1.00  0.00     0.010 A 
ATOM     30  C   UNL A   1      38.108  30.288  28.122  1.00  0.00     0.010 A 
ATOM     31  C   UNL A   1      38.084  29.526  29.299  1.00  0.00    -0.014 A 
BRANCH  31  32
ATOM     32  C   UNL A   1      39.354  28.951  29.814  1.00  0.00     0.031 A 
ATOM     33  C   UNL A   1      40.085  29.624  30.945  1.00  0.00     0.074 A 
ATOM     34  C   UNL A   1      39.908  27.894  29.185  1.00  0.00     0.049 A 
ATOM     35  N   UNL A   1      41.246  29.328  31.466  1.00  0.00    -0.248 NA
ATOM     36  C   UNL A   1      39.447  30.810  31.544  1.00  0.00     0.031 C 
ATOM     37  C   UNL A   1      39.348  27.216  28.012  1.00  0.00     0.029 A 
ATOM     38  N   UNL A   1      41.084  27.227  29.420  1.00  0.00    -0.354 N 
ATOM     39  C   UNL A   1      41.500  30.312  32.413  1.00  0.00     0.074 A 
ATOM     40  C   UNL A   1      40.387  31.234  32.375  1.00  0.00     0.031 C 
ATOM     41  C   UNL A   1      40.180  26.234  27.631  1.00  0.00     0.029 A 
ATOM     42  C   UNL A   1      41.346  26.229  28.509  1.00  0.00     0.049 A 
ATOM     43  H   UNL A   1      41.684  27.442  30.170  1.00  0.00     0.167 HD
ATOM     44  C   UNL A   1      42.552  30.426  33.258  1.00  0.00     0.034 A 
ATOM     45  C   UNL A   1      42.409  25.411  28.386  1.00  0.00     0.034 A 
ATOM     46  C   UNL A   1      43.623  29.470  33.338  1.00  0.00     0.049 A 
ATOM     47  C   UNL A   1      43.526  25.510  29.389  1.00  0.00     0.074 A 
ATOM     48  C   UNL A   1      44.666  29.425  34.245  1.00  0.00     0.029 A 
ATOM     49  N   UNL A   1      43.793  28.400  32.475  1.00  0.00    -0.354 N 
ATOM     50  N   UNL A   1      43.654  26.335  30.400  1.00  0.00    -0.248 NA
ATOM     51  C   UNL A   1      44.625  24.542  29.261  1.00  0.00     0.031 C 
ATOM     52  C   UNL A   1      45.483  28.340  33.913  1.00  0.00     0.029 A 
ATOM     53  C   UNL A   1      44.932  27.694  32.819  1.00  0.00     0.049 A 
ATOM     54  H   UNL A   1      43.192  28.174  31.728  1.00  0.00     0.167 HD
ATOM     55  C   UNL A   1      44.828  25.965  31.047  1.00  0.00     0.074 A 
ATOM     56  C   UNL A   1      45.359  24.825  30.329  1.00  0.00     0.031 C 
ATOM     57  C   UNL A   1      45.419  26.528  32.129  1.00  0.00     0.034 A 
BRANCH  44  58
ATOM     58  C   UNL A   1      42.573  31.594  34.207  1.00  0.00     0.023 A 
ATOM     59  C   UNL A   1      43.098  32.831  33.781  1.00  0.00     0.012 A 
ATOM     60  C   UNL A   1      42.004  31.490  35.491  1.00  0.00     0.148 A 
ATOM     61  C   UNL A   1      43.085  33.939  34.628  1.00  0.00     0.002 A 
ATOM     62  C   UNL A   1      41.953  32.610  36.313  1.00  0.00     0.091 A 
ATOM     63  F   UNL A   1      41.530  30.301  35.887  1.00  0.00    -0.205 F 
ATOM     64  C   UNL A   1      42.502  33.831  35.888  1.00  0.00     0.022 A 
BRANCH  62  65
ATOM     65  S   UNL A   1      41.150  32.599  37.920  1.00  0.00     0.127 S 
ATOM     66  O   UNL A   1      41.986  31.655  38.660  1.00  0.00    -0.237 OA
ATOM     67  O   UNL A   1      41.287  33.993  38.341  1.00  0.00    -0.237 OA
ATOM     68  O   UNL A   1      39.781  32.166  37.682  1.00  0.00    -0.744 OA
ENDBRANCH  62  65
ENDBRANCH  44  58
BRANCH  45  69
ATOM     69  C   UNL A   1      42.440  24.386  27.303  1.00  0.00     0.023 A 
ATOM     70  C   UNL A   1      43.279  24.581  26.188  1.00  0.00     0.012 A 
ATOM     71  C   UNL A   1      41.665  23.213  27.382  1.00  0.00     0.148 A 
ATOM     72  C   UNL A   1      43.318  23.644  25.154  1.00  0.00     0.002 A 
ATOM     73  C   UNL A   1      41.751  22.257  26.377  1.00  0.00     0.091 A 
ATOM     74  F   UNL A   1      40.863  23.052  28.444  1.00  0.00    -0.205 F 
ATOM     75  C   UNL A   1      42.562  22.479  25.252  1.00  0.00     0.022 A 
BRANCH  73  76
ATOM     76  S   UNL A   1      40.922  20.668  26.492  1.00  0.00     0.127 S 
ATOM     77  O   UNL A   1      41.781  19.822  25.669  1.00  0.00    -0.237 OA
ATOM     78  O   UNL A   1      40.982  20.398  27.929  1.00  0.00    -0.237 OA
ATOM     79  O   UNL A   1      39.575  20.894  25.985  1.00  0.00    -0.744 OA
ENDBRANCH  73  76
ENDBRANCH  45  69
BRANCH  57  80
ATOM     80  C   UNL A   1      46.693  25.903  32.634  1.00  0.00     0.023 A 
ATOM     81  C   UNL A   1      47.938  26.397  32.196  1.00  0.00     0.012 A 
ATOM     82  C   UNL A   1      46.655  24.882  33.603  1.00  0.00     0.148 A 
ATOM     83  C   UNL A   1      49.125  25.861  32.692  1.00  0.00     0.002 A 
ATOM     84  C   UNL A   1      47.841  24.389  34.131  1.00  0.00     0.091 A 
ATOM     85  F   UNL A   1      45.460  24.414  33.993  1.00  0.00    -0.205 F 
ATOM     86  C   UNL A   1      49.077  24.868  33.668  1.00  0.00     0.022 A 
BRANCH  84  87
ATOM     87  S   UNL A   1      47.873  23.181  35.460  1.00  0.00     0.127 S 
ATOM     88  O   UNL A   1      49.306  23.060  35.720  1.00  0.00    -0.237 OA
ATOM     89  O   UNL A   1      47.116  23.858  36.513  1.00  0.00    -0.237 OA
ATOM     90  O   UNL A   1      47.230  21.986  34.930  1.00  0.00    -0.744 OA
ENDBRANCH  84  87
ENDBRANCH  57  80
ENDBRANCH  31  32
ENDBRANCH  23  26
ENDBRANCH  21  22
ENDBRANCH  20  21
ENDBRANCH   1  20
TORSDOF 19
ENDMDL
