MODEL 1
REMARK VINA RESULT:     -11.9      0.000      0.000
REMARK SMILES Cc1nc(-c2ccc(C(F)(F)F)cc2)nc(SCC(=O)NCCCNC(=O)c2ccc(-c3c4nc(c(-c5cccc(S(=O)(=O)[O-])c5F)c5ccc([nH]5)c(-c5cccc(S(=O)(=O)[O-])c5F)c5nc(c(-c6cccc(S(=O)(=O)[O-])c6F)c6ccc3[nH]6)C=C5)C=C4)cc2)c1C
REMARK SMILES IDX 22 1 21 2 19 3 20 4 18 6 17 7 16 8 1 9 2 10 3 11 91 12 4 13
REMARK SMILES IDX 92 14 15 15 5 16 6 17 14 18 7 19 13 20 8 21 9 22 10 23 11 24
REMARK SMILES IDX 12 25 23 26 24 27 25 28 26 29 27 31 28 32 29 33 90 34 30 35
REMARK SMILES IDX 89 36 31 37 32 38 33 39 83 40 34 41 88 42 82 43 84 44 35 45
REMARK SMILES IDX 87 46 81 47 80 48 36 50 68 51 48 52 67 53 49 54 52 55 66 56
REMARK SMILES IDX 85 57 50 58 51 59 65 61 86 62 53 63 37 64 38 65 46 66 39 67
REMARK SMILES IDX 41 68 47 69 40 70 42 71 43 72 44 73 45 74 69 75 70 76 78 77
REMARK SMILES IDX 71 78 73 79 79 80 72 81 74 82 75 83 76 84 77 85 54 86 55 87
REMARK SMILES IDX 63 88 56 89 58 90 64 91 57 92 59 93 60 94 61 95 62 96
REMARK H PARENT 21 5 25 30 84 49 52 60
REMARK Flexibility Score: inf
ROOT
ATOM      1  C   UNL A   1      33.297  21.136  25.951  1.00  0.00     0.117 C 
ENDROOT
BRANCH   1   2
ATOM      2  N   UNL A   1      32.680  22.188  26.736  1.00  0.00    -0.355 N 
ATOM      3  C   UNL A   1      31.706  23.073  26.396  1.00  0.00     0.230 C 
ATOM      4  O   UNL A   1      31.200  23.726  27.315  1.00  0.00    -0.274 OA
ATOM      5  H   UNL A   1      33.020  22.275  27.657  1.00  0.00     0.163 HD
BRANCH   3   6
ATOM      6  C   UNL A   1      31.161  23.171  24.988  1.00  0.00     0.176 C 
BRANCH   6   7
ATOM      7  S   UNL A   1      32.087  24.207  23.828  1.00  0.00    -0.096 SA
BRANCH   7   8
ATOM      8  C   UNL A   1      32.566  25.776  24.526  1.00  0.00     0.104 A 
ATOM      9  C   UNL A   1      34.754  28.058  26.598  1.00  0.00     0.067 C 
ATOM     10  C   UNL A   1      33.700  27.495  25.687  1.00  0.00     0.045 A 
ATOM     11  N   UNL A   1      32.891  28.425  25.156  1.00  0.00    -0.233 NA
ATOM     12  C   UNL A   1      33.568  26.124  25.430  1.00  0.00     0.003 A 
ATOM     13  C   UNL A   1      31.914  27.999  24.353  1.00  0.00     0.160 A 
ATOM     14  C   UNL A   1      34.530  25.190  26.082  1.00  0.00     0.049 C 
ATOM     15  N   UNL A   1      31.719  26.716  24.028  1.00  0.00    -0.221 NA
BRANCH  13  16
ATOM     16  C   UNL A   1      31.001  29.031  23.850  1.00  0.00     0.019 A 
ATOM     17  C   UNL A   1      30.771  30.196  24.604  1.00  0.00     0.012 A 
ATOM     18  C   UNL A   1      30.266  28.863  22.666  1.00  0.00     0.012 A 
ATOM     19  C   UNL A   1      29.811  31.136  24.220  1.00  0.00     0.014 A 
ATOM     20  C   UNL A   1      29.289  29.796  22.285  1.00  0.00     0.014 A 
ATOM     21  C   UNL A   1      29.038  30.930  23.071  1.00  0.00     0.056 A 
BRANCH  21  22
ATOM     22  C   UNL A   1      27.931  31.901  22.733  1.00  0.00     0.416 C 
ATOM     23  F   UNL A   1      27.410  31.654  21.493  1.00  0.00    -0.166 F 
ATOM     24  F   UNL A   1      26.879  31.843  23.590  1.00  0.00    -0.166 F 
ATOM     25  F   UNL A   1      28.334  33.202  22.698  1.00  0.00    -0.166 F 
ENDBRANCH  21  22
ENDBRANCH  13  16
ENDBRANCH   7   8
ENDBRANCH   6   7
ENDBRANCH   3   6
ENDBRANCH   1   2
BRANCH   1  26
ATOM     26  C   UNL A   1      34.502  21.622  25.152  1.00  0.00     0.042 C 
BRANCH  26  27
ATOM     27  C   UNL A   1      35.777  21.800  25.973  1.00  0.00     0.118 C 
BRANCH  27  28
ATOM     28  N   UNL A   1      36.770  20.767  25.712  1.00  0.00    -0.352 N 
ATOM     29  C   UNL A   1      38.140  20.836  25.657  1.00  0.00     0.251 C 
ATOM     30  H   UNL A   1      36.397  19.871  25.548  1.00  0.00     0.163 HD
ATOM     31  O   UNL A   1      38.769  19.873  25.224  1.00  0.00    -0.269 OA
BRANCH  29  32
ATOM     32  C   UNL A   1      38.864  22.050  26.099  1.00  0.00     0.039 A 
ATOM     33  C   UNL A   1      39.983  21.903  26.925  1.00  0.00     0.014 A 
ATOM     34  C   UNL A   1      38.417  23.328  25.757  1.00  0.00     0.014 A 
ATOM     35  C   UNL A   1      40.683  23.032  27.360  1.00  0.00     0.010 A 
ATOM     36  C   UNL A   1      39.157  24.448  26.128  1.00  0.00     0.010 A 
ATOM     37  C   UNL A   1      40.289  24.314  26.945  1.00  0.00    -0.014 A 
BRANCH  37  38
ATOM     38  C   UNL A   1      41.030  25.528  27.373  1.00  0.00     0.031 A 
ATOM     39  C   UNL A   1      40.318  26.620  28.128  1.00  0.00     0.074 A 
ATOM     40  C   UNL A   1      42.322  25.682  27.027  1.00  0.00     0.049 A 
ATOM     41  N   UNL A   1      40.772  27.779  28.526  1.00  0.00    -0.248 NA
ATOM     42  C   UNL A   1      38.902  26.385  28.460  1.00  0.00     0.031 C 
ATOM     43  C   UNL A   1      43.110  24.721  26.252  1.00  0.00     0.029 A 
ATOM     44  N   UNL A   1      43.197  26.714  27.262  1.00  0.00    -0.354 N 
ATOM     45  C   UNL A   1      39.698  28.422  29.129  1.00  0.00     0.074 A 
ATOM     46  C   UNL A   1      38.557  27.540  29.010  1.00  0.00     0.031 C 
ATOM     47  C   UNL A   1      44.352  25.202  26.086  1.00  0.00     0.029 A 
ATOM     48  C   UNL A   1      44.443  26.519  26.709  1.00  0.00     0.049 A 
ATOM     49  H   UNL A   1      42.957  27.518  27.777  1.00  0.00     0.167 HD
ATOM     50  C   UNL A   1      39.671  29.620  29.760  1.00  0.00     0.034 A 
ATOM     51  C   UNL A   1      45.533  27.312  26.704  1.00  0.00     0.034 A 
ATOM     52  C   UNL A   1      40.817  30.473  29.916  1.00  0.00     0.049 A 
ATOM     53  C   UNL A   1      45.477  28.638  27.415  1.00  0.00     0.074 A 
ATOM     54  C   UNL A   1      40.905  31.675  30.595  1.00  0.00     0.029 A 
ATOM     55  N   UNL A   1      42.073  30.219  29.389  1.00  0.00    -0.354 N 
ATOM     56  N   UNL A   1      44.490  29.169  28.096  1.00  0.00    -0.248 NA
ATOM     57  C   UNL A   1      46.694  29.464  27.382  1.00  0.00     0.031 C 
ATOM     58  C   UNL A   1      42.210  32.157  30.462  1.00  0.00     0.029 A 
ATOM     59  C   UNL A   1      42.941  31.245  29.718  1.00  0.00     0.049 A 
ATOM     60  H   UNL A   1      42.313  29.425  28.858  1.00  0.00     0.167 HD
ATOM     61  C   UNL A   1      44.971  30.376  28.591  1.00  0.00     0.074 A 
ATOM     62  C   UNL A   1      46.349  30.484  28.158  1.00  0.00     0.031 C 
ATOM     63  C   UNL A   1      44.324  31.320  29.319  1.00  0.00     0.034 A 
BRANCH  50  64
ATOM     64  C   UNL A   1      38.373  30.052  30.392  1.00  0.00     0.023 A 
ATOM     65  C   UNL A   1      38.119  29.721  31.739  1.00  0.00     0.012 A 
ATOM     66  C   UNL A   1      37.446  30.849  29.690  1.00  0.00     0.148 A 
ATOM     67  C   UNL A   1      36.953  30.150  32.371  1.00  0.00     0.002 A 
ATOM     68  C   UNL A   1      36.307  31.311  30.341  1.00  0.00     0.091 A 
ATOM     69  F   UNL A   1      37.695  31.138  28.405  1.00  0.00    -0.205 F 
ATOM     70  C   UNL A   1      36.054  30.954  31.676  1.00  0.00     0.022 A 
BRANCH  68  71
ATOM     71  S   UNL A   1      35.124  32.419  29.565  1.00  0.00     0.127 S 
ATOM     72  O   UNL A   1      34.485  31.534  28.592  1.00  0.00    -0.237 OA
ATOM     73  O   UNL A   1      34.275  32.801  30.693  1.00  0.00    -0.237 OA
ATOM     74  O   UNL A   1      35.906  33.508  28.994  1.00  0.00    -0.744 OA
ENDBRANCH  68  71
ENDBRANCH  50  64
BRANCH  51  75
ATOM     75  C   UNL A   1      46.796  26.833  26.069  1.00  0.00     0.023 A 
ATOM     76  C   UNL A   1      46.978  27.019  24.685  1.00  0.00     0.012 A 
ATOM     77  C   UNL A   1      47.829  26.245  26.824  1.00  0.00     0.148 A 
ATOM     78  C   UNL A   1      48.156  26.609  24.060  1.00  0.00     0.002 A 
ATOM     79  C   UNL A   1      49.022  25.892  26.206  1.00  0.00     0.091 A 
ATOM     80  F   UNL A   1      47.631  26.065  28.138  1.00  0.00    -0.205 F 
ATOM     81  C   UNL A   1      49.182  26.057  24.821  1.00  0.00     0.022 A 
BRANCH  79  82
ATOM     82  S   UNL A   1      50.453  25.304  27.122  1.00  0.00     0.127 S 
ATOM     83  O   UNL A   1      50.775  26.463  27.951  1.00  0.00    -0.237 OA
ATOM     84  O   UNL A   1      49.895  24.163  27.849  1.00  0.00    -0.237 OA
ATOM     85  O   UNL A   1      51.446  24.949  26.117  1.00  0.00    -0.744 OA
ENDBRANCH  79  82
ENDBRANCH  51  75
BRANCH  63  86
ATOM     86  C   UNL A   1      45.088  32.562  29.703  1.00  0.00     0.023 A 
ATOM     87  C   UNL A   1      45.867  32.560  30.876  1.00  0.00     0.012 A 
ATOM     88  C   UNL A   1      45.120  33.687  28.854  1.00  0.00     0.148 A 
ATOM     89  C   UNL A   1      46.647  33.667  31.213  1.00  0.00     0.002 A 
ATOM     90  C   UNL A   1      45.939  34.765  29.169  1.00  0.00     0.091 A 
ATOM     91  F   UNL A   1      44.359  33.677  27.750  1.00  0.00    -0.205 F 
ATOM     92  C   UNL A   1      46.694  34.761  30.353  1.00  0.00     0.022 A 
BRANCH  90  93
ATOM     93  S   UNL A   1      46.147  36.174  28.073  1.00  0.00     0.127 S 
ATOM     94  O   UNL A   1      44.804  36.751  28.071  1.00  0.00    -0.237 OA
ATOM     95  O   UNL A   1      47.154  36.970  28.777  1.00  0.00    -0.237 OA
ATOM     96  O   UNL A   1      46.593  35.628  26.798  1.00  0.00    -0.744 OA
ENDBRANCH  90  93
ENDBRANCH  63  86
ENDBRANCH  37  38
ENDBRANCH  29  32
ENDBRANCH  27  28
ENDBRANCH  26  27
ENDBRANCH   1  26
TORSDOF 17
ENDMDL
MODEL 2
REMARK VINA RESULT:     -11.6      2.364      3.316
REMARK SMILES Cc1nc(-c2ccc(C(F)(F)F)cc2)nc(SCC(=O)NCCCNC(=O)c2ccc(-c3c4nc(c(-c5cccc(S(=O)(=O)[O-])c5F)c5ccc([nH]5)c(-c5cccc(S(=O)(=O)[O-])c5F)c5nc(c(-c6cccc(S(=O)(=O)[O-])c6F)c6ccc3[nH]6)C=C5)C=C4)cc2)c1C
REMARK SMILES IDX 22 1 21 2 19 3 20 4 18 6 17 7 16 8 1 9 2 10 3 11 91 12 4 13
REMARK SMILES IDX 92 14 15 15 5 16 6 17 14 18 7 19 13 20 8 21 9 22 10 23 11 24
REMARK SMILES IDX 12 25 23 26 24 27 25 28 26 29 27 31 28 32 29 33 90 34 30 35
REMARK SMILES IDX 89 36 31 37 32 38 33 39 83 40 34 41 88 42 82 43 84 44 35 45
REMARK SMILES IDX 87 46 81 47 80 48 36 50 68 51 48 52 67 53 49 54 52 55 66 56
REMARK SMILES IDX 85 57 50 58 51 59 65 61 86 62 53 63 37 64 38 65 46 66 39 67
REMARK SMILES IDX 41 68 47 69 40 70 42 71 43 72 44 73 45 74 69 75 70 76 78 77
REMARK SMILES IDX 71 78 73 79 79 80 72 81 74 82 75 83 76 84 77 85 54 86 55 87
REMARK SMILES IDX 63 88 56 89 58 90 64 91 57 92 59 93 60 94 61 95 62 96
REMARK H PARENT 21 5 25 30 84 49 52 60
REMARK Flexibility Score: inf
ROOT
ATOM      1  C   UNL A   1      37.776  21.506  24.699  1.00  0.00     0.117 C 
ENDROOT
BRANCH   1   2
ATOM      2  N   UNL A   1      36.391  21.450  24.272  1.00  0.00    -0.355 N 
ATOM      3  C   UNL A   1      35.337  22.231  24.627  1.00  0.00     0.230 C 
ATOM      4  O   UNL A   1      34.306  22.116  23.955  1.00  0.00    -0.274 OA
ATOM      5  H   UNL A   1      36.182  20.735  23.628  1.00  0.00     0.163 HD
BRANCH   3   6
ATOM      6  C   UNL A   1      35.443  23.291  25.701  1.00  0.00     0.176 C 
BRANCH   6   7
ATOM      7  S   UNL A   1      34.599  24.860  25.381  1.00  0.00    -0.096 SA
BRANCH   7   8
ATOM      8  C   UNL A   1      32.834  24.761  25.620  1.00  0.00     0.104 A 
ATOM      9  C   UNL A   1      29.671  23.306  27.091  1.00  0.00     0.067 C 
ATOM     10  C   UNL A   1      30.671  24.149  26.351  1.00  0.00     0.045 A 
ATOM     11  N   UNL A   1      30.130  25.202  25.720  1.00  0.00    -0.233 NA
ATOM     12  C   UNL A   1      32.040  23.852  26.315  1.00  0.00     0.003 A 
ATOM     13  C   UNL A   1      30.954  25.986  25.022  1.00  0.00     0.160 A 
ATOM     14  C   UNL A   1      32.519  22.651  27.058  1.00  0.00     0.049 C 
ATOM     15  N   UNL A   1      32.276  25.800  24.942  1.00  0.00    -0.221 NA
BRANCH  13  16
ATOM     16  C   UNL A   1      30.321  27.082  24.281  1.00  0.00     0.019 A 
ATOM     17  C   UNL A   1      30.946  28.341  24.214  1.00  0.00     0.012 A 
ATOM     18  C   UNL A   1      29.050  26.952  23.697  1.00  0.00     0.012 A 
ATOM     19  C   UNL A   1      30.312  29.440  23.630  1.00  0.00     0.014 A 
ATOM     20  C   UNL A   1      28.402  28.058  23.126  1.00  0.00     0.014 A 
ATOM     21  C   UNL A   1      29.019  29.318  23.107  1.00  0.00     0.056 A 
BRANCH  21  22
ATOM     22  C   UNL A   1      28.308  30.542  22.581  1.00  0.00     0.416 C 
ATOM     23  F   UNL A   1      27.614  30.264  21.436  1.00  0.00    -0.166 F 
ATOM     24  F   UNL A   1      27.395  31.053  23.446  1.00  0.00    -0.166 F 
ATOM     25  F   UNL A   1      29.146  31.564  22.250  1.00  0.00    -0.166 F 
ENDBRANCH  21  22
ENDBRANCH  13  16
ENDBRANCH   7   8
ENDBRANCH   6   7
ENDBRANCH   3   6
ENDBRANCH   1   2
BRANCH   1  26
ATOM     26  C   UNL A   1      38.358  20.131  25.006  1.00  0.00     0.042 C 
BRANCH  26  27
ATOM     27  C   UNL A   1      39.222  20.074  26.263  1.00  0.00     0.118 C 
BRANCH  27  28
ATOM     28  N   UNL A   1      40.369  19.186  26.125  1.00  0.00    -0.352 N 
ATOM     29  C   UNL A   1      41.713  19.462  26.067  1.00  0.00     0.251 C 
ATOM     30  H   UNL A   1      40.143  18.230  26.064  1.00  0.00     0.163 HD
ATOM     31  O   UNL A   1      42.492  18.567  25.749  1.00  0.00    -0.269 OA
BRANCH  29  32
ATOM     32  C   UNL A   1      42.230  20.816  26.369  1.00  0.00     0.039 A 
ATOM     33  C   UNL A   1      42.453  21.704  25.310  1.00  0.00     0.014 A 
ATOM     34  C   UNL A   1      42.551  21.197  27.673  1.00  0.00     0.014 A 
ATOM     35  C   UNL A   1      42.944  22.986  25.567  1.00  0.00     0.010 A 
ATOM     36  C   UNL A   1      42.970  22.499  27.936  1.00  0.00     0.010 A 
ATOM     37  C   UNL A   1      43.184  23.404  26.886  1.00  0.00    -0.014 A 
BRANCH  37  38
ATOM     38  C   UNL A   1      43.683  24.770  27.187  1.00  0.00     0.031 A 
ATOM     39  C   UNL A   1      42.735  25.826  27.689  1.00  0.00     0.074 A 
ATOM     40  C   UNL A   1      44.972  25.081  26.948  1.00  0.00     0.049 A 
ATOM     41  N   UNL A   1      42.963  27.088  27.943  1.00  0.00    -0.248 NA
ATOM     42  C   UNL A   1      41.338  25.413  27.917  1.00  0.00     0.031 C 
ATOM     43  C   UNL A   1      45.978  24.162  26.413  1.00  0.00     0.029 A 
ATOM     44  N   UNL A   1      45.652  26.264  27.101  1.00  0.00    -0.354 N 
ATOM     45  C   UNL A   1      41.742  27.625  28.332  1.00  0.00     0.074 A 
ATOM     46  C   UNL A   1      40.765  26.563  28.243  1.00  0.00     0.031 C 
ATOM     47  C   UNL A   1      47.147  24.810  26.295  1.00  0.00     0.029 A 
ATOM     48  C   UNL A   1      46.970  26.199  26.710  1.00  0.00     0.049 A 
ATOM     49  H   UNL A   1      45.237  27.082  27.458  1.00  0.00     0.167 HD
ATOM     50  C   UNL A   1      41.465  28.879  28.760  1.00  0.00     0.034 A 
ATOM     51  C   UNL A   1      47.925  27.150  26.685  1.00  0.00     0.034 A 
ATOM     52  C   UNL A   1      42.447  29.921  28.891  1.00  0.00     0.049 A 
ATOM     53  C   UNL A   1      47.591  28.535  27.171  1.00  0.00     0.074 A 
ATOM     54  C   UNL A   1      42.276  31.204  29.379  1.00  0.00     0.029 A 
ATOM     55  N   UNL A   1      43.781  29.803  28.534  1.00  0.00    -0.354 N 
ATOM     56  N   UNL A   1      46.462  28.989  27.662  1.00  0.00    -0.248 NA
ATOM     57  C   UNL A   1      48.669  29.535  27.127  1.00  0.00     0.031 C 
ATOM     58  C   UNL A   1      43.503  31.868  29.299  1.00  0.00     0.029 A 
ATOM     59  C   UNL A   1      44.444  30.992  28.780  1.00  0.00     0.049 A 
ATOM     60  H   UNL A   1      44.197  28.992  28.160  1.00  0.00     0.167 HD
ATOM     61  C   UNL A   1      46.700  30.315  28.005  1.00  0.00     0.074 A 
ATOM     62  C   UNL A   1      48.089  30.584  27.696  1.00  0.00     0.031 C 
ATOM     63  C   UNL A   1      45.839  31.234  28.511  1.00  0.00     0.034 A 
BRANCH  50  64
ATOM     64  C   UNL A   1      40.052  29.179  29.189  1.00  0.00     0.023 A 
ATOM     65  C   UNL A   1      39.064  29.394  28.206  1.00  0.00     0.012 A 
ATOM     66  C   UNL A   1      39.681  29.169  30.549  1.00  0.00     0.148 A 
ATOM     67  C   UNL A   1      37.737  29.622  28.566  1.00  0.00     0.002 A 
ATOM     68  C   UNL A   1      38.348  29.352  30.899  1.00  0.00     0.091 A 
ATOM     69  F   UNL A   1      40.636  28.982  31.471  1.00  0.00    -0.205 F 
ATOM     70  C   UNL A   1      37.378  29.589  29.910  1.00  0.00     0.022 A 
BRANCH  68  71
ATOM     71  S   UNL A   1      37.762  29.248  32.594  1.00  0.00     0.127 S 
ATOM     72  O   UNL A   1      36.387  29.730  32.462  1.00  0.00    -0.237 OA
ATOM     73  O   UNL A   1      37.883  27.816  32.873  1.00  0.00    -0.237 OA
ATOM     74  O   UNL A   1      38.646  30.098  33.379  1.00  0.00    -0.744 OA
ENDBRANCH  68  71
ENDBRANCH  50  64
BRANCH  51  75
ATOM     75  C   UNL A   1      49.311  26.798  26.258  1.00  0.00     0.023 A 
ATOM     76  C   UNL A   1      50.108  26.008  27.108  1.00  0.00     0.012 A 
ATOM     77  C   UNL A   1      49.825  27.194  25.007  1.00  0.00     0.148 A 
ATOM     78  C   UNL A   1      51.400  25.635  26.732  1.00  0.00     0.002 A 
ATOM     79  C   UNL A   1      51.089  26.771  24.615  1.00  0.00     0.091 A 
ATOM     80  F   UNL A   1      49.055  27.957  24.218  1.00  0.00    -0.205 F 
ATOM     81  C   UNL A   1      51.885  26.007  25.482  1.00  0.00     0.022 A 
BRANCH  79  82
ATOM     82  S   UNL A   1      51.747  27.079  22.970  1.00  0.00     0.127 S 
ATOM     83  O   UNL A   1      50.622  26.698  22.121  1.00  0.00    -0.237 OA
ATOM     84  O   UNL A   1      52.021  28.516  23.021  1.00  0.00    -0.237 OA
ATOM     85  O   UNL A   1      52.935  26.244  22.859  1.00  0.00    -0.744 OA
ENDBRANCH  79  82
ENDBRANCH  51  75
BRANCH  63  86
ATOM     86  C   UNL A   1      46.362  32.625  28.767  1.00  0.00     0.023 A 
ATOM     87  C   UNL A   1      47.030  32.901  29.975  1.00  0.00     0.012 A 
ATOM     88  C   UNL A   1      46.287  33.624  27.775  1.00  0.00     0.148 A 
ATOM     89  C   UNL A   1      47.593  34.156  30.205  1.00  0.00     0.002 A 
ATOM     90  C   UNL A   1      46.895  34.855  27.989  1.00  0.00     0.091 A 
ATOM     91  F   UNL A   1      45.633  33.347  26.637  1.00  0.00    -0.205 F 
ATOM     92  C   UNL A   1      47.539  35.127  29.208  1.00  0.00     0.022 A 
BRANCH  90  93
ATOM     93  S   UNL A   1      46.970  36.130  26.725  1.00  0.00     0.127 S 
ATOM     94  O   UNL A   1      47.624  35.422  25.626  1.00  0.00    -0.237 OA
ATOM     95  O   UNL A   1      45.555  36.429  26.502  1.00  0.00    -0.237 OA
ATOM     96  O   UNL A   1      47.734  37.226  27.304  1.00  0.00    -0.744 OA
ENDBRANCH  90  93
ENDBRANCH  63  86
ENDBRANCH  37  38
ENDBRANCH  29  32
ENDBRANCH  27  28
ENDBRANCH  26  27
ENDBRANCH   1  26
TORSDOF 17
ENDMDL
MODEL 3
REMARK VINA RESULT:     -11.5      1.957      2.391
REMARK SMILES Cc1nc(-c2ccc(C(F)(F)F)cc2)nc(SCC(=O)NCCCNC(=O)c2ccc(-c3c4nc(c(-c5cccc(S(=O)(=O)[O-])c5F)c5ccc([nH]5)c(-c5cccc(S(=O)(=O)[O-])c5F)c5nc(c(-c6cccc(S(=O)(=O)[O-])c6F)c6ccc3[nH]6)C=C5)C=C4)cc2)c1C
REMARK SMILES IDX 22 1 21 2 19 3 20 4 18 6 17 7 16 8 1 9 2 10 3 11 91 12 4 13
REMARK SMILES IDX 92 14 15 15 5 16 6 17 14 18 7 19 13 20 8 21 9 22 10 23 11 24
REMARK SMILES IDX 12 25 23 26 24 27 25 28 26 29 27 31 28 32 29 33 90 34 30 35
REMARK SMILES IDX 89 36 31 37 32 38 33 39 83 40 34 41 88 42 82 43 84 44 35 45
REMARK SMILES IDX 87 46 81 47 80 48 36 50 68 51 48 52 67 53 49 54 52 55 66 56
REMARK SMILES IDX 85 57 50 58 51 59 65 61 86 62 53 63 37 64 38 65 46 66 39 67
REMARK SMILES IDX 41 68 47 69 40 70 42 71 43 72 44 73 45 74 69 75 70 76 78 77
REMARK SMILES IDX 71 78 73 79 79 80 72 81 74 82 75 83 76 84 77 85 54 86 55 87
REMARK SMILES IDX 63 88 56 89 58 90 64 91 57 92 59 93 60 94 61 95 62 96
REMARK H PARENT 21 5 25 30 84 49 52 60
REMARK Flexibility Score: inf
ROOT
ATOM      1  C   UNL A   1      35.926  20.725  24.945  1.00  0.00     0.117 C 
ENDROOT
BRANCH   1   2
ATOM      2  N   UNL A   1      34.679  20.120  25.372  1.00  0.00    -0.355 N 
ATOM      3  C   UNL A   1      33.414  20.317  24.919  1.00  0.00     0.230 C 
ATOM      4  O   UNL A   1      32.553  19.517  25.299  1.00  0.00    -0.274 OA
ATOM      5  H   UNL A   1      34.763  19.466  26.104  1.00  0.00     0.163 HD
BRANCH   3   6
ATOM      6  C   UNL A   1      33.081  21.376  23.891  1.00  0.00     0.176 C 
BRANCH   6   7
ATOM      7  S   UNL A   1      31.719  22.499  24.293  1.00  0.00    -0.096 SA
BRANCH   7   8
ATOM      8  C   UNL A   1      32.269  24.151  24.678  1.00  0.00     0.104 A 
ATOM      9  C   UNL A   1      34.588  26.691  26.247  1.00  0.00     0.067 C 
ATOM     10  C   UNL A   1      33.491  26.010  25.477  1.00  0.00     0.045 A 
ATOM     11  N   UNL A   1      32.701  26.856  24.799  1.00  0.00    -0.233 NA
ATOM     12  C   UNL A   1      33.307  24.621  25.481  1.00  0.00     0.003 A 
ATOM     13  C   UNL A   1      31.689  26.327  24.109  1.00  0.00     0.160 A 
ATOM     14  C   UNL A   1      34.253  23.787  26.276  1.00  0.00     0.049 C 
ATOM     15  N   UNL A   1      31.442  25.015  24.031  1.00  0.00    -0.221 NA
BRANCH  13  16
ATOM     16  C   UNL A   1      30.798  27.282  23.442  1.00  0.00     0.019 A 
ATOM     17  C   UNL A   1      31.336  28.391  22.762  1.00  0.00     0.012 A 
ATOM     18  C   UNL A   1      29.400  27.184  23.527  1.00  0.00     0.012 A 
ATOM     19  C   UNL A   1      30.515  29.388  22.230  1.00  0.00     0.014 A 
ATOM     20  C   UNL A   1      28.573  28.191  23.009  1.00  0.00     0.014 A 
ATOM     21  C   UNL A   1      29.124  29.314  22.375  1.00  0.00     0.056 A 
BRANCH  21  22
ATOM     22  C   UNL A   1      28.262  30.456  21.890  1.00  0.00     0.416 C 
ATOM     23  F   UNL A   1      27.563  30.112  20.766  1.00  0.00    -0.166 F 
ATOM     24  F   UNL A   1      27.330  30.853  22.793  1.00  0.00    -0.166 F 
ATOM     25  F   UNL A   1      28.968  31.569  21.543  1.00  0.00    -0.166 F 
ENDBRANCH  21  22
ENDBRANCH  13  16
ENDBRANCH   7   8
ENDBRANCH   6   7
ENDBRANCH   3   6
ENDBRANCH   1   2
BRANCH   1  26
ATOM     26  C   UNL A   1      37.111  19.770  25.035  1.00  0.00     0.042 C 
BRANCH  26  27
ATOM     27  C   UNL A   1      38.451  20.446  25.315  1.00  0.00     0.118 C 
BRANCH  27  28
ATOM     28  N   UNL A   1      39.479  19.510  25.752  1.00  0.00    -0.352 N 
ATOM     29  C   UNL A   1      40.761  19.731  26.192  1.00  0.00     0.251 C 
ATOM     30  H   UNL A   1      39.209  18.564  25.730  1.00  0.00     0.163 HD
ATOM     31  O   UNL A   1      41.519  18.773  26.323  1.00  0.00    -0.269 OA
BRANCH  29  32
ATOM     32  C   UNL A   1      41.241  21.098  26.497  1.00  0.00     0.039 A 
ATOM     33  C   UNL A   1      41.942  21.315  27.688  1.00  0.00     0.014 A 
ATOM     34  C   UNL A   1      40.959  22.173  25.652  1.00  0.00     0.014 A 
ATOM     35  C   UNL A   1      42.403  22.596  28.003  1.00  0.00     0.010 A 
ATOM     36  C   UNL A   1      41.483  23.433  25.929  1.00  0.00     0.010 A 
ATOM     37  C   UNL A   1      42.198  23.662  27.113  1.00  0.00    -0.014 A 
BRANCH  37  38
ATOM     38  C   UNL A   1      42.700  25.028  27.412  1.00  0.00     0.031 A 
ATOM     39  C   UNL A   1      41.810  26.024  28.105  1.00  0.00     0.074 A 
ATOM     40  C   UNL A   1      43.930  25.395  27.002  1.00  0.00     0.049 A 
ATOM     41  N   UNL A   1      42.040  27.279  28.391  1.00  0.00    -0.248 NA
ATOM     42  C   UNL A   1      40.474  25.554  28.513  1.00  0.00     0.031 C 
ATOM     43  C   UNL A   1      44.869  24.538  26.275  1.00  0.00     0.029 A 
ATOM     44  N   UNL A   1      44.594  26.591  27.118  1.00  0.00    -0.354 N 
ATOM     45  C   UNL A   1      40.877  27.754  28.984  1.00  0.00     0.074 A 
ATOM     46  C   UNL A   1      39.926  26.665  28.982  1.00  0.00     0.031 C 
ATOM     47  C   UNL A   1      45.990  25.231  26.021  1.00  0.00     0.029 A 
ATOM     48  C   UNL A   1      45.841  26.590  26.533  1.00  0.00     0.049 A 
ATOM     49  H   UNL A   1      44.215  27.376  27.576  1.00  0.00     0.167 HD
ATOM     50  C   UNL A   1      40.634  28.975  29.517  1.00  0.00     0.034 A 
ATOM     51  C   UNL A   1      46.756  27.574  26.420  1.00  0.00     0.034 A 
ATOM     52  C   UNL A   1      41.597  30.042  29.558  1.00  0.00     0.049 A 
ATOM     53  C   UNL A   1      46.461  28.921  27.025  1.00  0.00     0.074 A 
ATOM     54  C   UNL A   1      41.467  31.292  30.135  1.00  0.00     0.029 A 
ATOM     55  N   UNL A   1      42.865  29.987  29.002  1.00  0.00    -0.354 N 
ATOM     56  N   UNL A   1      45.407  29.310  27.701  1.00  0.00    -0.248 NA
ATOM     57  C   UNL A   1      47.494  29.958  26.876  1.00  0.00     0.031 C 
ATOM     58  C   UNL A   1      42.650  32.001  29.911  1.00  0.00     0.029 A 
ATOM     59  C   UNL A   1      43.526  31.185  29.212  1.00  0.00     0.049 A 
ATOM     60  H   UNL A   1      43.241  29.211  28.527  1.00  0.00     0.167 HD
ATOM     61  C   UNL A   1      45.658  30.625  28.077  1.00  0.00     0.074 A 
ATOM     62  C   UNL A   1      46.978  30.956  27.581  1.00  0.00     0.031 C 
ATOM     63  C   UNL A   1      44.859  31.488  28.753  1.00  0.00     0.034 A 
BRANCH  50  64
ATOM     64  C   UNL A   1      39.293  29.205  30.165  1.00  0.00     0.023 A 
ATOM     65  C   UNL A   1      39.030  28.633  31.426  1.00  0.00     0.012 A 
ATOM     66  C   UNL A   1      38.329  30.046  29.573  1.00  0.00     0.148 A 
ATOM     67  C   UNL A   1      37.821  28.869  32.078  1.00  0.00     0.002 A 
ATOM     68  C   UNL A   1      37.143  30.312  30.250  1.00  0.00     0.091 A 
ATOM     69  F   UNL A   1      38.587  30.565  28.365  1.00  0.00    -0.205 F 
ATOM     70  C   UNL A   1      36.884  29.717  31.496  1.00  0.00     0.022 A 
BRANCH  68  71
ATOM     71  S   UNL A   1      35.903  31.454  29.628  1.00  0.00     0.127 S 
ATOM     72  O   UNL A   1      36.733  32.558  29.146  1.00  0.00    -0.237 OA
ATOM     73  O   UNL A   1      35.262  30.667  28.574  1.00  0.00    -0.237 OA
ATOM     74  O   UNL A   1      35.043  31.771  30.760  1.00  0.00    -0.744 OA
ENDBRANCH  68  71
ENDBRANCH  50  64
BRANCH  51  75
ATOM     75  C   UNL A   1      48.071  27.291  25.775  1.00  0.00     0.023 A 
ATOM     76  C   UNL A   1      49.118  26.767  26.557  1.00  0.00     0.012 A 
ATOM     77  C   UNL A   1      48.278  27.488  24.395  1.00  0.00     0.148 A 
ATOM     78  C   UNL A   1      50.354  26.465  25.984  1.00  0.00     0.002 A 
ATOM     79  C   UNL A   1      49.492  27.131  23.820  1.00  0.00     0.091 A 
ATOM     80  F   UNL A   1      47.274  28.000  23.670  1.00  0.00    -0.205 F 
ATOM     81  C   UNL A   1      50.537  26.635  24.615  1.00  0.00     0.022 A 
BRANCH  79  82
ATOM     82  S   UNL A   1      49.777  27.181  22.046  1.00  0.00     0.127 S 
ATOM     83  O   UNL A   1      48.756  26.260  21.553  1.00  0.00    -0.237 OA
ATOM     84  O   UNL A   1      49.532  28.591  21.743  1.00  0.00    -0.237 OA
ATOM     85  O   UNL A   1      51.157  26.756  21.856  1.00  0.00    -0.744 OA
ENDBRANCH  79  82
ENDBRANCH  51  75
BRANCH  63  86
ATOM     86  C   UNL A   1      45.377  32.881  29.005  1.00  0.00     0.023 A 
ATOM     87  C   UNL A   1      46.198  33.122  30.123  1.00  0.00     0.012 A 
ATOM     88  C   UNL A   1      45.140  33.922  28.085  1.00  0.00     0.148 A 
ATOM     89  C   UNL A   1      46.757  34.382  30.336  1.00  0.00     0.002 A 
ATOM     90  C   UNL A   1      45.741  35.160  28.275  1.00  0.00     0.091 A 
ATOM     91  F   UNL A   1      44.342  33.678  27.034  1.00  0.00    -0.205 F 
ATOM     92  C   UNL A   1      46.540  35.396  29.406  1.00  0.00     0.022 A 
BRANCH  90  93
ATOM     93  S   UNL A   1      45.608  36.494  27.078  1.00  0.00     0.127 S 
ATOM     94  O   UNL A   1      46.367  37.559  27.732  1.00  0.00    -0.237 OA
ATOM     95  O   UNL A   1      46.255  35.919  25.898  1.00  0.00    -0.237 OA
ATOM     96  O   UNL A   1      44.183  36.751  26.920  1.00  0.00    -0.744 OA
ENDBRANCH  90  93
ENDBRANCH  63  86
ENDBRANCH  37  38
ENDBRANCH  29  32
ENDBRANCH  27  28
ENDBRANCH  26  27
ENDBRANCH   1  26
TORSDOF 17
ENDMDL
