MODEL 1
REMARK VINA RESULT:     -12.7      0.000      0.000
REMARK SMILES O=C(NCCCNC(=O)c1cc(N2CC[NH2+]CC2)nc2ccccc12)c1ccc(-c2c3nc(c(-c4cccc(S(=O)(=O)[O-])c4F)c4ccc([nH]4)c(-c4cccc(S(=O)(=O)[O-])c4F)c4nc(c(-c5cccc(S(=O)(=O)[O-])c5F)c5ccc2[nH]5)C=C4)C=C3)cc1
REMARK SMILES IDX 4 1 3 2 1 3 2 4 26 6 27 7 88 8 28 9 87 10 29 11 30 12 31 13
REMARK SMILES IDX 81 14 32 15 86 16 80 17 82 18 33 19 85 20 79 21 78 22 34 24
REMARK SMILES IDX 66 25 46 26 65 27 47 28 50 29 64 30 83 31 48 32 49 33 63 35
REMARK SMILES IDX 84 36 51 37 35 38 36 39 44 40 37 41 39 42 45 43 38 44 40 45
REMARK SMILES IDX 41 46 42 47 43 48 67 49 68 50 76 51 69 52 71 53 77 54 70 55
REMARK SMILES IDX 72 56 73 57 74 58 75 59 52 60 53 61 61 62 54 63 56 64 62 65
REMARK SMILES IDX 55 66 57 67 58 68 59 69 60 70 5 71 6 72 7 73 8 74 9 76 10 77
REMARK SMILES IDX 11 78 25 79 12 80 20 81 24 82 19 83 21 84 23 85 22 86 13 87
REMARK SMILES IDX 14 88 18 89 15 90 17 91 16 92
REMARK H PARENT 3 5 82 23 50 34 7 75 16 93 16 94
REMARK Flexibility Score: inf
ROOT
ATOM      1  C   UNL A   1      32.802  29.233  25.244  1.00  0.00     0.118 C 
ENDROOT
BRANCH   1   2
ATOM      2  N   UNL A   1      32.369  30.511  25.794  1.00  0.00    -0.352 N 
ATOM      3  O   UNL A   1      32.245  32.226  27.239  1.00  0.00    -0.269 OA
ATOM      4  C   UNL A   1      32.881  31.257  26.829  1.00  0.00     0.251 C 
ATOM      5  H   UNL A   1      31.581  30.903  25.354  1.00  0.00     0.163 HD
BRANCH   4   6
ATOM      6  C   UNL A   1      34.163  30.883  27.465  1.00  0.00     0.039 A 
ATOM      7  C   UNL A   1      34.412  29.567  27.859  1.00  0.00     0.014 A 
ATOM      8  C   UNL A   1      35.139  31.864  27.663  1.00  0.00     0.014 A 
ATOM      9  C   UNL A   1      35.541  29.271  28.614  1.00  0.00     0.010 A 
ATOM     10  C   UNL A   1      36.325  31.539  28.327  1.00  0.00     0.010 A 
ATOM     11  C   UNL A   1      36.517  30.251  28.850  1.00  0.00    -0.014 A 
BRANCH  11  12
ATOM     12  C   UNL A   1      37.751  29.894  29.594  1.00  0.00     0.031 A 
ATOM     13  C   UNL A   1      38.008  30.428  30.976  1.00  0.00     0.074 A 
ATOM     14  C   UNL A   1      38.652  29.082  29.005  1.00  0.00     0.049 A 
ATOM     15  N   UNL A   1      39.042  30.231  31.754  1.00  0.00    -0.248 NA
ATOM     16  C   UNL A   1      36.980  31.305  31.560  1.00  0.00     0.031 C 
ATOM     17  C   UNL A   1      38.531  28.531  27.653  1.00  0.00     0.029 A 
ATOM     18  N   UNL A   1      39.848  28.586  29.459  1.00  0.00    -0.354 N 
ATOM     19  C   UNL A   1      38.814  30.993  32.894  1.00  0.00     0.074 A 
ATOM     20  C   UNL A   1      37.546  31.661  32.706  1.00  0.00     0.031 C 
ATOM     21  C   UNL A   1      39.595  27.760  27.393  1.00  0.00     0.029 A 
ATOM     22  C   UNL A   1      40.502  27.808  28.534  1.00  0.00     0.049 A 
ATOM     23  H   UNL A   1      40.202  28.769  30.358  1.00  0.00     0.167 HD
ATOM     24  C   UNL A   1      39.586  31.112  34.002  1.00  0.00     0.034 A 
ATOM     25  C   UNL A   1      41.710  27.213  28.583  1.00  0.00     0.034 A 
ATOM     26  C   UNL A   1      40.827  30.411  34.200  1.00  0.00     0.049 A 
ATOM     27  C   UNL A   1      42.531  27.341  29.833  1.00  0.00     0.074 A 
ATOM     28  C   UNL A   1      41.648  30.415  35.314  1.00  0.00     0.029 A 
ATOM     29  N   UNL A   1      41.430  29.585  33.264  1.00  0.00    -0.354 N 
ATOM     30  N   UNL A   1      42.242  27.969  30.946  1.00  0.00    -0.248 NA
ATOM     31  C   UNL A   1      43.831  26.657  29.845  1.00  0.00     0.031 C 
ATOM     32  C   UNL A   1      42.756  29.603  35.044  1.00  0.00     0.029 A 
ATOM     33  C   UNL A   1      42.615  29.079  33.769  1.00  0.00     0.049 A 
ATOM     34  H   UNL A   1      41.068  29.387  32.370  1.00  0.00     0.167 HD
ATOM     35  C   UNL A   1      43.310  27.736  31.803  1.00  0.00     0.074 A 
ATOM     36  C   UNL A   1      44.243  26.889  31.085  1.00  0.00     0.031 C 
ATOM     37  C   UNL A   1      43.507  28.194  33.062  1.00  0.00     0.034 A 
BRANCH  24  38
ATOM     38  C   UNL A   1      39.093  32.010  35.107  1.00  0.00     0.023 A 
ATOM     39  C   UNL A   1      39.186  33.410  34.961  1.00  0.00     0.012 A 
ATOM     40  C   UNL A   1      38.487  31.476  36.261  1.00  0.00     0.148 A 
ATOM     41  C   UNL A   1      38.713  34.262  35.959  1.00  0.00     0.002 A 
ATOM     42  C   UNL A   1      37.981  32.333  37.233  1.00  0.00     0.091 A 
ATOM     43  F   UNL A   1      38.427  30.144  36.395  1.00  0.00    -0.205 F 
ATOM     44  C   UNL A   1      38.102  33.724  37.089  1.00  0.00     0.022 A 
BRANCH  42  45
ATOM     45  S   UNL A   1      37.112  31.732  38.686  1.00  0.00     0.127 S 
ATOM     46  O   UNL A   1      36.876  30.334  38.332  1.00  0.00    -0.237 OA
ATOM     47  O   UNL A   1      38.101  31.932  39.747  1.00  0.00    -0.237 OA
ATOM     48  O   UNL A   1      35.923  32.563  38.808  1.00  0.00    -0.744 OA
ENDBRANCH  42  45
ENDBRANCH  24  38
BRANCH  25  49
ATOM     49  C   UNL A   1      42.176  26.410  27.420  1.00  0.00     0.023 A 
ATOM     50  C   UNL A   1      42.995  27.014  26.447  1.00  0.00     0.012 A 
ATOM     51  C   UNL A   1      41.877  25.038  27.313  1.00  0.00     0.148 A 
ATOM     52  C   UNL A   1      43.496  26.268  25.380  1.00  0.00     0.002 A 
ATOM     53  C   UNL A   1      42.428  24.287  26.281  1.00  0.00     0.091 A 
ATOM     54  F   UNL A   1      41.085  24.487  28.244  1.00  0.00    -0.205 F 
ATOM     55  C   UNL A   1      43.225  24.903  25.305  1.00  0.00     0.022 A 
BRANCH  53  56
ATOM     56  S   UNL A   1      42.251  22.501  26.194  1.00  0.00     0.127 S 
ATOM     57  O   UNL A   1      42.859  22.080  27.453  1.00  0.00    -0.237 OA
ATOM     58  O   UNL A   1      40.797  22.345  26.127  1.00  0.00    -0.237 OA
ATOM     59  O   UNL A   1      42.953  22.097  24.983  1.00  0.00    -0.744 OA
ENDBRANCH  53  56
ENDBRANCH  25  49
BRANCH  37  60
ATOM     60  C   UNL A   1      44.767  27.769  33.767  1.00  0.00     0.023 A 
ATOM     61  C   UNL A   1      45.912  28.587  33.703  1.00  0.00     0.012 A 
ATOM     62  C   UNL A   1      44.792  26.601  34.553  1.00  0.00     0.148 A 
ATOM     63  C   UNL A   1      47.073  28.235  34.391  1.00  0.00     0.002 A 
ATOM     64  C   UNL A   1      45.937  26.280  35.271  1.00  0.00     0.091 A 
ATOM     65  F   UNL A   1      43.698  25.826  34.581  1.00  0.00    -0.205 F 
ATOM     66  C   UNL A   1      47.081  27.089  35.184  1.00  0.00     0.022 A 
BRANCH  64  67
ATOM     67  S   UNL A   1      46.006  24.874  36.389  1.00  0.00     0.127 S 
ATOM     68  O   UNL A   1      44.923  25.183  37.322  1.00  0.00    -0.237 OA
ATOM     69  O   UNL A   1      45.737  23.749  35.493  1.00  0.00    -0.237 OA
ATOM     70  O   UNL A   1      47.346  24.883  36.959  1.00  0.00    -0.744 OA
ENDBRANCH  64  67
ENDBRANCH  37  60
ENDBRANCH  11  12
ENDBRANCH   4   6
ENDBRANCH   1   2
BRANCH   1  71
ATOM     71  C   UNL A   1      32.848  29.221  23.724  1.00  0.00     0.042 C 
BRANCH  71  72
ATOM     72  C   UNL A   1      34.059  28.514  23.142  1.00  0.00     0.118 C 
BRANCH  72  73
ATOM     73  N   UNL A   1      33.736  27.685  21.988  1.00  0.00    -0.352 N 
ATOM     74  C   UNL A   1      33.329  26.376  21.939  1.00  0.00     0.252 C 
ATOM     75  H   UNL A   1      33.822  28.130  21.115  1.00  0.00     0.163 HD
ATOM     76  O   UNL A   1      33.161  25.822  20.858  1.00  0.00    -0.269 OA
BRANCH  74  77
ATOM     77  C   UNL A   1      33.136  25.611  23.185  1.00  0.00     0.052 A 
ATOM     78  C   UNL A   1      34.218  24.837  23.598  1.00  0.00     0.061 A 
ATOM     79  C   UNL A   1      31.935  25.636  23.923  1.00  0.00     0.013 A 
ATOM     80  C   UNL A   1      34.100  24.087  24.752  1.00  0.00     0.130 A 
ATOM     81  C   UNL A   1      31.952  24.923  25.132  1.00  0.00     0.073 A 
ATOM     82  C   UNL A   1      30.757  26.329  23.543  1.00  0.00     0.011 A 
ATOM     83  N   UNL A   1      32.986  24.150  25.511  1.00  0.00    -0.231 NA
ATOM     84  C   UNL A   1      30.852  25.032  25.973  1.00  0.00     0.029 A 
ATOM     85  C   UNL A   1      29.668  26.421  24.403  1.00  0.00     0.001 A 
ATOM     86  C   UNL A   1      29.726  25.788  25.635  1.00  0.00     0.002 A 
BRANCH  80  87
ATOM     87  N   UNL A   1      35.108  23.227  25.121  1.00  0.00    -0.345 N 
ATOM     88  C   UNL A   1      35.504  22.123  24.248  1.00  0.00     0.179 C 
ATOM     89  C   UNL A   1      36.024  23.624  26.188  1.00  0.00     0.179 C 
ATOM     90  C   UNL A   1      36.991  22.254  23.836  1.00  0.00     0.282 C 
ATOM     91  C   UNL A   1      37.480  23.688  25.691  1.00  0.00     0.282 C 
ATOM     92  N   UNL A   1      37.909  22.462  24.978  1.00  0.00    -0.343 N 
ATOM     93  H   UNL A   1      38.865  22.575  24.640  1.00  0.00     0.346 HD
ATOM     94  H   UNL A   1      37.882  21.659  25.608  1.00  0.00     0.346 HD
ENDBRANCH  80  87
ENDBRANCH  74  77
ENDBRANCH  72  73
ENDBRANCH  71  72
ENDBRANCH   1  71
TORSDOF 14
ENDMDL
MODEL 2
REMARK VINA RESULT:     -12.6      5.076      9.866
REMARK SMILES O=C(NCCCNC(=O)c1cc(N2CC[NH2+]CC2)nc2ccccc12)c1ccc(-c2c3nc(c(-c4cccc(S(=O)(=O)[O-])c4F)c4ccc([nH]4)c(-c4cccc(S(=O)(=O)[O-])c4F)c4nc(c(-c5cccc(S(=O)(=O)[O-])c5F)c5ccc2[nH]5)C=C4)C=C3)cc1
REMARK SMILES IDX 4 1 3 2 1 3 2 4 26 6 27 7 88 8 28 9 87 10 29 11 30 12 31 13
REMARK SMILES IDX 81 14 32 15 86 16 80 17 82 18 33 19 85 20 79 21 78 22 34 24
REMARK SMILES IDX 66 25 46 26 65 27 47 28 50 29 64 30 83 31 48 32 49 33 63 35
REMARK SMILES IDX 84 36 51 37 35 38 36 39 44 40 37 41 39 42 45 43 38 44 40 45
REMARK SMILES IDX 41 46 42 47 43 48 67 49 68 50 76 51 69 52 71 53 77 54 70 55
REMARK SMILES IDX 72 56 73 57 74 58 75 59 52 60 53 61 61 62 54 63 56 64 62 65
REMARK SMILES IDX 55 66 57 67 58 68 59 69 60 70 5 71 6 72 7 73 8 74 9 76 10 77
REMARK SMILES IDX 11 78 25 79 12 80 20 81 24 82 19 83 21 84 23 85 22 86 13 87
REMARK SMILES IDX 14 88 18 89 15 90 17 91 16 92
REMARK H PARENT 3 5 82 23 50 34 7 75 16 93 16 94
REMARK Flexibility Score: inf
ROOT
ATOM      1  C   UNL A   1      35.891  22.090  25.753  1.00  0.00     0.118 C 
ENDROOT
BRANCH   1   2
ATOM      2  N   UNL A   1      36.930  21.077  25.622  1.00  0.00    -0.352 N 
ATOM      3  O   UNL A   1      38.996  20.220  25.421  1.00  0.00    -0.269 OA
ATOM      4  C   UNL A   1      38.295  21.175  25.748  1.00  0.00     0.251 C 
ATOM      5  H   UNL A   1      36.600  20.174  25.409  1.00  0.00     0.163 HD
BRANCH   4   6
ATOM      6  C   UNL A   1      38.918  22.425  26.238  1.00  0.00     0.039 A 
ATOM      7  C   UNL A   1      38.429  23.672  25.848  1.00  0.00     0.014 A 
ATOM      8  C   UNL A   1      40.005  22.348  27.113  1.00  0.00     0.014 A 
ATOM      9  C   UNL A   1      39.133  24.826  26.171  1.00  0.00     0.010 A 
ATOM     10  C   UNL A   1      40.648  23.518  27.527  1.00  0.00     0.010 A 
ATOM     11  C   UNL A   1      40.247  24.765  27.022  1.00  0.00    -0.014 A 
BRANCH  11  12
ATOM     12  C   UNL A   1      40.939  26.018  27.416  1.00  0.00     0.031 A 
ATOM     13  C   UNL A   1      42.364  26.280  27.010  1.00  0.00     0.074 A 
ATOM     14  C   UNL A   1      40.271  26.924  28.157  1.00  0.00     0.049 A 
ATOM     15  N   UNL A   1      43.121  27.311  27.287  1.00  0.00    -0.248 NA
ATOM     16  C   UNL A   1      43.032  25.250  26.198  1.00  0.00     0.031 C 
ATOM     17  C   UNL A   1      38.898  26.765  28.643  1.00  0.00     0.029 A 
ATOM     18  N   UNL A   1      40.652  28.151  28.639  1.00  0.00    -0.354 N 
ATOM     19  C   UNL A   1      44.363  27.035  26.728  1.00  0.00     0.074 A 
ATOM     20  C   UNL A   1      44.262  25.737  26.099  1.00  0.00     0.031 C 
ATOM     21  C   UNL A   1      38.546  27.856  29.335  1.00  0.00     0.029 A 
ATOM     22  C   UNL A   1      39.683  28.767  29.394  1.00  0.00     0.049 A 
ATOM     23  H   UNL A   1      41.534  28.550  28.461  1.00  0.00     0.167 HD
ATOM     24  C   UNL A   1      45.481  27.802  26.727  1.00  0.00     0.034 A 
ATOM     25  C   UNL A   1      39.708  29.926  30.079  1.00  0.00     0.034 A 
ATOM     26  C   UNL A   1      45.562  29.112  27.318  1.00  0.00     0.049 A 
ATOM     27  C   UNL A   1      40.951  30.766  30.039  1.00  0.00     0.074 A 
ATOM     28  C   UNL A   1      46.629  29.993  27.312  1.00  0.00     0.029 A 
ATOM     29  N   UNL A   1      44.540  29.727  28.024  1.00  0.00    -0.354 N 
ATOM     30  N   UNL A   1      42.076  30.542  29.403  1.00  0.00    -0.248 NA
ATOM     31  C   UNL A   1      40.922  32.031  30.784  1.00  0.00     0.031 C 
ATOM     32  C   UNL A   1      46.256  31.135  28.029  1.00  0.00     0.029 A 
ATOM     33  C   UNL A   1      44.951  30.973  28.466  1.00  0.00     0.049 A 
ATOM     34  H   UNL A   1      43.652  29.335  28.188  1.00  0.00     0.167 HD
ATOM     35  C   UNL A   1      42.879  31.647  29.649  1.00  0.00     0.074 A 
ATOM     36  C   UNL A   1      42.102  32.552  30.474  1.00  0.00     0.031 C 
ATOM     37  C   UNL A   1      44.149  31.885  29.242  1.00  0.00     0.034 A 
BRANCH  24  38
ATOM     38  C   UNL A   1      46.703  27.259  26.032  1.00  0.00     0.023 A 
ATOM     39  C   UNL A   1      46.840  27.417  24.637  1.00  0.00     0.012 A 
ATOM     40  C   UNL A   1      47.741  26.646  26.761  1.00  0.00     0.148 A 
ATOM     41  C   UNL A   1      47.974  26.946  23.976  1.00  0.00     0.002 A 
ATOM     42  C   UNL A   1      48.887  26.215  26.101  1.00  0.00     0.091 A 
ATOM     43  F   UNL A   1      47.586  26.482  28.083  1.00  0.00    -0.205 F 
ATOM     44  C   UNL A   1      49.001  26.355  24.708  1.00  0.00     0.022 A 
BRANCH  42  45
ATOM     45  S   UNL A   1      50.291  25.510  26.972  1.00  0.00     0.127 S 
ATOM     46  O   UNL A   1      51.210  25.227  25.871  1.00  0.00    -0.237 OA
ATOM     47  O   UNL A   1      50.705  26.612  27.842  1.00  0.00    -0.237 OA
ATOM     48  O   UNL A   1      49.775  24.347  27.680  1.00  0.00    -0.744 OA
ENDBRANCH  42  45
ENDBRANCH  24  38
BRANCH  25  49
ATOM     49  C   UNL A   1      38.493  30.363  30.818  1.00  0.00     0.023 A 
ATOM     50  C   UNL A   1      38.383  30.087  32.194  1.00  0.00     0.012 A 
ATOM     51  C   UNL A   1      37.484  31.115  30.184  1.00  0.00     0.148 A 
ATOM     52  C   UNL A   1      37.283  30.539  32.923  1.00  0.00     0.002 A 
ATOM     53  C   UNL A   1      36.422  31.614  30.928  1.00  0.00     0.091 A 
ATOM     54  F   UNL A   1      37.603  31.356  28.871  1.00  0.00    -0.205 F 
ATOM     55  C   UNL A   1      36.310  31.315  32.294  1.00  0.00     0.022 A 
BRANCH  53  56
ATOM     56  S   UNL A   1      35.208  32.740  30.231  1.00  0.00     0.127 S 
ATOM     57  O   UNL A   1      36.050  33.843  29.777  1.00  0.00    -0.237 OA
ATOM     58  O   UNL A   1      34.623  31.930  29.162  1.00  0.00    -0.237 OA
ATOM     59  O   UNL A   1      34.289  33.049  31.319  1.00  0.00    -0.744 OA
ENDBRANCH  53  56
ENDBRANCH  25  49
BRANCH  37  60
ATOM     60  C   UNL A   1      44.779  33.188  29.654  1.00  0.00     0.023 A 
ATOM     61  C   UNL A   1      45.549  33.248  30.832  1.00  0.00     0.012 A 
ATOM     62  C   UNL A   1      44.671  34.330  28.837  1.00  0.00     0.148 A 
ATOM     63  C   UNL A   1      46.182  34.434  31.204  1.00  0.00     0.002 A 
ATOM     64  C   UNL A   1      45.339  35.494  29.190  1.00  0.00     0.091 A 
ATOM     65  F   UNL A   1      43.913  34.255  27.732  1.00  0.00    -0.205 F 
ATOM     66  C   UNL A   1      46.088  35.552  30.377  1.00  0.00     0.022 A 
BRANCH  64  67
ATOM     67  S   UNL A   1      45.349  36.952  28.139  1.00  0.00     0.127 S 
ATOM     68  O   UNL A   1      46.187  37.869  28.909  1.00  0.00    -0.237 OA
ATOM     69  O   UNL A   1      45.963  36.448  26.911  1.00  0.00    -0.237 OA
ATOM     70  O   UNL A   1      43.954  37.349  27.996  1.00  0.00    -0.744 OA
ENDBRANCH  64  67
ENDBRANCH  37  60
ENDBRANCH  11  12
ENDBRANCH   4   6
ENDBRANCH   1   2
BRANCH   1  71
ATOM     71  C   UNL A   1      34.671  21.602  26.519  1.00  0.00     0.042 C 
BRANCH  71  72
ATOM     72  C   UNL A   1      34.175  22.566  27.581  1.00  0.00     0.118 C 
BRANCH  72  73
ATOM     73  N   UNL A   1      32.724  22.571  27.714  1.00  0.00    -0.352 N 
ATOM     74  C   UNL A   1      31.786  23.280  27.008  1.00  0.00     0.252 C 
ATOM     75  H   UNL A   1      32.364  21.979  28.412  1.00  0.00     0.163 HD
ATOM     76  O   UNL A   1      30.598  23.200  27.307  1.00  0.00    -0.269 OA
BRANCH  74  77
ATOM     77  C   UNL A   1      32.199  24.181  25.916  1.00  0.00     0.052 A 
ATOM     78  C   UNL A   1      32.389  25.516  26.266  1.00  0.00     0.061 A 
ATOM     79  C   UNL A   1      32.388  23.743  24.590  1.00  0.00     0.013 A 
ATOM     80  C   UNL A   1      32.768  26.415  25.289  1.00  0.00     0.130 A 
ATOM     81  C   UNL A   1      32.872  24.710  23.696  1.00  0.00     0.073 A 
ATOM     82  C   UNL A   1      32.146  22.426  24.122  1.00  0.00     0.011 A 
ATOM     83  N   UNL A   1      33.021  26.005  24.029  1.00  0.00    -0.231 NA
ATOM     84  C   UNL A   1      33.218  24.304  22.413  1.00  0.00     0.029 A 
ATOM     85  C   UNL A   1      32.499  22.044  22.833  1.00  0.00     0.001 A 
ATOM     86  C   UNL A   1      33.060  22.983  21.981  1.00  0.00     0.002 A 
BRANCH  80  87
ATOM     87  N   UNL A   1      32.849  27.757  25.581  1.00  0.00    -0.345 N 
ATOM     88  C   UNL A   1      31.651  28.520  25.926  1.00  0.00     0.179 C 
ATOM     89  C   UNL A   1      34.152  28.333  25.910  1.00  0.00     0.179 C 
ATOM     90  C   UNL A   1      31.774  29.123  27.347  1.00  0.00     0.282 C 
ATOM     91  C   UNL A   1      34.162  28.941  27.325  1.00  0.00     0.282 C 
ATOM     92  N   UNL A   1      33.033  29.868  27.571  1.00  0.00    -0.343 N 
ATOM     93  H   UNL A   1      33.069  30.209  28.532  1.00  0.00     0.346 HD
ATOM     94  H   UNL A   1      33.090  30.670  26.942  1.00  0.00     0.346 HD
ENDBRANCH  80  87
ENDBRANCH  74  77
ENDBRANCH  72  73
ENDBRANCH  71  72
ENDBRANCH   1  71
TORSDOF 14
ENDMDL
MODEL 3
REMARK VINA RESULT:     -12.5      5.022      7.351
REMARK SMILES O=C(NCCCNC(=O)c1cc(N2CC[NH2+]CC2)nc2ccccc12)c1ccc(-c2c3nc(c(-c4cccc(S(=O)(=O)[O-])c4F)c4ccc([nH]4)c(-c4cccc(S(=O)(=O)[O-])c4F)c4nc(c(-c5cccc(S(=O)(=O)[O-])c5F)c5ccc2[nH]5)C=C4)C=C3)cc1
REMARK SMILES IDX 4 1 3 2 1 3 2 4 26 6 27 7 88 8 28 9 87 10 29 11 30 12 31 13
REMARK SMILES IDX 81 14 32 15 86 16 80 17 82 18 33 19 85 20 79 21 78 22 34 24
REMARK SMILES IDX 66 25 46 26 65 27 47 28 50 29 64 30 83 31 48 32 49 33 63 35
REMARK SMILES IDX 84 36 51 37 35 38 36 39 44 40 37 41 39 42 45 43 38 44 40 45
REMARK SMILES IDX 41 46 42 47 43 48 67 49 68 50 76 51 69 52 71 53 77 54 70 55
REMARK SMILES IDX 72 56 73 57 74 58 75 59 52 60 53 61 61 62 54 63 56 64 62 65
REMARK SMILES IDX 55 66 57 67 58 68 59 69 60 70 5 71 6 72 7 73 8 74 9 76 10 77
REMARK SMILES IDX 11 78 25 79 12 80 20 81 24 82 19 83 21 84 23 85 22 86 13 87
REMARK SMILES IDX 14 88 18 89 15 90 17 91 16 92
REMARK H PARENT 3 5 82 23 50 34 7 75 16 93 16 94
REMARK Flexibility Score: inf
ROOT
ATOM      1  C   UNL A   1      35.848  22.047  25.829  1.00  0.00     0.118 C 
ENDROOT
BRANCH   1   2
ATOM      2  N   UNL A   1      36.867  21.027  25.616  1.00  0.00    -0.352 N 
ATOM      3  O   UNL A   1      38.913  20.154  25.307  1.00  0.00    -0.269 OA
ATOM      4  C   UNL A   1      38.236  21.101  25.703  1.00  0.00     0.251 C 
ATOM      5  H   UNL A   1      36.517  20.141  25.370  1.00  0.00     0.163 HD
BRANCH   4   6
ATOM      6  C   UNL A   1      38.893  22.317  26.233  1.00  0.00     0.039 A 
ATOM      7  C   UNL A   1      38.397  23.588  25.938  1.00  0.00     0.014 A 
ATOM      8  C   UNL A   1      40.020  22.183  27.049  1.00  0.00     0.014 A 
ATOM      9  C   UNL A   1      39.126  24.716  26.293  1.00  0.00     0.010 A 
ATOM     10  C   UNL A   1      40.692  23.324  27.497  1.00  0.00     0.010 A 
ATOM     11  C   UNL A   1      40.279  24.600  27.085  1.00  0.00    -0.014 A 
BRANCH  11  12
ATOM     12  C   UNL A   1      41.000  25.824  27.516  1.00  0.00     0.031 A 
ATOM     13  C   UNL A   1      40.314  26.885  28.332  1.00  0.00     0.074 A 
ATOM     14  C   UNL A   1      42.290  25.978  27.156  1.00  0.00     0.049 A 
ATOM     15  N   UNL A   1      40.792  28.020  28.772  1.00  0.00    -0.248 NA
ATOM     16  C   UNL A   1      38.907  26.649  28.694  1.00  0.00     0.031 C 
ATOM     17  C   UNL A   1      43.052  25.035  26.333  1.00  0.00     0.029 A 
ATOM     18  N   UNL A   1      43.185  26.982  27.424  1.00  0.00    -0.354 N 
ATOM     19  C   UNL A   1      39.738  28.655  29.418  1.00  0.00     0.074 A 
ATOM     20  C   UNL A   1      38.591  27.780  29.310  1.00  0.00     0.031 C 
ATOM     21  C   UNL A   1      44.301  25.493  26.179  1.00  0.00     0.029 A 
ATOM     22  C   UNL A   1      44.414  26.788  26.840  1.00  0.00     0.049 A 
ATOM     23  H   UNL A   1      42.968  27.765  27.979  1.00  0.00     0.167 HD
ATOM     24  C   UNL A   1      39.732  29.850  30.057  1.00  0.00     0.034 A 
ATOM     25  C   UNL A   1      45.509  27.572  26.817  1.00  0.00     0.034 A 
ATOM     26  C   UNL A   1      40.888  30.696  30.199  1.00  0.00     0.049 A 
ATOM     27  C   UNL A   1      45.482  28.879  27.554  1.00  0.00     0.074 A 
ATOM     28  C   UNL A   1      40.998  31.893  30.883  1.00  0.00     0.029 A 
ATOM     29  N   UNL A   1      42.132  30.438  29.643  1.00  0.00    -0.354 N 
ATOM     30  N   UNL A   1      44.511  29.405  28.260  1.00  0.00    -0.248 NA
ATOM     31  C   UNL A   1      46.707  29.688  27.516  1.00  0.00     0.031 C 
ATOM     32  C   UNL A   1      42.306  32.367  30.727  1.00  0.00     0.029 A 
ATOM     33  C   UNL A   1      43.015  31.455  29.962  1.00  0.00     0.049 A 
ATOM     34  H   UNL A   1      42.354  29.647  29.101  1.00  0.00     0.167 HD
ATOM     35  C   UNL A   1      45.014  30.593  28.773  1.00  0.00     0.074 A 
ATOM     36  C   UNL A   1      46.385  30.698  28.314  1.00  0.00     0.031 C 
ATOM     37  C   UNL A   1      44.392  31.520  29.541  1.00  0.00     0.034 A 
BRANCH  24  38
ATOM     38  C   UNL A   1      38.440  30.303  30.686  1.00  0.00     0.023 A 
ATOM     39  C   UNL A   1      38.140  29.926  32.012  1.00  0.00     0.012 A 
ATOM     40  C   UNL A   1      37.550  31.146  29.992  1.00  0.00     0.148 A 
ATOM     41  C   UNL A   1      36.962  30.354  32.625  1.00  0.00     0.002 A 
ATOM     42  C   UNL A   1      36.397  31.602  30.623  1.00  0.00     0.091 A 
ATOM     43  F   UNL A   1      37.837  31.476  28.724  1.00  0.00    -0.205 F 
ATOM     44  C   UNL A   1      36.097  31.200  31.934  1.00  0.00     0.022 A 
BRANCH  42  45
ATOM     45  S   UNL A   1      35.261  32.752  29.838  1.00  0.00     0.127 S 
ATOM     46  O   UNL A   1      34.339  33.049  30.932  1.00  0.00    -0.237 OA
ATOM     47  O   UNL A   1      36.144  33.860  29.468  1.00  0.00    -0.237 OA
ATOM     48  O   UNL A   1      34.691  32.035  28.707  1.00  0.00    -0.744 OA
ENDBRANCH  42  45
ENDBRANCH  24  38
BRANCH  25  49
ATOM     49  C   UNL A   1      46.728  27.103  26.101  1.00  0.00     0.023 A 
ATOM     50  C   UNL A   1      46.867  27.369  24.726  1.00  0.00     0.012 A 
ATOM     51  C   UNL A   1      47.778  26.467  26.790  1.00  0.00     0.148 A 
ATOM     52  C   UNL A   1      48.026  26.995  24.046  1.00  0.00     0.002 A 
ATOM     53  C   UNL A   1      48.954  26.151  26.120  1.00  0.00     0.091 A 
ATOM     54  F   UNL A   1      47.619  26.213  28.097  1.00  0.00    -0.205 F 
ATOM     55  C   UNL A   1      49.075  26.400  24.745  1.00  0.00     0.022 A 
BRANCH  53  56
ATOM     56  S   UNL A   1      50.405  25.520  26.972  1.00  0.00     0.127 S 
ATOM     57  O   UNL A   1      51.351  25.361  25.871  1.00  0.00    -0.237 OA
ATOM     58  O   UNL A   1      50.711  26.613  27.896  1.00  0.00    -0.237 OA
ATOM     59  O   UNL A   1      49.974  24.290  27.621  1.00  0.00    -0.744 OA
ENDBRANCH  53  56
ENDBRANCH  25  49
BRANCH  37  60
ATOM     60  C   UNL A   1      45.193  32.722  29.965  1.00  0.00     0.023 A 
ATOM     61  C   UNL A   1      45.955  32.670  31.148  1.00  0.00     0.012 A 
ATOM     62  C   UNL A   1      45.251  33.870  29.152  1.00  0.00     0.148 A 
ATOM     63  C   UNL A   1      46.743  33.755  31.531  1.00  0.00     0.002 A 
ATOM     64  C   UNL A   1      46.072  34.929  29.516  1.00  0.00     0.091 A 
ATOM     65  F   UNL A   1      44.500  33.906  28.041  1.00  0.00    -0.205 F 
ATOM     66  C   UNL A   1      46.811  34.879  30.709  1.00  0.00     0.022 A 
BRANCH  64  67
ATOM     67  S   UNL A   1      46.292  36.376  28.472  1.00  0.00     0.127 S 
ATOM     68  O   UNL A   1      47.298  37.131  29.217  1.00  0.00    -0.237 OA
ATOM     69  O   UNL A   1      46.772  35.789  27.221  1.00  0.00    -0.237 OA
ATOM     70  O   UNL A   1      44.980  37.003  28.379  1.00  0.00    -0.744 OA
ENDBRANCH  64  67
ENDBRANCH  37  60
ENDBRANCH  11  12
ENDBRANCH   4   6
ENDBRANCH   1   2
BRANCH   1  71
ATOM     71  C   UNL A   1      34.666  21.551  26.648  1.00  0.00     0.042 C 
BRANCH  71  72
ATOM     72  C   UNL A   1      34.143  22.556  27.659  1.00  0.00     0.118 C 
BRANCH  72  73
ATOM     73  N   UNL A   1      32.691  22.542  27.777  1.00  0.00    -0.352 N 
ATOM     74  C   UNL A   1      31.750  23.230  27.054  1.00  0.00     0.252 C 
ATOM     75  H   UNL A   1      32.333  21.954  28.479  1.00  0.00     0.163 HD
ATOM     76  O   UNL A   1      30.561  23.136  27.342  1.00  0.00    -0.269 OA
BRANCH  74  77
ATOM     77  C   UNL A   1      32.162  24.122  25.955  1.00  0.00     0.052 A 
ATOM     78  C   UNL A   1      32.345  25.461  26.294  1.00  0.00     0.061 A 
ATOM     79  C   UNL A   1      32.356  23.674  24.634  1.00  0.00     0.013 A 
ATOM     80  C   UNL A   1      32.722  26.354  25.309  1.00  0.00     0.130 A 
ATOM     81  C   UNL A   1      32.837  24.635  23.732  1.00  0.00     0.073 A 
ATOM     82  C   UNL A   1      32.121  22.351  24.177  1.00  0.00     0.011 A 
ATOM     83  N   UNL A   1      32.980  25.934  24.054  1.00  0.00    -0.231 NA
ATOM     84  C   UNL A   1      33.188  24.219  22.453  1.00  0.00     0.029 A 
ATOM     85  C   UNL A   1      32.479  21.960  22.891  1.00  0.00     0.001 A 
ATOM     86  C   UNL A   1      33.038  22.894  22.033  1.00  0.00     0.002 A 
BRANCH  80  87
ATOM     87  N   UNL A   1      32.797  27.699  25.590  1.00  0.00    -0.345 N 
ATOM     88  C   UNL A   1      31.614  28.435  26.032  1.00  0.00     0.179 C 
ATOM     89  C   UNL A   1      34.108  28.305  25.807  1.00  0.00     0.179 C 
ATOM     90  C   UNL A   1      31.842  29.048  27.437  1.00  0.00     0.282 C 
ATOM     91  C   UNL A   1      34.223  28.920  27.215  1.00  0.00     0.282 C 
ATOM     92  N   UNL A   1      33.098  29.822  27.552  1.00  0.00    -0.343 N 
ATOM     93  H   UNL A   1      33.206  30.169  28.505  1.00  0.00     0.346 HD
ATOM     94  H   UNL A   1      33.083  30.622  26.918  1.00  0.00     0.346 HD
ENDBRANCH  80  87
ENDBRANCH  74  77
ENDBRANCH  72  73
ENDBRANCH  71  72
ENDBRANCH   1  71
TORSDOF 14
ENDMDL
