MODEL 1
REMARK VINA RESULT:     -11.8      0.000      0.000
REMARK SMILES C[C@@](NC(=O)CSc1ccc(Cl)cc1)(C(=O)NCCCNC(=O)c1ccc(-c2c3nc(c(-c4cccc(S(=O)(=O)[O-])c4F)c4ccc([nH]4)c(-c4cccc(S(=O)(=O)[O-])c4F)c4nc(c(-c5cccc(S(=O)(=O)[O-])c5F)c5ccc2[nH]5)C=C4)C=C3)cc1)C1CC1
REMARK SMILES IDX 18 1 17 2 15 3 16 4 2 6 1 7 3 8 4 9 5 11 6 12 7 13 8 14 9 15
REMARK SMILES IDX 14 16 10 17 13 18 11 19 12 20 87 21 88 22 89 23 19 24 20 25
REMARK SMILES IDX 21 26 22 27 23 29 24 30 25 31 86 32 26 33 85 34 27 35 28 36
REMARK SMILES IDX 29 37 79 38 30 39 84 40 78 41 80 42 31 43 83 44 77 45 76 46
REMARK SMILES IDX 32 48 64 49 44 50 63 51 45 52 48 53 62 54 81 55 46 56 47 57
REMARK SMILES IDX 61 59 82 60 49 61 33 62 34 63 42 64 35 65 37 66 43 67 36 68
REMARK SMILES IDX 38 69 39 70 40 71 41 72 65 73 66 74 74 75 67 76 69 77 75 78
REMARK SMILES IDX 68 79 70 80 71 81 72 82 73 83 50 84 51 85 59 86 52 87 54 88
REMARK SMILES IDX 60 89 53 90 55 91 56 92 57 93 58 94
REMARK H PARENT 17 5 3 10 21 28 80 47 48 58
REMARK Flexibility Score: inf
ROOT
ATOM      1  C   UNL A   1      34.799  24.744  24.905  1.00  0.00     0.117 C 
ENDROOT
BRANCH   1   2
ATOM      2  N   UNL A   1      33.727  25.153  24.030  1.00  0.00    -0.354 N 
ATOM      3  C   UNL A   1      32.512  25.671  24.350  1.00  0.00     0.245 C 
ATOM      4  O   UNL A   1      31.875  26.165  23.410  1.00  0.00    -0.272 OA
ATOM      5  H   UNL A   1      33.900  25.043  23.067  1.00  0.00     0.163 HD
BRANCH   3   6
ATOM      6  C   UNL A   1      31.934  25.657  25.813  1.00  0.00     0.119 C 
ATOM      7  C   UNL A   1      30.378  25.739  25.731  1.00  0.00     0.046 C 
BRANCH   6   8
ATOM      8  N   UNL A   1      32.239  24.444  26.619  1.00  0.00    -0.341 N 
ATOM      9  C   UNL A   1      32.066  23.098  26.509  1.00  0.00     0.231 C 
ATOM     10  H   UNL A   1      32.691  24.679  27.461  1.00  0.00     0.164 HD
ATOM     11  O   UNL A   1      32.716  22.402  27.299  1.00  0.00    -0.274 OA
BRANCH   9  12
ATOM     12  C   UNL A   1      31.159  22.441  25.499  1.00  0.00     0.174 C 
BRANCH  12  13
ATOM     13  S   UNL A   1      31.796  22.219  23.787  1.00  0.00    -0.116 SA
BRANCH  13  14
ATOM     14  C   UNL A   1      32.550  20.599  23.617  1.00  0.00     0.008 A 
ATOM     15  C   UNL A   1      33.325  20.092  24.675  1.00  0.00     0.016 A 
ATOM     16  C   UNL A   1      32.153  19.701  22.625  1.00  0.00     0.016 A 
ATOM     17  C   UNL A   1      33.711  18.751  24.751  1.00  0.00     0.021 A 
ATOM     18  C   UNL A   1      32.527  18.345  22.697  1.00  0.00     0.021 A 
ATOM     19  C   UNL A   1      33.296  17.876  23.763  1.00  0.00     0.041 A 
ATOM     20  Cl  UNL A   1      33.687  16.205  23.888  1.00  0.00    -0.084 Cl
ENDBRANCH  13  14
ENDBRANCH  12  13
ENDBRANCH   9  12
ENDBRANCH   6   8
BRANCH   6  21
ATOM     21  C   UNL A   1      32.344  26.969  26.508  1.00  0.00     0.024 C 
ATOM     22  C   UNL A   1      33.305  27.950  25.867  1.00  0.00     0.007 C 
ATOM     23  C   UNL A   1      31.888  28.362  26.153  1.00  0.00     0.007 C 
ENDBRANCH   6  21
ENDBRANCH   3   6
ENDBRANCH   1   2
BRANCH   1  24
ATOM     24  C   UNL A   1      35.302  23.331  24.661  1.00  0.00     0.042 C 
BRANCH  24  25
ATOM     25  C   UNL A   1      35.847  22.594  25.880  1.00  0.00     0.118 C 
BRANCH  25  26
ATOM     26  N   UNL A   1      36.785  21.514  25.598  1.00  0.00    -0.352 N 
ATOM     27  C   UNL A   1      38.152  21.405  25.752  1.00  0.00     0.251 C 
ATOM     28  H   UNL A   1      36.362  20.707  25.226  1.00  0.00     0.163 HD
ATOM     29  O   UNL A   1      38.727  20.392  25.374  1.00  0.00    -0.269 OA
BRANCH  27  30
ATOM     30  C   UNL A   1      38.947  22.518  26.310  1.00  0.00     0.039 A 
ATOM     31  C   UNL A   1      40.024  22.242  27.164  1.00  0.00     0.014 A 
ATOM     32  C   UNL A   1      38.620  23.837  26.021  1.00  0.00     0.014 A 
ATOM     33  C   UNL A   1      40.811  23.289  27.656  1.00  0.00     0.010 A 
ATOM     34  C   UNL A   1      39.480  24.858  26.388  1.00  0.00     0.010 A 
ATOM     35  C   UNL A   1      40.566  24.605  27.237  1.00  0.00    -0.014 A 
BRANCH  35  36
ATOM     36  C   UNL A   1      41.364  25.771  27.692  1.00  0.00     0.031 A 
ATOM     37  C   UNL A   1      40.682  26.850  28.499  1.00  0.00     0.074 A 
ATOM     38  C   UNL A   1      42.625  25.944  27.253  1.00  0.00     0.049 A 
ATOM     39  N   UNL A   1      41.096  28.054  28.790  1.00  0.00    -0.248 NA
ATOM     40  C   UNL A   1      39.324  26.550  28.990  1.00  0.00     0.031 C 
ATOM     41  C   UNL A   1      43.370  25.004  26.412  1.00  0.00     0.029 A 
ATOM     42  N   UNL A   1      43.486  27.001  27.412  1.00  0.00    -0.354 N 
ATOM     43  C   UNL A   1      40.030  28.673  29.433  1.00  0.00     0.074 A 
ATOM     44  C   UNL A   1      38.936  27.728  29.451  1.00  0.00     0.031 C 
ATOM     45  C   UNL A   1      44.571  25.531  26.121  1.00  0.00     0.029 A 
ATOM     46  C   UNL A   1      44.664  26.860  26.715  1.00  0.00     0.049 A 
ATOM     47  H   UNL A   1      43.281  27.784  27.972  1.00  0.00     0.167 HD
ATOM     48  C   UNL A   1      39.974  29.908  29.985  1.00  0.00     0.034 A 
ATOM     49  C   UNL A   1      45.690  27.717  26.551  1.00  0.00     0.034 A 
ATOM     50  C   UNL A   1      41.088  30.813  30.021  1.00  0.00     0.049 A 
ATOM     51  C   UNL A   1      45.627  29.063  27.222  1.00  0.00     0.074 A 
ATOM     52  C   UNL A   1      41.179  32.042  30.647  1.00  0.00     0.029 A 
ATOM     53  N   UNL A   1      42.309  30.584  29.405  1.00  0.00    -0.354 N 
ATOM     54  N   UNL A   1      44.662  29.581  27.946  1.00  0.00    -0.248 NA
ATOM     55  C   UNL A   1      46.805  29.931  27.082  1.00  0.00     0.031 C 
ATOM     56  C   UNL A   1      42.447  32.571  30.384  1.00  0.00     0.029 A 
ATOM     57  C   UNL A   1      43.157  31.653  29.626  1.00  0.00     0.049 A 
ATOM     58  H   UNL A   1      42.539  29.779  28.886  1.00  0.00     0.167 HD
ATOM     59  C   UNL A   1      45.132  30.816  28.380  1.00  0.00     0.074 A 
ATOM     60  C   UNL A   1      46.475  30.958  27.853  1.00  0.00     0.031 C 
ATOM     61  C   UNL A   1      44.508  31.753  29.135  1.00  0.00     0.034 A 
BRANCH  48  62
ATOM     62  C   UNL A   1      38.681  30.328  30.638  1.00  0.00     0.023 A 
ATOM     63  C   UNL A   1      38.461  30.049  32.003  1.00  0.00     0.012 A 
ATOM     64  C   UNL A   1      37.705  31.041  29.916  1.00  0.00     0.148 A 
ATOM     65  C   UNL A   1      37.273  30.430  32.627  1.00  0.00     0.002 A 
ATOM     66  C   UNL A   1      36.547  31.465  30.557  1.00  0.00     0.091 A 
ATOM     67  F   UNL A   1      37.920  31.280  28.614  1.00  0.00    -0.205 F 
ATOM     68  C   UNL A   1      36.322  31.147  31.907  1.00  0.00     0.022 A 
BRANCH  66  69
ATOM     69  S   UNL A   1      35.297  32.467  29.744  1.00  0.00     0.127 S 
ATOM     70  O   UNL A   1      34.816  31.556  28.706  1.00  0.00    -0.237 OA
ATOM     71  O   UNL A   1      34.347  32.711  30.830  1.00  0.00    -0.237 OA
ATOM     72  O   UNL A   1      35.987  33.655  29.259  1.00  0.00    -0.744 OA
ENDBRANCH  66  69
ENDBRANCH  48  62
BRANCH  49  73
ATOM     73  C   UNL A   1      46.889  27.307  25.767  1.00  0.00     0.023 A 
ATOM     74  C   UNL A   1      47.853  26.474  26.370  1.00  0.00     0.012 A 
ATOM     75  C   UNL A   1      47.070  27.708  24.429  1.00  0.00     0.148 A 
ATOM     76  C   UNL A   1      48.993  26.080  25.667  1.00  0.00     0.002 A 
ATOM     77  C   UNL A   1      48.179  27.264  23.718  1.00  0.00     0.091 A 
ATOM     78  F   UNL A   1      46.145  28.505  23.875  1.00  0.00    -0.205 F 
ATOM     79  C   UNL A   1      49.151  26.466  24.340  1.00  0.00     0.022 A 
BRANCH  77  80
ATOM     80  S   UNL A   1      48.402  27.603  21.967  1.00  0.00     0.127 S 
ATOM     81  O   UNL A   1      49.562  28.490  21.979  1.00  0.00    -0.237 OA
ATOM     82  O   UNL A   1      48.653  26.265  21.431  1.00  0.00    -0.237 OA
ATOM     83  O   UNL A   1      47.152  28.204  21.520  1.00  0.00    -0.744 OA
ENDBRANCH  77  80
ENDBRANCH  49  73
BRANCH  61  84
ATOM     84  C   UNL A   1      45.281  32.999  29.483  1.00  0.00     0.023 A 
ATOM     85  C   UNL A   1      46.068  33.038  30.650  1.00  0.00     0.012 A 
ATOM     86  C   UNL A   1      45.283  34.102  28.607  1.00  0.00     0.148 A 
ATOM     87  C   UNL A   1      46.819  34.171  30.958  1.00  0.00     0.002 A 
ATOM     88  C   UNL A   1      46.076  35.205  28.891  1.00  0.00     0.091 A 
ATOM     89  F   UNL A   1      44.514  34.049  27.509  1.00  0.00    -0.205 F 
ATOM     90  C   UNL A   1      46.833  35.248  30.075  1.00  0.00     0.022 A 
BRANCH  88  91
ATOM     91  S   UNL A   1      46.238  36.594  27.764  1.00  0.00     0.127 S 
ATOM     92  O   UNL A   1      46.747  35.941  26.559  1.00  0.00    -0.237 OA
ATOM     93  O   UNL A   1      44.859  37.072  27.663  1.00  0.00    -0.237 OA
ATOM     94  O   UNL A   1      47.157  37.526  28.403  1.00  0.00    -0.744 OA
ENDBRANCH  88  91
ENDBRANCH  61  84
ENDBRANCH  35  36
ENDBRANCH  27  30
ENDBRANCH  25  26
ENDBRANCH  24  25
ENDBRANCH   1  24
TORSDOF 18
ENDMDL
MODEL 2
REMARK VINA RESULT:     -11.5      2.697      4.567
REMARK SMILES C[C@@](NC(=O)CSc1ccc(Cl)cc1)(C(=O)NCCCNC(=O)c1ccc(-c2c3nc(c(-c4cccc(S(=O)(=O)[O-])c4F)c4ccc([nH]4)c(-c4cccc(S(=O)(=O)[O-])c4F)c4nc(c(-c5cccc(S(=O)(=O)[O-])c5F)c5ccc2[nH]5)C=C4)C=C3)cc1)C1CC1
REMARK SMILES IDX 18 1 17 2 15 3 16 4 2 6 1 7 3 8 4 9 5 11 6 12 7 13 8 14 9 15
REMARK SMILES IDX 14 16 10 17 13 18 11 19 12 20 87 21 88 22 89 23 19 24 20 25
REMARK SMILES IDX 21 26 22 27 23 29 24 30 25 31 86 32 26 33 85 34 27 35 28 36
REMARK SMILES IDX 29 37 79 38 30 39 84 40 78 41 80 42 31 43 83 44 77 45 76 46
REMARK SMILES IDX 32 48 64 49 44 50 63 51 45 52 48 53 62 54 81 55 46 56 47 57
REMARK SMILES IDX 61 59 82 60 49 61 33 62 34 63 42 64 35 65 37 66 43 67 36 68
REMARK SMILES IDX 38 69 39 70 40 71 41 72 65 73 66 74 74 75 67 76 69 77 75 78
REMARK SMILES IDX 68 79 70 80 71 81 72 82 73 83 50 84 51 85 59 86 52 87 54 88
REMARK SMILES IDX 60 89 53 90 55 91 56 92 57 93 58 94
REMARK H PARENT 17 5 3 10 21 28 80 47 48 58
REMARK Flexibility Score: inf
ROOT
ATOM      1  C   UNL A   1      36.761  21.384  24.796  1.00  0.00     0.117 C 
ENDROOT
BRANCH   1   2
ATOM      2  N   UNL A   1      35.981  21.634  25.983  1.00  0.00    -0.354 N 
ATOM      3  C   UNL A   1      34.644  21.485  26.176  1.00  0.00     0.245 C 
ATOM      4  O   UNL A   1      34.263  21.533  27.354  1.00  0.00    -0.272 OA
ATOM      5  H   UNL A   1      36.487  21.957  26.763  1.00  0.00     0.163 HD
BRANCH   3   6
ATOM      6  C   UNL A   1      33.628  21.262  24.996  1.00  0.00     0.119 C 
ATOM      7  C   UNL A   1      32.183  21.495  25.536  1.00  0.00     0.046 C 
BRANCH   6   8
ATOM      8  N   UNL A   1      33.782  22.172  23.828  1.00  0.00    -0.341 N 
ATOM      9  C   UNL A   1      33.913  23.510  23.610  1.00  0.00     0.231 C 
ATOM     10  H   UNL A   1      33.794  21.669  22.983  1.00  0.00     0.164 HD
ATOM     11  O   UNL A   1      34.289  23.839  22.479  1.00  0.00    -0.274 OA
BRANCH   9  12
ATOM     12  C   UNL A   1      33.640  24.567  24.650  1.00  0.00     0.174 C 
BRANCH  12  13
ATOM     13  S   UNL A   1      32.320  25.799  24.299  1.00  0.00    -0.116 SA
BRANCH  13  14
ATOM     14  C   UNL A   1      32.497  27.217  25.387  1.00  0.00     0.008 A 
ATOM     15  C   UNL A   1      33.639  27.315  26.200  1.00  0.00     0.016 A 
ATOM     16  C   UNL A   1      31.715  28.363  25.238  1.00  0.00     0.016 A 
ATOM     17  C   UNL A   1      33.997  28.494  26.858  1.00  0.00     0.021 A 
ATOM     18  C   UNL A   1      32.072  29.561  25.887  1.00  0.00     0.021 A 
ATOM     19  C   UNL A   1      33.214  29.623  26.686  1.00  0.00     0.041 A 
ATOM     20  Cl  UNL A   1      33.689  31.106  27.416  1.00  0.00    -0.084 Cl
ENDBRANCH  13  14
ENDBRANCH  12  13
ENDBRANCH   9  12
ENDBRANCH   6   8
BRANCH   6  21
ATOM     21  C   UNL A   1      33.651  19.771  24.613  1.00  0.00     0.024 C 
ATOM     22  C   UNL A   1      32.888  18.727  25.404  1.00  0.00     0.007 C 
ATOM     23  C   UNL A   1      32.538  18.986  23.966  1.00  0.00     0.007 C 
ENDBRANCH   6  21
ENDBRANCH   3   6
ENDBRANCH   1   2
BRANCH   1  24
ATOM     24  C   UNL A   1      37.777  20.263  24.938  1.00  0.00     0.042 C 
BRANCH  24  25
ATOM     25  C   UNL A   1      38.923  20.518  25.911  1.00  0.00     0.118 C 
BRANCH  25  26
ATOM     26  N   UNL A   1      39.976  19.508  25.924  1.00  0.00    -0.352 N 
ATOM     27  C   UNL A   1      41.338  19.585  26.133  1.00  0.00     0.251 C 
ATOM     28  H   UNL A   1      39.652  18.595  25.751  1.00  0.00     0.163 HD
ATOM     29  O   UNL A   1      42.027  18.579  26.029  1.00  0.00    -0.269 OA
BRANCH  27  30
ATOM     30  C   UNL A   1      41.991  20.879  26.422  1.00  0.00     0.039 A 
ATOM     31  C   UNL A   1      42.274  21.763  25.373  1.00  0.00     0.014 A 
ATOM     32  C   UNL A   1      42.355  21.214  27.720  1.00  0.00     0.014 A 
ATOM     33  C   UNL A   1      42.847  23.010  25.646  1.00  0.00     0.010 A 
ATOM     34  C   UNL A   1      42.786  22.498  28.007  1.00  0.00     0.010 A 
ATOM     35  C   UNL A   1      43.070  23.402  26.974  1.00  0.00    -0.014 A 
BRANCH  35  36
ATOM     36  C   UNL A   1      43.654  24.713  27.354  1.00  0.00     0.031 A 
ATOM     37  C   UNL A   1      42.741  25.791  27.885  1.00  0.00     0.074 A 
ATOM     38  C   UNL A   1      44.941  24.989  27.073  1.00  0.00     0.049 A 
ATOM     39  N   UNL A   1      42.970  27.066  28.046  1.00  0.00    -0.248 NA
ATOM     40  C   UNL A   1      41.363  25.384  28.222  1.00  0.00     0.031 C 
ATOM     41  C   UNL A   1      45.907  24.051  26.496  1.00  0.00     0.029 A 
ATOM     42  N   UNL A   1      45.647  26.161  27.188  1.00  0.00    -0.354 N 
ATOM     43  C   UNL A   1      41.756  27.621  28.433  1.00  0.00     0.074 A 
ATOM     44  C   UNL A   1      40.782  26.553  28.441  1.00  0.00     0.031 C 
ATOM     45  C   UNL A   1      47.074  24.686  26.299  1.00  0.00     0.029 A 
ATOM     46  C   UNL A   1      46.928  26.083  26.691  1.00  0.00     0.049 A 
ATOM     47  H   UNL A   1      45.273  26.978  27.589  1.00  0.00     0.167 HD
ATOM     48  C   UNL A   1      41.479  28.901  28.778  1.00  0.00     0.034 A 
ATOM     49  C   UNL A   1      47.866  27.038  26.544  1.00  0.00     0.034 A 
ATOM     50  C   UNL A   1      42.468  29.940  28.831  1.00  0.00     0.049 A 
ATOM     51  C   UNL A   1      47.552  28.441  26.988  1.00  0.00     0.074 A 
ATOM     52  C   UNL A   1      42.325  31.243  29.270  1.00  0.00     0.029 A 
ATOM     53  N   UNL A   1      43.788  29.793  28.433  1.00  0.00    -0.354 N 
ATOM     54  N   UNL A   1      46.436  28.920  27.483  1.00  0.00    -0.248 NA
ATOM     55  C   UNL A   1      48.635  29.429  26.883  1.00  0.00     0.031 C 
ATOM     56  C   UNL A   1      43.552  31.894  29.109  1.00  0.00     0.029 A 
ATOM     57  C   UNL A   1      44.469  30.984  28.605  1.00  0.00     0.049 A 
ATOM     58  H   UNL A   1      44.182  28.963  28.079  1.00  0.00     0.167 HD
ATOM     59  C   UNL A   1      46.694  30.253  27.787  1.00  0.00     0.074 A 
ATOM     60  C   UNL A   1      48.079  30.498  27.436  1.00  0.00     0.031 C 
ATOM     61  C   UNL A   1      45.860  31.192  28.298  1.00  0.00     0.034 A 
BRANCH  48  62
ATOM     62  C   UNL A   1      40.062  29.232  29.174  1.00  0.00     0.023 A 
ATOM     63  C   UNL A   1      39.115  29.563  28.182  1.00  0.00     0.012 A 
ATOM     64  C   UNL A   1      39.654  29.171  30.521  1.00  0.00     0.148 A 
ATOM     65  C   UNL A   1      37.800  29.872  28.526  1.00  0.00     0.002 A 
ATOM     66  C   UNL A   1      38.329  29.428  30.851  1.00  0.00     0.091 A 
ATOM     67  F   UNL A   1      40.571  28.877  31.454  1.00  0.00    -0.205 F 
ATOM     68  C   UNL A   1      37.404  29.793  29.858  1.00  0.00     0.022 A 
BRANCH  66  69
ATOM     69  S   UNL A   1      37.697  29.272  32.526  1.00  0.00     0.127 S 
ATOM     70  O   UNL A   1      36.313  29.714  32.362  1.00  0.00    -0.237 OA
ATOM     71  O   UNL A   1      37.854  27.839  32.779  1.00  0.00    -0.237 OA
ATOM     72  O   UNL A   1      38.532  30.132  33.353  1.00  0.00    -0.744 OA
ENDBRANCH  66  69
ENDBRANCH  48  62
BRANCH  49  73
ATOM     73  C   UNL A   1      49.211  26.686  26.005  1.00  0.00     0.023 A 
ATOM     74  C   UNL A   1      50.077  25.891  26.782  1.00  0.00     0.012 A 
ATOM     75  C   UNL A   1      49.628  27.107  24.728  1.00  0.00     0.148 A 
ATOM     76  C   UNL A   1      51.347  25.552  26.313  1.00  0.00     0.002 A 
ATOM     77  C   UNL A   1      50.872  26.719  24.243  1.00  0.00     0.091 A 
ATOM     78  F   UNL A   1      48.794  27.869  24.007  1.00  0.00    -0.205 F 
ATOM     79  C   UNL A   1      51.740  25.958  25.041  1.00  0.00     0.022 A 
BRANCH  77  80
ATOM     80  S   UNL A   1      51.413  27.083  22.569  1.00  0.00     0.127 S 
ATOM     81  O   UNL A   1      52.631  26.282  22.467  1.00  0.00    -0.237 OA
ATOM     82  O   UNL A   1      50.285  26.595  21.775  1.00  0.00    -0.237 OA
ATOM     83  O   UNL A   1      51.602  28.527  22.521  1.00  0.00    -0.744 OA
ENDBRANCH  77  80
ENDBRANCH  49  73
BRANCH  61  84
ATOM     84  C   UNL A   1      46.429  32.564  28.556  1.00  0.00     0.023 A 
ATOM     85  C   UNL A   1      46.957  32.881  29.822  1.00  0.00     0.012 A 
ATOM     86  C   UNL A   1      46.506  33.510  27.515  1.00  0.00     0.148 A 
ATOM     87  C   UNL A   1      47.522  34.134  30.059  1.00  0.00     0.002 A 
ATOM     88  C   UNL A   1      47.120  34.734  27.742  1.00  0.00     0.091 A 
ATOM     89  F   UNL A   1      45.984  33.192  26.322  1.00  0.00    -0.205 F 
ATOM     90  C   UNL A   1      47.614  35.054  29.018  1.00  0.00     0.022 A 
BRANCH  88  91
ATOM     91  S   UNL A   1      47.377  35.941  26.437  1.00  0.00     0.127 S 
ATOM     92  O   UNL A   1      47.995  35.124  25.394  1.00  0.00    -0.237 OA
ATOM     93  O   UNL A   1      46.010  36.374  26.144  1.00  0.00    -0.237 OA
ATOM     94  O   UNL A   1      48.230  36.974  27.008  1.00  0.00    -0.744 OA
ENDBRANCH  88  91
ENDBRANCH  61  84
ENDBRANCH  35  36
ENDBRANCH  27  30
ENDBRANCH  25  26
ENDBRANCH  24  25
ENDBRANCH   1  24
TORSDOF 18
ENDMDL
MODEL 3
REMARK VINA RESULT:     -11.4      2.751      8.461
REMARK SMILES C[C@@](NC(=O)CSc1ccc(Cl)cc1)(C(=O)NCCCNC(=O)c1ccc(-c2c3nc(c(-c4cccc(S(=O)(=O)[O-])c4F)c4ccc([nH]4)c(-c4cccc(S(=O)(=O)[O-])c4F)c4nc(c(-c5cccc(S(=O)(=O)[O-])c5F)c5ccc2[nH]5)C=C4)C=C3)cc1)C1CC1
REMARK SMILES IDX 18 1 17 2 15 3 16 4 2 6 1 7 3 8 4 9 5 11 6 12 7 13 8 14 9 15
REMARK SMILES IDX 14 16 10 17 13 18 11 19 12 20 87 21 88 22 89 23 19 24 20 25
REMARK SMILES IDX 21 26 22 27 23 29 24 30 25 31 86 32 26 33 85 34 27 35 28 36
REMARK SMILES IDX 29 37 79 38 30 39 84 40 78 41 80 42 31 43 83 44 77 45 76 46
REMARK SMILES IDX 32 48 64 49 44 50 63 51 45 52 48 53 62 54 81 55 46 56 47 57
REMARK SMILES IDX 61 59 82 60 49 61 33 62 34 63 42 64 35 65 37 66 43 67 36 68
REMARK SMILES IDX 38 69 39 70 40 71 41 72 65 73 66 74 74 75 67 76 69 77 75 78
REMARK SMILES IDX 68 79 70 80 71 81 72 82 73 83 50 84 51 85 59 86 52 87 54 88
REMARK SMILES IDX 60 89 53 90 55 91 56 92 57 93 58 94
REMARK H PARENT 17 5 3 10 21 28 80 47 48 58
REMARK Flexibility Score: inf
ROOT
ATOM      1  C   UNL A   1      34.931  24.352  25.364  1.00  0.00     0.117 C 
ENDROOT
BRANCH   1   2
ATOM      2  N   UNL A   1      33.897  24.261  26.367  1.00  0.00    -0.354 N 
ATOM      3  C   UNL A   1      32.916  23.332  26.503  1.00  0.00     0.245 C 
ATOM      4  O   UNL A   1      32.311  23.344  27.583  1.00  0.00    -0.272 OA
ATOM      5  H   UNL A   1      33.905  24.972  27.048  1.00  0.00     0.163 HD
BRANCH   3   6
ATOM      6  C   UNL A   1      32.555  22.296  25.375  1.00  0.00     0.119 C 
ATOM      7  C   UNL A   1      31.071  21.856  25.562  1.00  0.00     0.046 C 
BRANCH   6   8
ATOM      8  N   UNL A   1      32.662  22.797  23.978  1.00  0.00    -0.341 N 
ATOM      9  C   UNL A   1      32.015  23.692  23.181  1.00  0.00     0.231 C 
ATOM     10  H   UNL A   1      33.405  22.364  23.498  1.00  0.00     0.164 HD
ATOM     11  O   UNL A   1      32.599  24.010  22.138  1.00  0.00    -0.274 OA
BRANCH   9  12
ATOM     12  C   UNL A   1      30.673  24.298  23.506  1.00  0.00     0.174 C 
BRANCH  12  13
ATOM     13  S   UNL A   1      30.563  26.130  23.631  1.00  0.00    -0.116 SA
BRANCH  13  14
ATOM     14  C   UNL A   1      31.756  26.736  24.828  1.00  0.00     0.008 A 
ATOM     15  C   UNL A   1      32.973  27.270  24.370  1.00  0.00     0.016 A 
ATOM     16  C   UNL A   1      31.408  26.983  26.157  1.00  0.00     0.016 A 
ATOM     17  C   UNL A   1      33.828  28.011  25.190  1.00  0.00     0.021 A 
ATOM     18  C   UNL A   1      32.256  27.737  26.990  1.00  0.00     0.021 A 
ATOM     19  C   UNL A   1      33.457  28.254  26.501  1.00  0.00     0.041 A 
ATOM     20  Cl  UNL A   1      34.454  29.239  27.498  1.00  0.00    -0.084 Cl
ENDBRANCH  13  14
ENDBRANCH  12  13
ENDBRANCH   9  12
ENDBRANCH   6   8
BRANCH   6  21
ATOM     21  C   UNL A   1      33.363  21.009  25.624  1.00  0.00     0.024 C 
ATOM     22  C   UNL A   1      33.437  19.896  24.598  1.00  0.00     0.007 C 
ATOM     23  C   UNL A   1      34.683  20.634  24.998  1.00  0.00     0.007 C 
ENDBRANCH   6  21
ENDBRANCH   3   6
ENDBRANCH   1   2
BRANCH   1  24
ATOM     24  C   UNL A   1      36.332  24.069  25.880  1.00  0.00     0.042 C 
BRANCH  24  25
ATOM     25  C   UNL A   1      37.241  23.274  24.949  1.00  0.00     0.118 C 
BRANCH  25  26
ATOM     26  N   UNL A   1      38.206  22.399  25.604  1.00  0.00    -0.352 N 
ATOM     27  C   UNL A   1      39.244  22.647  26.479  1.00  0.00     0.251 C 
ATOM     28  H   UNL A   1      38.095  21.447  25.380  1.00  0.00     0.163 HD
ATOM     29  O   UNL A   1      39.963  21.727  26.846  1.00  0.00    -0.269 OA
BRANCH  27  30
ATOM     30  C   UNL A   1      39.544  24.020  26.935  1.00  0.00     0.039 A 
ATOM     31  C   UNL A   1      39.293  24.379  28.266  1.00  0.00     0.014 A 
ATOM     32  C   UNL A   1      40.044  24.967  26.050  1.00  0.00     0.014 A 
ATOM     33  C   UNL A   1      39.622  25.663  28.716  1.00  0.00     0.010 A 
ATOM     34  C   UNL A   1      40.501  26.184  26.526  1.00  0.00     0.010 A 
ATOM     35  C   UNL A   1      40.267  26.563  27.856  1.00  0.00    -0.014 A 
BRANCH  35  36
ATOM     36  C   UNL A   1      40.668  27.935  28.256  1.00  0.00     0.031 A 
ATOM     37  C   UNL A   1      42.136  28.251  28.402  1.00  0.00     0.074 A 
ATOM     38  C   UNL A   1      39.738  28.827  28.644  1.00  0.00     0.049 A 
ATOM     39  N   UNL A   1      42.711  29.279  28.966  1.00  0.00    -0.248 NA
ATOM     40  C   UNL A   1      43.084  27.240  27.896  1.00  0.00     0.031 C 
ATOM     41  C   UNL A   1      38.289  28.615  28.614  1.00  0.00     0.029 A 
ATOM     42  N   UNL A   1      39.878  30.079  29.190  1.00  0.00    -0.354 N 
ATOM     43  C   UNL A   1      44.074  29.007  28.945  1.00  0.00     0.074 A 
ATOM     44  C   UNL A   1      44.239  27.699  28.351  1.00  0.00     0.031 C 
ATOM     45  C   UNL A   1      37.675  29.693  29.128  1.00  0.00     0.029 A 
ATOM     46  C   UNL A   1      38.684  30.652  29.565  1.00  0.00     0.049 A 
ATOM     47  H   UNL A   1      40.748  30.524  29.303  1.00  0.00     0.167 HD
ATOM     48  C   UNL A   1      45.102  29.787  29.356  1.00  0.00     0.034 A 
ATOM     49  C   UNL A   1      38.435  31.807  30.212  1.00  0.00     0.034 A 
ATOM     50  C   UNL A   1      44.932  31.112  29.882  1.00  0.00     0.049 A 
ATOM     51  C   UNL A   1      39.593  32.682  30.610  1.00  0.00     0.074 A 
ATOM     52  C   UNL A   1      45.904  32.031  30.229  1.00  0.00     0.029 A 
ATOM     53  N   UNL A   1      43.705  31.706  30.137  1.00  0.00    -0.354 N 
ATOM     54  N   UNL A   1      40.879  32.471  30.456  1.00  0.00    -0.248 NA
ATOM     55  C   UNL A   1      39.268  33.970  31.239  1.00  0.00     0.031 C 
ATOM     56  C   UNL A   1      45.265  33.174  30.721  1.00  0.00     0.029 A 
ATOM     57  C   UNL A   1      43.894  32.978  30.646  1.00  0.00     0.049 A 
ATOM     58  H   UNL A   1      42.829  31.286  29.979  1.00  0.00     0.167 HD
ATOM     59  C   UNL A   1      41.513  33.613  30.932  1.00  0.00     0.074 A 
ATOM     60  C   UNL A   1      40.468  34.521  31.361  1.00  0.00     0.031 C 
ATOM     61  C   UNL A   1      42.839  33.885  31.019  1.00  0.00     0.034 A 
BRANCH  48  62
ATOM     62  C   UNL A   1      46.501  29.244  29.205  1.00  0.00     0.023 A 
ATOM     63  C   UNL A   1      47.132  28.614  30.299  1.00  0.00     0.012 A 
ATOM     64  C   UNL A   1      47.175  29.315  27.970  1.00  0.00     0.148 A 
ATOM     65  C   UNL A   1      48.425  28.106  30.181  1.00  0.00     0.002 A 
ATOM     66  C   UNL A   1      48.442  28.758  27.844  1.00  0.00     0.091 A 
ATOM     67  F   UNL A   1      46.570  29.935  26.947  1.00  0.00    -0.205 F 
ATOM     68  C   UNL A   1      49.074  28.167  28.951  1.00  0.00     0.022 A 
BRANCH  66  69
ATOM     69  S   UNL A   1      49.331  28.709  26.284  1.00  0.00     0.127 S 
ATOM     70  O   UNL A   1      49.768  30.097  26.149  1.00  0.00    -0.237 OA
ATOM     71  O   UNL A   1      50.403  27.756  26.574  1.00  0.00    -0.237 OA
ATOM     72  O   UNL A   1      48.369  28.258  25.287  1.00  0.00    -0.744 OA
ENDBRANCH  66  69
ENDBRANCH  48  62
BRANCH  49  73
ATOM     73  C   UNL A   1      37.029  32.230  30.472  1.00  0.00     0.023 A 
ATOM     74  C   UNL A   1      36.487  32.060  31.761  1.00  0.00     0.012 A 
ATOM     75  C   UNL A   1      36.239  32.820  29.467  1.00  0.00     0.148 A 
ATOM     76  C   UNL A   1      35.171  32.435  32.035  1.00  0.00     0.002 A 
ATOM     77  C   UNL A   1      34.948  33.244  29.763  1.00  0.00     0.091 A 
ATOM     78  F   UNL A   1      36.770  32.967  28.245  1.00  0.00    -0.205 F 
ATOM     79  C   UNL A   1      34.405  33.035  31.040  1.00  0.00     0.022 A 
BRANCH  77  80
ATOM     80  S   UNL A   1      33.933  34.144  28.584  1.00  0.00     0.127 S 
ATOM     81  O   UNL A   1      33.603  33.101  27.616  1.00  0.00    -0.237 OA
ATOM     82  O   UNL A   1      32.818  34.585  29.421  1.00  0.00    -0.237 OA
ATOM     83  O   UNL A   1      34.774  35.224  28.084  1.00  0.00    -0.744 OA
ENDBRANCH  77  80
ENDBRANCH  49  73
BRANCH  61  84
ATOM     84  C   UNL A   1      43.242  35.234  31.554  1.00  0.00     0.023 A 
ATOM     85  C   UNL A   1      43.500  35.399  32.929  1.00  0.00     0.012 A 
ATOM     86  C   UNL A   1      43.437  36.319  30.677  1.00  0.00     0.148 A 
ATOM     87  C   UNL A   1      43.914  36.633  33.427  1.00  0.00     0.002 A 
ATOM     88  C   UNL A   1      43.901  37.530  31.172  1.00  0.00     0.091 A 
ATOM     89  F   UNL A   1      43.170  36.143  29.374  1.00  0.00    -0.205 F 
ATOM     90  C   UNL A   1      44.126  37.694  32.549  1.00  0.00     0.022 A 
BRANCH  88  91
ATOM     91  S   UNL A   1      44.301  38.918  30.105  1.00  0.00     0.127 S 
ATOM     92  O   UNL A   1      44.813  39.894  31.066  1.00  0.00    -0.237 OA
ATOM     93  O   UNL A   1      45.314  38.344  29.219  1.00  0.00    -0.237 OA
ATOM     94  O   UNL A   1      43.058  39.288  29.444  1.00  0.00    -0.744 OA
ENDBRANCH  88  91
ENDBRANCH  61  84
ENDBRANCH  35  36
ENDBRANCH  27  30
ENDBRANCH  25  26
ENDBRANCH  24  25
ENDBRANCH   1  24
TORSDOF 18
ENDMDL
