MODEL 1
REMARK VINA RESULT:     -13.0      0.000      0.000
REMARK SMILES Cc1cc(C(=O)NCCCNC(=O)c2ccc(-c3c4nc(c(-c5cccc(S(=O)(=O)[O-])c5F)c5ccc([nH]5)c(-c5cccc(S(=O)(=O)[O-])c5F)c5nc(c(-c6cccc(S(=O)(=O)[O-])c6F)c6ccc3[nH]6)C=C5)C=C4)cc2)ccc1NS(=O)(=O)c1ccc(C#N)cc1C
REMARK SMILES IDX 8 1 7 2 5 3 6 4 4 6 1 7 2 8 3 9 79 10 78 11 77 12 80 13
REMARK SMILES IDX 81 15 82 16 83 17 84 18 85 19 91 20 86 21 90 22 92 23 87 24
REMARK SMILES IDX 88 25 89 26 9 27 10 28 11 29 12 30 13 32 14 33 15 34 76 35
REMARK SMILES IDX 16 36 75 37 17 38 18 39 19 40 69 41 20 42 74 43 68 44 70 45
REMARK SMILES IDX 21 46 73 47 67 48 66 49 22 51 54 52 34 53 53 54 35 55 38 56
REMARK SMILES IDX 52 57 71 58 36 59 37 60 51 62 72 63 39 64 23 65 24 66 32 67
REMARK SMILES IDX 25 68 27 69 33 70 26 71 28 72 29 73 30 74 31 75 55 76 56 77
REMARK SMILES IDX 64 78 57 79 59 80 65 81 58 82 60 83 61 84 62 85 63 86 40 87
REMARK SMILES IDX 41 88 49 89 42 90 44 91 50 92 43 93 45 94 46 95 47 96 48 97
REMARK H PARENT 7 5 80 14 11 31 70 50 38 61
REMARK Flexibility Score: inf
ROOT
ATOM      1  C   UNL A   1      37.320  23.176  25.992  1.00  0.00     0.118 C 
ENDROOT
BRANCH   1   2
ATOM      2  N   UNL A   1      37.396  23.135  24.536  1.00  0.00    -0.352 N 
ATOM      3  C   UNL A   1      36.436  22.830  23.592  1.00  0.00     0.251 C 
ATOM      4  O   UNL A   1      36.651  23.100  22.413  1.00  0.00    -0.269 OA
ATOM      5  H   UNL A   1      38.278  23.363  24.164  1.00  0.00     0.163 HD
BRANCH   3   6
ATOM      6  C   UNL A   1      35.112  22.256  23.967  1.00  0.00     0.040 A 
ATOM      7  C   UNL A   1      31.501  22.649  22.915  1.00  0.00     0.046 C 
ATOM      8  C   UNL A   1      32.685  22.344  23.790  1.00  0.00    -0.026 A 
ATOM      9  C   UNL A   1      33.962  22.725  23.331  1.00  0.00     0.019 A 
ATOM     10  C   UNL A   1      32.584  21.573  24.962  1.00  0.00     0.052 A 
ATOM     11  C   UNL A   1      33.701  20.871  25.376  1.00  0.00     0.028 A 
ATOM     12  C   UNL A   1      34.953  21.213  24.871  1.00  0.00     0.016 A 
BRANCH  10  13
ATOM     13  N   UNL A   1      31.539  21.882  25.887  1.00  0.00    -0.279 N 
ATOM     14  H   UNL A   1      30.793  21.240  25.929  1.00  0.00     0.180 HD
BRANCH  13  15
ATOM     15  S   UNL A   1      31.433  23.208  26.906  1.00  0.00     0.262 S 
ATOM     16  O   UNL A   1      30.212  22.993  27.658  1.00  0.00    -0.201 OA
ATOM     17  O   UNL A   1      32.709  23.336  27.578  1.00  0.00    -0.201 OA
BRANCH  15  18
ATOM     18  C   UNL A   1      31.175  24.736  25.982  1.00  0.00     0.090 A 
ATOM     19  C   UNL A   1      29.893  25.200  25.669  1.00  0.00     0.024 A 
ATOM     20  C   UNL A   1      32.297  25.386  25.415  1.00  0.00    -0.029 A 
ATOM     21  C   UNL A   1      29.716  26.178  24.678  1.00  0.00     0.021 A 
ATOM     22  C   UNL A   1      32.097  26.358  24.414  1.00  0.00     0.024 A 
ATOM     23  C   UNL A   1      33.714  25.191  25.882  1.00  0.00     0.046 C 
ATOM     24  C   UNL A   1      30.814  26.719  24.010  1.00  0.00     0.052 A 
BRANCH  24  25
ATOM     25  C   UNL A   1      30.642  27.649  22.926  1.00  0.00     0.099 C 
ATOM     26  N   UNL A   1      30.504  28.373  22.042  1.00  0.00    -0.192 NA
ENDBRANCH  24  25
ENDBRANCH  15  18
ENDBRANCH  13  15
ENDBRANCH  10  13
ENDBRANCH   3   6
ENDBRANCH   1   2
BRANCH   1  27
ATOM     27  C   UNL A   1      38.266  24.199  26.600  1.00  0.00     0.042 C 
BRANCH  27  28
ATOM     28  C   UNL A   1      39.534  23.644  27.200  1.00  0.00     0.118 C 
BRANCH  28  29
ATOM     29  N   UNL A   1      39.814  22.259  26.883  1.00  0.00    -0.352 N 
ATOM     30  C   UNL A   1      41.053  21.656  26.696  1.00  0.00     0.251 C 
ATOM     31  H   UNL A   1      39.029  21.672  26.790  1.00  0.00     0.163 HD
ATOM     32  O   UNL A   1      41.094  20.506  26.270  1.00  0.00    -0.269 OA
BRANCH  30  33
ATOM     33  C   UNL A   1      42.294  22.338  27.171  1.00  0.00     0.039 A 
ATOM     34  C   UNL A   1      42.386  22.441  28.558  1.00  0.00     0.014 A 
ATOM     35  C   UNL A   1      42.922  23.289  26.380  1.00  0.00     0.014 A 
ATOM     36  C   UNL A   1      42.647  23.682  29.107  1.00  0.00     0.010 A 
ATOM     37  C   UNL A   1      43.029  24.559  26.891  1.00  0.00     0.010 A 
ATOM     38  C   UNL A   1      42.770  24.760  28.245  1.00  0.00    -0.014 A 
BRANCH  38  39
ATOM     39  C   UNL A   1      42.921  26.124  28.685  1.00  0.00     0.031 A 
ATOM     40  C   UNL A   1      41.700  26.930  28.595  1.00  0.00     0.074 A 
ATOM     41  C   UNL A   1      44.064  26.500  29.300  1.00  0.00     0.049 A 
ATOM     42  N   UNL A   1      41.677  28.208  28.647  1.00  0.00    -0.248 NA
ATOM     43  C   UNL A   1      40.384  26.336  28.345  1.00  0.00     0.031 C 
ATOM     44  C   UNL A   1      44.282  27.597  30.231  1.00  0.00     0.029 A 
ATOM     45  N   UNL A   1      45.341  25.981  29.112  1.00  0.00    -0.354 N 
ATOM     46  C   UNL A   1      40.354  28.565  28.802  1.00  0.00     0.074 A 
ATOM     47  C   UNL A   1      39.599  27.412  28.403  1.00  0.00     0.031 C 
ATOM     48  C   UNL A   1      45.605  27.811  30.366  1.00  0.00     0.029 A 
ATOM     49  C   UNL A   1      46.285  26.988  29.383  1.00  0.00     0.049 A 
ATOM     50  H   UNL A   1      45.549  25.059  28.834  1.00  0.00     0.167 HD
ATOM     51  C   UNL A   1      40.095  29.721  29.468  1.00  0.00     0.034 A 
ATOM     52  C   UNL A   1      47.095  27.468  28.380  1.00  0.00     0.034 A 
ATOM     53  C   UNL A   1      41.373  30.426  29.722  1.00  0.00     0.049 A 
ATOM     54  C   UNL A   1      46.690  28.874  27.943  1.00  0.00     0.074 A 
ATOM     55  C   UNL A   1      42.214  30.505  30.822  1.00  0.00     0.029 A 
ATOM     56  N   UNL A   1      42.148  30.810  28.631  1.00  0.00    -0.354 N 
ATOM     57  N   UNL A   1      45.706  29.558  28.459  1.00  0.00    -0.248 NA
ATOM     58  C   UNL A   1      47.316  29.567  26.823  1.00  0.00     0.031 C 
ATOM     59  C   UNL A   1      43.512  30.900  30.363  1.00  0.00     0.029 A 
ATOM     60  C   UNL A   1      43.457  31.102  28.995  1.00  0.00     0.049 A 
ATOM     61  H   UNL A   1      41.808  30.868  27.709  1.00  0.00     0.167 HD
ATOM     62  C   UNL A   1      45.454  30.670  27.699  1.00  0.00     0.074 A 
ATOM     63  C   UNL A   1      46.491  30.614  26.673  1.00  0.00     0.031 C 
ATOM     64  C   UNL A   1      44.402  31.517  27.953  1.00  0.00     0.034 A 
BRANCH  51  65
ATOM     65  C   UNL A   1      38.776  30.081  30.147  1.00  0.00     0.023 A 
ATOM     66  C   UNL A   1      38.416  29.287  31.257  1.00  0.00     0.012 A 
ATOM     67  C   UNL A   1      37.829  31.076  29.778  1.00  0.00     0.148 A 
ATOM     68  C   UNL A   1      37.193  29.424  31.926  1.00  0.00     0.002 A 
ATOM     69  C   UNL A   1      36.603  31.215  30.445  1.00  0.00     0.091 A 
ATOM     70  F   UNL A   1      38.089  31.925  28.786  1.00  0.00    -0.205 F 
ATOM     71  C   UNL A   1      36.281  30.382  31.515  1.00  0.00     0.022 A 
BRANCH  69  72
ATOM     72  S   UNL A   1      35.355  32.439  29.982  1.00  0.00     0.127 S 
ATOM     73  O   UNL A   1      34.795  31.857  28.759  1.00  0.00    -0.237 OA
ATOM     74  O   UNL A   1      34.451  32.413  31.131  1.00  0.00    -0.237 OA
ATOM     75  O   UNL A   1      36.058  33.699  29.781  1.00  0.00    -0.744 OA
ENDBRANCH  69  72
ENDBRANCH  51  65
BRANCH  52  76
ATOM     76  C   UNL A   1      47.525  26.380  27.425  1.00  0.00     0.023 A 
ATOM     77  C   UNL A   1      46.657  26.163  26.328  1.00  0.00     0.012 A 
ATOM     78  C   UNL A   1      48.893  26.146  27.249  1.00  0.00     0.148 A 
ATOM     79  C   UNL A   1      47.182  26.180  25.034  1.00  0.00     0.002 A 
ATOM     80  C   UNL A   1      49.410  26.110  25.964  1.00  0.00     0.091 A 
ATOM     81  F   UNL A   1      49.692  26.033  28.318  1.00  0.00    -0.205 F 
ATOM     82  C   UNL A   1      48.565  26.239  24.853  1.00  0.00     0.022 A 
BRANCH  80  83
ATOM     83  S   UNL A   1      51.184  25.993  25.771  1.00  0.00     0.127 S 
ATOM     84  O   UNL A   1      51.345  26.156  24.329  1.00  0.00    -0.237 OA
ATOM     85  O   UNL A   1      51.680  27.117  26.561  1.00  0.00    -0.237 OA
ATOM     86  O   UNL A   1      51.505  24.679  26.311  1.00  0.00    -0.744 OA
ENDBRANCH  80  83
ENDBRANCH  52  76
BRANCH  64  87
ATOM     87  C   UNL A   1      44.133  32.818  27.201  1.00  0.00     0.023 A 
ATOM     88  C   UNL A   1      44.095  32.881  25.798  1.00  0.00     0.012 A 
ATOM     89  C   UNL A   1      43.991  34.064  27.871  1.00  0.00     0.148 A 
ATOM     90  C   UNL A   1      43.746  34.046  25.107  1.00  0.00     0.002 A 
ATOM     91  C   UNL A   1      43.662  35.229  27.190  1.00  0.00     0.091 A 
ATOM     92  F   UNL A   1      44.258  34.163  29.176  1.00  0.00    -0.205 F 
ATOM     93  C   UNL A   1      43.498  35.215  25.806  1.00  0.00     0.022 A 
BRANCH  91  94
ATOM     94  S   UNL A   1      43.482  36.808  28.028  1.00  0.00     0.127 S 
ATOM     95  O   UNL A   1      43.250  37.709  26.899  1.00  0.00    -0.237 OA
ATOM     96  O   UNL A   1      42.310  36.568  28.870  1.00  0.00    -0.237 OA
ATOM     97  O   UNL A   1      44.721  37.034  28.758  1.00  0.00    -0.744 OA
ENDBRANCH  91  94
ENDBRANCH  64  87
ENDBRANCH  38  39
ENDBRANCH  30  33
ENDBRANCH  28  29
ENDBRANCH  27  28
ENDBRANCH   1  27
TORSDOF 17
ENDMDL
MODEL 2
REMARK VINA RESULT:     -12.9      4.776     10.224
REMARK SMILES Cc1cc(C(=O)NCCCNC(=O)c2ccc(-c3c4nc(c(-c5cccc(S(=O)(=O)[O-])c5F)c5ccc([nH]5)c(-c5cccc(S(=O)(=O)[O-])c5F)c5nc(c(-c6cccc(S(=O)(=O)[O-])c6F)c6ccc3[nH]6)C=C5)C=C4)cc2)ccc1NS(=O)(=O)c1ccc(C#N)cc1C
REMARK SMILES IDX 8 1 7 2 5 3 6 4 4 6 1 7 2 8 3 9 79 10 78 11 77 12 80 13
REMARK SMILES IDX 81 15 82 16 83 17 84 18 85 19 91 20 86 21 90 22 92 23 87 24
REMARK SMILES IDX 88 25 89 26 9 27 10 28 11 29 12 30 13 32 14 33 15 34 76 35
REMARK SMILES IDX 16 36 75 37 17 38 18 39 19 40 69 41 20 42 74 43 68 44 70 45
REMARK SMILES IDX 21 46 73 47 67 48 66 49 22 51 54 52 34 53 53 54 35 55 38 56
REMARK SMILES IDX 52 57 71 58 36 59 37 60 51 62 72 63 39 64 23 65 24 66 32 67
REMARK SMILES IDX 25 68 27 69 33 70 26 71 28 72 29 73 30 74 31 75 55 76 56 77
REMARK SMILES IDX 64 78 57 79 59 80 65 81 58 82 60 83 61 84 62 85 63 86 40 87
REMARK SMILES IDX 41 88 49 89 42 90 44 91 50 92 43 93 45 94 46 95 47 96 48 97
REMARK H PARENT 7 5 80 14 11 31 70 50 38 61
REMARK Flexibility Score: inf
ROOT
ATOM      1  C   UNL A   1      34.114  29.373  26.761  1.00  0.00     0.118 C 
ENDROOT
BRANCH   1   2
ATOM      2  N   UNL A   1      32.998  28.968  27.609  1.00  0.00    -0.352 N 
ATOM      3  C   UNL A   1      31.817  28.325  27.298  1.00  0.00     0.251 C 
ATOM      4  O   UNL A   1      31.132  27.861  28.207  1.00  0.00    -0.269 OA
ATOM      5  H   UNL A   1      33.105  29.190  28.563  1.00  0.00     0.163 HD
BRANCH   3   6
ATOM      6  C   UNL A   1      31.383  28.104  25.889  1.00  0.00     0.040 A 
ATOM      7  C   UNL A   1      29.783  25.342  23.862  1.00  0.00     0.046 C 
ATOM      8  C   UNL A   1      30.605  26.562  24.174  1.00  0.00    -0.026 A 
ATOM      9  C   UNL A   1      30.848  26.868  25.528  1.00  0.00     0.019 A 
ATOM     10  C   UNL A   1      31.010  27.477  23.185  1.00  0.00     0.052 A 
ATOM     11  C   UNL A   1      31.230  28.788  23.565  1.00  0.00     0.028 A 
ATOM     12  C   UNL A   1      31.408  29.091  24.912  1.00  0.00     0.016 A 
BRANCH  10  13
ATOM     13  N   UNL A   1      31.591  26.963  21.984  1.00  0.00    -0.279 N 
ATOM     14  H   UNL A   1      31.030  27.009  21.177  1.00  0.00     0.180 HD
BRANCH  13  15
ATOM     15  S   UNL A   1      33.114  26.290  21.791  1.00  0.00     0.262 S 
ATOM     16  O   UNL A   1      33.228  26.050  20.366  1.00  0.00    -0.201 OA
ATOM     17  O   UNL A   1      34.054  27.151  22.479  1.00  0.00    -0.201 OA
BRANCH  15  18
ATOM     18  C   UNL A   1      33.226  24.667  22.571  1.00  0.00     0.090 A 
ATOM     19  C   UNL A   1      32.906  23.494  21.879  1.00  0.00     0.024 A 
ATOM     20  C   UNL A   1      33.477  24.596  23.961  1.00  0.00    -0.029 A 
ATOM     21  C   UNL A   1      32.668  22.301  22.580  1.00  0.00     0.021 A 
ATOM     22  C   UNL A   1      33.222  23.391  24.648  1.00  0.00     0.024 A 
ATOM     23  C   UNL A   1      34.109  25.700  24.765  1.00  0.00     0.046 C 
ATOM     24  C   UNL A   1      32.773  22.261  23.970  1.00  0.00     0.052 A 
BRANCH  24  25
ATOM     25  C   UNL A   1      32.437  21.073  24.707  1.00  0.00     0.099 C 
ATOM     26  N   UNL A   1      32.166  20.108  25.276  1.00  0.00    -0.192 NA
ENDBRANCH  24  25
ENDBRANCH  15  18
ENDBRANCH  13  15
ENDBRANCH  10  13
ENDBRANCH   3   6
ENDBRANCH   1   2
BRANCH   1  27
ATOM     27  C   UNL A   1      35.448  29.337  27.489  1.00  0.00     0.042 C 
BRANCH  27  28
ATOM     28  C   UNL A   1      35.935  30.657  28.029  1.00  0.00     0.118 C 
BRANCH  28  29
ATOM     29  N   UNL A   1      35.041  31.777  27.827  1.00  0.00    -0.352 N 
ATOM     30  C   UNL A   1      34.937  32.940  28.583  1.00  0.00     0.251 C 
ATOM     31  H   UNL A   1      34.430  31.707  27.058  1.00  0.00     0.163 HD
ATOM     32  O   UNL A   1      34.008  33.710  28.363  1.00  0.00    -0.269 OA
BRANCH  30  33
ATOM     33  C   UNL A   1      36.038  33.321  29.520  1.00  0.00     0.039 A 
ATOM     34  C   UNL A   1      37.182  33.797  28.883  1.00  0.00     0.014 A 
ATOM     35  C   UNL A   1      36.161  32.695  30.753  1.00  0.00     0.014 A 
ATOM     36  C   UNL A   1      38.399  33.230  29.212  1.00  0.00     0.010 A 
ATOM     37  C   UNL A   1      37.323  32.006  30.993  1.00  0.00     0.010 A 
ATOM     38  C   UNL A   1      38.405  32.197  30.136  1.00  0.00    -0.014 A 
BRANCH  38  39
ATOM     39  C   UNL A   1      39.580  31.438  30.480  1.00  0.00     0.031 A 
ATOM     40  C   UNL A   1      39.647  30.109  29.866  1.00  0.00     0.074 A 
ATOM     41  C   UNL A   1      40.585  32.040  31.154  1.00  0.00     0.049 A 
ATOM     42  N   UNL A   1      40.428  29.175  30.257  1.00  0.00    -0.248 NA
ATOM     43  C   UNL A   1      38.745  29.697  28.787  1.00  0.00     0.031 C 
ATOM     44  C   UNL A   1      41.997  31.691  31.193  1.00  0.00     0.029 A 
ATOM     45  N   UNL A   1      40.490  33.093  32.059  1.00  0.00    -0.354 N 
ATOM     46  C   UNL A   1      40.390  28.204  29.278  1.00  0.00     0.074 A 
ATOM     47  C   UNL A   1      39.202  28.473  28.521  1.00  0.00     0.031 C 
ATOM     48  C   UNL A   1      42.590  32.345  32.210  1.00  0.00     0.029 A 
ATOM     49  C   UNL A   1      41.547  32.994  32.982  1.00  0.00     0.049 A 
ATOM     50  H   UNL A   1      39.796  33.792  32.054  1.00  0.00     0.167 HD
ATOM     51  C   UNL A   1      41.503  27.441  29.115  1.00  0.00     0.034 A 
ATOM     52  C   UNL A   1      41.288  32.752  34.311  1.00  0.00     0.034 A 
ATOM     53  C   UNL A   1      42.462  27.750  30.200  1.00  0.00     0.049 A 
ATOM     54  C   UNL A   1      41.666  31.330  34.718  1.00  0.00     0.074 A 
ATOM     55  C   UNL A   1      43.579  28.569  30.279  1.00  0.00     0.029 A 
ATOM     56  N   UNL A   1      42.069  27.528  31.517  1.00  0.00    -0.354 N 
ATOM     57  N   UNL A   1      42.187  30.442  33.916  1.00  0.00    -0.248 NA
ATOM     58  C   UNL A   1      41.391  30.783  36.042  1.00  0.00     0.031 C 
ATOM     59  C   UNL A   1      43.819  28.865  31.659  1.00  0.00     0.029 A 
ATOM     60  C   UNL A   1      42.879  28.199  32.426  1.00  0.00     0.049 A 
ATOM     61  H   UNL A   1      41.306  26.962  31.775  1.00  0.00     0.167 HD
ATOM     62  C   UNL A   1      42.190  29.208  34.514  1.00  0.00     0.074 A 
ATOM     63  C   UNL A   1      41.661  29.484  35.847  1.00  0.00     0.031 C 
ATOM     64  C   UNL A   1      42.589  28.069  33.858  1.00  0.00     0.034 A 
BRANCH  51  65
ATOM     65  C   UNL A   1      41.867  26.656  27.857  1.00  0.00     0.023 A 
ATOM     66  C   UNL A   1      42.079  27.422  26.690  1.00  0.00     0.012 A 
ATOM     67  C   UNL A   1      41.968  25.248  27.686  1.00  0.00     0.148 A 
ATOM     68  C   UNL A   1      42.321  26.848  25.437  1.00  0.00     0.002 A 
ATOM     69  C   UNL A   1      42.209  24.669  26.432  1.00  0.00     0.091 A 
ATOM     70  F   UNL A   1      41.849  24.428  28.729  1.00  0.00    -0.205 F 
ATOM     71  C   UNL A   1      42.378  25.470  25.303  1.00  0.00     0.022 A 
BRANCH  69  72
ATOM     72  S   UNL A   1      42.304  22.883  26.164  1.00  0.00     0.127 S 
ATOM     73  O   UNL A   1      42.817  22.805  24.795  1.00  0.00    -0.237 OA
ATOM     74  O   UNL A   1      43.257  22.464  27.191  1.00  0.00    -0.237 OA
ATOM     75  O   UNL A   1      40.953  22.362  26.330  1.00  0.00    -0.744 OA
ENDBRANCH  69  72
ENDBRANCH  51  65
BRANCH  52  76
ATOM     76  C   UNL A   1      40.041  33.460  34.787  1.00  0.00     0.023 A 
ATOM     77  C   UNL A   1      38.845  32.712  34.681  1.00  0.00     0.012 A 
ATOM     78  C   UNL A   1      40.156  34.393  35.824  1.00  0.00     0.148 A 
ATOM     79  C   UNL A   1      38.034  32.567  35.809  1.00  0.00     0.002 A 
ATOM     80  C   UNL A   1      39.317  34.283  36.922  1.00  0.00     0.091 A 
ATOM     81  F   UNL A   1      41.113  35.327  35.777  1.00  0.00    -0.205 F 
ATOM     82  C   UNL A   1      38.324  33.295  36.964  1.00  0.00     0.022 A 
BRANCH  80  83
ATOM     83  S   UNL A   1      39.603  35.370  38.313  1.00  0.00     0.127 S 
ATOM     84  O   UNL A   1      40.989  35.065  38.658  1.00  0.00    -0.237 OA
ATOM     85  O   UNL A   1      39.406  36.700  37.743  1.00  0.00    -0.237 OA
ATOM     86  O   UNL A   1      38.593  34.965  39.282  1.00  0.00    -0.744 OA
ENDBRANCH  80  83
ENDBRANCH  52  76
BRANCH  64  87
ATOM     87  C   UNL A   1      42.703  26.690  34.503  1.00  0.00     0.023 A 
ATOM     88  C   UNL A   1      41.603  26.041  35.088  1.00  0.00     0.012 A 
ATOM     89  C   UNL A   1      43.947  26.015  34.629  1.00  0.00     0.148 A 
ATOM     90  C   UNL A   1      41.678  24.736  35.586  1.00  0.00     0.002 A 
ATOM     91  C   UNL A   1      44.033  24.725  35.139  1.00  0.00     0.091 A 
ATOM     92  F   UNL A   1      45.089  26.642  34.337  1.00  0.00    -0.205 F 
ATOM     93  C   UNL A   1      42.889  24.065  35.583  1.00  0.00     0.022 A 
BRANCH  91  94
ATOM     94  S   UNL A   1      45.601  23.864  35.304  1.00  0.00     0.127 S 
ATOM     95  O   UNL A   1      45.171  22.585  35.869  1.00  0.00    -0.237 OA
ATOM     96  O   UNL A   1      46.053  23.798  33.914  1.00  0.00    -0.237 OA
ATOM     97  O   UNL A   1      46.433  24.679  36.177  1.00  0.00    -0.744 OA
ENDBRANCH  91  94
ENDBRANCH  64  87
ENDBRANCH  38  39
ENDBRANCH  30  33
ENDBRANCH  28  29
ENDBRANCH  27  28
ENDBRANCH   1  27
TORSDOF 17
ENDMDL
MODEL 3
REMARK VINA RESULT:     -12.5      4.291      9.831
REMARK SMILES Cc1cc(C(=O)NCCCNC(=O)c2ccc(-c3c4nc(c(-c5cccc(S(=O)(=O)[O-])c5F)c5ccc([nH]5)c(-c5cccc(S(=O)(=O)[O-])c5F)c5nc(c(-c6cccc(S(=O)(=O)[O-])c6F)c6ccc3[nH]6)C=C5)C=C4)cc2)ccc1NS(=O)(=O)c1ccc(C#N)cc1C
REMARK SMILES IDX 8 1 7 2 5 3 6 4 4 6 1 7 2 8 3 9 79 10 78 11 77 12 80 13
REMARK SMILES IDX 81 15 82 16 83 17 84 18 85 19 91 20 86 21 90 22 92 23 87 24
REMARK SMILES IDX 88 25 89 26 9 27 10 28 11 29 12 30 13 32 14 33 15 34 76 35
REMARK SMILES IDX 16 36 75 37 17 38 18 39 19 40 69 41 20 42 74 43 68 44 70 45
REMARK SMILES IDX 21 46 73 47 67 48 66 49 22 51 54 52 34 53 53 54 35 55 38 56
REMARK SMILES IDX 52 57 71 58 36 59 37 60 51 62 72 63 39 64 23 65 24 66 32 67
REMARK SMILES IDX 25 68 27 69 33 70 26 71 28 72 29 73 30 74 31 75 55 76 56 77
REMARK SMILES IDX 64 78 57 79 59 80 65 81 58 82 60 83 61 84 62 85 63 86 40 87
REMARK SMILES IDX 41 88 49 89 42 90 44 91 50 92 43 93 45 94 46 95 47 96 48 97
REMARK H PARENT 7 5 80 14 11 31 70 50 38 61
REMARK Flexibility Score: inf
ROOT
ATOM      1  C   UNL A   1      31.717  30.030  25.332  1.00  0.00     0.118 C 
ENDROOT
BRANCH   1   2
ATOM      2  N   UNL A   1      32.931  29.718  24.587  1.00  0.00    -0.352 N 
ATOM      3  C   UNL A   1      33.310  28.568  23.923  1.00  0.00     0.251 C 
ATOM      4  O   UNL A   1      34.267  28.610  23.154  1.00  0.00    -0.269 OA
ATOM      5  H   UNL A   1      33.591  30.448  24.551  1.00  0.00     0.163 HD
BRANCH   3   6
ATOM      6  C   UNL A   1      32.546  27.294  24.047  1.00  0.00     0.040 A 
ATOM      7  C   UNL A   1      32.473  24.297  26.352  1.00  0.00     0.046 C 
ATOM      8  C   UNL A   1      32.305  25.112  25.099  1.00  0.00    -0.026 A 
ATOM      9  C   UNL A   1      32.873  26.401  25.068  1.00  0.00     0.019 A 
ATOM     10  C   UNL A   1      31.487  24.700  24.031  1.00  0.00     0.052 A 
ATOM     11  C   UNL A   1      30.932  25.677  23.225  1.00  0.00     0.028 A 
ATOM     12  C   UNL A   1      31.461  26.965  23.244  1.00  0.00     0.016 A 
BRANCH  10  13
ATOM     13  N   UNL A   1      31.617  23.358  23.558  1.00  0.00    -0.279 N 
ATOM     14  H   UNL A   1      30.866  22.753  23.759  1.00  0.00     0.180 HD
BRANCH  13  15
ATOM     15  S   UNL A   1      32.896  22.693  22.703  1.00  0.00     0.262 S 
ATOM     16  O   UNL A   1      32.486  21.328  22.435  1.00  0.00    -0.201 OA
ATOM     17  O   UNL A   1      33.209  23.603  21.621  1.00  0.00    -0.201 OA
BRANCH  15  18
ATOM     18  C   UNL A   1      34.380  22.566  23.722  1.00  0.00     0.090 A 
ATOM     19  C   UNL A   1      35.510  23.354  23.477  1.00  0.00     0.024 A 
ATOM     20  C   UNL A   1      34.461  21.529  24.680  1.00  0.00    -0.029 A 
ATOM     21  C   UNL A   1      36.748  23.010  24.043  1.00  0.00     0.021 A 
ATOM     22  C   UNL A   1      35.716  21.193  25.228  1.00  0.00     0.024 A 
ATOM     23  C   UNL A   1      33.270  20.808  25.251  1.00  0.00     0.046 C 
ATOM     24  C   UNL A   1      36.864  21.897  24.875  1.00  0.00     0.052 A 
BRANCH  24  25
ATOM     25  C   UNL A   1      38.143  21.477  25.382  1.00  0.00     0.099 C 
ATOM     26  N   UNL A   1      39.172  21.130  25.765  1.00  0.00    -0.192 NA
ENDBRANCH  24  25
ENDBRANCH  15  18
ENDBRANCH  13  15
ENDBRANCH  10  13
ENDBRANCH   3   6
ENDBRANCH   1   2
BRANCH   1  27
ATOM     27  C   UNL A   1      32.006  30.604  26.710  1.00  0.00     0.042 C 
BRANCH  27  28
ATOM     28  C   UNL A   1      33.329  30.214  27.318  1.00  0.00     0.118 C 
BRANCH  28  29
ATOM     29  N   UNL A   1      34.046  31.285  27.978  1.00  0.00    -0.352 N 
ATOM     30  C   UNL A   1      35.213  31.201  28.730  1.00  0.00     0.251 C 
ATOM     31  H   UNL A   1      33.660  32.186  27.881  1.00  0.00     0.163 HD
ATOM     32  O   UNL A   1      35.589  32.188  29.355  1.00  0.00    -0.269 OA
BRANCH  30  33
ATOM     33  C   UNL A   1      36.075  29.984  28.634  1.00  0.00     0.039 A 
ATOM     34  C   UNL A   1      36.335  29.378  29.862  1.00  0.00     0.014 A 
ATOM     35  C   UNL A   1      37.001  29.856  27.608  1.00  0.00     0.014 A 
ATOM     36  C   UNL A   1      37.649  29.106  30.194  1.00  0.00     0.010 A 
ATOM     37  C   UNL A   1      38.322  29.744  27.965  1.00  0.00     0.010 A 
ATOM     38  C   UNL A   1      38.636  29.483  29.297  1.00  0.00    -0.014 A 
BRANCH  38  39
ATOM     39  C   UNL A   1      40.047  29.371  29.566  1.00  0.00     0.031 A 
ATOM     40  C   UNL A   1      40.657  28.123  29.099  1.00  0.00     0.074 A 
ATOM     41  C   UNL A   1      40.721  30.445  30.032  1.00  0.00     0.049 A 
ATOM     42  N   UNL A   1      41.799  27.693  29.484  1.00  0.00    -0.248 NA
ATOM     43  C   UNL A   1      39.962  27.198  28.201  1.00  0.00     0.031 C 
ATOM     44  C   UNL A   1      42.139  30.752  29.923  1.00  0.00     0.029 A 
ATOM     45  N   UNL A   1      40.229  31.481  30.820  1.00  0.00    -0.354 N 
ATOM     46  C   UNL A   1      42.131  26.660  28.633  1.00  0.00     0.074 A 
ATOM     47  C   UNL A   1      40.898  26.267  28.013  1.00  0.00     0.031 C 
ATOM     48  C   UNL A   1      42.446  31.749  30.775  1.00  0.00     0.029 A 
ATOM     49  C   UNL A   1      41.279  31.996  31.601  1.00  0.00     0.049 A 
ATOM     50  H   UNL A   1      39.297  31.801  30.829  1.00  0.00     0.167 HD
ATOM     51  C   UNL A   1      43.453  26.438  28.409  1.00  0.00     0.034 A 
ATOM     52  C   UNL A   1      41.248  31.877  32.971  1.00  0.00     0.034 A 
ATOM     53  C   UNL A   1      44.246  27.298  29.319  1.00  0.00     0.049 A 
ATOM     54  C   UNL A   1      42.248  30.842  33.479  1.00  0.00     0.074 A 
ATOM     55  C   UNL A   1      44.882  28.520  29.159  1.00  0.00     0.029 A 
ATOM     56  N   UNL A   1      44.085  27.138  30.693  1.00  0.00    -0.354 N 
ATOM     57  N   UNL A   1      43.055  30.153  32.718  1.00  0.00    -0.248 NA
ATOM     58  C   UNL A   1      42.338  30.446  34.880  1.00  0.00     0.031 C 
ATOM     59  C   UNL A   1      45.058  29.104  30.455  1.00  0.00     0.029 A 
ATOM     60  C   UNL A   1      44.570  28.227  31.407  1.00  0.00     0.049 A 
ATOM     61  H   UNL A   1      43.675  26.346  31.109  1.00  0.00     0.167 HD
ATOM     62  C   UNL A   1      43.649  29.153  33.443  1.00  0.00     0.074 A 
ATOM     63  C   UNL A   1      43.146  29.378  34.795  1.00  0.00     0.031 C 
ATOM     64  C   UNL A   1      44.469  28.211  32.871  1.00  0.00     0.034 A 
BRANCH  51  65
ATOM     65  C   UNL A   1      44.042  25.701  27.209  1.00  0.00     0.023 A 
ATOM     66  C   UNL A   1      44.952  26.436  26.419  1.00  0.00     0.012 A 
ATOM     67  C   UNL A   1      43.754  24.388  26.744  1.00  0.00     0.148 A 
ATOM     68  C   UNL A   1      45.501  25.939  25.231  1.00  0.00     0.002 A 
ATOM     69  C   UNL A   1      44.302  23.887  25.554  1.00  0.00     0.091 A 
ATOM     70  F   UNL A   1      42.958  23.581  27.441  1.00  0.00    -0.205 F 
ATOM     71  C   UNL A   1      45.171  24.667  24.792  1.00  0.00     0.022 A 
BRANCH  69  72
ATOM     72  S   UNL A   1      43.930  22.241  24.906  1.00  0.00     0.127 S 
ATOM     73  O   UNL A   1      44.843  21.395  25.679  1.00  0.00    -0.237 OA
ATOM     74  O   UNL A   1      42.519  22.080  25.254  1.00  0.00    -0.237 OA
ATOM     75  O   UNL A   1      44.210  22.279  23.477  1.00  0.00    -0.744 OA
ENDBRANCH  69  72
ENDBRANCH  51  65
BRANCH  52  76
ATOM     76  C   UNL A   1      39.852  32.042  33.525  1.00  0.00     0.023 A 
ATOM     77  C   UNL A   1      38.954  30.992  33.218  1.00  0.00     0.012 A 
ATOM     78  C   UNL A   1      39.689  32.729  34.733  1.00  0.00     0.148 A 
ATOM     79  C   UNL A   1      38.258  30.371  34.258  1.00  0.00     0.002 A 
ATOM     80  C   UNL A   1      38.954  32.137  35.749  1.00  0.00     0.091 A 
ATOM     81  F   UNL A   1      40.298  33.907  34.917  1.00  0.00    -0.205 F 
ATOM     82  C   UNL A   1      38.329  30.900  35.547  1.00  0.00     0.022 A 
BRANCH  80  83
ATOM     83  S   UNL A   1      38.912  32.949  37.342  1.00  0.00     0.127 S 
ATOM     84  O   UNL A   1      38.228  34.200  37.029  1.00  0.00    -0.237 OA
ATOM     85  O   UNL A   1      38.133  32.028  38.165  1.00  0.00    -0.237 OA
ATOM     86  O   UNL A   1      40.318  33.058  37.712  1.00  0.00    -0.744 OA
ENDBRANCH  80  83
ENDBRANCH  52  76
BRANCH  64  87
ATOM     87  C   UNL A   1      45.231  27.137  33.643  1.00  0.00     0.023 A 
ATOM     88  C   UNL A   1      46.634  27.076  33.661  1.00  0.00     0.012 A 
ATOM     89  C   UNL A   1      44.566  26.079  34.321  1.00  0.00     0.148 A 
ATOM     90  C   UNL A   1      47.337  26.160  34.449  1.00  0.00     0.002 A 
ATOM     91  C   UNL A   1      45.258  25.154  35.092  1.00  0.00     0.091 A 
ATOM     92  F   UNL A   1      43.253  25.894  34.163  1.00  0.00    -0.205 F 
ATOM     93  C   UNL A   1      46.647  25.216  35.192  1.00  0.00     0.022 A 
BRANCH  91  94
ATOM     94  S   UNL A   1      44.428  23.812  35.951  1.00  0.00     0.127 S 
ATOM     95  O   UNL A   1      45.560  23.118  36.566  1.00  0.00    -0.237 OA
ATOM     96  O   UNL A   1      43.574  24.541  36.889  1.00  0.00    -0.237 OA
ATOM     97  O   UNL A   1      43.710  23.052  34.939  1.00  0.00    -0.744 OA
ENDBRANCH  91  94
ENDBRANCH  64  87
ENDBRANCH  38  39
ENDBRANCH  30  33
ENDBRANCH  28  29
ENDBRANCH  27  28
ENDBRANCH   1  27
TORSDOF 17
ENDMDL
