MODEL 1
REMARK VINA RESULT:     -11.9      0.000      0.000
REMARK SMILES O=C(/C=C/c1cc(C(=O)Nc2ccc(F)cc2Cl)cs1)NCCCNC(=O)c1ccc(-c2c3nc(c(-c4cccc(S(=O)(=O)[O-])c4F)c4ccc([nH]4)c(-c4cccc(S(=O)(=O)[O-])c4F)c4nc(c(-c5cccc(S(=O)(=O)[O-])c5F)c5ccc2[nH]5)C=C4)C=C3)cc1
REMARK SMILES IDX 23 1 22 2 21 3 1 4 2 5 3 7 4 8 5 9 6 10 20 11 7 12 19 13
REMARK SMILES IDX 8 14 9 15 10 16 11 18 12 19 17 20 13 21 16 22 18 23 14 24
REMARK SMILES IDX 15 25 24 26 25 27 26 28 27 30 28 31 29 32 90 33 30 34 89 35
REMARK SMILES IDX 31 36 32 37 33 38 83 39 34 40 88 41 82 42 84 43 35 44 87 45
REMARK SMILES IDX 81 46 80 47 36 49 68 50 48 51 67 52 49 53 52 54 66 55 85 56
REMARK SMILES IDX 50 57 51 58 65 60 86 61 53 62 37 63 38 64 46 65 39 66 41 67
REMARK SMILES IDX 47 68 40 69 42 70 43 71 44 72 45 73 69 74 70 75 78 76 71 77
REMARK SMILES IDX 73 78 79 79 72 80 74 81 75 82 76 83 77 84 54 85 55 86 63 87
REMARK SMILES IDX 56 88 58 89 64 90 57 91 59 92 60 93 61 94 62 95
REMARK H PARENT 21 6 10 17 25 29 84 48 52 59
REMARK Flexibility Score: inf
ROOT
ATOM      1  C   UNL A   1      38.107  19.858  24.649  1.00  0.00     0.042 C 
ENDROOT
BRANCH   1   2
ATOM      2  C   UNL A   1      36.700  19.385  24.997  1.00  0.00     0.118 C 
BRANCH   2   3
ATOM      3  N   UNL A   1      35.738  20.468  25.061  1.00  0.00    -0.352 N 
ATOM      4  O   UNL A   1      33.882  19.150  24.731  1.00  0.00    -0.270 OA
ATOM      5  C   UNL A   1      34.393  20.246  24.919  1.00  0.00     0.244 C 
ATOM      6  H   UNL A   1      36.060  21.387  25.208  1.00  0.00     0.163 HD
BRANCH   5   7
ATOM      7  C   UNL A   1      33.526  21.421  25.167  1.00  0.00     0.072 C 
ATOM      8  C   UNL A   1      33.451  22.105  26.321  1.00  0.00     0.024 C 
BRANCH   8   9
ATOM      9  C   UNL A   1      32.502  23.160  26.488  1.00  0.00     0.028 A 
ATOM     10  C   UNL A   1      32.699  24.518  26.674  1.00  0.00     0.033 A 
ATOM     11  S   UNL A   1      30.814  22.831  26.438  1.00  0.00    -0.144 S 
ATOM     12  C   UNL A   1      31.519  25.312  26.456  1.00  0.00     0.051 A 
ATOM     13  C   UNL A   1      30.407  24.492  26.447  1.00  0.00     0.079 A 
BRANCH  12  14
ATOM     14  C   UNL A   1      31.447  26.769  26.330  1.00  0.00     0.256 C 
ATOM     15  O   UNL A   1      31.027  27.475  27.251  1.00  0.00    -0.269 OA
ATOM     16  N   UNL A   1      31.930  27.377  25.191  1.00  0.00    -0.321 N 
ATOM     17  H   UNL A   1      32.151  28.330  25.295  1.00  0.00     0.170 HD
BRANCH  16  18
ATOM     18  C   UNL A   1      32.162  26.854  23.897  1.00  0.00     0.060 A 
ATOM     19  C   UNL A   1      33.442  26.486  23.463  1.00  0.00     0.031 A 
ATOM     20  C   UNL A   1      31.078  26.705  23.012  1.00  0.00     0.067 A 
ATOM     21  C   UNL A   1      33.654  26.091  22.141  1.00  0.00     0.041 A 
ATOM     22  C   UNL A   1      31.290  26.319  21.689  1.00  0.00     0.062 A 
ATOM     23  Cl  UNL A   1      29.463  27.078  23.506  1.00  0.00    -0.082 Cl
ATOM     24  C   UNL A   1      32.580  26.033  21.262  1.00  0.00     0.124 A 
ATOM     25  F   UNL A   1      32.791  25.687  19.986  1.00  0.00    -0.207 F 
ENDBRANCH  16  18
ENDBRANCH  12  14
ENDBRANCH   8   9
ENDBRANCH   5   7
ENDBRANCH   2   3
ENDBRANCH   1   2
BRANCH   1  26
ATOM     26  C   UNL A   1      39.010  20.114  25.853  1.00  0.00     0.118 C 
BRANCH  26  27
ATOM     27  N   UNL A   1      40.104  19.160  25.969  1.00  0.00    -0.352 N 
ATOM     28  C   UNL A   1      41.444  19.370  26.194  1.00  0.00     0.251 C 
ATOM     29  H   UNL A   1      39.844  18.217  25.870  1.00  0.00     0.163 HD
ATOM     30  O   UNL A   1      42.211  18.409  26.149  1.00  0.00    -0.269 OA
BRANCH  28  31
ATOM     31  C   UNL A   1      41.977  20.726  26.463  1.00  0.00     0.039 A 
ATOM     32  C   UNL A   1      42.214  21.574  25.376  1.00  0.00     0.014 A 
ATOM     33  C   UNL A   1      42.269  21.162  27.758  1.00  0.00     0.014 A 
ATOM     34  C   UNL A   1      42.677  22.875  25.592  1.00  0.00     0.010 A 
ATOM     35  C   UNL A   1      42.672  22.480  27.977  1.00  0.00     0.010 A 
ATOM     36  C   UNL A   1      42.878  23.352  26.897  1.00  0.00    -0.014 A 
BRANCH  36  37
ATOM     37  C   UNL A   1      43.256  24.768  27.144  1.00  0.00     0.031 A 
ATOM     38  C   UNL A   1      42.290  25.727  27.785  1.00  0.00     0.074 A 
ATOM     39  C   UNL A   1      44.454  25.213  26.714  1.00  0.00     0.049 A 
ATOM     40  N   UNL A   1      42.451  26.997  28.059  1.00  0.00    -0.248 NA
ATOM     41  C   UNL A   1      40.963  25.202  28.142  1.00  0.00     0.031 C 
ATOM     42  C   UNL A   1      45.445  24.410  25.994  1.00  0.00     0.029 A 
ATOM     43  N   UNL A   1      45.031  26.456  26.796  1.00  0.00    -0.354 N 
ATOM     44  C   UNL A   1      41.243  27.430  28.592  1.00  0.00     0.074 A 
ATOM     45  C   UNL A   1      40.346  26.293  28.575  1.00  0.00     0.031 C 
ATOM     46  C   UNL A   1      46.508  25.177  25.707  1.00  0.00     0.029 A 
ATOM     47  C   UNL A   1      46.270  26.528  26.203  1.00  0.00     0.049 A 
ATOM     48  H   UNL A   1      44.599  27.222  27.238  1.00  0.00     0.167 HD
ATOM     49  C   UNL A   1      40.917  28.651  29.078  1.00  0.00     0.034 A 
ATOM     50  C   UNL A   1      47.124  27.564  26.078  1.00  0.00     0.034 A 
ATOM     51  C   UNL A   1      41.823  29.767  29.141  1.00  0.00     0.049 A 
ATOM     52  C   UNL A   1      46.765  28.890  26.692  1.00  0.00     0.074 A 
ATOM     53  C   UNL A   1      41.614  31.016  29.701  1.00  0.00     0.029 A 
ATOM     54  N   UNL A   1      43.110  29.772  28.628  1.00  0.00    -0.354 N 
ATOM     55  N   UNL A   1      45.683  29.228  27.350  1.00  0.00    -0.248 NA
ATOM     56  C   UNL A   1      47.763  29.963  26.585  1.00  0.00     0.031 C 
ATOM     57  C   UNL A   1      42.774  31.778  29.518  1.00  0.00     0.029 A 
ATOM     58  C   UNL A   1      43.708  31.001  28.854  1.00  0.00     0.049 A 
ATOM     59  H   UNL A   1      43.537  29.013  28.168  1.00  0.00     0.167 HD
ATOM     60  C   UNL A   1      45.883  30.539  27.763  1.00  0.00     0.074 A 
ATOM     61  C   UNL A   1      47.201  30.926  27.303  1.00  0.00     0.031 C 
ATOM     62  C   UNL A   1      45.042  31.357  28.444  1.00  0.00     0.034 A 
BRANCH  49  63
ATOM     63  C   UNL A   1      39.536  28.829  29.654  1.00  0.00     0.023 A 
ATOM     64  C   UNL A   1      39.287  28.425  30.982  1.00  0.00     0.012 A 
ATOM     65  C   UNL A   1      38.508  29.446  28.916  1.00  0.00     0.148 A 
ATOM     66  C   UNL A   1      38.031  28.607  31.557  1.00  0.00     0.002 A 
ATOM     67  C   UNL A   1      37.268  29.659  29.510  1.00  0.00     0.091 A 
ATOM     68  F   UNL A   1      38.754  29.802  27.646  1.00  0.00    -0.205 F 
ATOM     69  C   UNL A   1      37.026  29.233  30.826  1.00  0.00     0.022 A 
BRANCH  67  70
ATOM     70  S   UNL A   1      35.932  30.523  28.673  1.00  0.00     0.127 S 
ATOM     71  O   UNL A   1      35.268  29.428  27.969  1.00  0.00    -0.237 OA
ATOM     72  O   UNL A   1      35.171  31.078  29.793  1.00  0.00    -0.237 OA
ATOM     73  O   UNL A   1      36.572  31.520  27.827  1.00  0.00    -0.744 OA
ENDBRANCH  67  70
ENDBRANCH  49  63
BRANCH  50  74
ATOM     74  C   UNL A   1      48.445  27.357  25.421  1.00  0.00     0.023 A 
ATOM     75  C   UNL A   1      49.543  26.944  26.201  1.00  0.00     0.012 A 
ATOM     76  C   UNL A   1      48.613  27.525  24.034  1.00  0.00     0.148 A 
ATOM     77  C   UNL A   1      50.790  26.729  25.617  1.00  0.00     0.002 A 
ATOM     78  C   UNL A   1      49.846  27.258  23.450  1.00  0.00     0.091 A 
ATOM     79  F   UNL A   1      47.561  27.934  23.310  1.00  0.00    -0.205 F 
ATOM     80  C   UNL A   1      50.939  26.874  24.241  1.00  0.00     0.022 A 
BRANCH  78  81
ATOM     81  S   UNL A   1      50.085  27.289  21.669  1.00  0.00     0.127 S 
ATOM     82  O   UNL A   1      51.469  26.841  21.546  1.00  0.00    -0.237 OA
ATOM     83  O   UNL A   1      49.083  26.327  21.208  1.00  0.00    -0.237 OA
ATOM     84  O   UNL A   1      49.820  28.664  21.267  1.00  0.00    -0.744 OA
ENDBRANCH  78  81
ENDBRANCH  50  74
BRANCH  62  85
ATOM     85  C   UNL A   1      45.527  32.747  28.759  1.00  0.00     0.023 A 
ATOM     86  C   UNL A   1      46.234  32.984  29.954  1.00  0.00     0.012 A 
ATOM     87  C   UNL A   1      45.336  33.805  27.848  1.00  0.00     0.148 A 
ATOM     88  C   UNL A   1      46.714  34.258  30.254  1.00  0.00     0.002 A 
ATOM     89  C   UNL A   1      45.856  35.063  28.134  1.00  0.00     0.091 A 
ATOM     90  F   UNL A   1      44.641  33.569  26.726  1.00  0.00    -0.205 F 
ATOM     91  C   UNL A   1      46.534  35.294  29.341  1.00  0.00     0.022 A 
BRANCH  89  92
ATOM     92  S   UNL A   1      45.743  36.425  26.966  1.00  0.00     0.127 S 
ATOM     93  O   UNL A   1      44.298  36.623  26.876  1.00  0.00    -0.237 OA
ATOM     94  O   UNL A   1      46.463  37.495  27.657  1.00  0.00    -0.237 OA
ATOM     95  O   UNL A   1      46.396  35.953  25.752  1.00  0.00    -0.744 OA
ENDBRANCH  89  92
ENDBRANCH  62  85
ENDBRANCH  36  37
ENDBRANCH  28  31
ENDBRANCH  26  27
ENDBRANCH   1  26
TORSDOF 16
ENDMDL
MODEL 2
REMARK VINA RESULT:     -11.8      6.539     11.812
REMARK SMILES O=C(/C=C/c1cc(C(=O)Nc2ccc(F)cc2Cl)cs1)NCCCNC(=O)c1ccc(-c2c3nc(c(-c4cccc(S(=O)(=O)[O-])c4F)c4ccc([nH]4)c(-c4cccc(S(=O)(=O)[O-])c4F)c4nc(c(-c5cccc(S(=O)(=O)[O-])c5F)c5ccc2[nH]5)C=C4)C=C3)cc1
REMARK SMILES IDX 23 1 22 2 21 3 1 4 2 5 3 7 4 8 5 9 6 10 20 11 7 12 19 13
REMARK SMILES IDX 8 14 9 15 10 16 11 18 12 19 17 20 13 21 16 22 18 23 14 24
REMARK SMILES IDX 15 25 24 26 25 27 26 28 27 30 28 31 29 32 90 33 30 34 89 35
REMARK SMILES IDX 31 36 32 37 33 38 83 39 34 40 88 41 82 42 84 43 35 44 87 45
REMARK SMILES IDX 81 46 80 47 36 49 68 50 48 51 67 52 49 53 52 54 66 55 85 56
REMARK SMILES IDX 50 57 51 58 65 60 86 61 53 62 37 63 38 64 46 65 39 66 41 67
REMARK SMILES IDX 47 68 40 69 42 70 43 71 44 72 45 73 69 74 70 75 78 76 71 77
REMARK SMILES IDX 73 78 79 79 72 80 74 81 75 82 76 83 77 84 54 85 55 86 63 87
REMARK SMILES IDX 56 88 58 89 64 90 57 91 59 92 60 93 61 94 62 95
REMARK H PARENT 21 6 10 17 25 29 84 48 52 59
REMARK Flexibility Score: inf
ROOT
ATOM      1  C   UNL A   1      33.422  32.724  27.041  1.00  0.00     0.042 C 
ENDROOT
BRANCH   1   2
ATOM      2  C   UNL A   1      33.997  31.519  27.776  1.00  0.00     0.118 C 
BRANCH   2   3
ATOM      3  N   UNL A   1      33.480  30.256  27.285  1.00  0.00    -0.352 N 
ATOM      4  O   UNL A   1      35.492  29.142  27.339  1.00  0.00    -0.270 OA
ATOM      5  C   UNL A   1      34.289  29.165  27.109  1.00  0.00     0.244 C 
ATOM      6  H   UNL A   1      32.521  30.182  27.071  1.00  0.00     0.163 HD
BRANCH   5   7
ATOM      7  C   UNL A   1      33.593  27.907  26.756  1.00  0.00     0.072 C 
ATOM      8  C   UNL A   1      33.193  27.557  25.522  1.00  0.00     0.024 C 
BRANCH   8   9
ATOM      9  C   UNL A   1      32.434  26.366  25.307  1.00  0.00     0.028 A 
ATOM     10  C   UNL A   1      32.207  25.287  26.144  1.00  0.00     0.033 A 
ATOM     11  S   UNL A   1      31.592  26.125  23.826  1.00  0.00    -0.144 S 
ATOM     12  C   UNL A   1      31.120  24.443  25.724  1.00  0.00     0.051 A 
ATOM     13  C   UNL A   1      30.795  24.729  24.412  1.00  0.00     0.079 A 
BRANCH  12  14
ATOM     14  C   UNL A   1      30.474  23.383  26.501  1.00  0.00     0.256 C 
ATOM     15  O   UNL A   1      29.522  23.623  27.250  1.00  0.00    -0.269 OA
ATOM     16  N   UNL A   1      30.882  22.077  26.338  1.00  0.00    -0.321 N 
ATOM     17  H   UNL A   1      30.224  21.402  26.622  1.00  0.00     0.170 HD
BRANCH  16  18
ATOM     18  C   UNL A   1      32.092  21.547  25.830  1.00  0.00     0.060 A 
ATOM     19  C   UNL A   1      32.154  20.898  24.591  1.00  0.00     0.031 A 
ATOM     20  C   UNL A   1      33.268  21.666  26.593  1.00  0.00     0.067 A 
ATOM     21  C   UNL A   1      33.335  20.279  24.176  1.00  0.00     0.041 A 
ATOM     22  C   UNL A   1      34.446  21.041  26.183  1.00  0.00     0.062 A 
ATOM     23  Cl  UNL A   1      33.274  22.514  28.100  1.00  0.00    -0.082 Cl
ATOM     24  C   UNL A   1      34.462  20.338  24.986  1.00  0.00     0.124 A 
ATOM     25  F   UNL A   1      35.582  19.715  24.602  1.00  0.00    -0.207 F 
ENDBRANCH  16  18
ENDBRANCH  12  14
ENDBRANCH   8   9
ENDBRANCH   5   7
ENDBRANCH   2   3
ENDBRANCH   1   2
BRANCH   1  26
ATOM     26  C   UNL A   1      32.275  33.424  27.764  1.00  0.00     0.118 C 
BRANCH  26  27
ATOM     27  N   UNL A   1      32.547  34.823  28.066  1.00  0.00    -0.352 N 
ATOM     28  C   UNL A   1      33.513  35.387  28.864  1.00  0.00     0.251 C 
ATOM     29  H   UNL A   1      31.944  35.466  27.629  1.00  0.00     0.163 HD
ATOM     30  O   UNL A   1      33.489  36.601  29.058  1.00  0.00    -0.269 OA
BRANCH  28  31
ATOM     31  C   UNL A   1      34.558  34.559  29.511  1.00  0.00     0.039 A 
ATOM     32  C   UNL A   1      35.845  34.564  28.963  1.00  0.00     0.014 A 
ATOM     33  C   UNL A   1      34.284  33.761  30.626  1.00  0.00     0.014 A 
ATOM     34  C   UNL A   1      36.867  33.829  29.569  1.00  0.00     0.010 A 
ATOM     35  C   UNL A   1      35.318  33.078  31.266  1.00  0.00     0.010 A 
ATOM     36  C   UNL A   1      36.621  33.105  30.747  1.00  0.00    -0.014 A 
BRANCH  36  37
ATOM     37  C   UNL A   1      37.725  32.416  31.465  1.00  0.00     0.031 A 
ATOM     38  C   UNL A   1      38.443  31.249  30.844  1.00  0.00     0.074 A 
ATOM     39  C   UNL A   1      38.031  32.797  32.722  1.00  0.00     0.049 A 
ATOM     40  N   UNL A   1      39.416  30.525  31.336  1.00  0.00    -0.248 NA
ATOM     41  C   UNL A   1      37.996  30.821  29.509  1.00  0.00     0.031 C 
ATOM     42  C   UNL A   1      37.348  33.852  33.474  1.00  0.00     0.029 A 
ATOM     43  N   UNL A   1      38.976  32.323  33.598  1.00  0.00    -0.354 N 
ATOM     44  C   UNL A   1      39.678  29.542  30.390  1.00  0.00     0.074 A 
ATOM     45  C   UNL A   1      38.740  29.743  29.305  1.00  0.00     0.031 C 
ATOM     46  C   UNL A   1      37.900  33.950  34.694  1.00  0.00     0.029 A 
ATOM     47  C   UNL A   1      38.961  32.956  34.819  1.00  0.00     0.049 A 
ATOM     48  H   UNL A   1      39.604  31.600  33.373  1.00  0.00     0.167 HD
ATOM     49  C   UNL A   1      40.630  28.579  30.406  1.00  0.00     0.034 A 
ATOM     50  C   UNL A   1      39.720  32.764  35.916  1.00  0.00     0.034 A 
ATOM     51  C   UNL A   1      41.595  28.410  31.460  1.00  0.00     0.049 A 
ATOM     52  C   UNL A   1      40.818  31.735  35.878  1.00  0.00     0.074 A 
ATOM     53  C   UNL A   1      42.656  27.522  31.522  1.00  0.00     0.029 A 
ATOM     54  N   UNL A   1      41.618  29.140  32.637  1.00  0.00    -0.354 N 
ATOM     55  N   UNL A   1      41.162  30.933  34.901  1.00  0.00    -0.248 NA
ATOM     56  C   UNL A   1      41.658  31.617  37.078  1.00  0.00     0.031 C 
ATOM     57  C   UNL A   1      43.316  27.712  32.742  1.00  0.00     0.029 A 
ATOM     58  C   UNL A   1      42.673  28.725  33.434  1.00  0.00     0.049 A 
ATOM     59  H   UNL A   1      40.979  29.851  32.873  1.00  0.00     0.167 HD
ATOM     60  C   UNL A   1      42.278  30.239  35.354  1.00  0.00     0.074 A 
ATOM     61  C   UNL A   1      42.566  30.733  36.685  1.00  0.00     0.031 C 
ATOM     62  C   UNL A   1      42.987  29.264  34.732  1.00  0.00     0.034 A 
BRANCH  49  63
ATOM     63  C   UNL A   1      40.727  27.671  29.207  1.00  0.00     0.023 A 
ATOM     64  C   UNL A   1      39.873  26.553  29.121  1.00  0.00     0.012 A 
ATOM     65  C   UNL A   1      41.606  27.951  28.144  1.00  0.00     0.148 A 
ATOM     66  C   UNL A   1      39.911  25.711  28.010  1.00  0.00     0.002 A 
ATOM     67  C   UNL A   1      41.612  27.130  27.021  1.00  0.00     0.091 A 
ATOM     68  F   UNL A   1      42.429  29.005  28.252  1.00  0.00    -0.205 F 
ATOM     69  C   UNL A   1      40.772  26.006  26.957  1.00  0.00     0.022 A 
BRANCH  67  70
ATOM     70  S   UNL A   1      42.633  27.468  25.582  1.00  0.00     0.127 S 
ATOM     71  O   UNL A   1      43.962  27.570  26.180  1.00  0.00    -0.237 OA
ATOM     72  O   UNL A   1      42.423  26.274  24.763  1.00  0.00    -0.237 OA
ATOM     73  O   UNL A   1      42.108  28.696  25.002  1.00  0.00    -0.744 OA
ENDBRANCH  67  70
ENDBRANCH  49  63
BRANCH  50  74
ATOM     74  C   UNL A   1      39.526  33.632  37.111  1.00  0.00     0.023 A 
ATOM     75  C   UNL A   1      40.000  34.959  37.079  1.00  0.00     0.012 A 
ATOM     76  C   UNL A   1      38.845  33.173  38.254  1.00  0.00     0.148 A 
ATOM     77  C   UNL A   1      39.824  35.803  38.175  1.00  0.00     0.002 A 
ATOM     78  C   UNL A   1      38.627  34.037  39.322  1.00  0.00     0.091 A 
ATOM     79  F   UNL A   1      38.416  31.903  38.271  1.00  0.00    -0.205 F 
ATOM     80  C   UNL A   1      39.128  35.347  39.290  1.00  0.00     0.022 A 
BRANCH  78  81
ATOM     81  S   UNL A   1      37.623  33.570  40.737  1.00  0.00     0.127 S 
ATOM     82  O   UNL A   1      38.467  32.570  41.385  1.00  0.00    -0.237 OA
ATOM     83  O   UNL A   1      37.502  34.837  41.459  1.00  0.00    -0.237 OA
ATOM     84  O   UNL A   1      36.369  33.081  40.177  1.00  0.00    -0.744 OA
ENDBRANCH  78  81
ENDBRANCH  50  74
BRANCH  62  85
ATOM     85  C   UNL A   1      44.163  28.681  35.470  1.00  0.00     0.023 A 
ATOM     86  C   UNL A   1      45.458  29.170  35.213  1.00  0.00     0.012 A 
ATOM     87  C   UNL A   1      43.980  27.692  36.457  1.00  0.00     0.148 A 
ATOM     88  C   UNL A   1      46.558  28.662  35.903  1.00  0.00     0.002 A 
ATOM     89  C   UNL A   1      45.077  27.222  37.172  1.00  0.00     0.091 A 
ATOM     90  F   UNL A   1      42.744  27.220  36.674  1.00  0.00    -0.205 F 
ATOM     91  C   UNL A   1      46.367  27.697  36.888  1.00  0.00     0.022 A 
BRANCH  89  92
ATOM     92  S   UNL A   1      44.899  26.044  38.518  1.00  0.00     0.127 S 
ATOM     93  O   UNL A   1      44.343  24.882  37.828  1.00  0.00    -0.237 OA
ATOM     94  O   UNL A   1      46.278  25.877  38.978  1.00  0.00    -0.237 OA
ATOM     95  O   UNL A   1      44.020  26.688  39.486  1.00  0.00    -0.744 OA
ENDBRANCH  89  92
ENDBRANCH  62  85
ENDBRANCH  36  37
ENDBRANCH  28  31
ENDBRANCH  26  27
ENDBRANCH   1  26
TORSDOF 16
ENDMDL
MODEL 3
REMARK VINA RESULT:     -11.7      5.475      9.806
REMARK SMILES O=C(/C=C/c1cc(C(=O)Nc2ccc(F)cc2Cl)cs1)NCCCNC(=O)c1ccc(-c2c3nc(c(-c4cccc(S(=O)(=O)[O-])c4F)c4ccc([nH]4)c(-c4cccc(S(=O)(=O)[O-])c4F)c4nc(c(-c5cccc(S(=O)(=O)[O-])c5F)c5ccc2[nH]5)C=C4)C=C3)cc1
REMARK SMILES IDX 23 1 22 2 21 3 1 4 2 5 3 7 4 8 5 9 6 10 20 11 7 12 19 13
REMARK SMILES IDX 8 14 9 15 10 16 11 18 12 19 17 20 13 21 16 22 18 23 14 24
REMARK SMILES IDX 15 25 24 26 25 27 26 28 27 30 28 31 29 32 90 33 30 34 89 35
REMARK SMILES IDX 31 36 32 37 33 38 83 39 34 40 88 41 82 42 84 43 35 44 87 45
REMARK SMILES IDX 81 46 80 47 36 49 68 50 48 51 67 52 49 53 52 54 66 55 85 56
REMARK SMILES IDX 50 57 51 58 65 60 86 61 53 62 37 63 38 64 46 65 39 66 41 67
REMARK SMILES IDX 47 68 40 69 42 70 43 71 44 72 45 73 69 74 70 75 78 76 71 77
REMARK SMILES IDX 73 78 79 79 72 80 74 81 75 82 76 83 77 84 54 85 55 86 63 87
REMARK SMILES IDX 56 88 58 89 64 90 57 91 59 92 60 93 61 94 62 95
REMARK H PARENT 21 6 10 17 25 29 84 48 52 59
REMARK Flexibility Score: inf
ROOT
ATOM      1  C   UNL A   1      43.233  21.461  25.445  1.00  0.00     0.042 C 
ENDROOT
BRANCH   1   2
ATOM      2  C   UNL A   1      42.269  21.091  26.566  1.00  0.00     0.118 C 
BRANCH   2   3
ATOM      3  N   UNL A   1      40.880  21.115  26.149  1.00  0.00    -0.352 N 
ATOM      4  O   UNL A   1      40.262  22.870  27.501  1.00  0.00    -0.270 OA
ATOM      5  C   UNL A   1      39.989  22.019  26.664  1.00  0.00     0.244 C 
ATOM      6  H   UNL A   1      40.570  20.463  25.479  1.00  0.00     0.163 HD
BRANCH   5   7
ATOM      7  C   UNL A   1      38.652  22.027  26.028  1.00  0.00     0.072 C 
ATOM      8  C   UNL A   1      37.852  23.099  25.910  1.00  0.00     0.024 C 
BRANCH   8   9
ATOM      9  C   UNL A   1      36.534  22.976  25.372  1.00  0.00     0.028 A 
ATOM     10  C   UNL A   1      35.826  23.824  24.538  1.00  0.00     0.033 A 
ATOM     11  S   UNL A   1      35.581  21.584  25.711  1.00  0.00    -0.144 S 
ATOM     12  C   UNL A   1      34.674  23.214  23.929  1.00  0.00     0.051 A 
ATOM     13  C   UNL A   1      34.371  22.040  24.590  1.00  0.00     0.079 A 
BRANCH  12  14
ATOM     14  C   UNL A   1      33.872  23.748  22.826  1.00  0.00     0.256 C 
ATOM     15  O   UNL A   1      34.021  23.348  21.668  1.00  0.00    -0.269 OA
ATOM     16  N   UNL A   1      32.874  24.661  23.093  1.00  0.00    -0.321 N 
ATOM     17  H   UNL A   1      32.183  24.731  22.396  1.00  0.00     0.170 HD
BRANCH  16  18
ATOM     18  C   UNL A   1      32.681  25.514  24.206  1.00  0.00     0.060 A 
ATOM     19  C   UNL A   1      33.361  26.732  24.332  1.00  0.00     0.031 A 
ATOM     20  C   UNL A   1      31.788  25.127  25.222  1.00  0.00     0.067 A 
ATOM     21  C   UNL A   1      33.241  27.490  25.499  1.00  0.00     0.041 A 
ATOM     22  C   UNL A   1      31.674  25.879  26.391  1.00  0.00     0.062 A 
ATOM     23  Cl  UNL A   1      30.868  23.668  25.095  1.00  0.00    -0.082 Cl
ATOM     24  C   UNL A   1      32.417  27.045  26.525  1.00  0.00     0.124 A 
ATOM     25  F   UNL A   1      32.330  27.756  27.655  1.00  0.00    -0.207 F 
ENDBRANCH  16  18
ENDBRANCH  12  14
ENDBRANCH   8   9
ENDBRANCH   5   7
ENDBRANCH   2   3
ENDBRANCH   1   2
BRANCH   1  26
ATOM     26  C   UNL A   1      43.042  22.865  24.877  1.00  0.00     0.118 C 
BRANCH  26  27
ATOM     27  N   UNL A   1      44.296  23.550  24.590  1.00  0.00    -0.352 N 
ATOM     28  C   UNL A   1      44.785  24.742  25.068  1.00  0.00     0.251 C 
ATOM     29  H   UNL A   1      44.885  23.085  23.954  1.00  0.00     0.163 HD
ATOM     30  O   UNL A   1      45.834  25.182  24.601  1.00  0.00    -0.269 OA
BRANCH  28  31
ATOM     31  C   UNL A   1      44.062  25.510  26.108  1.00  0.00     0.039 A 
ATOM     32  C   UNL A   1      43.280  24.806  27.031  1.00  0.00     0.014 A 
ATOM     33  C   UNL A   1      44.121  26.905  26.172  1.00  0.00     0.014 A 
ATOM     34  C   UNL A   1      42.617  25.492  28.052  1.00  0.00     0.010 A 
ATOM     35  C   UNL A   1      43.509  27.582  27.228  1.00  0.00     0.010 A 
ATOM     36  C   UNL A   1      42.753  26.883  28.180  1.00  0.00    -0.014 A 
BRANCH  36  37
ATOM     37  C   UNL A   1      42.148  27.608  29.330  1.00  0.00     0.031 A 
ATOM     38  C   UNL A   1      42.817  27.615  30.678  1.00  0.00     0.074 A 
ATOM     39  C   UNL A   1      40.946  28.198  29.176  1.00  0.00     0.049 A 
ATOM     40  N   UNL A   1      42.421  28.183  31.789  1.00  0.00    -0.248 NA
ATOM     41  C   UNL A   1      44.079  26.870  30.803  1.00  0.00     0.031 C 
ATOM     42  C   UNL A   1      40.148  28.183  27.948  1.00  0.00     0.029 A 
ATOM     43  N   UNL A   1      40.173  28.902  30.065  1.00  0.00    -0.354 N 
ATOM     44  C   UNL A   1      43.365  27.841  32.750  1.00  0.00     0.074 A 
ATOM     45  C   UNL A   1      44.339  26.991  32.098  1.00  0.00     0.031 C 
ATOM     46  C   UNL A   1      39.004  28.851  28.159  1.00  0.00     0.029 A 
ATOM     47  C   UNL A   1      38.975  29.327  29.538  1.00  0.00     0.049 A 
ATOM     48  H   UNL A   1      40.449  29.086  30.992  1.00  0.00     0.167 HD
ATOM     49  C   UNL A   1      43.433  28.223  34.047  1.00  0.00     0.034 A 
ATOM     50  C   UNL A   1      37.968  30.026  30.099  1.00  0.00     0.034 A 
ATOM     51  C   UNL A   1      42.494  29.109  34.683  1.00  0.00     0.049 A 
ATOM     52  C   UNL A   1      38.105  30.498  31.521  1.00  0.00     0.074 A 
ATOM     53  C   UNL A   1      42.530  29.627  35.967  1.00  0.00     0.029 A 
ATOM     54  N   UNL A   1      41.347  29.607  34.086  1.00  0.00    -0.354 N 
ATOM     55  N   UNL A   1      39.094  30.310  32.361  1.00  0.00    -0.248 NA
ATOM     56  C   UNL A   1      37.007  31.315  32.058  1.00  0.00     0.031 C 
ATOM     57  C   UNL A   1      41.400  30.433  36.147  1.00  0.00     0.029 A 
ATOM     58  C   UNL A   1      40.666  30.426  34.972  1.00  0.00     0.049 A 
ATOM     59  H   UNL A   1      41.058  29.409  33.166  1.00  0.00     0.167 HD
ATOM     60  C   UNL A   1      38.754  31.012  33.511  1.00  0.00     0.074 A 
ATOM     61  C   UNL A   1      37.480  31.649  33.251  1.00  0.00     0.031 C 
ATOM     62  C   UNL A   1      39.428  31.102  34.685  1.00  0.00     0.034 A 
BRANCH  49  63
ATOM     63  C   UNL A   1      44.610  27.744  34.856  1.00  0.00     0.023 A 
ATOM     64  C   UNL A   1      45.787  28.520  34.886  1.00  0.00     0.012 A 
ATOM     65  C   UNL A   1      44.538  26.571  35.633  1.00  0.00     0.148 A 
ATOM     66  C   UNL A   1      46.882  28.124  35.651  1.00  0.00     0.002 A 
ATOM     67  C   UNL A   1      45.620  26.203  36.425  1.00  0.00     0.091 A 
ATOM     68  F   UNL A   1      43.420  25.831  35.575  1.00  0.00    -0.205 F 
ATOM     69  C   UNL A   1      46.795  26.972  36.428  1.00  0.00     0.022 A 
BRANCH  67  70
ATOM     70  S   UNL A   1      45.577  24.775  37.516  1.00  0.00     0.127 S 
ATOM     71  O   UNL A   1      46.916  24.811  38.101  1.00  0.00    -0.237 OA
ATOM     72  O   UNL A   1      44.499  25.124  38.442  1.00  0.00    -0.237 OA
ATOM     73  O   UNL A   1      45.293  23.631  36.663  1.00  0.00    -0.744 OA
ENDBRANCH  67  70
ENDBRANCH  49  63
BRANCH  50  74
ATOM     74  C   UNL A   1      36.783  30.401  29.278  1.00  0.00     0.023 A 
ATOM     75  C   UNL A   1      35.989  29.384  28.713  1.00  0.00     0.012 A 
ATOM     76  C   UNL A   1      36.414  31.746  29.088  1.00  0.00     0.148 A 
ATOM     77  C   UNL A   1      34.866  29.700  27.949  1.00  0.00     0.002 A 
ATOM     78  C   UNL A   1      35.263  32.052  28.370  1.00  0.00     0.091 A 
ATOM     79  F   UNL A   1      37.190  32.700  29.620  1.00  0.00    -0.205 F 
ATOM     80  C   UNL A   1      34.496  31.032  27.788  1.00  0.00     0.022 A 
BRANCH  78  81
ATOM     81  S   UNL A   1      34.643  33.733  28.232  1.00  0.00     0.127 S 
ATOM     82  O   UNL A   1      34.872  34.247  29.579  1.00  0.00    -0.237 OA
ATOM     83  O   UNL A   1      35.515  34.297  27.200  1.00  0.00    -0.237 OA
ATOM     84  O   UNL A   1      33.250  33.599  27.827  1.00  0.00    -0.744 OA
ENDBRANCH  78  81
ENDBRANCH  50  74
BRANCH  62  85
ATOM     85  C   UNL A   1      38.815  31.941  35.775  1.00  0.00     0.023 A 
ATOM     86  C   UNL A   1      38.825  33.346  35.662  1.00  0.00     0.012 A 
ATOM     87  C   UNL A   1      38.179  31.341  36.880  1.00  0.00     0.148 A 
ATOM     88  C   UNL A   1      38.242  34.141  36.647  1.00  0.00     0.002 A 
ATOM     89  C   UNL A   1      37.561  32.140  37.836  1.00  0.00     0.091 A 
ATOM     90  F   UNL A   1      38.199  30.005  36.985  1.00  0.00    -0.205 F 
ATOM     91  C   UNL A   1      37.601  33.539  37.727  1.00  0.00     0.022 A 
BRANCH  89  92
ATOM     92  S   UNL A   1      36.639  31.436  39.209  1.00  0.00     0.127 S 
ATOM     93  O   UNL A   1      37.676  31.304  40.230  1.00  0.00    -0.237 OA
ATOM     94  O   UNL A   1      35.641  32.471  39.485  1.00  0.00    -0.237 OA
ATOM     95  O   UNL A   1      36.081  30.188  38.706  1.00  0.00    -0.744 OA
ENDBRANCH  89  92
ENDBRANCH  62  85
ENDBRANCH  36  37
ENDBRANCH  28  31
ENDBRANCH  26  27
ENDBRANCH   1  26
TORSDOF 16
ENDMDL
