MODEL 1
REMARK VINA RESULT:     -12.4      0.000      0.000
REMARK SMILES CCc1cc(C(=O)c2[nH]c3cc(Cl)ccc3c2CC(=O)NCCCNC(=O)c2ccc(-c3c4nc(c(-c5cccc(S(=O)(=O)[O-])c5F)c5ccc([nH]5)c(-c5cccc(S(=O)(=O)[O-])c5F)c5nc(c(-c6cccc(S(=O)(=O)[O-])c6F)c6ccc3[nH]6)C=C5)C=C4)cc2)ncc1Cl
REMARK SMILES IDX 22 1 21 2 19 3 20 4 18 6 17 7 8 8 9 9 10 10 16 12 11 13
REMARK SMILES IDX 15 14 12 15 14 16 13 17 6 18 7 19 5 20 3 21 4 22 93 23 92 24
REMARK SMILES IDX 94 25 91 26 2 27 1 28 23 29 24 30 25 31 26 32 27 34 28 35
REMARK SMILES IDX 29 36 90 37 30 38 89 39 31 40 32 41 33 42 83 43 34 44 88 45
REMARK SMILES IDX 82 46 84 47 35 48 87 49 81 50 80 51 36 53 68 54 48 55 67 56
REMARK SMILES IDX 49 57 52 58 66 59 85 60 50 61 51 62 65 64 86 65 53 66 37 67
REMARK SMILES IDX 38 68 46 69 39 70 41 71 47 72 40 73 42 74 43 75 44 76 45 77
REMARK SMILES IDX 69 78 70 79 78 80 71 81 73 82 79 83 72 84 74 85 75 86 76 87
REMARK SMILES IDX 77 88 54 89 55 90 63 91 56 92 58 93 64 94 57 95 59 96 60 97
REMARK SMILES IDX 61 98 62 99
REMARK H PARENT 21 5 9 11 25 33 84 52 52 63
REMARK Flexibility Score: inf
ROOT
ATOM      1  C   UNL A   1      33.633  26.410  26.162  1.00  0.00     0.117 C 
ENDROOT
BRANCH   1   2
ATOM      2  N   UNL A   1      34.429  25.658  25.212  1.00  0.00    -0.356 N 
ATOM      3  C   UNL A   1      34.740  24.329  25.197  1.00  0.00     0.224 C 
ATOM      4  O   UNL A   1      35.280  23.872  24.185  1.00  0.00    -0.275 OA
ATOM      5  H   UNL A   1      34.804  26.185  24.470  1.00  0.00     0.163 HD
BRANCH   3   6
ATOM      6  C   UNL A   1      34.306  23.407  26.323  1.00  0.00     0.138 C 
BRANCH   6   7
ATOM      7  C   UNL A   1      33.417  22.260  25.929  1.00  0.00    -0.002 A 
ATOM      8  C   UNL A   1      32.026  22.200  25.983  1.00  0.00     0.093 A 
ATOM      9  N   UNL A   1      31.647  20.985  25.454  1.00  0.00    -0.351 N 
ATOM     10  C   UNL A   1      32.748  20.223  25.146  1.00  0.00     0.048 A 
ATOM     11  H   UNL A   1      30.714  20.700  25.318  1.00  0.00     0.167 HD
ATOM     12  C   UNL A   1      33.874  20.989  25.442  1.00  0.00     0.004 A 
ATOM     13  C   UNL A   1      32.827  18.934  24.602  1.00  0.00     0.047 A 
ATOM     14  C   UNL A   1      35.148  20.434  25.192  1.00  0.00     0.012 A 
ATOM     15  C   UNL A   1      34.103  18.416  24.360  1.00  0.00     0.043 A 
ATOM     16  C   UNL A   1      35.249  19.149  24.649  1.00  0.00     0.021 A 
ATOM     17  Cl  UNL A   1      34.265  16.838  23.693  1.00  0.00    -0.084 Cl
BRANCH   8  18
ATOM     18  C   UNL A   1      31.082  23.238  26.362  1.00  0.00     0.227 C 
ATOM     19  O   UNL A   1      30.484  23.174  27.433  1.00  0.00    -0.285 OA
BRANCH  18  20
ATOM     20  C   UNL A   1      30.830  24.398  25.425  1.00  0.00     0.113 A 
ATOM     21  C   UNL A   1      31.074  25.571  23.294  1.00  0.00    -0.026 A 
ATOM     22  C   UNL A   1      31.364  24.468  24.135  1.00  0.00     0.037 A 
ATOM     23  C   UNL A   1      30.190  26.538  23.790  1.00  0.00     0.062 A 
ATOM     24  C   UNL A   1      29.714  26.396  25.089  1.00  0.00     0.132 A 
ATOM     25  Cl  UNL A   1      29.596  27.873  22.881  1.00  0.00    -0.082 Cl
ATOM     26  N   UNL A   1      30.017  25.366  25.911  1.00  0.00    -0.251 NA
BRANCH  21  27
ATOM     27  C   UNL A   1      31.687  25.552  21.908  1.00  0.00     0.034 C 
ATOM     28  C   UNL A   1      33.139  25.991  21.749  1.00  0.00     0.009 C 
ENDBRANCH  21  27
ENDBRANCH  18  20
ENDBRANCH   8  18
ENDBRANCH   6   7
ENDBRANCH   3   6
ENDBRANCH   1   2
BRANCH   1  29
ATOM     29  C   UNL A   1      33.162  27.760  25.630  1.00  0.00     0.042 C 
BRANCH  29  30
ATOM     30  C   UNL A   1      34.232  28.849  25.604  1.00  0.00     0.118 C 
BRANCH  30  31
ATOM     31  N   UNL A   1      33.854  30.031  26.365  1.00  0.00    -0.352 N 
ATOM     32  C   UNL A   1      34.431  30.613  27.468  1.00  0.00     0.251 C 
ATOM     33  H   UNL A   1      33.049  30.491  26.034  1.00  0.00     0.163 HD
ATOM     34  O   UNL A   1      33.829  31.517  28.043  1.00  0.00    -0.269 OA
BRANCH  32  35
ATOM     35  C   UNL A   1      35.748  30.167  27.983  1.00  0.00     0.039 A 
ATOM     36  C   UNL A   1      35.808  29.606  29.264  1.00  0.00     0.014 A 
ATOM     37  C   UNL A   1      36.927  30.351  27.256  1.00  0.00     0.014 A 
ATOM     38  C   UNL A   1      37.033  29.178  29.789  1.00  0.00     0.010 A 
ATOM     39  C   UNL A   1      38.139  29.869  27.754  1.00  0.00     0.010 A 
ATOM     40  C   UNL A   1      38.206  29.282  29.025  1.00  0.00    -0.014 A 
BRANCH  40  41
ATOM     41  C   UNL A   1      39.505  28.766  29.531  1.00  0.00     0.031 A 
ATOM     42  C   UNL A   1      40.230  29.478  30.641  1.00  0.00     0.074 A 
ATOM     43  C   UNL A   1      40.079  27.707  28.926  1.00  0.00     0.049 A 
ATOM     44  N   UNL A   1      41.403  29.215  31.160  1.00  0.00    -0.248 NA
ATOM     45  C   UNL A   1      39.565  30.652  31.229  1.00  0.00     0.031 C 
ATOM     46  C   UNL A   1      39.516  26.976  27.790  1.00  0.00     0.029 A 
ATOM     47  N   UNL A   1      41.278  27.082  29.162  1.00  0.00    -0.354 N 
ATOM     48  C   UNL A   1      41.633  30.208  32.104  1.00  0.00     0.074 A 
ATOM     49  C   UNL A   1      40.487  31.092  32.073  1.00  0.00     0.031 C 
ATOM     50  C   UNL A   1      40.370  26.007  27.424  1.00  0.00     0.029 A 
ATOM     51  C   UNL A   1      41.548  26.058  28.285  1.00  0.00     0.049 A 
ATOM     52  H   UNL A   1      41.887  27.341  29.891  1.00  0.00     0.167 HD
ATOM     53  C   UNL A   1      42.688  30.357  32.942  1.00  0.00     0.034 A 
ATOM     54  C   UNL A   1      42.624  25.253  28.179  1.00  0.00     0.034 A 
ATOM     55  C   UNL A   1      43.797  29.445  33.018  1.00  0.00     0.049 A 
ATOM     56  C   UNL A   1      43.751  25.397  29.165  1.00  0.00     0.074 A 
ATOM     57  C   UNL A   1      44.864  29.459  33.899  1.00  0.00     0.029 A 
ATOM     58  N   UNL A   1      43.982  28.354  32.184  1.00  0.00    -0.354 N 
ATOM     59  N   UNL A   1      43.871  26.244  30.160  1.00  0.00    -0.248 NA
ATOM     60  C   UNL A   1      44.871  24.453  29.041  1.00  0.00     0.031 C 
ATOM     61  C   UNL A   1      45.695  28.375  33.598  1.00  0.00     0.029 A 
ATOM     62  C   UNL A   1      45.145  27.686  32.528  1.00  0.00     0.049 A 
ATOM     63  H   UNL A   1      43.376  28.091  31.454  1.00  0.00     0.167 HD
ATOM     64  C   UNL A   1      45.062  25.918  30.796  1.00  0.00     0.074 A 
ATOM     65  C   UNL A   1      45.617  24.782  30.088  1.00  0.00     0.031 C 
ATOM     66  C   UNL A   1      45.655  26.519  31.856  1.00  0.00     0.034 A 
BRANCH  53  67
ATOM     67  C   UNL A   1      42.656  31.514  33.904  1.00  0.00     0.023 A 
ATOM     68  C   UNL A   1      43.215  32.748  33.512  1.00  0.00     0.012 A 
ATOM     69  C   UNL A   1      42.027  31.406  35.160  1.00  0.00     0.148 A 
ATOM     70  C   UNL A   1      43.172  33.850  34.364  1.00  0.00     0.002 A 
ATOM     71  C   UNL A   1      41.958  32.519  35.990  1.00  0.00     0.091 A 
ATOM     72  F   UNL A   1      41.525  30.219  35.526  1.00  0.00    -0.205 F 
ATOM     73  C   UNL A   1      42.535  33.739  35.598  1.00  0.00     0.022 A 
BRANCH  71  74
ATOM     74  S   UNL A   1      41.097  32.487  37.568  1.00  0.00     0.127 S 
ATOM     75  O   UNL A   1      39.798  31.938  37.183  1.00  0.00    -0.237 OA
ATOM     76  O   UNL A   1      41.928  31.583  38.362  1.00  0.00    -0.237 OA
ATOM     77  O   UNL A   1      41.087  33.865  38.039  1.00  0.00    -0.744 OA
ENDBRANCH  71  74
ENDBRANCH  53  67
BRANCH  54  78
ATOM     78  C   UNL A   1      42.641  24.179  27.149  1.00  0.00     0.023 A 
ATOM     79  C   UNL A   1      43.334  24.395  25.944  1.00  0.00     0.012 A 
ATOM     80  C   UNL A   1      42.023  22.933  27.372  1.00  0.00     0.148 A 
ATOM     81  C   UNL A   1      43.395  23.399  24.968  1.00  0.00     0.002 A 
ATOM     82  C   UNL A   1      42.129  21.927  26.418  1.00  0.00     0.091 A 
ATOM     83  F   UNL A   1      41.349  22.750  28.516  1.00  0.00    -0.205 F 
ATOM     84  C   UNL A   1      42.805  22.161  25.210  1.00  0.00     0.022 A 
BRANCH  82  85
ATOM     85  S   UNL A   1      41.509  20.268  26.723  1.00  0.00     0.127 S 
ATOM     86  O   UNL A   1      40.087  20.515  26.952  1.00  0.00    -0.237 OA
ATOM     87  O   UNL A   1      41.818  19.581  25.467  1.00  0.00    -0.237 OA
ATOM     88  O   UNL A   1      42.268  19.780  27.866  1.00  0.00    -0.744 OA
ENDBRANCH  82  85
ENDBRANCH  54  78
BRANCH  66  89
ATOM     89  C   UNL A   1      46.966  25.957  32.336  1.00  0.00     0.023 A 
ATOM     90  C   UNL A   1      48.168  26.448  31.790  1.00  0.00     0.012 A 
ATOM     91  C   UNL A   1      47.013  25.010  33.376  1.00  0.00     0.148 A 
ATOM     92  C   UNL A   1      49.398  25.988  32.256  1.00  0.00     0.002 A 
ATOM     93  C   UNL A   1      48.245  24.583  33.863  1.00  0.00     0.091 A 
ATOM     94  F   UNL A   1      45.859  24.535  33.868  1.00  0.00    -0.205 F 
ATOM     95  C   UNL A   1      49.437  25.066  33.300  1.00  0.00     0.022 A 
BRANCH  93  96
ATOM     96  S   UNL A   1      48.377  23.461  35.260  1.00  0.00     0.127 S 
ATOM     97  O   UNL A   1      49.825  23.379  35.443  1.00  0.00    -0.237 OA
ATOM     98  O   UNL A   1      47.670  24.186  36.317  1.00  0.00    -0.237 OA
ATOM     99  O   UNL A   1      47.721  22.231  34.838  1.00  0.00    -0.744 OA
ENDBRANCH  93  96
ENDBRANCH  66  89
ENDBRANCH  40  41
ENDBRANCH  32  35
ENDBRANCH  30  31
ENDBRANCH  29  30
ENDBRANCH   1  29
TORSDOF 17
ENDMDL
MODEL 2
REMARK VINA RESULT:     -12.3      2.281      3.232
REMARK SMILES CCc1cc(C(=O)c2[nH]c3cc(Cl)ccc3c2CC(=O)NCCCNC(=O)c2ccc(-c3c4nc(c(-c5cccc(S(=O)(=O)[O-])c5F)c5ccc([nH]5)c(-c5cccc(S(=O)(=O)[O-])c5F)c5nc(c(-c6cccc(S(=O)(=O)[O-])c6F)c6ccc3[nH]6)C=C5)C=C4)cc2)ncc1Cl
REMARK SMILES IDX 22 1 21 2 19 3 20 4 18 6 17 7 8 8 9 9 10 10 16 12 11 13
REMARK SMILES IDX 15 14 12 15 14 16 13 17 6 18 7 19 5 20 3 21 4 22 93 23 92 24
REMARK SMILES IDX 94 25 91 26 2 27 1 28 23 29 24 30 25 31 26 32 27 34 28 35
REMARK SMILES IDX 29 36 90 37 30 38 89 39 31 40 32 41 33 42 83 43 34 44 88 45
REMARK SMILES IDX 82 46 84 47 35 48 87 49 81 50 80 51 36 53 68 54 48 55 67 56
REMARK SMILES IDX 49 57 52 58 66 59 85 60 50 61 51 62 65 64 86 65 53 66 37 67
REMARK SMILES IDX 38 68 46 69 39 70 41 71 47 72 40 73 42 74 43 75 44 76 45 77
REMARK SMILES IDX 69 78 70 79 78 80 71 81 73 82 79 83 72 84 74 85 75 86 76 87
REMARK SMILES IDX 77 88 54 89 55 90 63 91 56 92 58 93 64 94 57 95 59 96 60 97
REMARK SMILES IDX 61 98 62 99
REMARK H PARENT 21 5 9 11 25 33 84 52 52 63
REMARK Flexibility Score: inf
ROOT
ATOM      1  C   UNL A   1      32.874  27.553  25.998  1.00  0.00     0.117 C 
ENDROOT
BRANCH   1   2
ATOM      2  N   UNL A   1      31.980  26.552  26.546  1.00  0.00    -0.356 N 
ATOM      3  C   UNL A   1      32.040  25.191  26.460  1.00  0.00     0.224 C 
ATOM      4  O   UNL A   1      31.269  24.531  27.165  1.00  0.00    -0.275 OA
ATOM      5  H   UNL A   1      31.214  26.907  27.053  1.00  0.00     0.163 HD
BRANCH   3   6
ATOM      6  C   UNL A   1      33.115  24.501  25.637  1.00  0.00     0.138 C 
BRANCH   6   7
ATOM      7  C   UNL A   1      32.647  23.829  24.376  1.00  0.00    -0.002 A 
ATOM      8  C   UNL A   1      32.169  24.431  23.214  1.00  0.00     0.093 A 
ATOM      9  N   UNL A   1      31.929  23.428  22.301  1.00  0.00    -0.351 N 
ATOM     10  C   UNL A   1      32.150  22.194  22.864  1.00  0.00     0.048 A 
ATOM     11  H   UNL A   1      31.638  23.574  21.372  1.00  0.00     0.167 HD
ATOM     12  C   UNL A   1      32.591  22.409  24.168  1.00  0.00     0.004 A 
ATOM     13  C   UNL A   1      32.022  20.915  22.307  1.00  0.00     0.047 A 
ATOM     14  C   UNL A   1      32.910  21.288  24.963  1.00  0.00     0.012 A 
ATOM     15  C   UNL A   1      32.352  19.825  23.117  1.00  0.00     0.043 A 
ATOM     16  C   UNL A   1      32.790  20.002  24.426  1.00  0.00     0.021 A 
ATOM     17  Cl  UNL A   1      32.216  18.228  22.489  1.00  0.00    -0.084 Cl
BRANCH   8  18
ATOM     18  C   UNL A   1      32.064  25.846  22.897  1.00  0.00     0.227 C 
ATOM     19  O   UNL A   1      33.039  26.462  22.473  1.00  0.00    -0.285 OA
BRANCH  18  20
ATOM     20  C   UNL A   1      30.749  26.563  23.102  1.00  0.00     0.113 A 
ATOM     21  C   UNL A   1      29.261  28.491  22.888  1.00  0.00    -0.026 A 
ATOM     22  C   UNL A   1      30.523  27.878  22.687  1.00  0.00     0.037 A 
ATOM     23  C   UNL A   1      28.250  27.703  23.455  1.00  0.00     0.062 A 
ATOM     24  C   UNL A   1      28.565  26.406  23.849  1.00  0.00     0.132 A 
ATOM     25  Cl  UNL A   1      26.616  28.205  23.649  1.00  0.00    -0.082 Cl
ATOM     26  N   UNL A   1      29.778  25.829  23.695  1.00  0.00    -0.251 NA
BRANCH  21  27
ATOM     27  C   UNL A   1      29.106  29.915  22.392  1.00  0.00     0.034 C 
ATOM     28  C   UNL A   1      29.004  31.035  23.421  1.00  0.00     0.009 C 
ENDBRANCH  21  27
ENDBRANCH  18  20
ENDBRANCH   8  18
ENDBRANCH   6   7
ENDBRANCH   3   6
ENDBRANCH   1   2
BRANCH   1  29
ATOM     29  C   UNL A   1      32.209  28.907  25.772  1.00  0.00     0.042 C 
BRANCH  29  30
ATOM     30  C   UNL A   1      31.923  29.702  27.044  1.00  0.00     0.118 C 
BRANCH  30  31
ATOM     31  N   UNL A   1      32.081  31.138  26.860  1.00  0.00    -0.352 N 
ATOM     32  C   UNL A   1      33.058  31.998  27.299  1.00  0.00     0.251 C 
ATOM     33  H   UNL A   1      31.368  31.565  26.332  1.00  0.00     0.163 HD
ATOM     34  O   UNL A   1      32.887  33.208  27.162  1.00  0.00    -0.269 OA
BRANCH  32  35
ATOM     35  C   UNL A   1      34.300  31.503  27.941  1.00  0.00     0.039 A 
ATOM     36  C   UNL A   1      35.330  32.416  28.193  1.00  0.00     0.014 A 
ATOM     37  C   UNL A   1      34.489  30.151  28.240  1.00  0.00     0.014 A 
ATOM     38  C   UNL A   1      36.520  31.989  28.792  1.00  0.00     0.010 A 
ATOM     39  C   UNL A   1      35.650  29.735  28.893  1.00  0.00     0.010 A 
ATOM     40  C   UNL A   1      36.679  30.647  29.173  1.00  0.00    -0.014 A 
BRANCH  40  41
ATOM     41  C   UNL A   1      37.902  30.184  29.878  1.00  0.00     0.031 A 
ATOM     42  C   UNL A   1      38.224  30.684  31.261  1.00  0.00     0.074 A 
ATOM     43  C   UNL A   1      38.776  29.384  29.235  1.00  0.00     0.049 A 
ATOM     44  N   UNL A   1      39.278  30.445  31.998  1.00  0.00    -0.248 NA
ATOM     45  C   UNL A   1      37.246  31.588  31.888  1.00  0.00     0.031 C 
ATOM     46  C   UNL A   1      38.620  28.892  27.866  1.00  0.00     0.029 A 
ATOM     47  N   UNL A   1      39.983  28.869  29.637  1.00  0.00    -0.354 N 
ATOM     48  C   UNL A   1      39.111  31.196  33.156  1.00  0.00     0.074 A 
ATOM     49  C   UNL A   1      37.863  31.916  33.015  1.00  0.00     0.031 C 
ATOM     50  C   UNL A   1      39.692  28.153  27.539  1.00  0.00     0.029 A 
ATOM     51  C   UNL A   1      40.620  28.133  28.666  1.00  0.00     0.049 A 
ATOM     52  H   UNL A   1      40.359  29.013  30.536  1.00  0.00     0.167 HD
ATOM     53  C   UNL A   1      39.909  31.261  34.249  1.00  0.00     0.034 A 
ATOM     54  C   UNL A   1      41.818  27.515  28.676  1.00  0.00     0.034 A 
ATOM     55  C   UNL A   1      41.117  30.500  34.417  1.00  0.00     0.049 A 
ATOM     56  C   UNL A   1      42.652  27.547  29.928  1.00  0.00     0.074 A 
ATOM     57  C   UNL A   1      41.941  30.425  35.527  1.00  0.00     0.029 A 
ATOM     58  N   UNL A   1      41.674  29.677  33.452  1.00  0.00    -0.354 N 
ATOM     59  N   UNL A   1      42.395  28.132  31.073  1.00  0.00    -0.248 NA
ATOM     60  C   UNL A   1      43.921  26.806  29.904  1.00  0.00     0.031 C 
ATOM     61  C   UNL A   1      42.997  29.557  35.232  1.00  0.00     0.029 A 
ATOM     62  C   UNL A   1      42.831  29.091  33.937  1.00  0.00     0.049 A 
ATOM     63  H   UNL A   1      41.303  29.531  32.551  1.00  0.00     0.167 HD
ATOM     64  C   UNL A   1      43.452  27.806  31.913  1.00  0.00     0.074 A 
ATOM     65  C   UNL A   1      44.344  26.955  31.153  1.00  0.00     0.031 C 
ATOM     66  C   UNL A   1      43.677  28.195  33.192  1.00  0.00     0.034 A 
BRANCH  53  67
ATOM     67  C   UNL A   1      39.458  32.133  35.390  1.00  0.00     0.023 A 
ATOM     68  C   UNL A   1      38.609  31.589  36.376  1.00  0.00     0.012 A 
ATOM     69  C   UNL A   1      39.915  33.459  35.525  1.00  0.00     0.148 A 
ATOM     70  C   UNL A   1      38.201  32.357  37.464  1.00  0.00     0.002 A 
ATOM     71  C   UNL A   1      39.530  34.208  36.632  1.00  0.00     0.091 A 
ATOM     72  F   UNL A   1      40.700  33.968  34.566  1.00  0.00    -0.205 F 
ATOM     73  C   UNL A   1      38.669  33.662  37.598  1.00  0.00     0.022 A 
BRANCH  71  74
ATOM     74  S   UNL A   1      40.140  35.874  36.921  1.00  0.00     0.127 S 
ATOM     75  O   UNL A   1      41.584  35.652  36.989  1.00  0.00    -0.237 OA
ATOM     76  O   UNL A   1      39.690  36.586  35.725  1.00  0.00    -0.237 OA
ATOM     77  O   UNL A   1      39.508  36.315  38.157  1.00  0.00    -0.744 OA
ENDBRANCH  71  74
ENDBRANCH  53  67
BRANCH  54  78
ATOM     78  C   UNL A   1      42.255  26.737  27.484  1.00  0.00     0.023 A 
ATOM     79  C   UNL A   1      42.982  27.386  26.470  1.00  0.00     0.012 A 
ATOM     80  C   UNL A   1      42.002  25.355  27.372  1.00  0.00     0.148 A 
ATOM     81  C   UNL A   1      43.433  26.681  25.354  1.00  0.00     0.002 A 
ATOM     82  C   UNL A   1      42.497  24.648  26.281  1.00  0.00     0.091 A 
ATOM     83  F   UNL A   1      41.290  24.755  28.337  1.00  0.00    -0.205 F 
ATOM     84  C   UNL A   1      43.202  25.311  25.265  1.00  0.00     0.022 A 
BRANCH  82  85
ATOM     85  S   UNL A   1      42.351  22.860  26.173  1.00  0.00     0.127 S 
ATOM     86  O   UNL A   1      40.906  22.669  26.260  1.00  0.00    -0.237 OA
ATOM     87  O   UNL A   1      42.930  22.577  24.857  1.00  0.00    -0.237 OA
ATOM     88  O   UNL A   1      43.136  22.345  27.286  1.00  0.00    -0.744 OA
ENDBRANCH  82  85
ENDBRANCH  54  78
BRANCH  66  89
ATOM     89  C   UNL A   1      44.926  27.696  33.866  1.00  0.00     0.023 A 
ATOM     90  C   UNL A   1      46.116  28.441  33.752  1.00  0.00     0.012 A 
ATOM     91  C   UNL A   1      44.904  26.542  34.673  1.00  0.00     0.148 A 
ATOM     92  C   UNL A   1      47.274  28.033  34.413  1.00  0.00     0.002 A 
ATOM     93  C   UNL A   1      46.053  26.162  35.360  1.00  0.00     0.091 A 
ATOM     94  F   UNL A   1      43.769  25.832  34.750  1.00  0.00    -0.205 F 
ATOM     95  C   UNL A   1      47.239  26.902  35.227  1.00  0.00     0.022 A 
BRANCH  93  96
ATOM     96  S   UNL A   1      46.064  24.766  36.492  1.00  0.00     0.127 S 
ATOM     97  O   UNL A   1      45.811  23.646  35.588  1.00  0.00    -0.237 OA
ATOM     98  O   UNL A   1      47.419  24.812  37.041  1.00  0.00    -0.237 OA
ATOM     99  O   UNL A   1      45.016  25.043  37.465  1.00  0.00    -0.744 OA
ENDBRANCH  93  96
ENDBRANCH  66  89
ENDBRANCH  40  41
ENDBRANCH  32  35
ENDBRANCH  30  31
ENDBRANCH  29  30
ENDBRANCH   1  29
TORSDOF 17
ENDMDL
MODEL 3
REMARK VINA RESULT:     -12.2      4.331      9.500
REMARK SMILES CCc1cc(C(=O)c2[nH]c3cc(Cl)ccc3c2CC(=O)NCCCNC(=O)c2ccc(-c3c4nc(c(-c5cccc(S(=O)(=O)[O-])c5F)c5ccc([nH]5)c(-c5cccc(S(=O)(=O)[O-])c5F)c5nc(c(-c6cccc(S(=O)(=O)[O-])c6F)c6ccc3[nH]6)C=C5)C=C4)cc2)ncc1Cl
REMARK SMILES IDX 22 1 21 2 19 3 20 4 18 6 17 7 8 8 9 9 10 10 16 12 11 13
REMARK SMILES IDX 15 14 12 15 14 16 13 17 6 18 7 19 5 20 3 21 4 22 93 23 92 24
REMARK SMILES IDX 94 25 91 26 2 27 1 28 23 29 24 30 25 31 26 32 27 34 28 35
REMARK SMILES IDX 29 36 90 37 30 38 89 39 31 40 32 41 33 42 83 43 34 44 88 45
REMARK SMILES IDX 82 46 84 47 35 48 87 49 81 50 80 51 36 53 68 54 48 55 67 56
REMARK SMILES IDX 49 57 52 58 66 59 85 60 50 61 51 62 65 64 86 65 53 66 37 67
REMARK SMILES IDX 38 68 46 69 39 70 41 71 47 72 40 73 42 74 43 75 44 76 45 77
REMARK SMILES IDX 69 78 70 79 78 80 71 81 73 82 79 83 72 84 74 85 75 86 76 87
REMARK SMILES IDX 77 88 54 89 55 90 63 91 56 92 58 93 64 94 57 95 59 96 60 97
REMARK SMILES IDX 61 98 62 99
REMARK H PARENT 21 5 9 11 25 33 84 52 52 63
REMARK Flexibility Score: inf
ROOT
ATOM      1  C   UNL A   1      35.117  23.022  23.927  1.00  0.00     0.117 C 
ENDROOT
BRANCH   1   2
ATOM      2  N   UNL A   1      34.686  23.800  22.781  1.00  0.00    -0.356 N 
ATOM      3  C   UNL A   1      33.961  24.956  22.737  1.00  0.00     0.224 C 
ATOM      4  O   UNL A   1      33.871  25.543  21.655  1.00  0.00    -0.275 OA
ATOM      5  H   UNL A   1      34.955  23.441  21.906  1.00  0.00     0.163 HD
BRANCH   3   6
ATOM      6  C   UNL A   1      33.402  25.583  24.004  1.00  0.00     0.138 C 
BRANCH   6   7
ATOM      7  C   UNL A   1      31.914  25.477  24.188  1.00  0.00    -0.002 A 
ATOM      8  C   UNL A   1      31.197  24.433  24.771  1.00  0.00     0.093 A 
ATOM      9  N   UNL A   1      29.871  24.804  24.786  1.00  0.00    -0.351 N 
ATOM     10  C   UNL A   1      29.695  26.010  24.151  1.00  0.00     0.048 A 
ATOM     11  H   UNL A   1      29.146  24.276  25.194  1.00  0.00     0.167 HD
ATOM     12  C   UNL A   1      30.955  26.454  23.755  1.00  0.00     0.004 A 
ATOM     13  C   UNL A   1      28.525  26.749  23.930  1.00  0.00     0.047 A 
ATOM     14  C   UNL A   1      31.052  27.696  23.092  1.00  0.00     0.012 A 
ATOM     15  C   UNL A   1      28.655  27.977  23.276  1.00  0.00     0.043 A 
ATOM     16  C   UNL A   1      29.896  28.449  22.861  1.00  0.00     0.021 A 
ATOM     17  Cl  UNL A   1      27.253  28.930  22.975  1.00  0.00    -0.084 Cl
BRANCH   8  18
ATOM     18  C   UNL A   1      31.699  23.225  25.405  1.00  0.00     0.227 C 
ATOM     19  O   UNL A   1      31.927  23.205  26.612  1.00  0.00    -0.285 OA
BRANCH  18  20
ATOM     20  C   UNL A   1      31.953  21.991  24.569  1.00  0.00     0.113 A 
ATOM     21  C   UNL A   1      32.523  19.631  24.284  1.00  0.00    -0.026 A 
ATOM     22  C   UNL A   1      32.320  20.759  25.117  1.00  0.00     0.037 A 
ATOM     23  C   UNL A   1      32.279  19.796  22.914  1.00  0.00     0.062 A 
ATOM     24  C   UNL A   1      31.927  21.060  22.452  1.00  0.00     0.132 A 
ATOM     25  Cl  UNL A   1      32.325  18.524  21.756  1.00  0.00    -0.082 Cl
ATOM     26  N   UNL A   1      31.769  22.149  23.237  1.00  0.00    -0.251 NA
BRANCH  21  27
ATOM     27  C   UNL A   1      32.907  18.335  24.970  1.00  0.00     0.034 C 
ATOM     28  C   UNL A   1      34.210  17.655  24.564  1.00  0.00     0.009 C 
ENDBRANCH  21  27
ENDBRANCH  18  20
ENDBRANCH   8  18
ENDBRANCH   6   7
ENDBRANCH   3   6
ENDBRANCH   1   2
BRANCH   1  29
ATOM     29  C   UNL A   1      36.479  23.440  24.471  1.00  0.00     0.042 C 
BRANCH  29  30
ATOM     30  C   UNL A   1      36.721  23.085  25.936  1.00  0.00     0.118 C 
BRANCH  30  31
ATOM     31  N   UNL A   1      37.897  22.248  26.128  1.00  0.00    -0.352 N 
ATOM     32  C   UNL A   1      39.192  22.576  26.448  1.00  0.00     0.251 C 
ATOM     33  H   UNL A   1      37.738  21.284  26.008  1.00  0.00     0.163 HD
ATOM     34  O   UNL A   1      40.056  21.704  26.388  1.00  0.00    -0.269 OA
BRANCH  32  35
ATOM     35  C   UNL A   1      39.570  23.953  26.848  1.00  0.00     0.039 A 
ATOM     36  C   UNL A   1      39.379  24.336  28.181  1.00  0.00     0.014 A 
ATOM     37  C   UNL A   1      40.045  24.888  25.925  1.00  0.00     0.014 A 
ATOM     38  C   UNL A   1      39.717  25.628  28.599  1.00  0.00     0.010 A 
ATOM     39  C   UNL A   1      40.440  26.156  26.353  1.00  0.00     0.010 A 
ATOM     40  C   UNL A   1      40.277  26.541  27.692  1.00  0.00    -0.014 A 
BRANCH  40  41
ATOM     41  C   UNL A   1      40.713  27.893  28.128  1.00  0.00     0.031 A 
ATOM     42  C   UNL A   1      42.173  28.254  28.158  1.00  0.00     0.074 A 
ATOM     43  C   UNL A   1      39.797  28.769  28.589  1.00  0.00     0.049 A 
ATOM     44  N   UNL A   1      42.741  29.357  28.575  1.00  0.00    -0.248 NA
ATOM     45  C   UNL A   1      43.122  27.236  27.679  1.00  0.00     0.031 C 
ATOM     46  C   UNL A   1      38.359  28.515  28.686  1.00  0.00     0.029 A 
ATOM     47  N   UNL A   1      39.944  30.038  29.092  1.00  0.00    -0.354 N 
ATOM     48  C   UNL A   1      44.110  29.153  28.446  1.00  0.00     0.074 A 
ATOM     49  C   UNL A   1      44.289  27.812  27.931  1.00  0.00     0.031 C 
ATOM     50  C   UNL A   1      37.757  29.589  29.221  1.00  0.00     0.029 A 
ATOM     51  C   UNL A   1      38.765  30.600  29.523  1.00  0.00     0.049 A 
ATOM     52  H   UNL A   1      40.811  30.502  29.140  1.00  0.00     0.167 HD
ATOM     53  C   UNL A   1      45.125  30.011  28.706  1.00  0.00     0.034 A 
ATOM     54  C   UNL A   1      38.521  31.794  30.100  1.00  0.00     0.034 A 
ATOM     55  C   UNL A   1      44.947  31.365  29.158  1.00  0.00     0.049 A 
ATOM     56  C   UNL A   1      39.659  32.754  30.314  1.00  0.00     0.074 A 
ATOM     57  C   UNL A   1      45.909  32.340  29.356  1.00  0.00     0.029 A 
ATOM     58  N   UNL A   1      43.726  31.937  29.479  1.00  0.00    -0.354 N 
ATOM     59  N   UNL A   1      40.931  32.600  30.031  1.00  0.00    -0.248 NA
ATOM     60  C   UNL A   1      39.327  34.065  30.891  1.00  0.00     0.031 C 
ATOM     61  C   UNL A   1      45.268  33.503  29.798  1.00  0.00     0.029 A 
ATOM     62  C   UNL A   1      43.907  33.251  29.875  1.00  0.00     0.049 A 
ATOM     63  H   UNL A   1      42.857  31.476  29.433  1.00  0.00     0.167 HD
ATOM     64  C   UNL A   1      41.544  33.801  30.367  1.00  0.00     0.074 A 
ATOM     65  C   UNL A   1      40.502  34.681  30.856  1.00  0.00     0.031 C 
ATOM     66  C   UNL A   1      42.855  34.137  30.299  1.00  0.00     0.034 A 
BRANCH  53  67
ATOM     67  C   UNL A   1      46.527  29.537  28.432  1.00  0.00     0.023 A 
ATOM     68  C   UNL A   1      47.104  29.793  27.170  1.00  0.00     0.012 A 
ATOM     69  C   UNL A   1      47.294  28.898  29.426  1.00  0.00     0.148 A 
ATOM     70  C   UNL A   1      48.412  29.399  26.894  1.00  0.00     0.002 A 
ATOM     71  C   UNL A   1      48.609  28.539  29.154  1.00  0.00     0.091 A 
ATOM     72  F   UNL A   1      46.721  28.639  30.610  1.00  0.00    -0.205 F 
ATOM     73  C   UNL A   1      49.167  28.781  27.888  1.00  0.00     0.022 A 
BRANCH  71  74
ATOM     74  S   UNL A   1      49.678  27.801  30.396  1.00  0.00     0.127 S 
ATOM     75  O   UNL A   1      49.012  26.523  30.639  1.00  0.00    -0.237 OA
ATOM     76  O   UNL A   1      50.956  27.698  29.690  1.00  0.00    -0.237 OA
ATOM     77  O   UNL A   1      49.684  28.735  31.515  1.00  0.00    -0.744 OA
ENDBRANCH  71  74
ENDBRANCH  53  67
BRANCH  54  78
ATOM     78  C   UNL A   1      37.122  32.178  30.432  1.00  0.00     0.023 A 
ATOM     79  C   UNL A   1      36.636  31.942  31.731  1.00  0.00     0.012 A 
ATOM     80  C   UNL A   1      36.289  32.818  29.493  1.00  0.00     0.148 A 
ATOM     81  C   UNL A   1      35.339  32.316  32.086  1.00  0.00     0.002 A 
ATOM     82  C   UNL A   1      35.016  33.234  29.867  1.00  0.00     0.091 A 
ATOM     83  F   UNL A   1      36.760  33.018  28.253  1.00  0.00    -0.205 F 
ATOM     84  C   UNL A   1      34.534  32.973  31.160  1.00  0.00     0.022 A 
BRANCH  82  85
ATOM     85  S   UNL A   1      33.979  34.204  28.765  1.00  0.00     0.127 S 
ATOM     86  O   UNL A   1      33.645  33.229  27.729  1.00  0.00    -0.237 OA
ATOM     87  O   UNL A   1      32.864  34.582  29.635  1.00  0.00    -0.237 OA
ATOM     88  O   UNL A   1      34.809  35.325  28.348  1.00  0.00    -0.744 OA
ENDBRANCH  82  85
ENDBRANCH  54  78
BRANCH  66  89
ATOM     89  C   UNL A   1      43.246  35.519  30.746  1.00  0.00     0.023 A 
ATOM     90  C   UNL A   1      43.639  35.726  32.083  1.00  0.00     0.012 A 
ATOM     91  C   UNL A   1      43.305  36.589  29.833  1.00  0.00     0.148 A 
ATOM     92  C   UNL A   1      44.062  36.984  32.511  1.00  0.00     0.002 A 
ATOM     93  C   UNL A   1      43.764  37.832  30.257  1.00  0.00     0.091 A 
ATOM     94  F   UNL A   1      42.904  36.380  28.570  1.00  0.00    -0.205 F 
ATOM     95  C   UNL A   1      44.137  38.033  31.596  1.00  0.00     0.022 A 
BRANCH  93  96
ATOM     96  S   UNL A   1      43.968  39.208  29.119  1.00  0.00     0.127 S 
ATOM     97  O   UNL A   1      44.317  40.299  30.028  1.00  0.00    -0.237 OA
ATOM     98  O   UNL A   1      45.065  38.754  28.264  1.00  0.00    -0.237 OA
ATOM     99  O   UNL A   1      42.691  39.340  28.432  1.00  0.00    -0.744 OA
ENDBRANCH  93  96
ENDBRANCH  66  89
ENDBRANCH  40  41
ENDBRANCH  32  35
ENDBRANCH  30  31
ENDBRANCH  29  30
ENDBRANCH   1  29
TORSDOF 17
ENDMDL
