MODEL 1
REMARK VINA RESULT:     -10.9      0.000      0.000
REMARK SMILES O=C(CCCC(=O)Nc1ccccc1F)NCCCNC(=O)c1ccc(-c2c3nc(c(-c4cccc(S(=O)(=O)[O-])c4F)c4ccc([nH]4)c(-c4cccc(S(=O)(=O)[O-])c4F)c4nc(c(-c5cccc(S(=O)(=O)[O-])c5F)c5ccc2[nH]5)C=C4)C=C3)cc1
REMARK SMILES IDX 17 1 16 2 1 3 2 4 3 6 4 7 5 8 6 9 7 10 8 11 9 13 10 14 14 15
REMARK SMILES IDX 11 16 13 17 15 18 12 19 18 20 19 21 20 22 21 23 22 25 23 26
REMARK SMILES IDX 24 27 85 28 25 29 84 30 26 31 27 32 28 33 78 34 29 35 83 36
REMARK SMILES IDX 77 37 79 38 30 39 82 40 76 41 75 42 31 44 63 45 43 46 62 47
REMARK SMILES IDX 44 48 47 49 61 50 80 51 45 52 46 53 60 55 81 56 48 57 32 58
REMARK SMILES IDX 33 59 41 60 34 61 36 62 42 63 35 64 37 65 38 66 39 67 40 68
REMARK SMILES IDX 64 69 65 70 73 71 66 72 68 73 74 74 67 75 69 76 70 77 71 78
REMARK SMILES IDX 72 79 49 80 50 81 58 82 51 83 53 84 59 85 52 86 54 87 55 88
REMARK SMILES IDX 56 89 57 90
REMARK H PARENT 16 5 8 12 20 24 79 43 47 54
REMARK Flexibility Score: inf
ROOT
ATOM      1  C   UNL A   1      36.179  20.187  25.002  1.00  0.00     0.117 C 
ENDROOT
BRANCH   1   2
ATOM      2  N   UNL A   1      36.007  21.417  25.748  1.00  0.00    -0.356 N 
ATOM      3  O   UNL A   1      35.575  22.704  23.905  1.00  0.00    -0.275 OA
ATOM      4  C   UNL A   1      35.688  22.602  25.124  1.00  0.00     0.220 C 
ATOM      5  H   UNL A   1      36.119  21.406  26.726  1.00  0.00     0.163 HD
BRANCH   4   6
ATOM      6  C   UNL A   1      35.551  23.804  26.041  1.00  0.00     0.100 C 
BRANCH   6   7
ATOM      7  C   UNL A   1      34.254  24.616  25.967  1.00  0.00     0.020 C 
BRANCH   7   8
ATOM      8  C   UNL A   1      32.927  23.898  25.744  1.00  0.00     0.101 C 
BRANCH   8   9
ATOM      9  C   UNL A   1      31.728  24.189  26.650  1.00  0.00     0.224 C 
ATOM     10  O   UNL A   1      31.401  23.395  27.534  1.00  0.00    -0.275 OA
ATOM     11  N   UNL A   1      31.217  25.463  26.662  1.00  0.00    -0.324 N 
ATOM     12  H   UNL A   1      31.151  25.894  27.545  1.00  0.00     0.170 HD
BRANCH  11  13
ATOM     13  C   UNL A   1      30.777  26.225  25.569  1.00  0.00     0.077 A 
ATOM     14  C   UNL A   1      29.592  25.853  24.931  1.00  0.00     0.029 A 
ATOM     15  C   UNL A   1      31.510  27.297  25.058  1.00  0.00     0.146 A 
ATOM     16  C   UNL A   1      29.077  26.645  23.898  1.00  0.00     0.002 A 
ATOM     17  C   UNL A   1      31.017  28.070  24.008  1.00  0.00     0.041 A 
ATOM     18  F   UNL A   1      32.705  27.611  25.580  1.00  0.00    -0.205 F 
ATOM     19  C   UNL A   1      29.779  27.764  23.450  1.00  0.00     0.003 A 
ENDBRANCH  11  13
ENDBRANCH   8   9
ENDBRANCH   7   8
ENDBRANCH   6   7
ENDBRANCH   4   6
ENDBRANCH   1   2
BRANCH   1  20
ATOM     20  C   UNL A   1      37.634  19.861  24.671  1.00  0.00     0.042 C 
BRANCH  20  21
ATOM     21  C   UNL A   1      38.659  20.281  25.723  1.00  0.00     0.118 C 
BRANCH  21  22
ATOM     22  N   UNL A   1      39.739  19.323  25.887  1.00  0.00    -0.352 N 
ATOM     23  C   UNL A   1      41.071  19.522  26.152  1.00  0.00     0.251 C 
ATOM     24  H   UNL A   1      39.472  18.381  25.793  1.00  0.00     0.163 HD
ATOM     25  O   UNL A   1      41.842  18.561  26.094  1.00  0.00    -0.269 OA
BRANCH  23  26
ATOM     26  C   UNL A   1      41.606  20.864  26.482  1.00  0.00     0.039 A 
ATOM     27  C   UNL A   1      41.825  21.771  25.439  1.00  0.00     0.014 A 
ATOM     28  C   UNL A   1      41.940  21.224  27.791  1.00  0.00     0.014 A 
ATOM     29  C   UNL A   1      42.319  23.051  25.713  1.00  0.00     0.010 A 
ATOM     30  C   UNL A   1      42.374  22.523  28.070  1.00  0.00     0.010 A 
ATOM     31  C   UNL A   1      42.566  23.453  27.035  1.00  0.00    -0.014 A 
BRANCH  31  32
ATOM     32  C   UNL A   1      42.993  24.844  27.351  1.00  0.00     0.031 A 
ATOM     33  C   UNL A   1      42.040  25.818  27.994  1.00  0.00     0.074 A 
ATOM     34  C   UNL A   1      44.224  25.260  26.991  1.00  0.00     0.049 A 
ATOM     35  N   UNL A   1      42.223  27.083  28.276  1.00  0.00    -0.248 NA
ATOM     36  C   UNL A   1      40.705  25.313  28.350  1.00  0.00     0.031 C 
ATOM     37  C   UNL A   1      45.227  24.438  26.311  1.00  0.00     0.029 A 
ATOM     38  N   UNL A   1      44.835  26.485  27.122  1.00  0.00    -0.354 N 
ATOM     39  C   UNL A   1      41.021  27.533  28.810  1.00  0.00     0.074 A 
ATOM     40  C   UNL A   1      40.107  26.412  28.789  1.00  0.00     0.031 C 
ATOM     41  C   UNL A   1      46.325  25.176  26.089  1.00  0.00     0.029 A 
ATOM     42  C   UNL A   1      46.097  26.534  26.575  1.00  0.00     0.049 A 
ATOM     43  H   UNL A   1      44.411  27.254  27.565  1.00  0.00     0.167 HD
ATOM     44  C   UNL A   1      40.715  28.760  29.298  1.00  0.00     0.034 A 
ATOM     45  C   UNL A   1      46.972  27.554  26.465  1.00  0.00     0.034 A 
ATOM     46  C   UNL A   1      41.637  29.863  29.361  1.00  0.00     0.049 A 
ATOM     47  C   UNL A   1      46.617  28.899  27.035  1.00  0.00     0.074 A 
ATOM     48  C   UNL A   1      41.435  31.117  29.911  1.00  0.00     0.029 A 
ATOM     49  N   UNL A   1      42.929  29.852  28.859  1.00  0.00    -0.354 N 
ATOM     50  N   UNL A   1      45.521  29.266  27.655  1.00  0.00    -0.248 NA
ATOM     51  C   UNL A   1      47.625  29.963  26.922  1.00  0.00     0.031 C 
ATOM     52  C   UNL A   1      42.595  31.874  29.717  1.00  0.00     0.029 A 
ATOM     53  C   UNL A   1      43.531  31.080  29.076  1.00  0.00     0.049 A 
ATOM     54  H   UNL A   1      43.354  29.084  28.413  1.00  0.00     0.167 HD
ATOM     55  C   UNL A   1      45.721  30.588  28.034  1.00  0.00     0.074 A 
ATOM     56  C   UNL A   1      47.050  30.955  27.590  1.00  0.00     0.031 C 
ATOM     57  C   UNL A   1      44.872  31.426  28.678  1.00  0.00     0.034 A 
BRANCH  44  58
ATOM     58  C   UNL A   1      39.335  28.974  29.865  1.00  0.00     0.023 A 
ATOM     59  C   UNL A   1      39.048  28.539  31.175  1.00  0.00     0.012 A 
ATOM     60  C   UNL A   1      38.360  29.698  29.149  1.00  0.00     0.148 A 
ATOM     61  C   UNL A   1      37.808  28.800  31.755  1.00  0.00     0.002 A 
ATOM     62  C   UNL A   1      37.144  29.995  29.751  1.00  0.00     0.091 A 
ATOM     63  F   UNL A   1      38.646  30.089  27.898  1.00  0.00    -0.205 F 
ATOM     64  C   UNL A   1      36.862  29.538  31.050  1.00  0.00     0.022 A 
BRANCH  62  65
ATOM     65  S   UNL A   1      35.889  31.014  28.965  1.00  0.00     0.127 S 
ATOM     66  O   UNL A   1      35.029  31.348  30.096  1.00  0.00    -0.237 OA
ATOM     67  O   UNL A   1      36.677  32.126  28.443  1.00  0.00    -0.237 OA
ATOM     68  O   UNL A   1      35.271  30.171  27.943  1.00  0.00    -0.744 OA
ENDBRANCH  62  65
ENDBRANCH  44  58
BRANCH  45  69
ATOM     69  C   UNL A   1      48.304  27.313  25.838  1.00  0.00     0.023 A 
ATOM     70  C   UNL A   1      49.357  26.810  26.626  1.00  0.00     0.012 A 
ATOM     71  C   UNL A   1      48.514  27.518  24.460  1.00  0.00     0.148 A 
ATOM     72  C   UNL A   1      50.601  26.533  26.057  1.00  0.00     0.002 A 
ATOM     73  C   UNL A   1      49.735  27.184  23.889  1.00  0.00     0.091 A 
ATOM     74  F   UNL A   1      47.501  28.008  23.731  1.00  0.00    -0.205 F 
ATOM     75  C   UNL A   1      50.786  26.707  24.688  1.00  0.00     0.022 A 
BRANCH  73  76
ATOM     76  S   UNL A   1      50.019  27.234  22.116  1.00  0.00     0.127 S 
ATOM     77  O   UNL A   1      48.965  26.356  21.617  1.00  0.00    -0.237 OA
ATOM     78  O   UNL A   1      49.834  28.654  21.821  1.00  0.00    -0.237 OA
ATOM     79  O   UNL A   1      51.384  26.755  21.922  1.00  0.00    -0.744 OA
ENDBRANCH  73  76
ENDBRANCH  45  69
BRANCH  57  80
ATOM     80  C   UNL A   1      45.344  32.826  28.979  1.00  0.00     0.023 A 
ATOM     81  C   UNL A   1      46.087  33.077  30.150  1.00  0.00     0.012 A 
ATOM     82  C   UNL A   1      45.151  33.865  28.048  1.00  0.00     0.148 A 
ATOM     83  C   UNL A   1      46.610  34.346  30.399  1.00  0.00     0.002 A 
ATOM     84  C   UNL A   1      45.717  35.114  28.278  1.00  0.00     0.091 A 
ATOM     85  F   UNL A   1      44.427  33.612  26.947  1.00  0.00    -0.205 F 
ATOM     86  C   UNL A   1      46.438  35.359  29.457  1.00  0.00     0.022 A 
BRANCH  84  87
ATOM     87  S   UNL A   1      45.638  36.448  27.077  1.00  0.00     0.127 S 
ATOM     88  O   UNL A   1      46.286  35.843  25.916  1.00  0.00    -0.237 OA
ATOM     89  O   UNL A   1      44.197  36.653  26.934  1.00  0.00    -0.237 OA
ATOM     90  O   UNL A   1      46.353  37.570  27.676  1.00  0.00    -0.744 OA
ENDBRANCH  84  87
ENDBRANCH  57  80
ENDBRANCH  31  32
ENDBRANCH  23  26
ENDBRANCH  21  22
ENDBRANCH  20  21
ENDBRANCH   1  20
TORSDOF 17
ENDMDL
MODEL 2
REMARK VINA RESULT:     -10.8      1.147      1.698
REMARK SMILES O=C(CCCC(=O)Nc1ccccc1F)NCCCNC(=O)c1ccc(-c2c3nc(c(-c4cccc(S(=O)(=O)[O-])c4F)c4ccc([nH]4)c(-c4cccc(S(=O)(=O)[O-])c4F)c4nc(c(-c5cccc(S(=O)(=O)[O-])c5F)c5ccc2[nH]5)C=C4)C=C3)cc1
REMARK SMILES IDX 17 1 16 2 1 3 2 4 3 6 4 7 5 8 6 9 7 10 8 11 9 13 10 14 14 15
REMARK SMILES IDX 11 16 13 17 15 18 12 19 18 20 19 21 20 22 21 23 22 25 23 26
REMARK SMILES IDX 24 27 85 28 25 29 84 30 26 31 27 32 28 33 78 34 29 35 83 36
REMARK SMILES IDX 77 37 79 38 30 39 82 40 76 41 75 42 31 44 63 45 43 46 62 47
REMARK SMILES IDX 44 48 47 49 61 50 80 51 45 52 46 53 60 55 81 56 48 57 32 58
REMARK SMILES IDX 33 59 41 60 34 61 36 62 42 63 35 64 37 65 38 66 39 67 40 68
REMARK SMILES IDX 64 69 65 70 73 71 66 72 68 73 74 74 67 75 69 76 70 77 71 78
REMARK SMILES IDX 72 79 49 80 50 81 58 82 51 83 53 84 59 85 52 86 54 87 55 88
REMARK SMILES IDX 56 89 57 90
REMARK H PARENT 16 5 8 12 20 24 79 43 47 54
REMARK Flexibility Score: inf
ROOT
ATOM      1  C   UNL A   1      35.742  20.358  25.008  1.00  0.00     0.117 C 
ENDROOT
BRANCH   1   2
ATOM      2  N   UNL A   1      35.199  21.689  24.832  1.00  0.00    -0.356 N 
ATOM      3  O   UNL A   1      34.744  22.013  27.051  1.00  0.00    -0.275 OA
ATOM      4  C   UNL A   1      34.753  22.436  25.898  1.00  0.00     0.220 C 
ATOM      5  H   UNL A   1      35.148  22.071  23.925  1.00  0.00     0.163 HD
BRANCH   4   6
ATOM      6  C   UNL A   1      34.202  23.808  25.549  1.00  0.00     0.100 C 
BRANCH   6   7
ATOM      7  C   UNL A   1      34.641  24.437  24.223  1.00  0.00     0.020 C 
BRANCH   7   8
ATOM      8  C   UNL A   1      33.660  24.499  23.056  1.00  0.00     0.101 C 
BRANCH   8   9
ATOM      9  C   UNL A   1      33.287  25.845  22.429  1.00  0.00     0.224 C 
ATOM     10  O   UNL A   1      33.605  26.107  21.268  1.00  0.00    -0.275 OA
ATOM     11  N   UNL A   1      32.350  26.620  23.066  1.00  0.00    -0.324 N 
ATOM     12  H   UNL A   1      31.578  26.900  22.523  1.00  0.00     0.170 HD
BRANCH  11  13
ATOM     13  C   UNL A   1      32.360  27.064  24.398  1.00  0.00     0.077 A 
ATOM     14  C   UNL A   1      31.285  26.726  25.221  1.00  0.00     0.029 A 
ATOM     15  C   UNL A   1      33.371  27.880  24.909  1.00  0.00     0.146 A 
ATOM     16  C   UNL A   1      31.308  27.072  26.577  1.00  0.00     0.002 A 
ATOM     17  C   UNL A   1      33.382  28.255  26.251  1.00  0.00     0.041 A 
ATOM     18  F   UNL A   1      34.361  28.311  24.113  1.00  0.00    -0.205 F 
ATOM     19  C   UNL A   1      32.366  27.818  27.097  1.00  0.00     0.003 A 
ENDBRANCH  11  13
ENDBRANCH   8   9
ENDBRANCH   7   8
ENDBRANCH   6   7
ENDBRANCH   4   6
ENDBRANCH   1   2
BRANCH   1  20
ATOM     20  C   UNL A   1      37.201  20.221  24.576  1.00  0.00     0.042 C 
BRANCH  20  21
ATOM     21  C   UNL A   1      38.238  20.653  25.611  1.00  0.00     0.118 C 
BRANCH  21  22
ATOM     22  N   UNL A   1      39.281  19.663  25.825  1.00  0.00    -0.352 N 
ATOM     23  C   UNL A   1      40.602  19.822  26.160  1.00  0.00     0.251 C 
ATOM     24  H   UNL A   1      38.993  18.729  25.711  1.00  0.00     0.163 HD
ATOM     25  O   UNL A   1      41.348  18.840  26.136  1.00  0.00    -0.269 OA
BRANCH  23  26
ATOM     26  C   UNL A   1      41.156  21.146  26.527  1.00  0.00     0.039 A 
ATOM     27  C   UNL A   1      41.718  21.938  25.519  1.00  0.00     0.014 A 
ATOM     28  C   UNL A   1      41.177  21.597  27.849  1.00  0.00     0.014 A 
ATOM     29  C   UNL A   1      42.242  23.199  25.824  1.00  0.00     0.010 A 
ATOM     30  C   UNL A   1      41.644  22.882  28.143  1.00  0.00     0.010 A 
ATOM     31  C   UNL A   1      42.179  23.699  27.134  1.00  0.00    -0.014 A 
BRANCH  31  32
ATOM     32  C   UNL A   1      42.638  25.079  27.455  1.00  0.00     0.031 A 
ATOM     33  C   UNL A   1      41.709  26.072  28.102  1.00  0.00     0.074 A 
ATOM     34  C   UNL A   1      43.879  25.468  27.096  1.00  0.00     0.049 A 
ATOM     35  N   UNL A   1      41.920  27.331  28.389  1.00  0.00    -0.248 NA
ATOM     36  C   UNL A   1      40.362  25.597  28.457  1.00  0.00     0.031 C 
ATOM     37  C   UNL A   1      44.862  24.625  26.412  1.00  0.00     0.029 A 
ATOM     38  N   UNL A   1      44.518  26.678  27.231  1.00  0.00    -0.354 N 
ATOM     39  C   UNL A   1      40.730  27.807  28.926  1.00  0.00     0.074 A 
ATOM     40  C   UNL A   1      39.790  26.708  28.901  1.00  0.00     0.031 C 
ATOM     41  C   UNL A   1      45.976  25.339  26.193  1.00  0.00     0.029 A 
ATOM     42  C   UNL A   1      45.781  26.700  26.684  1.00  0.00     0.049 A 
ATOM     43  H   UNL A   1      44.112  27.455  27.678  1.00  0.00     0.167 HD
ATOM     44  C   UNL A   1      40.452  29.039  29.419  1.00  0.00     0.034 A 
ATOM     45  C   UNL A   1      46.679  27.699  26.577  1.00  0.00     0.034 A 
ATOM     46  C   UNL A   1      41.400  30.120  29.486  1.00  0.00     0.049 A 
ATOM     47  C   UNL A   1      46.355  29.050  27.154  1.00  0.00     0.074 A 
ATOM     48  C   UNL A   1      41.227  31.376  30.041  1.00  0.00     0.029 A 
ATOM     49  N   UNL A   1      42.690  30.081  28.983  1.00  0.00    -0.354 N 
ATOM     50  N   UNL A   1      45.268  29.440  27.776  1.00  0.00    -0.248 NA
ATOM     51  C   UNL A   1      47.387  30.091  27.044  1.00  0.00     0.031 C 
ATOM     52  C   UNL A   1      42.403  32.107  29.849  1.00  0.00     0.029 A 
ATOM     53  C   UNL A   1      43.321  31.294  29.204  1.00  0.00     0.049 A 
ATOM     54  H   UNL A   1      43.098  29.305  28.533  1.00  0.00     0.167 HD
ATOM     55  C   UNL A   1      45.498  30.756  28.159  1.00  0.00     0.074 A 
ATOM     56  C   UNL A   1      46.836  31.093  27.716  1.00  0.00     0.031 C 
ATOM     57  C   UNL A   1      44.669  31.610  28.808  1.00  0.00     0.034 A 
BRANCH  44  58
ATOM     58  C   UNL A   1      39.078  29.282  29.987  1.00  0.00     0.023 A 
ATOM     59  C   UNL A   1      38.768  28.810  31.279  1.00  0.00     0.012 A 
ATOM     60  C   UNL A   1      38.134  30.067  29.294  1.00  0.00     0.148 A 
ATOM     61  C   UNL A   1      37.535  29.096  31.863  1.00  0.00     0.002 A 
ATOM     62  C   UNL A   1      36.926  30.386  29.901  1.00  0.00     0.091 A 
ATOM     63  F   UNL A   1      38.441  30.493  28.060  1.00  0.00    -0.205 F 
ATOM     64  C   UNL A   1      36.620  29.893  31.181  1.00  0.00     0.022 A 
BRANCH  62  65
ATOM     65  S   UNL A   1      35.714  31.479  29.148  1.00  0.00     0.127 S 
ATOM     66  O   UNL A   1      36.563  32.528  28.595  1.00  0.00    -0.237 OA
ATOM     67  O   UNL A   1      35.087  30.609  28.157  1.00  0.00    -0.237 OA
ATOM     68  O   UNL A   1      34.829  31.903  30.232  1.00  0.00    -0.744 OA
ENDBRANCH  62  65
ENDBRANCH  44  58
BRANCH  45  69
ATOM     69  C   UNL A   1      48.005  27.431  25.949  1.00  0.00     0.023 A 
ATOM     70  C   UNL A   1      49.056  26.931  26.742  1.00  0.00     0.012 A 
ATOM     71  C   UNL A   1      48.210  27.605  24.567  1.00  0.00     0.148 A 
ATOM     72  C   UNL A   1      50.293  26.628  26.172  1.00  0.00     0.002 A 
ATOM     73  C   UNL A   1      49.424  27.245  23.996  1.00  0.00     0.091 A 
ATOM     74  F   UNL A   1      47.199  28.093  23.833  1.00  0.00    -0.205 F 
ATOM     75  C   UNL A   1      50.473  26.772  24.800  1.00  0.00     0.022 A 
BRANCH  73  76
ATOM     76  S   UNL A   1      49.699  27.256  22.221  1.00  0.00     0.127 S 
ATOM     77  O   UNL A   1      51.086  26.812  22.128  1.00  0.00    -0.237 OA
ATOM     78  O   UNL A   1      48.706  26.289  21.757  1.00  0.00    -0.237 OA
ATOM     79  O   UNL A   1      49.445  28.628  21.792  1.00  0.00    -0.744 OA
ENDBRANCH  73  76
ENDBRANCH  45  69
BRANCH  57  80
ATOM     80  C   UNL A   1      45.174  32.997  29.113  1.00  0.00     0.023 A 
ATOM     81  C   UNL A   1      45.877  33.238  30.311  1.00  0.00     0.012 A 
ATOM     82  C   UNL A   1      45.051  34.032  28.165  1.00  0.00     0.148 A 
ATOM     83  C   UNL A   1      46.430  34.493  30.568  1.00  0.00     0.002 A 
ATOM     84  C   UNL A   1      45.648  35.265  28.406  1.00  0.00     0.091 A 
ATOM     85  F   UNL A   1      44.364  33.790  27.039  1.00  0.00    -0.205 F 
ATOM     86  C   UNL A   1      46.328  35.500  29.611  1.00  0.00     0.022 A 
BRANCH  84  87
ATOM     87  S   UNL A   1      45.660  36.588  27.190  1.00  0.00     0.127 S 
ATOM     88  O   UNL A   1      44.234  36.867  27.039  1.00  0.00    -0.237 OA
ATOM     89  O   UNL A   1      46.418  37.634  27.876  1.00  0.00    -0.237 OA
ATOM     90  O   UNL A   1      46.317  36.041  26.008  1.00  0.00    -0.744 OA
ENDBRANCH  84  87
ENDBRANCH  57  80
ENDBRANCH  31  32
ENDBRANCH  23  26
ENDBRANCH  21  22
ENDBRANCH  20  21
ENDBRANCH   1  20
TORSDOF 17
ENDMDL
MODEL 3
REMARK VINA RESULT:     -10.7      5.534      8.513
REMARK SMILES O=C(CCCC(=O)Nc1ccccc1F)NCCCNC(=O)c1ccc(-c2c3nc(c(-c4cccc(S(=O)(=O)[O-])c4F)c4ccc([nH]4)c(-c4cccc(S(=O)(=O)[O-])c4F)c4nc(c(-c5cccc(S(=O)(=O)[O-])c5F)c5ccc2[nH]5)C=C4)C=C3)cc1
REMARK SMILES IDX 17 1 16 2 1 3 2 4 3 6 4 7 5 8 6 9 7 10 8 11 9 13 10 14 14 15
REMARK SMILES IDX 11 16 13 17 15 18 12 19 18 20 19 21 20 22 21 23 22 25 23 26
REMARK SMILES IDX 24 27 85 28 25 29 84 30 26 31 27 32 28 33 78 34 29 35 83 36
REMARK SMILES IDX 77 37 79 38 30 39 82 40 76 41 75 42 31 44 63 45 43 46 62 47
REMARK SMILES IDX 44 48 47 49 61 50 80 51 45 52 46 53 60 55 81 56 48 57 32 58
REMARK SMILES IDX 33 59 41 60 34 61 36 62 42 63 35 64 37 65 38 66 39 67 40 68
REMARK SMILES IDX 64 69 65 70 73 71 66 72 68 73 74 74 67 75 69 76 70 77 71 78
REMARK SMILES IDX 72 79 49 80 50 81 58 82 51 83 53 84 59 85 52 86 54 87 55 88
REMARK SMILES IDX 56 89 57 90
REMARK H PARENT 16 5 8 12 20 24 79 43 47 54
REMARK Flexibility Score: inf
ROOT
ATOM      1  C   UNL A   1      31.028  27.423  26.203  1.00  0.00     0.117 C 
ENDROOT
BRANCH   1   2
ATOM      2  N   UNL A   1      31.272  26.084  26.698  1.00  0.00    -0.356 N 
ATOM      3  O   UNL A   1      30.478  25.034  24.827  1.00  0.00    -0.275 OA
ATOM      4  C   UNL A   1      30.991  24.970  25.941  1.00  0.00     0.220 C 
ATOM      5  H   UNL A   1      31.651  25.967  27.600  1.00  0.00     0.163 HD
BRANCH   4   6
ATOM      6  C   UNL A   1      31.294  23.638  26.604  1.00  0.00     0.100 C 
BRANCH   6   7
ATOM      7  C   UNL A   1      31.171  22.371  25.751  1.00  0.00     0.020 C 
BRANCH   7   8
ATOM      8  C   UNL A   1      32.392  21.479  25.545  1.00  0.00     0.101 C 
BRANCH   8   9
ATOM      9  C   UNL A   1      33.785  21.971  25.944  1.00  0.00     0.224 C 
ATOM     10  O   UNL A   1      34.345  21.527  26.948  1.00  0.00    -0.275 OA
ATOM     11  N   UNL A   1      34.514  22.677  25.019  1.00  0.00    -0.324 N 
ATOM     12  H   UNL A   1      35.414  22.330  24.822  1.00  0.00     0.170 HD
BRANCH  11  13
ATOM     13  C   UNL A   1      34.133  23.833  24.323  1.00  0.00     0.077 A 
ATOM     14  C   UNL A   1      34.312  25.072  24.940  1.00  0.00     0.029 A 
ATOM     15  C   UNL A   1      33.524  23.786  23.067  1.00  0.00     0.146 A 
ATOM     16  C   UNL A   1      34.028  26.249  24.237  1.00  0.00     0.002 A 
ATOM     17  C   UNL A   1      33.210  24.955  22.376  1.00  0.00     0.041 A 
ATOM     18  F   UNL A   1      33.239  22.607  22.496  1.00  0.00    -0.205 F 
ATOM     19  C   UNL A   1      33.497  26.192  22.948  1.00  0.00     0.003 A 
ENDBRANCH  11  13
ENDBRANCH   8   9
ENDBRANCH   7   8
ENDBRANCH   6   7
ENDBRANCH   4   6
ENDBRANCH   1   2
BRANCH   1  20
ATOM     20  C   UNL A   1      31.782  28.513  26.963  1.00  0.00     0.042 C 
BRANCH  20  21
ATOM     21  C   UNL A   1      32.695  29.396  26.115  1.00  0.00     0.118 C 
BRANCH  21  22
ATOM     22  N   UNL A   1      32.588  30.809  26.438  1.00  0.00    -0.352 N 
ATOM     23  C   UNL A   1      33.356  31.592  27.263  1.00  0.00     0.251 C 
ATOM     24  H   UNL A   1      31.847  31.279  25.994  1.00  0.00     0.163 HD
ATOM     25  O   UNL A   1      32.985  32.743  27.511  1.00  0.00    -0.269 OA
BRANCH  23  26
ATOM     26  C   UNL A   1      34.603  31.083  27.878  1.00  0.00     0.039 A 
ATOM     27  C   UNL A   1      35.692  31.954  28.001  1.00  0.00     0.014 A 
ATOM     28  C   UNL A   1      34.736  29.753  28.288  1.00  0.00     0.014 A 
ATOM     29  C   UNL A   1      36.883  31.513  28.586  1.00  0.00     0.010 A 
ATOM     30  C   UNL A   1      35.904  29.331  28.929  1.00  0.00     0.010 A 
ATOM     31  C   UNL A   1      36.991  30.206  29.088  1.00  0.00    -0.014 A 
BRANCH  31  32
ATOM     32  C   UNL A   1      38.215  29.754  29.805  1.00  0.00     0.031 A 
ATOM     33  C   UNL A   1      38.560  30.299  31.167  1.00  0.00     0.074 A 
ATOM     34  C   UNL A   1      39.065  28.900  29.198  1.00  0.00     0.049 A 
ATOM     35  N   UNL A   1      39.617  30.067  31.902  1.00  0.00    -0.248 NA
ATOM     36  C   UNL A   1      37.605  31.239  31.773  1.00  0.00     0.031 C 
ATOM     37  C   UNL A   1      38.883  28.339  27.858  1.00  0.00     0.029 A 
ATOM     38  N   UNL A   1      40.265  28.375  29.615  1.00  0.00    -0.354 N 
ATOM     39  C   UNL A   1      39.472  30.853  33.039  1.00  0.00     0.074 A 
ATOM     40  C   UNL A   1      38.236  31.590  32.885  1.00  0.00     0.031 C 
ATOM     41  C   UNL A   1      39.926  27.548  27.566  1.00  0.00     0.029 A 
ATOM     42  C   UNL A   1      40.872  27.570  28.678  1.00  0.00     0.049 A 
ATOM     43  H   UNL A   1      40.654  28.556  30.501  1.00  0.00     0.167 HD
ATOM     44  C   UNL A   1      40.280  30.936  34.124  1.00  0.00     0.034 A 
ATOM     45  C   UNL A   1      42.057  26.929  28.700  1.00  0.00     0.034 A 
ATOM     46  C   UNL A   1      41.486  30.170  34.300  1.00  0.00     0.049 A 
ATOM     47  C   UNL A   1      42.924  27.017  29.926  1.00  0.00     0.074 A 
ATOM     48  C   UNL A   1      42.323  30.132  35.401  1.00  0.00     0.029 A 
ATOM     49  N   UNL A   1      42.030  29.314  33.356  1.00  0.00    -0.354 N 
ATOM     50  N   UNL A   1      42.702  27.664  31.045  1.00  0.00    -0.248 NA
ATOM     51  C   UNL A   1      44.187  26.265  29.910  1.00  0.00     0.031 C 
ATOM     52  C   UNL A   1      43.389  29.275  35.113  1.00  0.00     0.029 A 
ATOM     53  C   UNL A   1      43.198  28.752  33.845  1.00  0.00     0.049 A 
ATOM     54  H   UNL A   1      41.645  29.133  32.468  1.00  0.00     0.167 HD
ATOM     55  C   UNL A   1      43.778  27.372  31.875  1.00  0.00     0.074 A 
ATOM     56  C   UNL A   1      44.644  26.474  31.138  1.00  0.00     0.031 C 
ATOM     57  C   UNL A   1      44.031  27.820  33.129  1.00  0.00     0.034 A 
BRANCH  44  58
ATOM     58  C   UNL A   1      39.864  31.846  35.251  1.00  0.00     0.023 A 
ATOM     59  C   UNL A   1      40.239  33.204  35.219  1.00  0.00     0.012 A 
ATOM     60  C   UNL A   1      39.015  31.388  36.279  1.00  0.00     0.148 A 
ATOM     61  C   UNL A   1      39.796  34.087  36.203  1.00  0.00     0.002 A 
ATOM     62  C   UNL A   1      38.540  32.283  37.230  1.00  0.00     0.091 A 
ATOM     63  F   UNL A   1      38.682  30.089  36.301  1.00  0.00    -0.205 F 
ATOM     64  C   UNL A   1      38.938  33.631  37.199  1.00  0.00     0.022 A 
BRANCH  62  65
ATOM     65  S   UNL A   1      37.360  31.820  38.503  1.00  0.00     0.127 S 
ATOM     66  O   UNL A   1      37.040  30.447  38.125  1.00  0.00    -0.237 OA
ATOM     67  O   UNL A   1      38.153  31.953  39.722  1.00  0.00    -0.237 OA
ATOM     68  O   UNL A   1      36.254  32.769  38.389  1.00  0.00    -0.744 OA
ENDBRANCH  62  65
ENDBRANCH  44  58
BRANCH  45  69
ATOM     69  C   UNL A   1      42.459  26.089  27.535  1.00  0.00     0.023 A 
ATOM     70  C   UNL A   1      43.337  26.621  26.571  1.00  0.00     0.012 A 
ATOM     71  C   UNL A   1      42.030  24.753  27.411  1.00  0.00     0.148 A 
ATOM     72  C   UNL A   1      43.765  25.843  25.494  1.00  0.00     0.002 A 
ATOM     73  C   UNL A   1      42.508  23.966  26.371  1.00  0.00     0.091 A 
ATOM     74  F   UNL A   1      41.187  24.270  28.335  1.00  0.00    -0.205 F 
ATOM     75  C   UNL A   1      43.363  24.514  25.401  1.00  0.00     0.022 A 
BRANCH  73  76
ATOM     76  S   UNL A   1      42.163  22.207  26.252  1.00  0.00     0.127 S 
ATOM     77  O   UNL A   1      42.932  21.828  25.071  1.00  0.00    -0.237 OA
ATOM     78  O   UNL A   1      42.692  21.710  27.522  1.00  0.00    -0.237 OA
ATOM     79  O   UNL A   1      40.714  22.098  26.124  1.00  0.00    -0.744 OA
ENDBRANCH  73  76
ENDBRANCH  45  69
BRANCH  57  80
ATOM     80  C   UNL A   1      45.281  27.337  33.819  1.00  0.00     0.023 A 
ATOM     81  C   UNL A   1      46.461  28.104  33.747  1.00  0.00     0.012 A 
ATOM     82  C   UNL A   1      45.255  26.185  34.631  1.00  0.00     0.148 A 
ATOM     83  C   UNL A   1      47.600  27.721  34.455  1.00  0.00     0.002 A 
ATOM     84  C   UNL A   1      46.379  25.837  35.372  1.00  0.00     0.091 A 
ATOM     85  F   UNL A   1      44.129  25.457  34.674  1.00  0.00    -0.205 F 
ATOM     86  C   UNL A   1      47.555  26.597  35.277  1.00  0.00     0.022 A 
BRANCH  84  87
ATOM     87  S   UNL A   1      46.383  24.469  36.537  1.00  0.00     0.127 S 
ATOM     88  O   UNL A   1      47.743  24.532  37.067  1.00  0.00    -0.237 OA
ATOM     89  O   UNL A   1      45.339  24.863  37.483  1.00  0.00    -0.237 OA
ATOM     90  O   UNL A   1      46.073  23.276  35.758  1.00  0.00    -0.744 OA
ENDBRANCH  84  87
ENDBRANCH  57  80
ENDBRANCH  31  32
ENDBRANCH  23  26
ENDBRANCH  21  22
ENDBRANCH  20  21
ENDBRANCH   1  20
TORSDOF 17
ENDMDL
