MODEL 1
REMARK VINA RESULT:     -11.9      0.000      0.000
REMARK SMILES C[C@H]1[C@H](C(=O)NCCCNC(=O)c2ccc(-c3c4nc(c(-c5cccc(S(=O)(=O)[O-])c5F)c5ccc([nH]5)c(-c5cccc(S(=O)(=O)[O-])c5F)c5nc(c(-c6cccc(S(=O)(=O)[O-])c6F)c6ccc3[nH]6)C=C5)C=C4)cc2)CCN1C(=O)NCc1cnn(C)c1
REMARK SMILES IDX 8 1 7 2 6 3 4 4 5 5 3 7 1 8 2 9 78 10 76 11 77 12 79 13
REMARK SMILES IDX 80 14 81 15 82 17 83 18 84 19 88 20 85 21 86 22 87 23 9 24
REMARK SMILES IDX 10 25 11 26 12 28 13 29 14 30 75 31 15 32 74 33 16 34 17 35
REMARK SMILES IDX 18 36 68 37 19 38 73 39 67 40 69 41 20 42 72 43 66 44 65 45
REMARK SMILES IDX 21 47 53 48 33 49 52 50 34 51 37 52 51 53 70 54 35 55 36 56
REMARK SMILES IDX 50 58 71 59 38 60 22 61 23 62 31 63 24 64 26 65 32 66 25 67
REMARK SMILES IDX 27 68 28 69 29 70 30 71 54 72 55 73 63 74 56 75 58 76 64 77
REMARK SMILES IDX 57 78 59 79 60 80 61 81 62 82 39 83 40 84 48 85 41 86 43 87
REMARK SMILES IDX 49 88 42 89 44 90 45 91 46 92 47 93
REMARK H PARENT 6 6 81 16 10 27 69 46 37 57
REMARK Flexibility Score: inf
ROOT
ATOM      1  C   UNL A   1      37.837  19.556  24.997  1.00  0.00     0.042 C 
ENDROOT
BRANCH   1   2
ATOM      2  C   UNL A   1      36.733  20.542  24.652  1.00  0.00     0.117 C 
BRANCH   2   3
ATOM      3  N   UNL A   1      35.449  20.185  25.236  1.00  0.00    -0.356 N 
ATOM      4  C   UNL A   1      34.279  20.861  25.339  1.00  0.00     0.225 C 
ATOM      5  O   UNL A   1      33.340  20.277  25.891  1.00  0.00    -0.275 OA
ATOM      6  H   UNL A   1      35.428  19.283  25.630  1.00  0.00     0.163 HD
BRANCH   4   7
ATOM      7  C   UNL A   1      34.079  22.283  24.838  1.00  0.00     0.102 C 
ATOM      8  C   UNL A   1      32.407  23.106  23.157  1.00  0.00     0.032 C 
ATOM      9  C   UNL A   1      32.599  22.626  24.603  1.00  0.00     0.096 C 
ATOM     10  N   UNL A   1      32.300  23.699  25.543  1.00  0.00    -0.321 N 
ATOM     11  C   UNL A   1      34.658  23.379  25.728  1.00  0.00     0.037 C 
ATOM     12  C   UNL A   1      33.528  24.375  25.933  1.00  0.00     0.122 C 
BRANCH  10  13
ATOM     13  C   UNL A   1      31.127  24.124  26.083  1.00  0.00     0.317 C 
ATOM     14  O   UNL A   1      30.839  23.845  27.253  1.00  0.00    -0.249 OA
ATOM     15  N   UNL A   1      30.211  24.838  25.417  1.00  0.00    -0.334 N 
ATOM     16  H   UNL A   1      29.373  24.905  25.929  1.00  0.00     0.165 HD
BRANCH  15  17
ATOM     17  C   UNL A   1      30.108  25.539  24.155  1.00  0.00     0.157 C 
BRANCH  17  18
ATOM     18  C   UNL A   1      30.475  26.963  24.348  1.00  0.00     0.009 A 
ATOM     19  C   UNL A   1      30.131  28.055  23.519  1.00  0.00     0.140 A 
ATOM     20  C   UNL A   1      31.261  27.533  25.330  1.00  0.00     0.113 A 
ATOM     21  N   UNL A   1      30.602  29.219  23.969  1.00  0.00    -0.181 NA
ATOM     22  N   UNL A   1      31.333  28.868  25.047  1.00  0.00    -0.275 N 
ATOM     23  C   UNL A   1      32.071  29.872  25.778  1.00  0.00     0.173 C 
ENDBRANCH  17  18
ENDBRANCH  15  17
ENDBRANCH  10  13
ENDBRANCH   4   7
ENDBRANCH   2   3
ENDBRANCH   1   2
BRANCH   1  24
ATOM     24  C   UNL A   1      38.941  20.113  25.889  1.00  0.00     0.118 C 
BRANCH  24  25
ATOM     25  N   UNL A   1      40.085  19.215  25.990  1.00  0.00    -0.352 N 
ATOM     26  C   UNL A   1      41.421  19.489  26.147  1.00  0.00     0.251 C 
ATOM     27  H   UNL A   1      39.863  18.258  25.938  1.00  0.00     0.163 HD
ATOM     28  O   UNL A   1      42.233  18.575  26.015  1.00  0.00    -0.269 OA
BRANCH  26  29
ATOM     29  C   UNL A   1      41.898  20.856  26.462  1.00  0.00     0.039 A 
ATOM     30  C   UNL A   1      42.119  21.746  25.405  1.00  0.00     0.014 A 
ATOM     31  C   UNL A   1      42.183  21.253  27.771  1.00  0.00     0.014 A 
ATOM     32  C   UNL A   1      42.577  23.041  25.665  1.00  0.00     0.010 A 
ATOM     33  C   UNL A   1      42.564  22.568  28.035  1.00  0.00     0.010 A 
ATOM     34  C   UNL A   1      42.777  23.473  26.985  1.00  0.00    -0.014 A 
BRANCH  34  35
ATOM     35  C   UNL A   1      43.189  24.870  27.285  1.00  0.00     0.031 A 
ATOM     36  C   UNL A   1      42.212  25.848  27.881  1.00  0.00     0.074 A 
ATOM     37  C   UNL A   1      44.424  25.284  26.941  1.00  0.00     0.049 A 
ATOM     38  N   UNL A   1      42.386  27.112  28.170  1.00  0.00    -0.248 NA
ATOM     39  C   UNL A   1      40.859  25.347  28.175  1.00  0.00     0.031 C 
ATOM     40  C   UNL A   1      45.445  24.457  26.296  1.00  0.00     0.029 A 
ATOM     41  N   UNL A   1      45.018  26.517  27.051  1.00  0.00    -0.354 N 
ATOM     42  C   UNL A   1      41.165  27.562  28.663  1.00  0.00     0.074 A 
ATOM     43  C   UNL A   1      40.246  26.447  28.589  1.00  0.00     0.031 C 
ATOM     44  C   UNL A   1      46.524  25.211  26.036  1.00  0.00     0.029 A 
ATOM     45  C   UNL A   1      46.274  26.575  26.494  1.00  0.00     0.049 A 
ATOM     46  H   UNL A   1      44.587  27.286  27.488  1.00  0.00     0.167 HD
ATOM     47  C   UNL A   1      40.847  28.779  29.166  1.00  0.00     0.034 A 
ATOM     48  C   UNL A   1      47.128  27.607  26.358  1.00  0.00     0.034 A 
ATOM     49  C   UNL A   1      41.771  29.878  29.271  1.00  0.00     0.049 A 
ATOM     50  C   UNL A   1      46.767  28.940  26.951  1.00  0.00     0.074 A 
ATOM     51  C   UNL A   1      41.571  31.120  29.848  1.00  0.00     0.029 A 
ATOM     52  N   UNL A   1      43.068  29.870  28.782  1.00  0.00    -0.354 N 
ATOM     53  N   UNL A   1      45.668  29.294  27.572  1.00  0.00    -0.248 NA
ATOM     54  C   UNL A   1      47.782  29.999  26.874  1.00  0.00     0.031 C 
ATOM     55  C   UNL A   1      42.743  31.870  29.692  1.00  0.00     0.029 A 
ATOM     56  C   UNL A   1      43.679  31.087  29.035  1.00  0.00     0.049 A 
ATOM     57  H   UNL A   1      43.493  29.111  28.321  1.00  0.00     0.167 HD
ATOM     58  C   UNL A   1      45.873  30.603  27.993  1.00  0.00     0.074 A 
ATOM     59  C   UNL A   1      47.210  30.971  27.573  1.00  0.00     0.031 C 
ATOM     60  C   UNL A   1      45.026  31.428  28.654  1.00  0.00     0.034 A 
BRANCH  47  61
ATOM     61  C   UNL A   1      39.454  28.965  29.713  1.00  0.00     0.023 A 
ATOM     62  C   UNL A   1      39.169  28.544  31.028  1.00  0.00     0.012 A 
ATOM     63  C   UNL A   1      38.449  29.603  28.959  1.00  0.00     0.148 A 
ATOM     64  C   UNL A   1      37.897  28.720  31.573  1.00  0.00     0.002 A 
ATOM     65  C   UNL A   1      37.196  29.814  29.525  1.00  0.00     0.091 A 
ATOM     66  F   UNL A   1      38.731  29.981  27.704  1.00  0.00    -0.205 F 
ATOM     67  C   UNL A   1      36.916  29.363  30.825  1.00  0.00     0.022 A 
BRANCH  65  68
ATOM     68  S   UNL A   1      35.887  30.703  28.673  1.00  0.00     0.127 S 
ATOM     69  O   UNL A   1      35.113  31.236  29.795  1.00  0.00    -0.237 OA
ATOM     70  O   UNL A   1      36.638  31.711  27.921  1.00  0.00    -0.237 OA
ATOM     71  O   UNL A   1      35.205  29.718  27.850  1.00  0.00    -0.744 OA
ENDBRANCH  65  68
ENDBRANCH  47  61
BRANCH  48  72
ATOM     72  C   UNL A   1      48.440  27.389  25.689  1.00  0.00     0.023 A 
ATOM     73  C   UNL A   1      49.549  26.970  26.447  1.00  0.00     0.012 A 
ATOM     74  C   UNL A   1      48.576  27.542  24.297  1.00  0.00     0.148 A 
ATOM     75  C   UNL A   1      50.780  26.737  25.833  1.00  0.00     0.002 A 
ATOM     76  C   UNL A   1      49.788  27.251  23.683  1.00  0.00     0.091 A 
ATOM     77  F   UNL A   1      47.509  27.949  23.592  1.00  0.00    -0.205 F 
ATOM     78  C   UNL A   1      50.897  26.865  24.451  1.00  0.00     0.022 A 
BRANCH  76  79
ATOM     79  S   UNL A   1      49.966  27.242  21.896  1.00  0.00     0.127 S 
ATOM     80  O   UNL A   1      48.907  26.321  21.493  1.00  0.00    -0.237 OA
ATOM     81  O   UNL A   1      49.730  28.645  21.555  1.00  0.00    -0.237 OA
ATOM     82  O   UNL A   1      51.333  26.795  21.649  1.00  0.00    -0.744 OA
ENDBRANCH  76  79
ENDBRANCH  48  72
BRANCH  60  83
ATOM     83  C   UNL A   1      45.523  32.810  28.990  1.00  0.00     0.023 A 
ATOM     84  C   UNL A   1      46.182  33.036  30.216  1.00  0.00     0.012 A 
ATOM     85  C   UNL A   1      45.388  33.871  28.072  1.00  0.00     0.148 A 
ATOM     86  C   UNL A   1      46.666  34.303  30.538  1.00  0.00     0.002 A 
ATOM     87  C   UNL A   1      45.915  35.119  28.380  1.00  0.00     0.091 A 
ATOM     88  F   UNL A   1      44.740  33.643  26.921  1.00  0.00    -0.205 F 
ATOM     89  C   UNL A   1      46.543  35.341  29.617  1.00  0.00     0.022 A 
BRANCH  87  90
ATOM     90  S   UNL A   1      45.881  36.487  27.216  1.00  0.00     0.127 S 
ATOM     91  O   UNL A   1      44.446  36.734  27.088  1.00  0.00    -0.237 OA
ATOM     92  O   UNL A   1      46.617  37.528  27.935  1.00  0.00    -0.237 OA
ATOM     93  O   UNL A   1      46.547  36.002  26.015  1.00  0.00    -0.744 OA
ENDBRANCH  87  90
ENDBRANCH  60  83
ENDBRANCH  34  35
ENDBRANCH  26  29
ENDBRANCH  24  25
ENDBRANCH   1  24
TORSDOF 16
ENDMDL
MODEL 2
REMARK VINA RESULT:     -11.7      1.869      2.217
REMARK SMILES C[C@H]1[C@H](C(=O)NCCCNC(=O)c2ccc(-c3c4nc(c(-c5cccc(S(=O)(=O)[O-])c5F)c5ccc([nH]5)c(-c5cccc(S(=O)(=O)[O-])c5F)c5nc(c(-c6cccc(S(=O)(=O)[O-])c6F)c6ccc3[nH]6)C=C5)C=C4)cc2)CCN1C(=O)NCc1cnn(C)c1
REMARK SMILES IDX 8 1 7 2 6 3 4 4 5 5 3 7 1 8 2 9 78 10 76 11 77 12 79 13
REMARK SMILES IDX 80 14 81 15 82 17 83 18 84 19 88 20 85 21 86 22 87 23 9 24
REMARK SMILES IDX 10 25 11 26 12 28 13 29 14 30 75 31 15 32 74 33 16 34 17 35
REMARK SMILES IDX 18 36 68 37 19 38 73 39 67 40 69 41 20 42 72 43 66 44 65 45
REMARK SMILES IDX 21 47 53 48 33 49 52 50 34 51 37 52 51 53 70 54 35 55 36 56
REMARK SMILES IDX 50 58 71 59 38 60 22 61 23 62 31 63 24 64 26 65 32 66 25 67
REMARK SMILES IDX 27 68 28 69 29 70 30 71 54 72 55 73 63 74 56 75 58 76 64 77
REMARK SMILES IDX 57 78 59 79 60 80 61 81 62 82 39 83 40 84 48 85 41 86 43 87
REMARK SMILES IDX 49 88 42 89 44 90 45 91 46 92 47 93
REMARK H PARENT 6 6 81 16 10 27 69 46 37 57
REMARK Flexibility Score: inf
ROOT
ATOM      1  C   UNL A   1      38.108  19.751  25.106  1.00  0.00     0.042 C 
ENDROOT
BRANCH   1   2
ATOM      2  C   UNL A   1      36.964  20.750  25.034  1.00  0.00     0.117 C 
BRANCH   2   3
ATOM      3  N   UNL A   1      37.130  21.727  23.970  1.00  0.00    -0.356 N 
ATOM      4  C   UNL A   1      36.348  22.751  23.548  1.00  0.00     0.225 C 
ATOM      5  O   UNL A   1      36.772  23.429  22.606  1.00  0.00    -0.275 OA
ATOM      6  H   UNL A   1      37.966  21.625  23.460  1.00  0.00     0.163 HD
BRANCH   4   7
ATOM      7  C   UNL A   1      34.994  23.085  24.154  1.00  0.00     0.102 C 
ATOM      8  C   UNL A   1      34.294  25.206  25.297  1.00  0.00     0.032 C 
ATOM      9  C   UNL A   1      34.593  24.553  23.941  1.00  0.00     0.096 C 
ATOM     10  N   UNL A   1      33.391  24.507  23.118  1.00  0.00    -0.321 N 
ATOM     11  C   UNL A   1      33.830  22.227  23.668  1.00  0.00     0.037 C 
ATOM     12  C   UNL A   1      32.747  23.209  23.249  1.00  0.00     0.122 C 
BRANCH  10  13
ATOM     13  C   UNL A   1      32.828  25.428  22.290  1.00  0.00     0.317 C 
ATOM     14  O   UNL A   1      33.402  25.769  21.250  1.00  0.00    -0.249 OA
ATOM     15  N   UNL A   1      31.659  26.035  22.531  1.00  0.00    -0.334 N 
ATOM     16  H   UNL A   1      31.508  26.776  21.901  1.00  0.00     0.165 HD
BRANCH  15  17
ATOM     17  C   UNL A   1      30.554  25.905  23.457  1.00  0.00     0.157 C 
BRANCH  17  18
ATOM     18  C   UNL A   1      30.897  26.575  24.734  1.00  0.00     0.009 A 
ATOM     19  C   UNL A   1      30.505  26.188  26.036  1.00  0.00     0.140 A 
ATOM     20  C   UNL A   1      31.618  27.735  24.941  1.00  0.00     0.113 A 
ATOM     21  N   UNL A   1      30.987  26.991  26.985  1.00  0.00    -0.181 NA
ATOM     22  N   UNL A   1      31.619  27.958  26.289  1.00  0.00    -0.275 N 
ATOM     23  C   UNL A   1      32.223  29.072  26.984  1.00  0.00     0.173 C 
ENDBRANCH  17  18
ENDBRANCH  15  17
ENDBRANCH  10  13
ENDBRANCH   4   7
ENDBRANCH   2   3
ENDBRANCH   1   2
BRANCH   1  24
ATOM     24  C   UNL A   1      39.243  20.141  26.048  1.00  0.00     0.118 C 
BRANCH  24  25
ATOM     25  N   UNL A   1      40.363  19.210  25.989  1.00  0.00    -0.352 N 
ATOM     26  C   UNL A   1      41.716  19.441  26.023  1.00  0.00     0.251 C 
ATOM     27  H   UNL A   1      40.107  18.263  25.913  1.00  0.00     0.163 HD
ATOM     28  O   UNL A   1      42.482  18.515  25.765  1.00  0.00    -0.269 OA
BRANCH  26  29
ATOM     29  C   UNL A   1      42.263  20.778  26.355  1.00  0.00     0.039 A 
ATOM     30  C   UNL A   1      42.549  21.661  25.308  1.00  0.00     0.014 A 
ATOM     31  C   UNL A   1      42.550  21.150  27.670  1.00  0.00     0.014 A 
ATOM     32  C   UNL A   1      43.073  22.927  25.583  1.00  0.00     0.010 A 
ATOM     33  C   UNL A   1      43.000  22.440  27.950  1.00  0.00     0.010 A 
ATOM     34  C   UNL A   1      43.278  23.339  26.909  1.00  0.00    -0.014 A 
BRANCH  34  35
ATOM     35  C   UNL A   1      43.763  24.708  27.226  1.00  0.00     0.031 A 
ATOM     36  C   UNL A   1      42.807  25.772  27.698  1.00  0.00     0.074 A 
ATOM     37  C   UNL A   1      45.055  25.021  27.005  1.00  0.00     0.049 A 
ATOM     38  N   UNL A   1      43.046  27.026  27.980  1.00  0.00    -0.248 NA
ATOM     39  C   UNL A   1      41.397  25.380  27.857  1.00  0.00     0.031 C 
ATOM     40  C   UNL A   1      46.070  24.104  26.486  1.00  0.00     0.029 A 
ATOM     41  N   UNL A   1      45.727  26.209  27.154  1.00  0.00    -0.354 N 
ATOM     42  C   UNL A   1      41.819  27.578  28.333  1.00  0.00     0.074 A 
ATOM     43  C   UNL A   1      40.830  26.533  28.184  1.00  0.00     0.031 C 
ATOM     44  C   UNL A   1      47.225  24.768  26.327  1.00  0.00     0.029 A 
ATOM     45  C   UNL A   1      47.034  26.158  26.731  1.00  0.00     0.049 A 
ATOM     46  H   UNL A   1      45.312  27.019  27.530  1.00  0.00     0.167 HD
ATOM     47  C   UNL A   1      41.545  28.828  28.779  1.00  0.00     0.034 A 
ATOM     48  C   UNL A   1      47.974  27.121  26.666  1.00  0.00     0.034 A 
ATOM     49  C   UNL A   1      42.535  29.858  28.960  1.00  0.00     0.049 A 
ATOM     50  C   UNL A   1      47.657  28.492  27.193  1.00  0.00     0.074 A 
ATOM     51  C   UNL A   1      42.372  31.126  29.490  1.00  0.00     0.029 A 
ATOM     52  N   UNL A   1      43.871  29.741  28.609  1.00  0.00    -0.354 N 
ATOM     53  N   UNL A   1      46.530  28.942  27.690  1.00  0.00    -0.248 NA
ATOM     54  C   UNL A   1      48.753  29.470  27.204  1.00  0.00     0.031 C 
ATOM     55  C   UNL A   1      43.607  31.782  29.443  1.00  0.00     0.029 A 
ATOM     56  C   UNL A   1      44.543  30.916  28.902  1.00  0.00     0.049 A 
ATOM     57  H   UNL A   1      44.282  28.941  28.209  1.00  0.00     0.167 HD
ATOM     58  C   UNL A   1      46.790  30.243  28.105  1.00  0.00     0.074 A 
ATOM     59  C   UNL A   1      48.188  30.500  27.822  1.00  0.00     0.031 C 
ATOM     60  C   UNL A   1      45.944  31.146  28.659  1.00  0.00     0.034 A 
BRANCH  47  61
ATOM     61  C   UNL A   1      40.121  29.132  29.172  1.00  0.00     0.023 A 
ATOM     62  C   UNL A   1      39.172  29.401  28.165  1.00  0.00     0.012 A 
ATOM     63  C   UNL A   1      39.707  29.093  30.518  1.00  0.00     0.148 A 
ATOM     64  C   UNL A   1      37.842  29.664  28.491  1.00  0.00     0.002 A 
ATOM     65  C   UNL A   1      38.370  29.314  30.831  1.00  0.00     0.091 A 
ATOM     66  F   UNL A   1      40.625  28.854  31.464  1.00  0.00    -0.205 F 
ATOM     67  C   UNL A   1      37.440  29.611  29.822  1.00  0.00     0.022 A 
BRANCH  65  68
ATOM     68  S   UNL A   1      37.737  29.190  32.509  1.00  0.00     0.127 S 
ATOM     69  O   UNL A   1      38.661  30.060  33.238  1.00  0.00    -0.237 OA
ATOM     70  O   UNL A   1      36.381  29.726  32.367  1.00  0.00    -0.237 OA
ATOM     71  O   UNL A   1      37.796  27.779  32.855  1.00  0.00    -0.744 OA
ENDBRANCH  65  68
ENDBRANCH  47  61
BRANCH  48  72
ATOM     72  C   UNL A   1      49.327  26.789  26.142  1.00  0.00     0.023 A 
ATOM     73  C   UNL A   1      50.190  25.977  26.902  1.00  0.00     0.012 A 
ATOM     74  C   UNL A   1      49.738  27.228  24.870  1.00  0.00     0.148 A 
ATOM     75  C   UNL A   1      51.452  25.635  26.417  1.00  0.00     0.002 A 
ATOM     76  C   UNL A   1      50.973  26.835  24.368  1.00  0.00     0.091 A 
ATOM     77  F   UNL A   1      48.905  28.006  24.164  1.00  0.00    -0.205 F 
ATOM     78  C   UNL A   1      51.840  26.053  25.146  1.00  0.00     0.022 A 
BRANCH  76  79
ATOM     79  S   UNL A   1      51.468  27.203  22.680  1.00  0.00     0.127 S 
ATOM     80  O   UNL A   1      52.740  26.494  22.579  1.00  0.00    -0.237 OA
ATOM     81  O   UNL A   1      50.372  26.623  21.905  1.00  0.00    -0.237 OA
ATOM     82  O   UNL A   1      51.536  28.659  22.610  1.00  0.00    -0.744 OA
ENDBRANCH  76  79
ENDBRANCH  48  72
BRANCH  60  83
ATOM     83  C   UNL A   1      46.509  32.495  29.020  1.00  0.00     0.023 A 
ATOM     84  C   UNL A   1      47.168  32.669  30.253  1.00  0.00     0.012 A 
ATOM     85  C   UNL A   1      46.435  33.575  28.118  1.00  0.00     0.148 A 
ATOM     86  C   UNL A   1      47.714  33.905  30.599  1.00  0.00     0.002 A 
ATOM     87  C   UNL A   1      47.022  34.790  28.449  1.00  0.00     0.091 A 
ATOM     88  F   UNL A   1      45.785  33.398  26.959  1.00  0.00    -0.205 F 
ATOM     89  C   UNL A   1      47.651  34.961  29.693  1.00  0.00     0.022 A 
BRANCH  87  90
ATOM     90  S   UNL A   1      47.067  36.176  27.305  1.00  0.00     0.127 S 
ATOM     91  O   UNL A   1      45.647  36.499  27.173  1.00  0.00    -0.237 OA
ATOM     92  O   UNL A   1      47.851  37.167  28.045  1.00  0.00    -0.237 OA
ATOM     93  O   UNL A   1      47.714  35.676  26.101  1.00  0.00    -0.744 OA
ENDBRANCH  87  90
ENDBRANCH  60  83
ENDBRANCH  34  35
ENDBRANCH  26  29
ENDBRANCH  24  25
ENDBRANCH   1  24
TORSDOF 16
ENDMDL
MODEL 3
REMARK VINA RESULT:     -11.6      5.396     10.456
REMARK SMILES C[C@H]1[C@H](C(=O)NCCCNC(=O)c2ccc(-c3c4nc(c(-c5cccc(S(=O)(=O)[O-])c5F)c5ccc([nH]5)c(-c5cccc(S(=O)(=O)[O-])c5F)c5nc(c(-c6cccc(S(=O)(=O)[O-])c6F)c6ccc3[nH]6)C=C5)C=C4)cc2)CCN1C(=O)NCc1cnn(C)c1
REMARK SMILES IDX 8 1 7 2 6 3 4 4 5 5 3 7 1 8 2 9 78 10 76 11 77 12 79 13
REMARK SMILES IDX 80 14 81 15 82 17 83 18 84 19 88 20 85 21 86 22 87 23 9 24
REMARK SMILES IDX 10 25 11 26 12 28 13 29 14 30 75 31 15 32 74 33 16 34 17 35
REMARK SMILES IDX 18 36 68 37 19 38 73 39 67 40 69 41 20 42 72 43 66 44 65 45
REMARK SMILES IDX 21 47 53 48 33 49 52 50 34 51 37 52 51 53 70 54 35 55 36 56
REMARK SMILES IDX 50 58 71 59 38 60 22 61 23 62 31 63 24 64 26 65 32 66 25 67
REMARK SMILES IDX 27 68 28 69 29 70 30 71 54 72 55 73 63 74 56 75 58 76 64 77
REMARK SMILES IDX 57 78 59 79 60 80 61 81 62 82 39 83 40 84 48 85 41 86 43 87
REMARK SMILES IDX 49 88 42 89 44 90 45 91 46 92 47 93
REMARK H PARENT 6 6 81 16 10 27 69 46 37 57
REMARK Flexibility Score: inf
ROOT
ATOM      1  C   UNL A   1      33.515  28.936  23.525  1.00  0.00     0.042 C 
ENDROOT
BRANCH   1   2
ATOM      2  C   UNL A   1      32.494  27.932  23.012  1.00  0.00     0.117 C 
BRANCH   2   3
ATOM      3  N   UNL A   1      33.098  26.689  22.561  1.00  0.00    -0.356 N 
ATOM      4  C   UNL A   1      33.600  25.626  23.237  1.00  0.00     0.225 C 
ATOM      5  O   UNL A   1      34.045  24.691  22.562  1.00  0.00    -0.275 OA
ATOM      6  H   UNL A   1      33.155  26.604  21.582  1.00  0.00     0.163 HD
BRANCH   4   7
ATOM      7  C   UNL A   1      33.657  25.540  24.754  1.00  0.00     0.102 C 
ATOM      8  C   UNL A   1      31.846  26.088  26.402  1.00  0.00     0.032 C 
ATOM      9  C   UNL A   1      32.335  25.060  25.372  1.00  0.00     0.096 C 
ATOM     10  N   UNL A   1      32.653  23.795  26.023  1.00  0.00    -0.321 N 
ATOM     11  C   UNL A   1      34.764  24.655  25.318  1.00  0.00     0.037 C 
ATOM     12  C   UNL A   1      34.079  23.726  26.307  1.00  0.00     0.122 C 
BRANCH  10  13
ATOM     13  C   UNL A   1      31.872  22.736  26.368  1.00  0.00     0.317 C 
ATOM     14  O   UNL A   1      31.214  22.757  27.414  1.00  0.00    -0.249 OA
ATOM     15  N   UNL A   1      31.764  21.617  25.639  1.00  0.00    -0.334 N 
ATOM     16  H   UNL A   1      31.283  20.917  26.135  1.00  0.00     0.165 HD
BRANCH  15  17
ATOM     17  C   UNL A   1      32.158  21.150  24.327  1.00  0.00     0.157 C 
BRANCH  17  18
ATOM     18  C   UNL A   1      32.951  19.904  24.463  1.00  0.00     0.009 A 
ATOM     19  C   UNL A   1      34.352  19.796  24.626  1.00  0.00     0.140 A 
ATOM     20  C   UNL A   1      32.525  18.592  24.410  1.00  0.00     0.113 A 
ATOM     21  N   UNL A   1      34.767  18.533  24.732  1.00  0.00    -0.181 NA
ATOM     22  N   UNL A   1      33.640  17.814  24.544  1.00  0.00    -0.275 N 
ATOM     23  C   UNL A   1      33.701  16.370  24.520  1.00  0.00     0.173 C 
ENDBRANCH  17  18
ENDBRANCH  15  17
ENDBRANCH  10  13
ENDBRANCH   4   7
ENDBRANCH   2   3
ENDBRANCH   1   2
BRANCH   1  24
ATOM     24  C   UNL A   1      33.617  29.030  25.043  1.00  0.00     0.118 C 
BRANCH  24  25
ATOM     25  N   UNL A   1      32.948  30.211  25.577  1.00  0.00    -0.352 N 
ATOM     26  C   UNL A   1      33.207  30.948  26.705  1.00  0.00     0.251 C 
ATOM     27  H   UNL A   1      32.188  30.532  25.039  1.00  0.00     0.163 HD
ATOM     28  O   UNL A   1      32.390  31.795  27.061  1.00  0.00    -0.269 OA
BRANCH  26  29
ATOM     29  C   UNL A   1      34.440  30.736  27.500  1.00  0.00     0.039 A 
ATOM     30  C   UNL A   1      34.599  29.521  28.175  1.00  0.00     0.014 A 
ATOM     31  C   UNL A   1      35.409  31.733  27.634  1.00  0.00     0.014 A 
ATOM     32  C   UNL A   1      35.746  29.290  28.941  1.00  0.00     0.010 A 
ATOM     33  C   UNL A   1      36.588  31.473  28.334  1.00  0.00     0.010 A 
ATOM     34  C   UNL A   1      36.764  30.254  29.005  1.00  0.00    -0.014 A 
BRANCH  34  35
ATOM     35  C   UNL A   1      38.024  29.996  29.750  1.00  0.00     0.031 A 
ATOM     36  C   UNL A   1      39.046  29.025  29.221  1.00  0.00     0.074 A 
ATOM     37  C   UNL A   1      38.212  30.574  30.953  1.00  0.00     0.049 A 
ATOM     38  N   UNL A   1      40.179  28.649  29.756  1.00  0.00    -0.248 NA
ATOM     39  C   UNL A   1      38.749  28.380  27.931  1.00  0.00     0.031 C 
ATOM     40  C   UNL A   1      37.271  31.482  31.612  1.00  0.00     0.029 A 
ATOM     41  N   UNL A   1      39.241  30.455  31.853  1.00  0.00    -0.354 N 
ATOM     42  C   UNL A   1      40.722  27.714  28.882  1.00  0.00     0.074 A 
ATOM     43  C   UNL A   1      39.771  27.545  27.804  1.00  0.00     0.031 C 
ATOM     44  C   UNL A   1      37.748  31.810  32.822  1.00  0.00     0.029 A 
ATOM     45  C   UNL A   1      39.027  31.136  33.028  1.00  0.00     0.049 A 
ATOM     46  H   UNL A   1      40.056  29.932  31.674  1.00  0.00     0.167 HD
ATOM     47  C   UNL A   1      41.918  27.082  28.948  1.00  0.00     0.034 A 
ATOM     48  C   UNL A   1      39.769  31.208  34.150  1.00  0.00     0.034 A 
ATOM     49  C   UNL A   1      42.879  27.276  30.002  1.00  0.00     0.049 A 
ATOM     50  C   UNL A   1      41.106  30.523  34.189  1.00  0.00     0.074 A 
ATOM     51  C   UNL A   1      44.155  26.751  30.112  1.00  0.00     0.029 A 
ATOM     52  N   UNL A   1      42.667  28.049  31.133  1.00  0.00    -0.354 N 
ATOM     53  N   UNL A   1      41.679  29.783  33.271  1.00  0.00    -0.248 NA
ATOM     54  C   UNL A   1      41.923  30.728  35.393  1.00  0.00     0.031 C 
ATOM     55  C   UNL A   1      44.708  27.194  31.320  1.00  0.00     0.029 A 
ATOM     56  C   UNL A   1      43.783  28.011  31.951  1.00  0.00     0.049 A 
ATOM     57  H   UNL A   1      41.843  28.552  31.326  1.00  0.00     0.167 HD
ATOM     58  C   UNL A   1      42.937  29.464  33.770  1.00  0.00     0.074 A 
ATOM     59  C   UNL A   1      43.049  30.110  35.061  1.00  0.00     0.031 C 
ATOM     60  C   UNL A   1      43.904  28.694  33.213  1.00  0.00     0.034 A 
BRANCH  47  61
ATOM     61  C   UNL A   1      42.289  26.170  27.805  1.00  0.00     0.023 A 
ATOM     62  C   UNL A   1      43.163  26.643  26.803  1.00  0.00     0.012 A 
ATOM     63  C   UNL A   1      41.829  24.840  27.747  1.00  0.00     0.148 A 
ATOM     64  C   UNL A   1      43.544  25.820  25.744  1.00  0.00     0.002 A 
ATOM     65  C   UNL A   1      42.249  24.013  26.711  1.00  0.00     0.091 A 
ATOM     66  F   UNL A   1      40.985  24.412  28.696  1.00  0.00    -0.205 F 
ATOM     67  C   UNL A   1      43.095  24.505  25.704  1.00  0.00     0.022 A 
BRANCH  65  68
ATOM     68  S   UNL A   1      41.790  22.278  26.611  1.00  0.00     0.127 S 
ATOM     69  O   UNL A   1      42.477  21.861  25.388  1.00  0.00    -0.237 OA
ATOM     70  O   UNL A   1      42.363  21.736  27.845  1.00  0.00    -0.237 OA
ATOM     71  O   UNL A   1      40.337  22.251  26.556  1.00  0.00    -0.744 OA
ENDBRANCH  65  68
ENDBRANCH  47  61
BRANCH  48  72
ATOM     72  C   UNL A   1      39.283  32.020  35.299  1.00  0.00     0.023 A 
ATOM     73  C   UNL A   1      38.399  31.450  36.233  1.00  0.00     0.012 A 
ATOM     74  C   UNL A   1      39.740  33.336  35.498  1.00  0.00     0.148 A 
ATOM     75  C   UNL A   1      37.953  32.187  37.330  1.00  0.00     0.002 A 
ATOM     76  C   UNL A   1      39.338  34.045  36.624  1.00  0.00     0.091 A 
ATOM     77  F   UNL A   1      40.577  33.865  34.593  1.00  0.00    -0.205 F 
ATOM     78  C   UNL A   1      38.431  33.480  37.533  1.00  0.00     0.022 A 
BRANCH  76  79
ATOM     79  S   UNL A   1      40.036  35.650  37.030  1.00  0.00     0.127 S 
ATOM     80  O   UNL A   1      39.648  36.449  35.871  1.00  0.00    -0.237 OA
ATOM     81  O   UNL A   1      39.340  35.983  38.273  1.00  0.00    -0.237 OA
ATOM     82  O   UNL A   1      41.466  35.414  37.197  1.00  0.00    -0.744 OA
ENDBRANCH  76  79
ENDBRANCH  48  72
BRANCH  60  83
ATOM     83  C   UNL A   1      45.186  28.524  33.986  1.00  0.00     0.023 A 
ATOM     84  C   UNL A   1      46.245  29.432  33.789  1.00  0.00     0.012 A 
ATOM     85  C   UNL A   1      45.322  27.500  34.945  1.00  0.00     0.148 A 
ATOM     86  C   UNL A   1      47.434  29.303  34.508  1.00  0.00     0.002 A 
ATOM     87  C   UNL A   1      46.491  27.406  35.691  1.00  0.00     0.091 A 
ATOM     88  F   UNL A   1      44.312  26.632  35.102  1.00  0.00    -0.205 F 
ATOM     89  C   UNL A   1      47.552  28.298  35.465  1.00  0.00     0.022 A 
BRANCH  87  90
ATOM     90  S   UNL A   1      46.693  26.199  37.007  1.00  0.00     0.127 S 
ATOM     91  O   UNL A   1      45.565  26.518  37.880  1.00  0.00    -0.237 OA
ATOM     92  O   UNL A   1      46.567  24.930  36.289  1.00  0.00    -0.237 OA
ATOM     93  O   UNL A   1      48.014  26.443  37.568  1.00  0.00    -0.744 OA
ENDBRANCH  87  90
ENDBRANCH  60  83
ENDBRANCH  34  35
ENDBRANCH  26  29
ENDBRANCH  24  25
ENDBRANCH   1  24
TORSDOF 16
ENDMDL
