MODEL 1
REMARK VINA RESULT:     -12.9      0.000      0.000
REMARK SMILES O=C(NCCCNC(=O)c1cccc(NC(=O)c2ccc(N3C(=O)CCC3=O)cc2)c1)c1ccc(-c2c3nc(c(-c4cccc(S(=O)(=O)[O-])c4F)c4ccc([nH]4)c(-c4cccc(S(=O)(=O)[O-])c4F)c4nc(c(-c5cccc(S(=O)(=O)[O-])c5F)c5ccc2[nH]5)C=C4)C=C3)cc1
REMARK SMILES IDX 5 1 4 2 3 3 1 4 2 5 32 7 33 8 94 9 34 10 93 11 35 12 36 13
REMARK SMILES IDX 37 14 87 15 38 16 92 17 86 18 88 19 39 20 91 21 85 22 84 23
REMARK SMILES IDX 40 25 72 26 52 27 71 28 53 29 56 30 70 31 89 32 54 33 55 34
REMARK SMILES IDX 69 36 90 37 57 38 41 39 42 40 50 41 43 42 45 43 51 44 44 45
REMARK SMILES IDX 46 46 47 47 48 48 49 49 73 50 74 51 82 52 75 53 77 54 83 55
REMARK SMILES IDX 76 56 78 57 79 58 80 59 81 60 58 61 59 62 67 63 60 64 62 65
REMARK SMILES IDX 68 66 61 67 63 68 64 69 65 70 66 71 6 72 7 73 8 74 9 76
REMARK SMILES IDX 10 77 11 78 31 79 12 80 14 81 13 82 15 83 16 84 17 86 18 87
REMARK SMILES IDX 19 88 30 89 20 90 29 91 21 92 22 93 23 94 27 95 24 96 25 97
REMARK SMILES IDX 26 98 28 99
REMARK H PARENT 3 6 88 24 56 35 7 75 15 85
REMARK Flexibility Score: inf
ROOT
ATOM      1  C   UNL A   1      37.750  19.214  25.259  1.00  0.00     0.042 C 
ENDROOT
BRANCH   1   2
ATOM      2  C   UNL A   1      38.963  20.053  25.620  1.00  0.00     0.118 C 
BRANCH   2   3
ATOM      3  N   UNL A   1      40.084  19.256  26.103  1.00  0.00    -0.352 N 
ATOM      4  O   UNL A   1      42.186  18.799  26.756  1.00  0.00    -0.269 OA
ATOM      5  C   UNL A   1      41.324  19.644  26.564  1.00  0.00     0.251 C 
ATOM      6  H   UNL A   1      39.931  18.283  26.099  1.00  0.00     0.163 HD
BRANCH   5   7
ATOM      7  C   UNL A   1      41.610  21.079  26.794  1.00  0.00     0.039 A 
ATOM      8  C   UNL A   1      41.534  21.990  25.742  1.00  0.00     0.014 A 
ATOM      9  C   UNL A   1      41.959  21.521  28.074  1.00  0.00     0.014 A 
ATOM     10  C   UNL A   1      42.007  23.282  25.917  1.00  0.00     0.010 A 
ATOM     11  C   UNL A   1      42.308  22.863  28.276  1.00  0.00     0.010 A 
ATOM     12  C   UNL A   1      42.376  23.747  27.190  1.00  0.00    -0.014 A 
BRANCH  12  13
ATOM     13  C   UNL A   1      42.737  25.181  27.336  1.00  0.00     0.031 A 
ATOM     14  C   UNL A   1      41.822  26.170  28.007  1.00  0.00     0.074 A 
ATOM     15  C   UNL A   1      43.951  25.574  26.900  1.00  0.00     0.049 A 
ATOM     16  N   UNL A   1      42.050  27.426  28.298  1.00  0.00    -0.248 NA
ATOM     17  C   UNL A   1      40.481  25.704  28.392  1.00  0.00     0.031 C 
ATOM     18  C   UNL A   1      44.898  24.718  26.176  1.00  0.00     0.029 A 
ATOM     19  N   UNL A   1      44.612  26.768  27.016  1.00  0.00    -0.354 N 
ATOM     20  C   UNL A   1      40.879  27.909  28.869  1.00  0.00     0.074 A 
ATOM     21  C   UNL A   1      39.933  26.814  28.871  1.00  0.00     0.031 C 
ATOM     22  C   UNL A   1      46.034  25.394  25.966  1.00  0.00     0.029 A 
ATOM     23  C   UNL A   1      45.878  26.748  26.480  1.00  0.00     0.049 A 
ATOM     24  H   UNL A   1      44.218  27.563  27.443  1.00  0.00     0.167 HD
ATOM     25  C   UNL A   1      40.624  29.145  29.365  1.00  0.00     0.034 A 
ATOM     26  C   UNL A   1      46.814  27.713  26.399  1.00  0.00     0.034 A 
ATOM     27  C   UNL A   1      41.582  30.221  29.387  1.00  0.00     0.049 A 
ATOM     28  C   UNL A   1      46.520  29.053  27.006  1.00  0.00     0.074 A 
ATOM     29  C   UNL A   1      41.429  31.499  29.899  1.00  0.00     0.029 A 
ATOM     30  N   UNL A   1      42.870  30.149  28.879  1.00  0.00    -0.354 N 
ATOM     31  N   UNL A   1      45.447  29.449  27.645  1.00  0.00    -0.248 NA
ATOM     32  C   UNL A   1      47.575  30.069  26.907  1.00  0.00     0.031 C 
ATOM     33  C   UNL A   1      42.622  32.200  29.690  1.00  0.00     0.029 A 
ATOM     34  C   UNL A   1      43.524  31.356  29.065  1.00  0.00     0.049 A 
ATOM     35  H   UNL A   1      43.263  29.355  28.447  1.00  0.00     0.167 HD
ATOM     36  C   UNL A   1      45.698  30.759  28.031  1.00  0.00     0.074 A 
ATOM     37  C   UNL A   1      47.045  31.070  27.597  1.00  0.00     0.031 C 
ATOM     38  C   UNL A   1      44.878  31.636  28.660  1.00  0.00     0.034 A 
BRANCH  25  39
ATOM     39  C   UNL A   1      39.269  29.394  29.978  1.00  0.00     0.023 A 
ATOM     40  C   UNL A   1      39.033  29.003  31.310  1.00  0.00     0.012 A 
ATOM     41  C   UNL A   1      38.264  30.087  29.273  1.00  0.00     0.148 A 
ATOM     42  C   UNL A   1      37.811  29.275  31.927  1.00  0.00     0.002 A 
ATOM     43  C   UNL A   1      37.063  30.390  29.907  1.00  0.00     0.091 A 
ATOM     44  F   UNL A   1      38.500  30.437  28.001  1.00  0.00    -0.205 F 
ATOM     45  C   UNL A   1      36.832  29.978  31.231  1.00  0.00     0.022 A 
BRANCH  43  46
ATOM     46  S   UNL A   1      35.765  31.355  29.124  1.00  0.00     0.127 S 
ATOM     47  O   UNL A   1      36.531  32.447  28.525  1.00  0.00    -0.237 OA
ATOM     48  O   UNL A   1      35.207  30.402  28.164  1.00  0.00    -0.237 OA
ATOM     49  O   UNL A   1      34.854  31.744  30.192  1.00  0.00    -0.744 OA
ENDBRANCH  43  46
ENDBRANCH  25  39
BRANCH  26  50
ATOM     50  C   UNL A   1      48.119  27.421  25.746  1.00  0.00     0.023 A 
ATOM     51  C   UNL A   1      49.192  26.929  26.511  1.00  0.00     0.012 A 
ATOM     52  C   UNL A   1      48.283  27.578  24.356  1.00  0.00     0.148 A 
ATOM     53  C   UNL A   1      50.412  26.621  25.907  1.00  0.00     0.002 A 
ATOM     54  C   UNL A   1      49.477  27.206  23.751  1.00  0.00     0.091 A 
ATOM     55  F   UNL A   1      47.258  28.069  23.643  1.00  0.00    -0.205 F 
ATOM     56  C   UNL A   1      50.550  26.745  24.527  1.00  0.00     0.022 A 
BRANCH  54  57
ATOM     57  S   UNL A   1      49.660  27.183  21.965  1.00  0.00     0.127 S 
ATOM     58  O   UNL A   1      49.447  28.586  21.623  1.00  0.00    -0.237 OA
ATOM     59  O   UNL A   1      51.035  26.708  21.800  1.00  0.00    -0.237 OA
ATOM     60  O   UNL A   1      48.650  26.244  21.491  1.00  0.00    -0.744 OA
ENDBRANCH  54  57
ENDBRANCH  26  50
BRANCH  38  61
ATOM     61  C   UNL A   1      45.423  33.015  28.915  1.00  0.00     0.023 A 
ATOM     62  C   UNL A   1      46.098  33.282  30.123  1.00  0.00     0.012 A 
ATOM     63  C   UNL A   1      45.296  34.035  27.953  1.00  0.00     0.148 A 
ATOM     64  C   UNL A   1      46.603  34.554  30.388  1.00  0.00     0.002 A 
ATOM     65  C   UNL A   1      45.843  35.288  28.205  1.00  0.00     0.091 A 
ATOM     66  F   UNL A   1      44.631  33.770  26.820  1.00  0.00    -0.205 F 
ATOM     67  C   UNL A   1      46.484  35.553  29.427  1.00  0.00     0.022 A 
BRANCH  65  68
ATOM     68  S   UNL A   1      45.809  36.607  26.986  1.00  0.00     0.127 S 
ATOM     69  O   UNL A   1      44.375  36.870  26.869  1.00  0.00    -0.237 OA
ATOM     70  O   UNL A   1      46.571  37.666  27.647  1.00  0.00    -0.237 OA
ATOM     71  O   UNL A   1      46.447  36.061  25.795  1.00  0.00    -0.744 OA
ENDBRANCH  65  68
ENDBRANCH  38  61
ENDBRANCH  12  13
ENDBRANCH   5   7
ENDBRANCH   2   3
ENDBRANCH   1   2
BRANCH   1  72
ATOM     72  C   UNL A   1      36.574  20.027  24.743  1.00  0.00     0.118 C 
BRANCH  72  73
ATOM     73  N   UNL A   1      36.395  21.268  25.484  1.00  0.00    -0.352 N 
ATOM     74  C   UNL A   1      35.509  22.299  25.307  1.00  0.00     0.251 C 
ATOM     75  H   UNL A   1      37.016  21.388  26.239  1.00  0.00     0.163 HD
ATOM     76  O   UNL A   1      35.695  23.365  25.888  1.00  0.00    -0.269 OA
BRANCH  74  77
ATOM     77  C   UNL A   1      34.326  22.146  24.436  1.00  0.00     0.041 A 
ATOM     78  C   UNL A   1      33.275  21.339  24.872  1.00  0.00     0.014 A 
ATOM     79  C   UNL A   1      34.281  22.731  23.165  1.00  0.00     0.040 A 
ATOM     80  C   UNL A   1      32.180  21.138  24.040  1.00  0.00     0.003 A 
ATOM     81  C   UNL A   1      33.141  22.621  22.365  1.00  0.00     0.042 A 
ATOM     82  C   UNL A   1      32.120  21.770  22.793  1.00  0.00     0.026 A 
BRANCH  81  83
ATOM     83  N   UNL A   1      33.136  23.399  21.189  1.00  0.00    -0.322 N 
ATOM     84  C   UNL A   1      32.931  24.736  20.942  1.00  0.00     0.255 C 
ATOM     85  H   UNL A   1      33.316  22.876  20.375  1.00  0.00     0.170 HD
ATOM     86  O   UNL A   1      32.899  25.156  19.787  1.00  0.00    -0.269 OA
BRANCH  84  87
ATOM     87  C   UNL A   1      32.741  25.690  22.038  1.00  0.00     0.040 A 
ATOM     88  C   UNL A   1      31.436  26.014  22.397  1.00  0.00     0.016 A 
ATOM     89  C   UNL A   1      33.824  26.197  22.756  1.00  0.00     0.016 A 
ATOM     90  C   UNL A   1      31.212  26.751  23.560  1.00  0.00     0.027 A 
ATOM     91  C   UNL A   1      33.587  26.949  23.914  1.00  0.00     0.027 A 
ATOM     92  C   UNL A   1      32.277  27.193  24.366  1.00  0.00     0.052 A 
BRANCH  92  93
ATOM     93  N   UNL A   1      32.025  27.821  25.621  1.00  0.00    -0.251 N 
ATOM     94  C   UNL A   1      31.477  27.194  26.716  1.00  0.00     0.234 C 
ATOM     95  C   UNL A   1      32.245  29.160  25.864  1.00  0.00     0.234 C 
ATOM     96  O   UNL A   1      31.140  26.025  26.847  1.00  0.00    -0.274 OA
ATOM     97  C   UNL A   1      31.402  28.168  27.852  1.00  0.00     0.111 C 
ATOM     98  C   UNL A   1      31.784  29.494  27.247  1.00  0.00     0.111 C 
ATOM     99  O   UNL A   1      32.663  30.026  25.105  1.00  0.00    -0.274 OA
ENDBRANCH  92  93
ENDBRANCH  84  87
ENDBRANCH  81  83
ENDBRANCH  74  77
ENDBRANCH  72  73
ENDBRANCH   1  72
TORSDOF 16
ENDMDL
MODEL 2
REMARK VINA RESULT:     -12.5      1.558      7.586
REMARK SMILES O=C(NCCCNC(=O)c1cccc(NC(=O)c2ccc(N3C(=O)CCC3=O)cc2)c1)c1ccc(-c2c3nc(c(-c4cccc(S(=O)(=O)[O-])c4F)c4ccc([nH]4)c(-c4cccc(S(=O)(=O)[O-])c4F)c4nc(c(-c5cccc(S(=O)(=O)[O-])c5F)c5ccc2[nH]5)C=C4)C=C3)cc1
REMARK SMILES IDX 5 1 4 2 3 3 1 4 2 5 32 7 33 8 94 9 34 10 93 11 35 12 36 13
REMARK SMILES IDX 37 14 87 15 38 16 92 17 86 18 88 19 39 20 91 21 85 22 84 23
REMARK SMILES IDX 40 25 72 26 52 27 71 28 53 29 56 30 70 31 89 32 54 33 55 34
REMARK SMILES IDX 69 36 90 37 57 38 41 39 42 40 50 41 43 42 45 43 51 44 44 45
REMARK SMILES IDX 46 46 47 47 48 48 49 49 73 50 74 51 82 52 75 53 77 54 83 55
REMARK SMILES IDX 76 56 78 57 79 58 80 59 81 60 58 61 59 62 67 63 60 64 62 65
REMARK SMILES IDX 68 66 61 67 63 68 64 69 65 70 66 71 6 72 7 73 8 74 9 76
REMARK SMILES IDX 10 77 11 78 31 79 12 80 14 81 13 82 15 83 16 84 17 86 18 87
REMARK SMILES IDX 19 88 30 89 20 90 29 91 21 92 22 93 23 94 27 95 24 96 25 97
REMARK SMILES IDX 26 98 28 99
REMARK H PARENT 3 6 88 24 56 35 7 75 15 85
REMARK Flexibility Score: inf
ROOT
ATOM      1  C   UNL A   1      38.153  19.748  25.109  1.00  0.00     0.042 C 
ENDROOT
BRANCH   1   2
ATOM      2  C   UNL A   1      39.381  20.251  25.848  1.00  0.00     0.118 C 
BRANCH   2   3
ATOM      3  N   UNL A   1      40.445  19.257  25.927  1.00  0.00    -0.352 N 
ATOM      4  O   UNL A   1      42.543  18.451  25.969  1.00  0.00    -0.269 OA
ATOM      5  C   UNL A   1      41.802  19.413  26.110  1.00  0.00     0.251 C 
ATOM      6  H   UNL A   1      40.145  18.323  25.836  1.00  0.00     0.163 HD
BRANCH   5   7
ATOM      7  C   UNL A   1      42.353  20.747  26.445  1.00  0.00     0.039 A 
ATOM      8  C   UNL A   1      42.478  21.144  27.774  1.00  0.00     0.014 A 
ATOM      9  C   UNL A   1      42.748  21.612  25.420  1.00  0.00     0.014 A 
ATOM     10  C   UNL A   1      42.792  22.462  28.071  1.00  0.00     0.010 A 
ATOM     11  C   UNL A   1      43.195  22.903  25.731  1.00  0.00     0.010 A 
ATOM     12  C   UNL A   1      43.180  23.354  27.059  1.00  0.00    -0.014 A 
BRANCH  12  13
ATOM     13  C   UNL A   1      43.641  24.710  27.457  1.00  0.00     0.031 A 
ATOM     14  C   UNL A   1      45.078  25.137  27.319  1.00  0.00     0.074 A 
ATOM     15  C   UNL A   1      42.716  25.587  27.897  1.00  0.00     0.049 A 
ATOM     16  N   UNL A   1      45.602  26.318  27.526  1.00  0.00    -0.248 NA
ATOM     17  C   UNL A   1      46.055  24.116  26.908  1.00  0.00     0.031 C 
ATOM     18  C   UNL A   1      41.304  25.267  28.133  1.00  0.00     0.029 A 
ATOM     19  N   UNL A   1      42.805  26.921  28.199  1.00  0.00    -0.354 N 
ATOM     20  C   UNL A   1      46.966  26.181  27.304  1.00  0.00     0.074 A 
ATOM     21  C   UNL A   1      47.195  24.794  26.958  1.00  0.00     0.031 C 
ATOM     22  C   UNL A   1      40.651  26.381  28.485  1.00  0.00     0.029 A 
ATOM     23  C   UNL A   1      41.603  27.481  28.564  1.00  0.00     0.049 A 
ATOM     24  H   UNL A   1      43.648  27.427  28.159  1.00  0.00     0.167 HD
ATOM     25  C   UNL A   1      47.935  27.127  27.361  1.00  0.00     0.034 A 
ATOM     26  C   UNL A   1      41.295  28.739  28.931  1.00  0.00     0.034 A 
ATOM     27  C   UNL A   1      47.695  28.513  27.676  1.00  0.00     0.049 A 
ATOM     28  C   UNL A   1      42.380  29.774  28.931  1.00  0.00     0.074 A 
ATOM     29  C   UNL A   1      48.606  29.554  27.726  1.00  0.00     0.029 A 
ATOM     30  N   UNL A   1      46.457  29.053  27.992  1.00  0.00    -0.354 N 
ATOM     31  N   UNL A   1      43.642  29.644  28.603  1.00  0.00    -0.248 NA
ATOM     32  C   UNL A   1      41.995  31.135  29.324  1.00  0.00     0.031 C 
ATOM     33  C   UNL A   1      47.919  30.721  28.082  1.00  0.00     0.029 A 
ATOM     34  C   UNL A   1      46.579  30.411  28.237  1.00  0.00     0.049 A 
ATOM     35  H   UNL A   1      45.615  28.545  28.037  1.00  0.00     0.167 HD
ATOM     36  C   UNL A   1      44.202  30.907  28.743  1.00  0.00     0.074 A 
ATOM     37  C   UNL A   1      43.129  31.797  29.137  1.00  0.00     0.031 C 
ATOM     38  C   UNL A   1      45.494  31.290  28.590  1.00  0.00     0.034 A 
BRANCH  25  39
ATOM     39  C   UNL A   1      49.346  26.715  27.025  1.00  0.00     0.023 A 
ATOM     40  C   UNL A   1      50.053  25.886  27.920  1.00  0.00     0.012 A 
ATOM     41  C   UNL A   1      49.940  27.068  25.797  1.00  0.00     0.148 A 
ATOM     42  C   UNL A   1      51.336  25.435  27.610  1.00  0.00     0.002 A 
ATOM     43  C   UNL A   1      51.204  26.584  25.478  1.00  0.00     0.091 A 
ATOM     44  F   UNL A   1      49.259  27.870  24.966  1.00  0.00    -0.205 F 
ATOM     45  C   UNL A   1      51.906  25.773  26.386  1.00  0.00     0.022 A 
BRANCH  43  46
ATOM     46  S   UNL A   1      51.998  26.899  23.896  1.00  0.00     0.127 S 
ATOM     47  O   UNL A   1      52.469  28.271  24.072  1.00  0.00    -0.237 OA
ATOM     48  O   UNL A   1      53.055  25.888  23.875  1.00  0.00    -0.237 OA
ATOM     49  O   UNL A   1      50.964  26.719  22.886  1.00  0.00    -0.744 OA
ENDBRANCH  43  46
ENDBRANCH  25  39
BRANCH  26  50
ATOM     50  C   UNL A   1      39.892  29.079  29.291  1.00  0.00     0.023 A 
ATOM     51  C   UNL A   1      38.917  29.197  28.283  1.00  0.00     0.012 A 
ATOM     52  C   UNL A   1      39.507  29.232  30.638  1.00  0.00     0.148 A 
ATOM     53  C   UNL A   1      37.590  29.484  28.609  1.00  0.00     0.002 A 
ATOM     54  C   UNL A   1      38.173  29.450  30.959  1.00  0.00     0.091 A 
ATOM     55  F   UNL A   1      40.451  29.139  31.586  1.00  0.00    -0.205 F 
ATOM     56  C   UNL A   1      37.216  29.596  29.945  1.00  0.00     0.022 A 
BRANCH  54  57
ATOM     57  S   UNL A   1      37.601  29.437  32.661  1.00  0.00     0.127 S 
ATOM     58  O   UNL A   1      38.570  30.313  33.311  1.00  0.00    -0.237 OA
ATOM     59  O   UNL A   1      36.251  29.992  32.539  1.00  0.00    -0.237 OA
ATOM     60  O   UNL A   1      37.630  28.036  33.061  1.00  0.00    -0.744 OA
ENDBRANCH  54  57
ENDBRANCH  26  50
BRANCH  38  61
ATOM     61  C   UNL A   1      45.810  32.738  28.850  1.00  0.00     0.023 A 
ATOM     62  C   UNL A   1      46.291  33.127  30.116  1.00  0.00     0.012 A 
ATOM     63  C   UNL A   1      45.662  33.705  27.838  1.00  0.00     0.148 A 
ATOM     64  C   UNL A   1      46.580  34.463  30.385  1.00  0.00     0.002 A 
ATOM     65  C   UNL A   1      45.996  35.029  28.100  1.00  0.00     0.091 A 
ATOM     66  F   UNL A   1      45.181  33.321  26.647  1.00  0.00    -0.205 F 
ATOM     67  C   UNL A   1      46.442  35.412  29.376  1.00  0.00     0.022 A 
BRANCH  65  68
ATOM     68  S   UNL A   1      45.929  36.299  26.832  1.00  0.00     0.127 S 
ATOM     69  O   UNL A   1      44.491  36.403  26.589  1.00  0.00    -0.237 OA
ATOM     70  O   UNL A   1      46.518  37.453  27.512  1.00  0.00    -0.237 OA
ATOM     71  O   UNL A   1      46.720  35.789  25.719  1.00  0.00    -0.744 OA
ENDBRANCH  65  68
ENDBRANCH  38  61
ENDBRANCH  12  13
ENDBRANCH   5   7
ENDBRANCH   2   3
ENDBRANCH   1   2
BRANCH   1  72
ATOM     72  C   UNL A   1      37.330  20.852  24.467  1.00  0.00     0.118 C 
BRANCH  72  73
ATOM     73  N   UNL A   1      36.949  21.883  25.422  1.00  0.00    -0.352 N 
ATOM     74  C   UNL A   1      35.853  22.703  25.469  1.00  0.00     0.251 C 
ATOM     75  H   UNL A   1      37.589  22.014  26.160  1.00  0.00     0.163 HD
ATOM     76  O   UNL A   1      35.853  23.674  26.221  1.00  0.00    -0.269 OA
BRANCH  74  77
ATOM     77  C   UNL A   1      34.663  22.433  24.635  1.00  0.00     0.041 A 
ATOM     78  C   UNL A   1      33.760  21.456  25.056  1.00  0.00     0.014 A 
ATOM     79  C   UNL A   1      34.474  23.083  23.410  1.00  0.00     0.040 A 
ATOM     80  C   UNL A   1      32.668  21.149  24.255  1.00  0.00     0.003 A 
ATOM     81  C   UNL A   1      33.325  22.857  22.648  1.00  0.00     0.042 A 
ATOM     82  C   UNL A   1      32.458  21.842  23.056  1.00  0.00     0.026 A 
BRANCH  81  83
ATOM     83  N   UNL A   1      33.152  23.698  21.530  1.00  0.00    -0.322 N 
ATOM     84  C   UNL A   1      32.962  25.052  21.385  1.00  0.00     0.255 C 
ATOM     85  H   UNL A   1      33.171  23.214  20.672  1.00  0.00     0.170 HD
ATOM     86  O   UNL A   1      32.752  25.534  20.274  1.00  0.00    -0.269 OA
BRANCH  84  87
ATOM     87  C   UNL A   1      32.998  25.950  22.543  1.00  0.00     0.040 A 
ATOM     88  C   UNL A   1      33.845  27.052  22.482  1.00  0.00     0.016 A 
ATOM     89  C   UNL A   1      32.155  25.758  23.637  1.00  0.00     0.016 A 
ATOM     90  C   UNL A   1      33.755  28.036  23.468  1.00  0.00     0.027 A 
ATOM     91  C   UNL A   1      32.084  26.744  24.629  1.00  0.00     0.027 A 
ATOM     92  C   UNL A   1      32.843  27.925  24.534  1.00  0.00     0.052 A 
BRANCH  92  93
ATOM     93  N   UNL A   1      32.667  29.002  25.451  1.00  0.00    -0.251 N 
ATOM     94  C   UNL A   1      31.650  29.927  25.389  1.00  0.00     0.234 C 
ATOM     95  C   UNL A   1      33.540  29.281  26.481  1.00  0.00     0.234 C 
ATOM     96  O   UNL A   1      30.719  29.998  24.599  1.00  0.00    -0.274 OA
ATOM     97  C   UNL A   1      31.779  30.877  26.542  1.00  0.00     0.111 C 
ATOM     98  C   UNL A   1      33.099  30.529  27.180  1.00  0.00     0.111 C 
ATOM     99  O   UNL A   1      34.577  28.709  26.792  1.00  0.00    -0.274 OA
ENDBRANCH  92  93
ENDBRANCH  84  87
ENDBRANCH  81  83
ENDBRANCH  74  77
ENDBRANCH  72  73
ENDBRANCH   1  72
TORSDOF 16
ENDMDL
MODEL 3
REMARK VINA RESULT:     -12.4      1.192      7.323
REMARK SMILES O=C(NCCCNC(=O)c1cccc(NC(=O)c2ccc(N3C(=O)CCC3=O)cc2)c1)c1ccc(-c2c3nc(c(-c4cccc(S(=O)(=O)[O-])c4F)c4ccc([nH]4)c(-c4cccc(S(=O)(=O)[O-])c4F)c4nc(c(-c5cccc(S(=O)(=O)[O-])c5F)c5ccc2[nH]5)C=C4)C=C3)cc1
REMARK SMILES IDX 5 1 4 2 3 3 1 4 2 5 32 7 33 8 94 9 34 10 93 11 35 12 36 13
REMARK SMILES IDX 37 14 87 15 38 16 92 17 86 18 88 19 39 20 91 21 85 22 84 23
REMARK SMILES IDX 40 25 72 26 52 27 71 28 53 29 56 30 70 31 89 32 54 33 55 34
REMARK SMILES IDX 69 36 90 37 57 38 41 39 42 40 50 41 43 42 45 43 51 44 44 45
REMARK SMILES IDX 46 46 47 47 48 48 49 49 73 50 74 51 82 52 75 53 77 54 83 55
REMARK SMILES IDX 76 56 78 57 79 58 80 59 81 60 58 61 59 62 67 63 60 64 62 65
REMARK SMILES IDX 68 66 61 67 63 68 64 69 65 70 66 71 6 72 7 73 8 74 9 76
REMARK SMILES IDX 10 77 11 78 31 79 12 80 14 81 13 82 15 83 16 84 17 86 18 87
REMARK SMILES IDX 19 88 30 89 20 90 29 91 21 92 22 93 23 94 27 95 24 96 25 97
REMARK SMILES IDX 26 98 28 99
REMARK H PARENT 3 6 88 24 56 35 7 75 15 85
REMARK Flexibility Score: inf
ROOT
ATOM      1  C   UNL A   1      37.832  20.234  24.948  1.00  0.00     0.042 C 
ENDROOT
BRANCH   1   2
ATOM      2  C   UNL A   1      38.959  20.759  25.822  1.00  0.00     0.118 C 
BRANCH   2   3
ATOM      3  N   UNL A   1      40.059  19.813  25.962  1.00  0.00    -0.352 N 
ATOM      4  O   UNL A   1      42.184  19.103  26.149  1.00  0.00    -0.269 OA
ATOM      5  C   UNL A   1      41.389  20.027  26.253  1.00  0.00     0.251 C 
ATOM      6  H   UNL A   1      39.812  18.870  25.827  1.00  0.00     0.163 HD
BRANCH   5   7
ATOM      7  C   UNL A   1      41.849  21.375  26.658  1.00  0.00     0.039 A 
ATOM      8  C   UNL A   1      42.154  21.644  27.991  1.00  0.00     0.014 A 
ATOM      9  C   UNL A   1      41.976  22.383  25.697  1.00  0.00     0.014 A 
ATOM     10  C   UNL A   1      42.377  22.952  28.394  1.00  0.00     0.010 A 
ATOM     11  C   UNL A   1      42.334  23.679  26.091  1.00  0.00     0.010 A 
ATOM     12  C   UNL A   1      42.496  23.985  27.450  1.00  0.00    -0.014 A 
BRANCH  12  13
ATOM     13  C   UNL A   1      42.877  25.338  27.934  1.00  0.00     0.031 A 
ATOM     14  C   UNL A   1      44.292  25.844  27.859  1.00  0.00     0.074 A 
ATOM     15  C   UNL A   1      41.897  26.141  28.397  1.00  0.00     0.049 A 
ATOM     16  N   UNL A   1      44.748  27.037  28.145  1.00  0.00    -0.248 NA
ATOM     17  C   UNL A   1      45.330  24.899  27.419  1.00  0.00     0.031 C 
ATOM     18  C   UNL A   1      40.498  25.737  28.577  1.00  0.00     0.029 A 
ATOM     19  N   UNL A   1      41.909  27.458  28.774  1.00  0.00    -0.354 N 
ATOM     20  C   UNL A   1      46.123  26.981  27.952  1.00  0.00     0.074 A 
ATOM     21  C   UNL A   1      46.432  25.630  27.538  1.00  0.00     0.031 C 
ATOM     22  C   UNL A   1      39.779  26.795  28.972  1.00  0.00     0.029 A 
ATOM     23  C   UNL A   1      40.671  27.935  29.136  1.00  0.00     0.049 A 
ATOM     24  H   UNL A   1      42.725  28.008  28.785  1.00  0.00     0.167 HD
ATOM     25  C   UNL A   1      47.040  27.971  28.088  1.00  0.00     0.034 A 
ATOM     26  C   UNL A   1      40.289  29.154  29.564  1.00  0.00     0.034 A 
ATOM     27  C   UNL A   1      46.720  29.323  28.471  1.00  0.00     0.049 A 
ATOM     28  C   UNL A   1      41.318  30.241  29.650  1.00  0.00     0.074 A 
ATOM     29  C   UNL A   1      47.575  30.404  28.603  1.00  0.00     0.029 A 
ATOM     30  N   UNL A   1      45.449  29.781  28.783  1.00  0.00    -0.354 N 
ATOM     31  N   UNL A   1      42.593  30.193  29.350  1.00  0.00    -0.248 NA
ATOM     32  C   UNL A   1      40.853  31.557  30.106  1.00  0.00     0.031 C 
ATOM     33  C   UNL A   1      46.820  31.513  29.004  1.00  0.00     0.029 A 
ATOM     34  C   UNL A   1      45.494  31.128  29.105  1.00  0.00     0.049 A 
ATOM     35  H   UNL A   1      44.633  29.229  28.777  1.00  0.00     0.167 HD
ATOM     36  C   UNL A   1      43.083  31.473  29.574  1.00  0.00     0.074 A 
ATOM     37  C   UNL A   1      41.956  32.284  29.987  1.00  0.00     0.031 C 
ATOM     38  C   UNL A   1      44.356  31.929  29.477  1.00  0.00     0.034 A 
BRANCH  25  39
ATOM     39  C   UNL A   1      48.478  27.650  27.768  1.00  0.00     0.023 A 
ATOM     40  C   UNL A   1      49.292  27.070  28.762  1.00  0.00     0.012 A 
ATOM     41  C   UNL A   1      49.000  27.837  26.472  1.00  0.00     0.148 A 
ATOM     42  C   UNL A   1      50.608  26.702  28.480  1.00  0.00     0.002 A 
ATOM     43  C   UNL A   1      50.300  27.433  26.188  1.00  0.00     0.091 A 
ATOM     44  F   UNL A   1      48.217  28.405  25.544  1.00  0.00    -0.205 F 
ATOM     45  C   UNL A   1      51.107  26.873  27.192  1.00  0.00     0.022 A 
BRANCH  43  46
ATOM     46  S   UNL A   1      51.016  27.540  24.542  1.00  0.00     0.127 S 
ATOM     47  O   UNL A   1      51.132  28.986  24.366  1.00  0.00    -0.237 OA
ATOM     48  O   UNL A   1      52.290  26.841  24.714  1.00  0.00    -0.237 OA
ATOM     49  O   UNL A   1      50.074  26.876  23.652  1.00  0.00    -0.744 OA
ENDBRANCH  43  46
ENDBRANCH  25  39
BRANCH  26  50
ATOM     50  C   UNL A   1      38.861  29.401  29.904  1.00  0.00     0.023 A 
ATOM     51  C   UNL A   1      38.398  29.155  31.210  1.00  0.00     0.012 A 
ATOM     52  C   UNL A   1      37.972  29.934  28.951  1.00  0.00     0.148 A 
ATOM     53  C   UNL A   1      37.069  29.411  31.552  1.00  0.00     0.002 A 
ATOM     54  C   UNL A   1      36.670  30.251  29.316  1.00  0.00     0.091 A 
ATOM     55  F   UNL A   1      38.423  30.143  27.705  1.00  0.00    -0.205 F 
ATOM     56  C   UNL A   1      36.210  29.972  30.611  1.00  0.00     0.022 A 
BRANCH  54  57
ATOM     57  S   UNL A   1      35.567  31.128  28.202  1.00  0.00     0.127 S 
ATOM     58  O   UNL A   1      36.375  32.285  27.829  1.00  0.00    -0.237 OA
ATOM     59  O   UNL A   1      35.363  30.148  27.134  1.00  0.00    -0.237 OA
ATOM     60  O   UNL A   1      34.372  31.403  28.989  1.00  0.00    -0.744 OA
ENDBRANCH  54  57
ENDBRANCH  26  50
BRANCH  38  61
ATOM     61  C   UNL A   1      44.590  33.374  29.825  1.00  0.00     0.023 A 
ATOM     62  C   UNL A   1      44.939  33.722  31.144  1.00  0.00     0.012 A 
ATOM     63  C   UNL A   1      44.496  34.380  28.844  1.00  0.00     0.148 A 
ATOM     64  C   UNL A   1      45.150  35.055  31.494  1.00  0.00     0.002 A 
ATOM     65  C   UNL A   1      44.753  35.701  29.190  1.00  0.00     0.091 A 
ATOM     66  F   UNL A   1      44.141  34.032  27.599  1.00  0.00    -0.205 F 
ATOM     67  C   UNL A   1      45.067  36.043  30.517  1.00  0.00     0.022 A 
BRANCH  65  68
ATOM     68  S   UNL A   1      44.751  37.025  27.975  1.00  0.00     0.127 S 
ATOM     69  O   UNL A   1      43.346  37.057  27.571  1.00  0.00    -0.237 OA
ATOM     70  O   UNL A   1      45.186  38.176  28.764  1.00  0.00    -0.237 OA
ATOM     71  O   UNL A   1      45.694  36.613  26.942  1.00  0.00    -0.744 OA
ENDBRANCH  65  68
ENDBRANCH  38  61
ENDBRANCH  12  13
ENDBRANCH   5   7
ENDBRANCH   2   3
ENDBRANCH   1   2
BRANCH   1  72
ATOM     72  C   UNL A   1      37.014  21.328  24.282  1.00  0.00     0.118 C 
BRANCH  72  73
ATOM     73  N   UNL A   1      36.422  22.242  25.250  1.00  0.00    -0.352 N 
ATOM     74  C   UNL A   1      35.243  22.939  25.222  1.00  0.00     0.251 C 
ATOM     75  H   UNL A   1      36.961  22.383  26.062  1.00  0.00     0.163 HD
ATOM     76  O   UNL A   1      35.056  23.848  26.027  1.00  0.00    -0.269 OA
BRANCH  74  77
ATOM     77  C   UNL A   1      34.187  22.611  24.243  1.00  0.00     0.041 A 
ATOM     78  C   UNL A   1      33.243  21.641  24.579  1.00  0.00     0.014 A 
ATOM     79  C   UNL A   1      34.167  23.199  22.973  1.00  0.00     0.040 A 
ATOM     80  C   UNL A   1      32.278  21.278  23.648  1.00  0.00     0.003 A 
ATOM     81  C   UNL A   1      33.139  22.919  22.069  1.00  0.00     0.042 A 
ATOM     82  C   UNL A   1      32.233  21.910  22.399  1.00  0.00     0.026 A 
BRANCH  81  83
ATOM     83  N   UNL A   1      33.119  23.703  20.897  1.00  0.00    -0.322 N 
ATOM     84  C   UNL A   1      32.883  25.036  20.655  1.00  0.00     0.255 C 
ATOM     85  H   UNL A   1      33.314  23.188  20.080  1.00  0.00     0.170 HD
ATOM     86  O   UNL A   1      32.844  25.461  19.502  1.00  0.00    -0.269 OA
BRANCH  84  87
ATOM     87  C   UNL A   1      32.667  25.979  21.756  1.00  0.00     0.040 A 
ATOM     88  C   UNL A   1      31.471  25.889  22.462  1.00  0.00     0.016 A 
ATOM     89  C   UNL A   1      33.655  26.885  22.141  1.00  0.00     0.016 A 
ATOM     90  C   UNL A   1      31.316  26.625  23.638  1.00  0.00     0.027 A 
ATOM     91  C   UNL A   1      33.483  27.630  23.315  1.00  0.00     0.027 A 
ATOM     92  C   UNL A   1      32.334  27.472  24.112  1.00  0.00     0.052 A 
BRANCH  92  93
ATOM     93  N   UNL A   1      32.215  28.106  25.384  1.00  0.00    -0.251 N 
ATOM     94  C   UNL A   1      32.576  27.534  26.582  1.00  0.00     0.234 C 
ATOM     95  C   UNL A   1      31.661  29.355  25.568  1.00  0.00     0.234 C 
ATOM     96  O   UNL A   1      33.076  26.437  26.794  1.00  0.00    -0.274 OA
ATOM     97  C   UNL A   1      32.338  28.518  27.687  1.00  0.00     0.111 C 
ATOM     98  C   UNL A   1      31.612  29.664  27.031  1.00  0.00     0.111 C 
ATOM     99  O   UNL A   1      31.182  30.119  24.739  1.00  0.00    -0.274 OA
ENDBRANCH  92  93
ENDBRANCH  84  87
ENDBRANCH  81  83
ENDBRANCH  74  77
ENDBRANCH  72  73
ENDBRANCH   1  72
TORSDOF 16
ENDMDL
