MODEL 1
REMARK VINA RESULT:     -13.5      0.000      0.000
REMARK SMILES Cc1cccc2c1[C@H]1c3c(C)cccc3[C@H](CC(=O)NCCCNC(=O)c3ccc(-c4c5nc(c(-c6cccc(S(=O)(=O)[O-])c6F)c6ccc([nH]6)c(-c6cccc(S(=O)(=O)[O-])c6F)c6nc(c(-c7cccc(S(=O)(=O)[O-])c7F)c7ccc4[nH]7)C=C6)C=C5)cc3)C[C@H]1CC2
REMARK SMILES IDX 23 1 22 2 21 3 20 4 18 5 19 6 17 8 16 9 1 10 2 11 3 12 7 13
REMARK SMILES IDX 4 14 6 15 8 16 5 17 93 18 9 19 91 20 92 21 10 22 15 23 90 24
REMARK SMILES IDX 12 25 11 26 14 27 13 28 24 29 25 30 26 32 27 33 28 34 89 35
REMARK SMILES IDX 29 36 88 37 30 38 31 39 32 40 82 41 33 42 87 43 81 44 83 45
REMARK SMILES IDX 34 46 86 47 80 48 79 49 35 51 67 52 47 53 66 54 48 55 51 56
REMARK SMILES IDX 65 57 84 58 49 59 50 60 64 62 85 63 52 64 36 65 37 66 45 67
REMARK SMILES IDX 38 68 40 69 46 70 39 71 41 72 42 73 43 74 44 75 68 76 69 77
REMARK SMILES IDX 77 78 70 79 72 80 78 81 71 82 73 83 74 84 75 85 76 86 53 87
REMARK SMILES IDX 54 88 62 89 55 90 57 91 63 92 56 93 58 94 59 95 60 96 61 97
REMARK H PARENT 20 7 24 31 83 50 51 61
REMARK Flexibility Score: inf
ROOT
ATOM      1  C   UNL A   1      32.848  32.894  27.140  1.00  0.00     0.118 C 
ENDROOT
BRANCH   1   2
ATOM      2  C   UNL A   1      31.540  32.155  26.879  1.00  0.00     0.042 C 
BRANCH   2   3
ATOM      3  C   UNL A   1      31.670  30.656  26.641  1.00  0.00     0.117 C 
BRANCH   3   4
ATOM      4  N   UNL A   1      32.924  30.086  27.089  1.00  0.00    -0.356 N 
ATOM      5  C   UNL A   1      33.857  29.378  26.401  1.00  0.00     0.220 C 
ATOM      6  O   UNL A   1      35.004  29.349  26.856  1.00  0.00    -0.275 OA
ATOM      7  H   UNL A   1      33.134  30.236  28.039  1.00  0.00     0.163 HD
BRANCH   5   8
ATOM      8  C   UNL A   1      33.514  28.649  25.112  1.00  0.00     0.108 C 
BRANCH   8   9
ATOM      9  C   UNL A   1      32.811  27.266  25.238  1.00  0.00     0.029 C 
ATOM     10  C   UNL A   1      35.930  22.367  24.332  1.00  0.00     0.044 C 
ATOM     11  C   UNL A   1      34.493  21.972  24.557  1.00  0.00    -0.047 A 
ATOM     12  C   UNL A   1      34.177  20.612  24.395  1.00  0.00     0.004 A 
ATOM     13  C   UNL A   1      33.467  22.882  24.924  1.00  0.00    -0.034 A 
ATOM     14  C   UNL A   1      32.906  20.133  24.687  1.00  0.00     0.001 A 
ATOM     15  C   UNL A   1      32.241  22.358  25.387  1.00  0.00    -0.044 A 
ATOM     16  C   UNL A   1      33.648  24.395  24.879  1.00  0.00     0.053 C 
ATOM     17  C   UNL A   1      31.957  20.993  25.226  1.00  0.00     0.004 A 
ATOM     18  C   UNL A   1      31.289  23.173  26.229  1.00  0.00     0.036 C 
ATOM     19  C   UNL A   1      33.016  25.179  23.697  1.00  0.00    -0.034 A 
ATOM     20  C   UNL A   1      33.143  24.939  26.236  1.00  0.00     0.002 C 
ATOM     21  C   UNL A   1      31.642  24.648  26.419  1.00  0.00     0.009 C 
ATOM     22  C   UNL A   1      32.880  24.678  22.374  1.00  0.00    -0.047 A 
ATOM     23  C   UNL A   1      32.569  26.515  23.933  1.00  0.00    -0.040 A 
ATOM     24  C   UNL A   1      33.478  26.426  26.336  1.00  0.00     0.013 C 
ATOM     25  C   UNL A   1      32.192  25.426  21.396  1.00  0.00     0.004 A 
ATOM     26  C   UNL A   1      33.435  23.366  21.893  1.00  0.00     0.044 C 
ATOM     27  C   UNL A   1      31.820  27.194  22.949  1.00  0.00     0.004 A 
ATOM     28  C   UNL A   1      31.638  26.660  21.687  1.00  0.00     0.001 A 
ENDBRANCH   8   9
ENDBRANCH   5   8
ENDBRANCH   3   4
ENDBRANCH   2   3
ENDBRANCH   1   2
BRANCH   1  29
ATOM     29  N   UNL A   1      32.621  34.246  27.624  1.00  0.00    -0.352 N 
ATOM     30  C   UNL A   1      33.106  34.871  28.746  1.00  0.00     0.251 C 
ATOM     31  H   UNL A   1      32.029  34.797  27.062  1.00  0.00     0.163 HD
ATOM     32  O   UNL A   1      32.583  35.917  29.125  1.00  0.00    -0.269 OA
BRANCH  30  33
ATOM     33  C   UNL A   1      34.239  34.300  29.509  1.00  0.00     0.039 A 
ATOM     34  C   UNL A   1      35.539  34.490  29.030  1.00  0.00     0.014 A 
ATOM     35  C   UNL A   1      34.023  33.505  30.638  1.00  0.00     0.014 A 
ATOM     36  C   UNL A   1      36.623  33.917  29.702  1.00  0.00     0.010 A 
ATOM     37  C   UNL A   1      35.109  32.969  31.333  1.00  0.00     0.010 A 
ATOM     38  C   UNL A   1      36.418  33.159  30.865  1.00  0.00    -0.014 A 
BRANCH  38  39
ATOM     39  C   UNL A   1      37.559  32.531  31.579  1.00  0.00     0.031 A 
ATOM     40  C   UNL A   1      38.292  31.371  30.960  1.00  0.00     0.074 A 
ATOM     41  C   UNL A   1      37.914  32.977  32.800  1.00  0.00     0.049 A 
ATOM     42  N   UNL A   1      39.292  30.680  31.443  1.00  0.00    -0.248 NA
ATOM     43  C   UNL A   1      37.840  30.922  29.633  1.00  0.00     0.031 C 
ATOM     44  C   UNL A   1      37.263  34.069  33.525  1.00  0.00     0.029 A 
ATOM     45  N   UNL A   1      38.906  32.558  33.653  1.00  0.00    -0.354 N 
ATOM     46  C   UNL A   1      39.577  29.707  30.493  1.00  0.00     0.074 A 
ATOM     47  C   UNL A   1      38.629  29.878  29.414  1.00  0.00     0.031 C 
ATOM     48  C   UNL A   1      37.878  34.240  34.706  1.00  0.00     0.029 A 
ATOM     49  C   UNL A   1      38.953  33.259  34.835  1.00  0.00     0.049 A 
ATOM     50  H   UNL A   1      39.526  31.824  33.437  1.00  0.00     0.167 HD
ATOM     51  C   UNL A   1      40.558  28.776  30.502  1.00  0.00     0.034 A 
ATOM     52  C   UNL A   1      39.770  33.131  35.898  1.00  0.00     0.034 A 
ATOM     53  C   UNL A   1      41.532  28.632  31.548  1.00  0.00     0.049 A 
ATOM     54  C   UNL A   1      40.855  32.087  35.880  1.00  0.00     0.074 A 
ATOM     55  C   UNL A   1      42.598  27.752  31.609  1.00  0.00     0.029 A 
ATOM     56  N   UNL A   1      41.567  29.386  32.708  1.00  0.00    -0.354 N 
ATOM     57  N   UNL A   1      41.171  31.250  34.923  1.00  0.00    -0.248 NA
ATOM     58  C   UNL A   1      41.709  31.988  37.073  1.00  0.00     0.031 C 
ATOM     59  C   UNL A   1      43.277  27.971  32.811  1.00  0.00     0.029 A 
ATOM     60  C   UNL A   1      42.635  28.992  33.492  1.00  0.00     0.049 A 
ATOM     61  H   UNL A   1      40.926  30.097  32.940  1.00  0.00     0.167 HD
ATOM     62  C   UNL A   1      42.277  30.545  35.386  1.00  0.00     0.074 A 
ATOM     63  C   UNL A   1      42.583  31.059  36.704  1.00  0.00     0.031 C 
ATOM     64  C   UNL A   1      42.965  29.550  34.776  1.00  0.00     0.034 A 
BRANCH  51  65
ATOM     65  C   UNL A   1      40.692  27.875  29.307  1.00  0.00     0.023 A 
ATOM     66  C   UNL A   1      39.849  26.749  29.207  1.00  0.00     0.012 A 
ATOM     67  C   UNL A   1      41.547  28.202  28.238  1.00  0.00     0.148 A 
ATOM     68  C   UNL A   1      39.858  25.959  28.059  1.00  0.00     0.002 A 
ATOM     69  C   UNL A   1      41.531  27.425  27.086  1.00  0.00     0.091 A 
ATOM     70  F   UNL A   1      42.342  29.275  28.363  1.00  0.00    -0.205 F 
ATOM     71  C   UNL A   1      40.690  26.303  26.996  1.00  0.00     0.022 A 
BRANCH  69  72
ATOM     72  S   UNL A   1      42.521  27.807  25.636  1.00  0.00     0.127 S 
ATOM     73  O   UNL A   1      43.858  27.929  26.217  1.00  0.00    -0.237 OA
ATOM     74  O   UNL A   1      42.321  26.618  24.809  1.00  0.00    -0.237 OA
ATOM     75  O   UNL A   1      41.976  29.040  25.087  1.00  0.00    -0.744 OA
ENDBRANCH  69  72
ENDBRANCH  51  65
BRANCH  52  76
ATOM     76  C   UNL A   1      39.644  34.071  37.045  1.00  0.00     0.023 A 
ATOM     77  C   UNL A   1      40.072  35.404  36.885  1.00  0.00     0.012 A 
ATOM     78  C   UNL A   1      39.079  33.670  38.270  1.00  0.00     0.148 A 
ATOM     79  C   UNL A   1      39.955  36.318  37.931  1.00  0.00     0.002 A 
ATOM     80  C   UNL A   1      38.931  34.597  39.297  1.00  0.00     0.091 A 
ATOM     81  F   UNL A   1      38.685  32.396  38.398  1.00  0.00    -0.205 F 
ATOM     82  C   UNL A   1      39.379  35.918  39.133  1.00  0.00     0.022 A 
BRANCH  80  83
ATOM     83  S   UNL A   1      38.122  34.203  40.851  1.00  0.00     0.127 S 
ATOM     84  O   UNL A   1      36.946  33.462  40.395  1.00  0.00    -0.237 OA
ATOM     85  O   UNL A   1      39.140  33.388  41.517  1.00  0.00    -0.237 OA
ATOM     86  O   UNL A   1      37.849  35.478  41.491  1.00  0.00    -0.744 OA
ENDBRANCH  80  83
ENDBRANCH  52  76
BRANCH  64  87
ATOM     87  C   UNL A   1      44.134  28.943  35.500  1.00  0.00     0.023 A 
ATOM     88  C   UNL A   1      45.394  29.569  35.419  1.00  0.00     0.012 A 
ATOM     89  C   UNL A   1      43.954  27.848  36.368  1.00  0.00     0.148 A 
ATOM     90  C   UNL A   1      46.460  29.109  36.190  1.00  0.00     0.002 A 
ATOM     91  C   UNL A   1      45.012  27.418  37.160  1.00  0.00     0.091 A 
ATOM     92  F   UNL A   1      42.746  27.269  36.421  1.00  0.00    -0.205 F 
ATOM     93  C   UNL A   1      46.266  28.045  37.068  1.00  0.00     0.022 A 
BRANCH  91  94
ATOM     94  S   UNL A   1      44.843  26.108  38.376  1.00  0.00     0.127 S 
ATOM     95  O   UNL A   1      46.202  26.022  38.910  1.00  0.00    -0.237 OA
ATOM     96  O   UNL A   1      43.859  26.670  39.300  1.00  0.00    -0.237 OA
ATOM     97  O   UNL A   1      44.391  24.932  37.646  1.00  0.00    -0.744 OA
ENDBRANCH  91  94
ENDBRANCH  64  87
ENDBRANCH  38  39
ENDBRANCH  30  33
ENDBRANCH   1  29
TORSDOF 14
ENDMDL
MODEL 2
REMARK VINA RESULT:     -13.3      5.823     11.806
REMARK SMILES Cc1cccc2c1[C@H]1c3c(C)cccc3[C@H](CC(=O)NCCCNC(=O)c3ccc(-c4c5nc(c(-c6cccc(S(=O)(=O)[O-])c6F)c6ccc([nH]6)c(-c6cccc(S(=O)(=O)[O-])c6F)c6nc(c(-c7cccc(S(=O)(=O)[O-])c7F)c7ccc4[nH]7)C=C6)C=C5)cc3)C[C@H]1CC2
REMARK SMILES IDX 23 1 22 2 21 3 20 4 18 5 19 6 17 8 16 9 1 10 2 11 3 12 7 13
REMARK SMILES IDX 4 14 6 15 8 16 5 17 93 18 9 19 91 20 92 21 10 22 15 23 90 24
REMARK SMILES IDX 12 25 11 26 14 27 13 28 24 29 25 30 26 32 27 33 28 34 89 35
REMARK SMILES IDX 29 36 88 37 30 38 31 39 32 40 82 41 33 42 87 43 81 44 83 45
REMARK SMILES IDX 34 46 86 47 80 48 79 49 35 51 67 52 47 53 66 54 48 55 51 56
REMARK SMILES IDX 65 57 84 58 49 59 50 60 64 62 85 63 52 64 36 65 37 66 45 67
REMARK SMILES IDX 38 68 40 69 46 70 39 71 41 72 42 73 43 74 44 75 68 76 69 77
REMARK SMILES IDX 77 78 70 79 72 80 78 81 71 82 73 83 74 84 75 85 76 86 53 87
REMARK SMILES IDX 54 88 62 89 55 90 57 91 63 92 56 93 58 94 59 95 60 96 61 97
REMARK H PARENT 20 7 24 31 83 50 51 61
REMARK Flexibility Score: inf
ROOT
ATOM      1  C   UNL A   1      39.281  20.189  26.130  1.00  0.00     0.118 C 
ENDROOT
BRANCH   1   2
ATOM      2  C   UNL A   1      38.293  19.919  25.000  1.00  0.00     0.042 C 
BRANCH   2   3
ATOM      3  C   UNL A   1      37.435  21.105  24.582  1.00  0.00     0.117 C 
BRANCH   3   4
ATOM      4  N   UNL A   1      36.610  21.650  25.640  1.00  0.00    -0.356 N 
ATOM      5  C   UNL A   1      35.274  21.531  25.857  1.00  0.00     0.220 C 
ATOM      6  O   UNL A   1      34.861  21.719  27.005  1.00  0.00    -0.275 OA
ATOM      7  H   UNL A   1      37.093  22.190  26.308  1.00  0.00     0.163 HD
BRANCH   5   8
ATOM      8  C   UNL A   1      34.314  21.171  24.735  1.00  0.00     0.108 C 
BRANCH   8   9
ATOM      9  C   UNL A   1      33.556  22.341  24.041  1.00  0.00     0.029 C 
ATOM     10  C   UNL A   1      34.404  27.838  25.943  1.00  0.00     0.044 C 
ATOM     11  C   UNL A   1      33.343  27.871  24.872  1.00  0.00    -0.047 A 
ATOM     12  C   UNL A   1      32.717  29.108  24.639  1.00  0.00     0.004 A 
ATOM     13  C   UNL A   1      32.959  26.744  24.099  1.00  0.00    -0.034 A 
ATOM     14  C   UNL A   1      31.809  29.265  23.600  1.00  0.00     0.001 A 
ATOM     15  C   UNL A   1      32.178  26.960  22.944  1.00  0.00    -0.044 A 
ATOM     16  C   UNL A   1      33.389  25.322  24.440  1.00  0.00     0.053 C 
ATOM     17  C   UNL A   1      31.577  28.209  22.728  1.00  0.00     0.004 A 
ATOM     18  C   UNL A   1      32.116  25.952  21.820  1.00  0.00     0.036 C 
ATOM     19  C   UNL A   1      32.357  24.382  25.121  1.00  0.00    -0.034 A 
ATOM     20  C   UNL A   1      33.923  24.698  23.129  1.00  0.00     0.002 C 
ATOM     21  C   UNL A   1      32.810  24.614  22.068  1.00  0.00     0.009 C 
ATOM     22  C   UNL A   1      31.355  24.808  26.036  1.00  0.00    -0.047 A 
ATOM     23  C   UNL A   1      32.432  22.983  24.847  1.00  0.00    -0.040 A 
ATOM     24  C   UNL A   1      34.553  23.341  23.441  1.00  0.00     0.013 C 
ATOM     25  C   UNL A   1      30.395  23.894  26.517  1.00  0.00     0.004 A 
ATOM     26  C   UNL A   1      31.223  26.206  26.573  1.00  0.00     0.044 C 
ATOM     27  C   UNL A   1      31.405  22.121  25.288  1.00  0.00     0.004 A 
ATOM     28  C   UNL A   1      30.399  22.568  26.123  1.00  0.00     0.001 A 
ENDBRANCH   8   9
ENDBRANCH   5   8
ENDBRANCH   3   4
ENDBRANCH   2   3
ENDBRANCH   1   2
BRANCH   1  29
ATOM     29  N   UNL A   1      40.374  19.230  26.137  1.00  0.00    -0.352 N 
ATOM     30  C   UNL A   1      41.729  19.442  26.075  1.00  0.00     0.251 C 
ATOM     31  H   UNL A   1      40.102  18.286  26.194  1.00  0.00     0.163 HD
ATOM     32  O   UNL A   1      42.475  18.500  25.816  1.00  0.00    -0.269 OA
BRANCH  30  33
ATOM     33  C   UNL A   1      42.303  20.788  26.304  1.00  0.00     0.039 A 
ATOM     34  C   UNL A   1      42.513  21.217  27.619  1.00  0.00     0.014 A 
ATOM     35  C   UNL A   1      42.549  21.661  25.240  1.00  0.00     0.014 A 
ATOM     36  C   UNL A   1      43.004  22.503  27.866  1.00  0.00     0.010 A 
ATOM     37  C   UNL A   1      43.080  22.929  25.485  1.00  0.00     0.010 A 
ATOM     38  C   UNL A   1      43.300  23.367  26.800  1.00  0.00    -0.014 A 
BRANCH  38  39
ATOM     39  C   UNL A   1      43.807  24.740  27.048  1.00  0.00     0.031 A 
ATOM     40  C   UNL A   1      42.880  25.805  27.573  1.00  0.00     0.074 A 
ATOM     41  C   UNL A   1      45.089  25.045  26.768  1.00  0.00     0.049 A 
ATOM     42  N   UNL A   1      43.134  27.062  27.827  1.00  0.00    -0.248 NA
ATOM     43  C   UNL A   1      41.487  25.410  27.840  1.00  0.00     0.031 C 
ATOM     44  C   UNL A   1      46.079  24.114  26.222  1.00  0.00     0.029 A 
ATOM     45  N   UNL A   1      45.778  26.226  26.893  1.00  0.00    -0.354 N 
ATOM     46  C   UNL A   1      41.935  27.613  28.263  1.00  0.00     0.074 A 
ATOM     47  C   UNL A   1      40.944  26.560  28.218  1.00  0.00     0.031 C 
ATOM     48  C   UNL A   1      47.248  24.758  26.070  1.00  0.00     0.029 A 
ATOM     49  C   UNL A   1      47.089  26.149  26.486  1.00  0.00     0.049 A 
ATOM     50  H   UNL A   1      45.370  27.052  27.243  1.00  0.00     0.167 HD
ATOM     51  C   UNL A   1      41.688  28.871  28.692  1.00  0.00     0.034 A 
ATOM     52  C   UNL A   1      48.054  27.089  26.455  1.00  0.00     0.034 A 
ATOM     53  C   UNL A   1      42.678  29.908  28.785  1.00  0.00     0.049 A 
ATOM     54  C   UNL A   1      47.750  28.481  26.941  1.00  0.00     0.074 A 
ATOM     55  C   UNL A   1      42.525  31.197  29.266  1.00  0.00     0.029 A 
ATOM     56  N   UNL A   1      44.000  29.777  28.398  1.00  0.00    -0.354 N 
ATOM     57  N   UNL A   1      46.637  28.948  27.450  1.00  0.00    -0.248 NA
ATOM     58  C   UNL A   1      48.841  29.467  26.874  1.00  0.00     0.031 C 
ATOM     59  C   UNL A   1      43.757  31.849  29.165  1.00  0.00     0.029 A 
ATOM     60  C   UNL A   1      44.676  30.961  28.628  1.00  0.00     0.049 A 
ATOM     61  H   UNL A   1      44.400  28.963  28.016  1.00  0.00     0.167 HD
ATOM     62  C   UNL A   1      46.900  30.271  27.789  1.00  0.00     0.074 A 
ATOM     63  C   UNL A   1      48.280  30.530  27.438  1.00  0.00     0.031 C 
ATOM     64  C   UNL A   1      46.064  31.190  28.329  1.00  0.00     0.034 A 
BRANCH  51  65
ATOM     65  C   UNL A   1      40.303  29.196  29.178  1.00  0.00     0.023 A 
ATOM     66  C   UNL A   1      39.324  29.571  28.236  1.00  0.00     0.012 A 
ATOM     67  C   UNL A   1      39.940  29.010  30.525  1.00  0.00     0.148 A 
ATOM     68  C   UNL A   1      38.001  29.762  28.630  1.00  0.00     0.002 A 
ATOM     69  C   UNL A   1      38.614  29.176  30.905  1.00  0.00     0.091 A 
ATOM     70  F   UNL A   1      40.894  28.660  31.400  1.00  0.00    -0.205 F 
ATOM     71  C   UNL A   1      37.645  29.554  29.961  1.00  0.00     0.022 A 
BRANCH  69  72
ATOM     72  S   UNL A   1      38.034  28.883  32.580  1.00  0.00     0.127 S 
ATOM     73  O   UNL A   1      38.935  29.734  33.357  1.00  0.00    -0.237 OA
ATOM     74  O   UNL A   1      36.653  29.357  32.512  1.00  0.00    -0.237 OA
ATOM     75  O   UNL A   1      38.185  27.454  32.816  1.00  0.00    -0.744 OA
ENDBRANCH  69  72
ENDBRANCH  51  65
BRANCH  52  76
ATOM     76  C   UNL A   1      49.428  26.724  26.015  1.00  0.00     0.023 A 
ATOM     77  C   UNL A   1      50.237  25.954  26.875  1.00  0.00     0.012 A 
ATOM     78  C   UNL A   1      49.924  27.100  24.753  1.00  0.00     0.148 A 
ATOM     79  C   UNL A   1      51.524  25.578  26.491  1.00  0.00     0.002 A 
ATOM     80  C   UNL A   1      51.194  26.691  24.362  1.00  0.00     0.091 A 
ATOM     81  F   UNL A   1      49.137  27.837  23.958  1.00  0.00    -0.205 F 
ATOM     82  C   UNL A   1      52.000  25.939  25.234  1.00  0.00     0.022 A 
BRANCH  80  83
ATOM     83  S   UNL A   1      51.864  27.029  22.731  1.00  0.00     0.127 S 
ATOM     84  O   UNL A   1      52.196  28.451  22.834  1.00  0.00    -0.237 OA
ATOM     85  O   UNL A   1      53.019  26.131  22.692  1.00  0.00    -0.237 OA
ATOM     86  O   UNL A   1      50.807  26.701  21.791  1.00  0.00    -0.744 OA
ENDBRANCH  80  83
ENDBRANCH  52  76
BRANCH  64  87
ATOM     87  C   UNL A   1      46.599  32.568  28.600  1.00  0.00     0.023 A 
ATOM     88  C   UNL A   1      47.192  32.843  29.848  1.00  0.00     0.012 A 
ATOM     89  C   UNL A   1      46.644  33.537  27.578  1.00  0.00     0.148 A 
ATOM     90  C   UNL A   1      47.820  34.067  30.075  1.00  0.00     0.002 A 
ATOM     91  C   UNL A   1      47.302  34.741  27.801  1.00  0.00     0.091 A 
ATOM     92  F   UNL A   1      46.067  33.250  26.403  1.00  0.00    -0.205 F 
ATOM     93  C   UNL A   1      47.886  35.008  29.050  1.00  0.00     0.022 A 
BRANCH  91  94
ATOM     94  S   UNL A   1      47.509  35.984  26.522  1.00  0.00     0.127 S 
ATOM     95  O   UNL A   1      48.294  37.001  27.221  1.00  0.00    -0.237 OA
ATOM     96  O   UNL A   1      48.243  35.248  25.492  1.00  0.00    -0.237 OA
ATOM     97  O   UNL A   1      46.167  36.397  26.136  1.00  0.00    -0.744 OA
ENDBRANCH  91  94
ENDBRANCH  64  87
ENDBRANCH  38  39
ENDBRANCH  30  33
ENDBRANCH   1  29
TORSDOF 14
ENDMDL
MODEL 3
REMARK VINA RESULT:     -13.3      0.876      7.633
REMARK SMILES Cc1cccc2c1[C@H]1c3c(C)cccc3[C@H](CC(=O)NCCCNC(=O)c3ccc(-c4c5nc(c(-c6cccc(S(=O)(=O)[O-])c6F)c6ccc([nH]6)c(-c6cccc(S(=O)(=O)[O-])c6F)c6nc(c(-c7cccc(S(=O)(=O)[O-])c7F)c7ccc4[nH]7)C=C6)C=C5)cc3)C[C@H]1CC2
REMARK SMILES IDX 23 1 22 2 21 3 20 4 18 5 19 6 17 8 16 9 1 10 2 11 3 12 7 13
REMARK SMILES IDX 4 14 6 15 8 16 5 17 93 18 9 19 91 20 92 21 10 22 15 23 90 24
REMARK SMILES IDX 12 25 11 26 14 27 13 28 24 29 25 30 26 32 27 33 28 34 89 35
REMARK SMILES IDX 29 36 88 37 30 38 31 39 32 40 82 41 33 42 87 43 81 44 83 45
REMARK SMILES IDX 34 46 86 47 80 48 79 49 35 51 67 52 47 53 66 54 48 55 51 56
REMARK SMILES IDX 65 57 84 58 49 59 50 60 64 62 85 63 52 64 36 65 37 66 45 67
REMARK SMILES IDX 38 68 40 69 46 70 39 71 41 72 42 73 43 74 44 75 68 76 69 77
REMARK SMILES IDX 77 78 70 79 72 80 78 81 71 82 73 83 74 84 75 85 76 86 53 87
REMARK SMILES IDX 54 88 62 89 55 90 57 91 63 92 56 93 58 94 59 95 60 96 61 97
REMARK H PARENT 20 7 24 31 83 50 51 61
REMARK Flexibility Score: inf
ROOT
ATOM      1  C   UNL A   1      32.756  32.933  27.054  1.00  0.00     0.118 C 
ENDROOT
BRANCH   1   2
ATOM      2  C   UNL A   1      31.418  32.266  26.754  1.00  0.00     0.042 C 
BRANCH   2   3
ATOM      3  C   UNL A   1      31.402  30.748  26.868  1.00  0.00     0.117 C 
BRANCH   3   4
ATOM      4  N   UNL A   1      32.465  30.082  26.143  1.00  0.00    -0.356 N 
ATOM      5  C   UNL A   1      32.414  29.330  25.012  1.00  0.00     0.220 C 
ATOM      6  O   UNL A   1      33.453  29.212  24.356  1.00  0.00    -0.275 OA
ATOM      7  H   UNL A   1      33.364  30.192  26.528  1.00  0.00     0.163 HD
BRANCH   5   8
ATOM      8  C   UNL A   1      31.128  28.661  24.557  1.00  0.00     0.108 C 
BRANCH   8   9
ATOM      9  C   UNL A   1      31.037  27.114  24.705  1.00  0.00     0.029 C 
ATOM     10  C   UNL A   1      35.871  24.075  26.102  1.00  0.00     0.044 C 
ATOM     11  C   UNL A   1      34.756  23.092  25.853  1.00  0.00    -0.047 A 
ATOM     12  C   UNL A   1      35.096  21.729  25.880  1.00  0.00     0.004 A 
ATOM     13  C   UNL A   1      33.409  23.465  25.607  1.00  0.00    -0.034 A 
ATOM     14  C   UNL A   1      34.119  20.746  25.773  1.00  0.00     0.001 A 
ATOM     15  C   UNL A   1      32.413  22.467  25.679  1.00  0.00    -0.044 A 
ATOM     16  C   UNL A   1      32.988  24.900  25.309  1.00  0.00     0.053 C 
ATOM     17  C   UNL A   1      32.781  21.113  25.720  1.00  0.00     0.004 A 
ATOM     18  C   UNL A   1      30.959  22.802  25.909  1.00  0.00     0.036 C 
ATOM     19  C   UNL A   1      32.676  25.288  23.838  1.00  0.00    -0.034 A 
ATOM     20  C   UNL A   1      31.782  25.204  26.229  1.00  0.00     0.002 C 
ATOM     21  C   UNL A   1      30.593  24.285  25.896  1.00  0.00     0.009 C 
ATOM     22  C   UNL A   1      33.328  24.739  22.700  1.00  0.00    -0.047 A 
ATOM     23  C   UNL A   1      31.692  26.295  23.598  1.00  0.00    -0.040 A 
ATOM     24  C   UNL A   1      31.436  26.689  26.125  1.00  0.00     0.013 C 
ATOM     25  C   UNL A   1      32.896  25.076  21.401  1.00  0.00     0.004 A 
ATOM     26  C   UNL A   1      34.496  23.794  22.755  1.00  0.00     0.044 C 
ATOM     27  C   UNL A   1      31.240  26.542  22.284  1.00  0.00     0.004 A 
ATOM     28  C   UNL A   1      31.841  25.945  21.192  1.00  0.00     0.001 A 
ENDBRANCH   8   9
ENDBRANCH   5   8
ENDBRANCH   3   4
ENDBRANCH   2   3
ENDBRANCH   1   2
BRANCH   1  29
ATOM     29  N   UNL A   1      32.586  34.258  27.628  1.00  0.00    -0.352 N 
ATOM     30  C   UNL A   1      33.135  34.801  28.763  1.00  0.00     0.251 C 
ATOM     31  H   UNL A   1      31.985  34.856  27.127  1.00  0.00     0.163 HD
ATOM     32  O   UNL A   1      32.657  35.834  29.228  1.00  0.00    -0.269 OA
BRANCH  30  33
ATOM     33  C   UNL A   1      34.284  34.157  29.439  1.00  0.00     0.039 A 
ATOM     34  C   UNL A   1      35.577  34.431  28.980  1.00  0.00     0.014 A 
ATOM     35  C   UNL A   1      34.092  33.219  30.458  1.00  0.00     0.014 A 
ATOM     36  C   UNL A   1      36.677  33.796  29.566  1.00  0.00     0.010 A 
ATOM     37  C   UNL A   1      35.193  32.618  31.071  1.00  0.00     0.010 A 
ATOM     38  C   UNL A   1      36.494  32.890  30.622  1.00  0.00    -0.014 A 
BRANCH  38  39
ATOM     39  C   UNL A   1      37.652  32.197  31.243  1.00  0.00     0.031 A 
ATOM     40  C   UNL A   1      38.177  32.650  32.579  1.00  0.00     0.074 A 
ATOM     41  C   UNL A   1      38.256  31.184  30.592  1.00  0.00     0.049 A 
ATOM     42  N   UNL A   1      39.190  32.186  33.263  1.00  0.00    -0.248 NA
ATOM     43  C   UNL A   1      37.482  33.775  33.227  1.00  0.00     0.031 C 
ATOM     44  C   UNL A   1      37.867  30.672  29.276  1.00  0.00     0.029 A 
ATOM     45  N   UNL A   1      39.334  30.409  30.944  1.00  0.00    -0.354 N 
ATOM     46  C   UNL A   1      39.267  32.969  34.409  1.00  0.00     0.074 A 
ATOM     47  C   UNL A   1      38.214  33.956  34.319  1.00  0.00     0.031 C 
ATOM     48  C   UNL A   1      38.688  29.663  28.938  1.00  0.00     0.029 A 
ATOM     49  C   UNL A   1      39.673  29.469  29.999  1.00  0.00     0.049 A 
ATOM     50  H   UNL A   1      39.820  30.517  31.794  1.00  0.00     0.167 HD
ATOM     51  C   UNL A   1      40.117  32.857  35.456  1.00  0.00     0.034 A 
ATOM     52  C   UNL A   1      40.660  28.551  29.990  1.00  0.00     0.034 A 
ATOM     53  C   UNL A   1      41.133  31.849  35.573  1.00  0.00     0.049 A 
ATOM     54  C   UNL A   1      41.589  28.448  31.170  1.00  0.00     0.074 A 
ATOM     55  C   UNL A   1      42.000  31.628  36.629  1.00  0.00     0.029 A 
ATOM     56  N   UNL A   1      41.417  30.895  34.612  1.00  0.00    -0.354 N 
ATOM     57  N   UNL A   1      41.573  29.130  32.288  1.00  0.00    -0.248 NA
ATOM     58  C   UNL A   1      42.653  27.435  31.097  1.00  0.00     0.031 C 
ATOM     59  C   UNL A   1      42.814  30.539  36.304  1.00  0.00     0.029 A 
ATOM     60  C   UNL A   1      42.447  30.081  35.049  1.00  0.00     0.049 A 
ATOM     61  H   UNL A   1      40.956  30.807  33.747  1.00  0.00     0.167 HD
ATOM     62  C   UNL A   1      42.604  28.611  33.064  1.00  0.00     0.074 A 
ATOM     63  C   UNL A   1      43.218  27.550  32.293  1.00  0.00     0.031 C 
ATOM     64  C   UNL A   1      43.012  28.992  34.298  1.00  0.00     0.034 A 
BRANCH  51  65
ATOM     65  C   UNL A   1      39.944  33.800  36.612  1.00  0.00     0.023 A 
ATOM     66  C   UNL A   1      40.284  35.157  36.439  1.00  0.00     0.012 A 
ATOM     67  C   UNL A   1      39.337  33.381  37.812  1.00  0.00     0.148 A 
ATOM     68  C   UNL A   1      40.026  36.085  37.447  1.00  0.00     0.002 A 
ATOM     69  C   UNL A   1      39.059  34.316  38.800  1.00  0.00     0.091 A 
ATOM     70  F   UNL A   1      39.031  32.083  37.951  1.00  0.00    -0.205 F 
ATOM     71  C   UNL A   1      39.404  35.666  38.621  1.00  0.00     0.022 A 
BRANCH  69  72
ATOM     72  S   UNL A   1      38.213  33.899  40.330  1.00  0.00     0.127 S 
ATOM     73  O   UNL A   1      38.146  35.200  40.995  1.00  0.00    -0.237 OA
ATOM     74  O   UNL A   1      36.930  33.396  39.841  1.00  0.00    -0.237 OA
ATOM     75  O   UNL A   1      39.049  32.911  40.997  1.00  0.00    -0.744 OA
ENDBRANCH  69  72
ENDBRANCH  51  65
BRANCH  52  76
ATOM     76  C   UNL A   1      40.773  27.599  28.851  1.00  0.00     0.023 A 
ATOM     77  C   UNL A   1      39.885  26.507  28.785  1.00  0.00     0.012 A 
ATOM     78  C   UNL A   1      41.721  27.782  27.828  1.00  0.00     0.148 A 
ATOM     79  C   UNL A   1      39.950  25.603  27.725  1.00  0.00     0.002 A 
ATOM     80  C   UNL A   1      41.756  26.898  26.755  1.00  0.00     0.091 A 
ATOM     81  F   UNL A   1      42.557  28.825  27.918  1.00  0.00    -0.205 F 
ATOM     82  C   UNL A   1      40.879  25.802  26.707  1.00  0.00     0.022 A 
BRANCH  80  83
ATOM     83  S   UNL A   1      42.855  27.116  25.351  1.00  0.00     0.127 S 
ATOM     84  O   UNL A   1      42.665  25.860  24.626  1.00  0.00    -0.237 OA
ATOM     85  O   UNL A   1      42.277  28.294  24.702  1.00  0.00    -0.237 OA
ATOM     86  O   UNL A   1      44.180  27.320  25.912  1.00  0.00    -0.744 OA
ENDBRANCH  80  83
ENDBRANCH  52  76
BRANCH  64  87
ATOM     87  C   UNL A   1      44.166  28.262  34.925  1.00  0.00     0.023 A 
ATOM     88  C   UNL A   1      45.482  28.632  34.583  1.00  0.00     0.012 A 
ATOM     89  C   UNL A   1      43.951  27.320  35.950  1.00  0.00     0.148 A 
ATOM     90  C   UNL A   1      46.568  28.070  35.252  1.00  0.00     0.002 A 
ATOM     91  C   UNL A   1      45.037  26.790  36.636  1.00  0.00     0.091 A 
ATOM     92  F   UNL A   1      42.688  26.983  36.250  1.00  0.00    -0.205 F 
ATOM     93  C   UNL A   1      46.346  27.161  36.284  1.00  0.00     0.022 A 
BRANCH  91  94
ATOM     94  S   UNL A   1      44.854  25.673  38.030  1.00  0.00     0.127 S 
ATOM     95  O   UNL A   1      46.221  25.612  38.544  1.00  0.00    -0.237 OA
ATOM     96  O   UNL A   1      43.913  26.398  38.884  1.00  0.00    -0.237 OA
ATOM     97  O   UNL A   1      44.342  24.424  37.484  1.00  0.00    -0.744 OA
ENDBRANCH  91  94
ENDBRANCH  64  87
ENDBRANCH  38  39
ENDBRANCH  30  33
ENDBRANCH   1  29
TORSDOF 14
ENDMDL
