MODEL 1
REMARK VINA RESULT:     -11.9      0.000      0.000
REMARK SMILES C[C@H]1CCC[C@@H]1n1c(SCC(=O)NCCCNC(=O)c2ccc(-c3c4nc(c(-c5cccc(S(=O)(=O)[O-])c5F)c5ccc([nH]5)c(-c5cccc(S(=O)(=O)[O-])c5F)c5nc(c(-c6cccc(S(=O)(=O)[O-])c6F)c6ccc3[nH]6)C=C5)C=C4)cc2)nc2cnccc21
REMARK SMILES IDX 15 1 14 2 13 3 11 4 12 5 10 7 9 8 8 9 7 10 89 11 83 12 84 13
REMARK SMILES IDX 88 14 85 15 87 16 86 17 6 18 1 19 2 20 3 21 4 22 5 23 16 24
REMARK SMILES IDX 17 25 18 26 19 28 20 29 21 30 82 31 22 32 81 33 23 34 24 35
REMARK SMILES IDX 25 36 75 37 26 38 80 39 74 40 76 41 27 42 79 43 73 44 72 45
REMARK SMILES IDX 28 47 60 48 40 49 59 50 41 51 44 52 58 53 77 54 42 55 43 56
REMARK SMILES IDX 57 58 78 59 45 60 29 61 30 62 38 63 31 64 33 65 39 66 32 67
REMARK SMILES IDX 34 68 35 69 36 70 37 71 61 72 62 73 70 74 63 75 65 76 71 77
REMARK SMILES IDX 64 78 66 79 67 80 68 81 69 82 46 83 47 84 55 85 48 86 50 87
REMARK SMILES IDX 56 88 49 89 51 90 52 91 53 92 54 93
REMARK H PARENT 13 6 17 27 76 46 44 57
REMARK Flexibility Score: inf
ROOT
ATOM      1  C   UNL A   1      38.330  21.160  25.325  1.00  0.00     0.042 C 
ENDROOT
BRANCH   1   2
ATOM      2  C   UNL A   1      37.051  21.726  24.727  1.00  0.00     0.117 C 
BRANCH   2   3
ATOM      3  N   UNL A   1      35.973  20.764  24.701  1.00  0.00    -0.355 N 
ATOM      4  C   UNL A   1      34.835  20.742  25.427  1.00  0.00     0.230 C 
ATOM      5  O   UNL A   1      33.879  20.148  24.911  1.00  0.00    -0.274 OA
ATOM      6  H   UNL A   1      36.085  20.021  24.065  1.00  0.00     0.163 HD
BRANCH   4   7
ATOM      7  C   UNL A   1      34.656  21.492  26.723  1.00  0.00     0.178 C 
BRANCH   7   8
ATOM      8  S   UNL A   1      34.081  23.169  26.798  1.00  0.00    -0.078 SA
BRANCH   8   9
ATOM      9  C   UNL A   1      33.959  24.198  25.414  1.00  0.00     0.169 A 
ATOM     10  N   UNL A   1      33.597  25.537  25.212  1.00  0.00    -0.315 N 
ATOM     11  C   UNL A   1      33.581  25.726  23.821  1.00  0.00     0.072 A 
ATOM     12  N   UNL A   1      33.928  23.544  24.268  1.00  0.00    -0.221 NA
ATOM     13  C   UNL A   1      33.634  24.439  23.291  1.00  0.00     0.108 A 
ATOM     14  C   UNL A   1      33.460  26.817  22.950  1.00  0.00     0.049 A 
ATOM     15  C   UNL A   1      33.403  24.229  21.925  1.00  0.00     0.141 A 
ATOM     16  C   UNL A   1      33.247  26.520  21.608  1.00  0.00     0.113 A 
ATOM     17  N   UNL A   1      33.182  25.278  21.093  1.00  0.00    -0.262 NA
BRANCH  10  18
ATOM     18  C   UNL A   1      33.001  26.458  26.188  1.00  0.00     0.093 C 
ATOM     19  C   UNL A   1      30.410  26.181  26.221  1.00  0.00     0.010 C 
ATOM     20  C   UNL A   1      31.604  27.079  25.909  1.00  0.00     0.009 C 
ATOM     21  C   UNL A   1      31.560  28.329  26.791  1.00  0.00     0.005 C 
ATOM     22  C   UNL A   1      32.949  28.903  26.677  1.00  0.00     0.002 C 
ATOM     23  C   UNL A   1      33.843  27.710  26.384  1.00  0.00     0.026 C 
ENDBRANCH  10  18
ENDBRANCH   8   9
ENDBRANCH   7   8
ENDBRANCH   4   7
ENDBRANCH   2   3
ENDBRANCH   1   2
BRANCH   1  24
ATOM     24  C   UNL A   1      39.094  22.106  26.258  1.00  0.00     0.118 C 
BRANCH  24  25
ATOM     25  N   UNL A   1      40.482  22.363  25.920  1.00  0.00    -0.352 N 
ATOM     26  C   UNL A   1      41.447  23.214  26.388  1.00  0.00     0.251 C 
ATOM     27  H   UNL A   1      40.805  21.794  25.184  1.00  0.00     0.163 HD
ATOM     28  O   UNL A   1      42.595  22.996  25.995  1.00  0.00    -0.269 OA
BRANCH  26  29
ATOM     29  C   UNL A   1      41.183  24.408  27.229  1.00  0.00     0.039 A 
ATOM     30  C   UNL A   1      40.168  25.334  27.001  1.00  0.00     0.014 A 
ATOM     31  C   UNL A   1      42.102  24.647  28.269  1.00  0.00     0.014 A 
ATOM     32  C   UNL A   1      40.177  26.555  27.658  1.00  0.00     0.010 A 
ATOM     33  C   UNL A   1      42.087  25.848  28.965  1.00  0.00     0.010 A 
ATOM     34  C   UNL A   1      41.172  26.827  28.597  1.00  0.00    -0.014 A 
BRANCH  34  35
ATOM     35  C   UNL A   1      41.163  28.142  29.218  1.00  0.00     0.031 A 
ATOM     36  C   UNL A   1      42.151  29.106  28.658  1.00  0.00     0.074 A 
ATOM     37  C   UNL A   1      40.272  28.480  30.171  1.00  0.00     0.049 A 
ATOM     38  N   UNL A   1      43.129  29.694  29.268  1.00  0.00    -0.248 NA
ATOM     39  C   UNL A   1      42.119  29.344  27.206  1.00  0.00     0.031 C 
ATOM     40  C   UNL A   1      39.097  27.725  30.615  1.00  0.00     0.029 A 
ATOM     41  N   UNL A   1      40.152  29.658  30.842  1.00  0.00    -0.354 N 
ATOM     42  C   UNL A   1      43.715  30.531  28.321  1.00  0.00     0.074 A 
ATOM     43  C   UNL A   1      43.153  30.169  27.045  1.00  0.00     0.031 C 
ATOM     44  C   UNL A   1      38.253  28.564  31.255  1.00  0.00     0.029 A 
ATOM     45  C   UNL A   1      38.882  29.866  31.371  1.00  0.00     0.049 A 
ATOM     46  H   UNL A   1      40.891  30.299  30.944  1.00  0.00     0.167 HD
ATOM     47  C   UNL A   1      44.477  31.605  28.661  1.00  0.00     0.034 A 
ATOM     48  C   UNL A   1      38.364  31.061  31.753  1.00  0.00     0.034 A 
ATOM     49  C   UNL A   1      44.918  31.558  30.024  1.00  0.00     0.049 A 
ATOM     50  C   UNL A   1      39.512  31.965  32.015  1.00  0.00     0.074 A 
ATOM     51  C   UNL A   1      45.702  30.692  30.760  1.00  0.00     0.029 A 
ATOM     52  N   UNL A   1      44.222  32.308  30.941  1.00  0.00    -0.354 N 
ATOM     53  N   UNL A   1      40.380  31.768  32.968  1.00  0.00    -0.248 NA
ATOM     54  C   UNL A   1      39.946  32.842  30.939  1.00  0.00     0.031 C 
ATOM     55  C   UNL A   1      45.068  30.621  32.033  1.00  0.00     0.029 A 
ATOM     56  C   UNL A   1      43.975  31.490  32.013  1.00  0.00     0.049 A 
ATOM     57  H   UNL A   1      43.955  33.250  30.846  1.00  0.00     0.167 HD
ATOM     58  C   UNL A   1      41.599  32.123  32.402  1.00  0.00     0.074 A 
ATOM     59  C   UNL A   1      41.257  32.864  31.190  1.00  0.00     0.031 C 
ATOM     60  C   UNL A   1      42.767  31.540  32.803  1.00  0.00     0.034 A 
BRANCH  47  61
ATOM     61  C   UNL A   1      44.571  32.856  27.834  1.00  0.00     0.023 A 
ATOM     62  C   UNL A   1      45.695  33.039  27.003  1.00  0.00     0.012 A 
ATOM     63  C   UNL A   1      43.721  33.967  28.035  1.00  0.00     0.148 A 
ATOM     64  C   UNL A   1      45.956  34.272  26.396  1.00  0.00     0.002 A 
ATOM     65  C   UNL A   1      43.945  35.169  27.373  1.00  0.00     0.091 A 
ATOM     66  F   UNL A   1      42.765  33.906  28.968  1.00  0.00    -0.205 F 
ATOM     67  C   UNL A   1      45.072  35.332  26.567  1.00  0.00     0.022 A 
BRANCH  65  68
ATOM     68  S   UNL A   1      42.808  36.550  27.537  1.00  0.00     0.127 S 
ATOM     69  O   UNL A   1      43.389  37.516  26.602  1.00  0.00    -0.237 OA
ATOM     70  O   UNL A   1      41.545  35.950  27.097  1.00  0.00    -0.237 OA
ATOM     71  O   UNL A   1      42.839  36.914  28.939  1.00  0.00    -0.744 OA
ENDBRANCH  65  68
ENDBRANCH  47  61
BRANCH  48  72
ATOM     72  C   UNL A   1      36.978  31.566  31.559  1.00  0.00     0.023 A 
ATOM     73  C   UNL A   1      36.242  32.018  32.674  1.00  0.00     0.012 A 
ATOM     74  C   UNL A   1      36.468  31.861  30.274  1.00  0.00     0.148 A 
ATOM     75  C   UNL A   1      35.064  32.762  32.514  1.00  0.00     0.002 A 
ATOM     76  C   UNL A   1      35.284  32.577  30.119  1.00  0.00     0.091 A 
ATOM     77  F   UNL A   1      37.187  31.534  29.194  1.00  0.00    -0.205 F 
ATOM     78  C   UNL A   1      34.587  33.045  31.237  1.00  0.00     0.022 A 
BRANCH  76  79
ATOM     79  S   UNL A   1      34.617  32.953  28.492  1.00  0.00     0.127 S 
ATOM     80  O   UNL A   1      34.018  31.675  28.101  1.00  0.00    -0.237 OA
ATOM     81  O   UNL A   1      33.659  34.011  28.791  1.00  0.00    -0.237 OA
ATOM     82  O   UNL A   1      35.764  33.342  27.679  1.00  0.00    -0.744 OA
ENDBRANCH  76  79
ENDBRANCH  48  72
BRANCH  60  83
ATOM     83  C   UNL A   1      42.741  30.640  34.014  1.00  0.00     0.023 A 
ATOM     84  C   UNL A   1      42.845  31.155  35.325  1.00  0.00     0.012 A 
ATOM     85  C   UNL A   1      42.374  29.297  33.835  1.00  0.00     0.148 A 
ATOM     86  C   UNL A   1      42.587  30.344  36.433  1.00  0.00     0.002 A 
ATOM     87  C   UNL A   1      42.081  28.505  34.938  1.00  0.00     0.091 A 
ATOM     88  F   UNL A   1      42.265  28.835  32.580  1.00  0.00    -0.205 F 
ATOM     89  C   UNL A   1      42.189  29.023  36.239  1.00  0.00     0.022 A 
BRANCH  87  90
ATOM     90  S   UNL A   1      41.453  26.834  34.762  1.00  0.00     0.127 S 
ATOM     91  O   UNL A   1      40.299  27.032  33.885  1.00  0.00    -0.237 OA
ATOM     92  O   UNL A   1      42.582  26.141  34.140  1.00  0.00    -0.237 OA
ATOM     93  O   UNL A   1      41.137  26.374  36.109  1.00  0.00    -0.744 OA
ENDBRANCH  87  90
ENDBRANCH  60  83
ENDBRANCH  34  35
ENDBRANCH  26  29
ENDBRANCH  24  25
ENDBRANCH   1  24
TORSDOF 16
ENDMDL
MODEL 2
REMARK VINA RESULT:     -11.8      3.105      8.789
REMARK SMILES C[C@H]1CCC[C@@H]1n1c(SCC(=O)NCCCNC(=O)c2ccc(-c3c4nc(c(-c5cccc(S(=O)(=O)[O-])c5F)c5ccc([nH]5)c(-c5cccc(S(=O)(=O)[O-])c5F)c5nc(c(-c6cccc(S(=O)(=O)[O-])c6F)c6ccc3[nH]6)C=C5)C=C4)cc2)nc2cnccc21
REMARK SMILES IDX 15 1 14 2 13 3 11 4 12 5 10 7 9 8 8 9 7 10 89 11 83 12 84 13
REMARK SMILES IDX 88 14 85 15 87 16 86 17 6 18 1 19 2 20 3 21 4 22 5 23 16 24
REMARK SMILES IDX 17 25 18 26 19 28 20 29 21 30 82 31 22 32 81 33 23 34 24 35
REMARK SMILES IDX 25 36 75 37 26 38 80 39 74 40 76 41 27 42 79 43 73 44 72 45
REMARK SMILES IDX 28 47 60 48 40 49 59 50 41 51 44 52 58 53 77 54 42 55 43 56
REMARK SMILES IDX 57 58 78 59 45 60 29 61 30 62 38 63 31 64 33 65 39 66 32 67
REMARK SMILES IDX 34 68 35 69 36 70 37 71 61 72 62 73 70 74 63 75 65 76 71 77
REMARK SMILES IDX 64 78 66 79 67 80 68 81 69 82 46 83 47 84 55 85 48 86 50 87
REMARK SMILES IDX 56 88 49 89 51 90 52 91 53 92 54 93
REMARK H PARENT 13 6 17 27 76 46 44 57
REMARK Flexibility Score: inf
ROOT
ATOM      1  C   UNL A   1      32.621  29.233  26.815  1.00  0.00     0.042 C 
ENDROOT
BRANCH   1   2
ATOM      2  C   UNL A   1      32.617  27.773  26.390  1.00  0.00     0.117 C 
BRANCH   2   3
ATOM      3  N   UNL A   1      31.797  27.532  25.224  1.00  0.00    -0.355 N 
ATOM      4  C   UNL A   1      30.677  26.786  25.110  1.00  0.00     0.230 C 
ATOM      5  O   UNL A   1      29.903  27.114  24.201  1.00  0.00    -0.274 OA
ATOM      6  H   UNL A   1      32.098  27.974  24.398  1.00  0.00     0.163 HD
BRANCH   4   7
ATOM      7  C   UNL A   1      30.292  25.704  26.086  1.00  0.00     0.178 C 
BRANCH   7   8
ATOM      8  S   UNL A   1      31.193  24.185  26.251  1.00  0.00    -0.078 SA
BRANCH   8   9
ATOM      9  C   UNL A   1      32.668  23.855  25.411  1.00  0.00     0.169 A 
ATOM     10  N   UNL A   1      33.072  22.898  24.470  1.00  0.00    -0.315 N 
ATOM     11  C   UNL A   1      34.449  23.099  24.283  1.00  0.00     0.072 A 
ATOM     12  N   UNL A   1      33.726  24.432  25.951  1.00  0.00    -0.221 NA
ATOM     13  C   UNL A   1      34.826  23.939  25.327  1.00  0.00     0.108 A 
ATOM     14  C   UNL A   1      35.430  22.622  23.403  1.00  0.00     0.049 A 
ATOM     15  C   UNL A   1      36.183  24.169  25.592  1.00  0.00     0.141 A 
ATOM     16  C   UNL A   1      36.751  22.906  23.732  1.00  0.00     0.113 A 
ATOM     17  N   UNL A   1      37.142  23.623  24.803  1.00  0.00    -0.262 NA
BRANCH  10  18
ATOM     18  C   UNL A   1      32.334  21.705  24.036  1.00  0.00     0.093 C 
ATOM     19  C   UNL A   1      32.954  19.669  25.539  1.00  0.00     0.010 C 
ATOM     20  C   UNL A   1      32.997  20.305  24.153  1.00  0.00     0.009 C 
ATOM     21  C   UNL A   1      32.226  19.435  23.157  1.00  0.00     0.005 C 
ATOM     22  C   UNL A   1      32.010  20.341  21.973  1.00  0.00     0.002 C 
ATOM     23  C   UNL A   1      31.997  21.746  22.553  1.00  0.00     0.026 C 
ENDBRANCH  10  18
ENDBRANCH   8   9
ENDBRANCH   7   8
ENDBRANCH   4   7
ENDBRANCH   2   3
ENDBRANCH   1   2
BRANCH   1  24
ATOM     24  C   UNL A   1      33.989  29.800  27.211  1.00  0.00     0.118 C 
BRANCH  24  25
ATOM     25  N   UNL A   1      33.979  30.950  28.096  1.00  0.00    -0.352 N 
ATOM     26  C   UNL A   1      34.919  31.588  28.859  1.00  0.00     0.251 C 
ATOM     27  H   UNL A   1      33.090  31.367  28.165  1.00  0.00     0.163 HD
ATOM     28  O   UNL A   1      34.588  32.682  29.320  1.00  0.00    -0.269 OA
BRANCH  26  29
ATOM     29  C   UNL A   1      36.233  31.010  29.236  1.00  0.00     0.039 A 
ATOM     30  C   UNL A   1      37.394  31.747  29.459  1.00  0.00     0.014 A 
ATOM     31  C   UNL A   1      36.304  29.604  29.268  1.00  0.00     0.014 A 
ATOM     32  C   UNL A   1      38.624  31.111  29.521  1.00  0.00     0.010 A 
ATOM     33  C   UNL A   1      37.527  28.958  29.380  1.00  0.00     0.010 A 
ATOM     34  C   UNL A   1      38.688  29.721  29.424  1.00  0.00    -0.014 A 
BRANCH  34  35
ATOM     35  C   UNL A   1      40.009  29.110  29.444  1.00  0.00     0.031 A 
ATOM     36  C   UNL A   1      40.609  28.956  30.798  1.00  0.00     0.074 A 
ATOM     37  C   UNL A   1      40.601  28.650  28.325  1.00  0.00     0.049 A 
ATOM     38  N   UNL A   1      41.706  29.470  31.250  1.00  0.00    -0.248 NA
ATOM     39  C   UNL A   1      39.818  28.241  31.812  1.00  0.00     0.031 C 
ATOM     40  C   UNL A   1      40.017  28.502  26.989  1.00  0.00     0.029 A 
ATOM     41  N   UNL A   1      41.826  28.070  28.189  1.00  0.00    -0.354 N 
ATOM     42  C   UNL A   1      41.846  28.980  32.547  1.00  0.00     0.074 A 
ATOM     43  C   UNL A   1      40.594  28.355  32.889  1.00  0.00     0.031 C 
ATOM     44  C   UNL A   1      40.769  27.637  26.274  1.00  0.00     0.029 A 
ATOM     45  C   UNL A   1      41.940  27.277  27.052  1.00  0.00     0.049 A 
ATOM     46  H   UNL A   1      42.559  28.199  28.834  1.00  0.00     0.167 HD
ATOM     47  C   UNL A   1      43.043  28.939  33.191  1.00  0.00     0.034 A 
ATOM     48  C   UNL A   1      42.869  26.310  26.845  1.00  0.00     0.034 A 
ATOM     49  C   UNL A   1      44.029  29.776  32.574  1.00  0.00     0.049 A 
ATOM     50  C   UNL A   1      44.010  26.609  27.745  1.00  0.00     0.074 A 
ATOM     51  C   UNL A   1      44.138  31.130  32.333  1.00  0.00     0.029 A 
ATOM     52  N   UNL A   1      44.945  29.171  31.748  1.00  0.00    -0.354 N 
ATOM     53  N   UNL A   1      44.752  27.675  27.638  1.00  0.00    -0.248 NA
ATOM     54  C   UNL A   1      44.049  25.942  29.037  1.00  0.00     0.031 C 
ATOM     55  C   UNL A   1      44.731  31.222  31.042  1.00  0.00     0.029 A 
ATOM     56  C   UNL A   1      45.000  29.924  30.604  1.00  0.00     0.049 A 
ATOM     57  H   UNL A   1      45.461  28.355  31.940  1.00  0.00     0.167 HD
ATOM     58  C   UNL A   1      44.992  28.062  28.951  1.00  0.00     0.074 A 
ATOM     59  C   UNL A   1      44.616  26.907  29.765  1.00  0.00     0.031 C 
ATOM     60  C   UNL A   1      45.193  29.371  29.282  1.00  0.00     0.034 A 
BRANCH  47  61
ATOM     61  C   UNL A   1      43.404  27.898  34.213  1.00  0.00     0.023 A 
ATOM     62  C   UNL A   1      43.719  28.312  35.524  1.00  0.00     0.012 A 
ATOM     63  C   UNL A   1      43.688  26.558  33.868  1.00  0.00     0.148 A 
ATOM     64  C   UNL A   1      44.286  27.428  36.448  1.00  0.00     0.002 A 
ATOM     65  C   UNL A   1      44.184  25.664  34.810  1.00  0.00     0.091 A 
ATOM     66  F   UNL A   1      43.599  26.173  32.590  1.00  0.00    -0.205 F 
ATOM     67  C   UNL A   1      44.504  26.100  36.096  1.00  0.00     0.022 A 
BRANCH  65  68
ATOM     68  S   UNL A   1      44.444  23.933  34.408  1.00  0.00     0.127 S 
ATOM     69  O   UNL A   1      45.400  24.032  33.303  1.00  0.00    -0.237 OA
ATOM     70  O   UNL A   1      45.002  23.417  35.662  1.00  0.00    -0.237 OA
ATOM     71  O   UNL A   1      43.133  23.410  34.079  1.00  0.00    -0.744 OA
ENDBRANCH  65  68
ENDBRANCH  47  61
BRANCH  48  72
ATOM     72  C   UNL A   1      42.684  24.980  26.203  1.00  0.00     0.023 A 
ATOM     73  C   UNL A   1      43.617  24.538  25.243  1.00  0.00     0.012 A 
ATOM     74  C   UNL A   1      41.765  24.033  26.709  1.00  0.00     0.148 A 
ATOM     75  C   UNL A   1      43.655  23.198  24.830  1.00  0.00     0.002 A 
ATOM     76  C   UNL A   1      41.787  22.709  26.277  1.00  0.00     0.091 A 
ATOM     77  F   UNL A   1      40.930  24.391  27.692  1.00  0.00    -0.205 F 
ATOM     78  C   UNL A   1      42.743  22.283  25.349  1.00  0.00     0.022 A 
BRANCH  76  79
ATOM     79  S   UNL A   1      40.621  21.493  26.905  1.00  0.00     0.127 S 
ATOM     80  O   UNL A   1      40.945  21.464  28.333  1.00  0.00    -0.237 OA
ATOM     81  O   UNL A   1      39.337  22.106  26.582  1.00  0.00    -0.237 OA
ATOM     82  O   UNL A   1      40.931  20.253  26.202  1.00  0.00    -0.744 OA
ENDBRANCH  76  79
ENDBRANCH  48  72
BRANCH  60  83
ATOM     83  C   UNL A   1      45.347  30.378  28.170  1.00  0.00     0.023 A 
ATOM     84  C   UNL A   1      44.230  30.966  27.539  1.00  0.00     0.012 A 
ATOM     85  C   UNL A   1      46.625  30.907  27.926  1.00  0.00     0.148 A 
ATOM     86  C   UNL A   1      44.386  32.059  26.681  1.00  0.00     0.002 A 
ATOM     87  C   UNL A   1      46.771  32.016  27.104  1.00  0.00     0.091 A 
ATOM     88  F   UNL A   1      47.670  30.343  28.550  1.00  0.00    -0.205 F 
ATOM     89  C   UNL A   1      45.655  32.594  26.477  1.00  0.00     0.022 A 
BRANCH  87  90
ATOM     90  S   UNL A   1      48.356  32.830  26.886  1.00  0.00     0.127 S 
ATOM     91  O   UNL A   1      49.201  31.732  26.418  1.00  0.00    -0.237 OA
ATOM     92  O   UNL A   1      48.049  33.841  25.874  1.00  0.00    -0.237 OA
ATOM     93  O   UNL A   1      48.715  33.376  28.189  1.00  0.00    -0.744 OA
ENDBRANCH  87  90
ENDBRANCH  60  83
ENDBRANCH  34  35
ENDBRANCH  26  29
ENDBRANCH  24  25
ENDBRANCH   1  24
TORSDOF 16
ENDMDL
MODEL 3
REMARK VINA RESULT:     -11.8      3.227      8.780
REMARK SMILES C[C@H]1CCC[C@@H]1n1c(SCC(=O)NCCCNC(=O)c2ccc(-c3c4nc(c(-c5cccc(S(=O)(=O)[O-])c5F)c5ccc([nH]5)c(-c5cccc(S(=O)(=O)[O-])c5F)c5nc(c(-c6cccc(S(=O)(=O)[O-])c6F)c6ccc3[nH]6)C=C5)C=C4)cc2)nc2cnccc21
REMARK SMILES IDX 15 1 14 2 13 3 11 4 12 5 10 7 9 8 8 9 7 10 89 11 83 12 84 13
REMARK SMILES IDX 88 14 85 15 87 16 86 17 6 18 1 19 2 20 3 21 4 22 5 23 16 24
REMARK SMILES IDX 17 25 18 26 19 28 20 29 21 30 82 31 22 32 81 33 23 34 24 35
REMARK SMILES IDX 25 36 75 37 26 38 80 39 74 40 76 41 27 42 79 43 73 44 72 45
REMARK SMILES IDX 28 47 60 48 40 49 59 50 41 51 44 52 58 53 77 54 42 55 43 56
REMARK SMILES IDX 57 58 78 59 45 60 29 61 30 62 38 63 31 64 33 65 39 66 32 67
REMARK SMILES IDX 34 68 35 69 36 70 37 71 61 72 62 73 70 74 63 75 65 76 71 77
REMARK SMILES IDX 64 78 66 79 67 80 68 81 69 82 46 83 47 84 55 85 48 86 50 87
REMARK SMILES IDX 56 88 49 89 51 90 52 91 53 92 54 93
REMARK H PARENT 13 6 17 27 76 46 44 57
REMARK Flexibility Score: inf
ROOT
ATOM      1  C   UNL A   1      32.329  30.719  26.341  1.00  0.00     0.042 C 
ENDROOT
BRANCH   1   2
ATOM      2  C   UNL A   1      32.012  29.845  25.137  1.00  0.00     0.117 C 
BRANCH   2   3
ATOM      3  N   UNL A   1      33.188  29.505  24.369  1.00  0.00    -0.355 N 
ATOM      4  C   UNL A   1      33.337  28.565  23.410  1.00  0.00     0.230 C 
ATOM      5  O   UNL A   1      34.230  28.779  22.580  1.00  0.00    -0.274 OA
ATOM      6  H   UNL A   1      33.994  30.033  24.573  1.00  0.00     0.163 HD
BRANCH   4   7
ATOM      7  C   UNL A   1      32.411  27.387  23.247  1.00  0.00     0.178 C 
BRANCH   7   8
ATOM      8  S   UNL A   1      32.895  25.881  22.441  1.00  0.00    -0.078 SA
BRANCH   8   9
ATOM      9  C   UNL A   1      33.664  24.567  23.260  1.00  0.00     0.169 A 
ATOM     10  N   UNL A   1      33.554  24.006  24.540  1.00  0.00    -0.315 N 
ATOM     11  C   UNL A   1      34.561  23.030  24.620  1.00  0.00     0.072 A 
ATOM     12  N   UNL A   1      34.781  24.164  22.684  1.00  0.00    -0.221 NA
ATOM     13  C   UNL A   1      35.379  23.279  23.522  1.00  0.00     0.108 A 
ATOM     14  C   UNL A   1      34.915  22.015  25.518  1.00  0.00     0.049 A 
ATOM     15  C   UNL A   1      36.621  22.639  23.409  1.00  0.00     0.141 A 
ATOM     16  C   UNL A   1      36.158  21.421  25.326  1.00  0.00     0.113 A 
ATOM     17  N   UNL A   1      37.015  21.729  24.334  1.00  0.00    -0.262 NA
BRANCH  10  18
ATOM     18  C   UNL A   1      32.817  24.543  25.690  1.00  0.00     0.093 C 
ATOM     19  C   UNL A   1      30.423  23.518  25.783  1.00  0.00     0.010 C 
ATOM     20  C   UNL A   1      31.282  24.764  25.587  1.00  0.00     0.009 C 
ATOM     21  C   UNL A   1      30.971  25.788  26.681  1.00  0.00     0.005 C 
ATOM     22  C   UNL A   1      32.126  26.754  26.614  1.00  0.00     0.002 C 
ATOM     23  C   UNL A   1      33.287  25.939  26.073  1.00  0.00     0.026 C 
ENDBRANCH  10  18
ENDBRANCH   8   9
ENDBRANCH   7   8
ENDBRANCH   4   7
ENDBRANCH   2   3
ENDBRANCH   1   2
BRANCH   1  24
ATOM     24  C   UNL A   1      33.687  30.460  27.003  1.00  0.00     0.118 C 
BRANCH  24  25
ATOM     25  N   UNL A   1      33.930  31.139  28.263  1.00  0.00    -0.352 N 
ATOM     26  C   UNL A   1      35.046  31.444  28.995  1.00  0.00     0.251 C 
ATOM     27  H   UNL A   1      33.100  31.452  28.691  1.00  0.00     0.163 HD
ATOM     28  O   UNL A   1      34.880  32.234  29.927  1.00  0.00    -0.269 OA
BRANCH  26  29
ATOM     29  C   UNL A   1      36.378  30.819  28.802  1.00  0.00     0.039 A 
ATOM     30  C   UNL A   1      36.590  29.518  28.350  1.00  0.00     0.014 A 
ATOM     31  C   UNL A   1      37.486  31.588  29.205  1.00  0.00     0.014 A 
ATOM     32  C   UNL A   1      37.839  28.931  28.475  1.00  0.00     0.010 A 
ATOM     33  C   UNL A   1      38.750  31.021  29.286  1.00  0.00     0.010 A 
ATOM     34  C   UNL A   1      38.901  29.670  28.996  1.00  0.00    -0.014 A 
BRANCH  34  35
ATOM     35  C   UNL A   1      40.176  28.988  29.152  1.00  0.00     0.031 A 
ATOM     36  C   UNL A   1      40.628  28.819  30.561  1.00  0.00     0.074 A 
ATOM     37  C   UNL A   1      40.851  28.480  28.103  1.00  0.00     0.049 A 
ATOM     38  N   UNL A   1      41.702  29.279  31.117  1.00  0.00    -0.248 NA
ATOM     39  C   UNL A   1      39.701  28.163  31.497  1.00  0.00     0.031 C 
ATOM     40  C   UNL A   1      40.396  28.346  26.717  1.00  0.00     0.029 A 
ATOM     41  N   UNL A   1      42.049  27.832  28.096  1.00  0.00    -0.354 N 
ATOM     42  C   UNL A   1      41.684  28.800  32.426  1.00  0.00     0.074 A 
ATOM     43  C   UNL A   1      40.371  28.249  32.645  1.00  0.00     0.031 C 
ATOM     44  C   UNL A   1      41.166  27.431  26.088  1.00  0.00     0.029 A 
ATOM     45  C   UNL A   1      42.232  27.019  26.983  1.00  0.00     0.049 A 
ATOM     46  H   UNL A   1      42.719  27.930  28.810  1.00  0.00     0.167 HD
ATOM     47  C   UNL A   1      42.806  28.703  33.188  1.00  0.00     0.034 A 
ATOM     48  C   UNL A   1      43.120  25.999  26.878  1.00  0.00     0.034 A 
ATOM     49  C   UNL A   1      43.895  29.475  32.666  1.00  0.00     0.049 A 
ATOM     50  C   UNL A   1      44.181  26.247  27.886  1.00  0.00     0.074 A 
ATOM     51  C   UNL A   1      44.102  30.818  32.426  1.00  0.00     0.029 A 
ATOM     52  N   UNL A   1      44.853  28.810  31.941  1.00  0.00    -0.354 N 
ATOM     53  N   UNL A   1      44.989  27.270  27.846  1.00  0.00    -0.248 NA
ATOM     54  C   UNL A   1      44.053  25.597  29.181  1.00  0.00     0.031 C 
ATOM     55  C   UNL A   1      44.826  30.859  31.200  1.00  0.00     0.029 A 
ATOM     56  C   UNL A   1      45.065  29.542  30.802  1.00  0.00     0.049 A 
ATOM     57  H   UNL A   1      45.301  27.970  32.191  1.00  0.00     0.167 HD
ATOM     58  C   UNL A   1      45.117  27.661  29.173  1.00  0.00     0.074 A 
ATOM     59  C   UNL A   1      44.598  26.540  29.954  1.00  0.00     0.031 C 
ATOM     60  C   UNL A   1      45.357  28.962  29.512  1.00  0.00     0.034 A 
BRANCH  47  61
ATOM     61  C   UNL A   1      43.005  27.658  34.250  1.00  0.00     0.023 A 
ATOM     62  C   UNL A   1      42.975  28.050  35.603  1.00  0.00     0.012 A 
ATOM     63  C   UNL A   1      43.466  26.354  33.958  1.00  0.00     0.148 A 
ATOM     64  C   UNL A   1      43.384  27.180  36.620  1.00  0.00     0.002 A 
ATOM     65  C   UNL A   1      43.802  25.469  34.976  1.00  0.00     0.091 A 
ATOM     66  F   UNL A   1      43.704  26.007  32.689  1.00  0.00    -0.205 F 
ATOM     67  C   UNL A   1      43.782  25.884  36.308  1.00  0.00     0.022 A 
BRANCH  65  68
ATOM     68  S   UNL A   1      44.284  23.776  34.619  1.00  0.00     0.127 S 
ATOM     69  O   UNL A   1      45.501  23.982  33.830  1.00  0.00    -0.237 OA
ATOM     70  O   UNL A   1      44.506  23.240  35.965  1.00  0.00    -0.237 OA
ATOM     71  O   UNL A   1      43.158  23.190  33.921  1.00  0.00    -0.744 OA
ENDBRANCH  65  68
ENDBRANCH  47  61
BRANCH  48  72
ATOM     72  C   UNL A   1      42.927  24.673  26.232  1.00  0.00     0.023 A 
ATOM     73  C   UNL A   1      43.885  24.204  25.310  1.00  0.00     0.012 A 
ATOM     74  C   UNL A   1      41.965  23.751  26.703  1.00  0.00     0.148 A 
ATOM     75  C   UNL A   1      43.904  22.862  24.901  1.00  0.00     0.002 A 
ATOM     76  C   UNL A   1      41.970  22.426  26.275  1.00  0.00     0.091 A 
ATOM     77  F   UNL A   1      41.102  24.133  27.652  1.00  0.00    -0.205 F 
ATOM     78  C   UNL A   1      42.949  21.972  25.386  1.00  0.00     0.022 A 
BRANCH  76  79
ATOM     79  S   UNL A   1      40.749  21.242  26.859  1.00  0.00     0.127 S 
ATOM     80  O   UNL A   1      39.491  21.868  26.445  1.00  0.00    -0.237 OA
ATOM     81  O   UNL A   1      41.108  20.040  26.115  1.00  0.00    -0.237 OA
ATOM     82  O   UNL A   1      40.929  21.175  28.305  1.00  0.00    -0.744 OA
ENDBRANCH  76  79
ENDBRANCH  48  72
BRANCH  60  83
ATOM     83  C   UNL A   1      45.678  29.943  28.412  1.00  0.00     0.023 A 
ATOM     84  C   UNL A   1      44.676  30.724  27.797  1.00  0.00     0.012 A 
ATOM     85  C   UNL A   1      47.027  30.247  28.166  1.00  0.00     0.148 A 
ATOM     86  C   UNL A   1      45.014  31.786  26.953  1.00  0.00     0.002 A 
ATOM     87  C   UNL A   1      47.358  31.327  27.359  1.00  0.00     0.091 A 
ATOM     88  F   UNL A   1      47.961  29.502  28.776  1.00  0.00    -0.205 F 
ATOM     89  C   UNL A   1      46.356  32.098  26.748  1.00  0.00     0.022 A 
BRANCH  87  90
ATOM     90  S   UNL A   1      49.059  31.858  27.142  1.00  0.00     0.127 S 
ATOM     91  O   UNL A   1      49.433  32.249  28.500  1.00  0.00    -0.237 OA
ATOM     92  O   UNL A   1      49.705  30.637  26.656  1.00  0.00    -0.237 OA
ATOM     93  O   UNL A   1      49.024  32.944  26.170  1.00  0.00    -0.744 OA
ENDBRANCH  87  90
ENDBRANCH  60  83
ENDBRANCH  34  35
ENDBRANCH  26  29
ENDBRANCH  24  25
ENDBRANCH   1  24
TORSDOF 16
ENDMDL
