MODEL 1
REMARK VINA RESULT:     -13.3      0.000      0.000
REMARK SMILES O=C(NCCCNC(=O)[C@H]1CC2(CCN(C(=O)c3cccc(O)c3)CC2)CN1C(=O)C1CC1)c1ccc(-c2c3nc(c(-c4cccc(S(=O)(=O)[O-])c4F)c4ccc([nH]4)c(-c4cccc(S(=O)(=O)[O-])c4F)c4nc(c(-c5cccc(S(=O)(=O)[O-])c5F)c5ccc2[nH]5)C=C4)C=C3)cc1
REMARK SMILES IDX 4 1 3 2 1 3 2 4 34 6 35 7 96 8 36 9 95 10 37 11 38 12 39 13
REMARK SMILES IDX 89 14 40 15 94 16 88 17 90 18 41 19 93 20 87 21 86 22 42 24
REMARK SMILES IDX 74 25 54 26 73 27 55 28 58 29 72 30 91 31 56 32 57 33 71 35
REMARK SMILES IDX 92 36 59 37 43 38 44 39 52 40 45 41 47 42 53 43 46 44 48 45
REMARK SMILES IDX 49 46 50 47 51 48 75 49 76 50 84 51 77 52 79 53 85 54 78 55
REMARK SMILES IDX 80 56 81 57 82 58 83 59 60 60 61 61 69 62 62 63 64 64 70 65
REMARK SMILES IDX 63 66 65 67 66 68 67 69 68 70 5 71 6 72 7 73 8 74 9 76 10 77
REMARK SMILES IDX 11 78 28 79 12 80 27 81 13 82 26 83 14 84 25 85 15 86 16 87
REMARK SMILES IDX 17 88 29 89 30 90 31 91 32 92 33 93 18 94 19 95 24 96 20 97
REMARK SMILES IDX 22 98 21 99 23 100
REMARK H PARENT 3 5 90 23 58 34 7 75 23 101
REMARK Flexibility Score: inf
ROOT
ATOM      1  C   UNL A   1      32.842  32.898  27.239  1.00  0.00     0.118 C 
ENDROOT
BRANCH   1   2
ATOM      2  N   UNL A   1      32.600  34.249  27.710  1.00  0.00    -0.352 N 
ATOM      3  O   UNL A   1      32.604  35.944  29.184  1.00  0.00    -0.269 OA
ATOM      4  C   UNL A   1      33.116  34.889  28.812  1.00  0.00     0.251 C 
ATOM      5  H   UNL A   1      31.978  34.783  27.163  1.00  0.00     0.163 HD
BRANCH   4   6
ATOM      6  C   UNL A   1      34.263  34.316  29.554  1.00  0.00     0.039 A 
ATOM      7  C   UNL A   1      34.066  33.498  30.670  1.00  0.00     0.014 A 
ATOM      8  C   UNL A   1      35.560  34.545  29.082  1.00  0.00     0.014 A 
ATOM      9  C   UNL A   1      35.164  32.992  31.369  1.00  0.00     0.010 A 
ATOM     10  C   UNL A   1      36.657  33.982  29.744  1.00  0.00     0.010 A 
ATOM     11  C   UNL A   1      36.471  33.212  30.903  1.00  0.00    -0.014 A 
BRANCH  11  12
ATOM     12  C   UNL A   1      37.620  32.544  31.573  1.00  0.00     0.031 A 
ATOM     13  C   UNL A   1      38.351  31.397  30.929  1.00  0.00     0.074 A 
ATOM     14  C   UNL A   1      37.982  32.960  32.803  1.00  0.00     0.049 A 
ATOM     15  N   UNL A   1      39.374  30.718  31.382  1.00  0.00    -0.248 NA
ATOM     16  C   UNL A   1      37.868  30.947  29.613  1.00  0.00     0.031 C 
ATOM     17  C   UNL A   1      37.310  34.018  33.562  1.00  0.00     0.029 A 
ATOM     18  N   UNL A   1      38.986  32.539  33.637  1.00  0.00    -0.354 N 
ATOM     19  C   UNL A   1      39.638  29.739  30.430  1.00  0.00     0.074 A 
ATOM     20  C   UNL A   1      38.659  29.909  29.376  1.00  0.00     0.031 C 
ATOM     21  C   UNL A   1      37.925  34.169  34.745  1.00  0.00     0.029 A 
ATOM     22  C   UNL A   1      39.007  33.196  34.846  1.00  0.00     0.049 A 
ATOM     23  H   UNL A   1      39.630  31.835  33.395  1.00  0.00     0.167 HD
ATOM     24  C   UNL A   1      40.614  28.800  30.427  1.00  0.00     0.034 A 
ATOM     25  C   UNL A   1      39.795  33.028  35.926  1.00  0.00     0.034 A 
ATOM     26  C   UNL A   1      41.607  28.656  31.461  1.00  0.00     0.049 A 
ATOM     27  C   UNL A   1      40.891  32.003  35.879  1.00  0.00     0.074 A 
ATOM     28  C   UNL A   1      42.685  27.788  31.503  1.00  0.00     0.029 A 
ATOM     29  N   UNL A   1      41.638  29.384  32.640  1.00  0.00    -0.354 N 
ATOM     30  N   UNL A   1      41.223  31.196  34.900  1.00  0.00    -0.248 NA
ATOM     31  C   UNL A   1      41.741  31.884  37.072  1.00  0.00     0.031 C 
ATOM     32  C   UNL A   1      43.356  27.979  32.716  1.00  0.00     0.029 A 
ATOM     33  C   UNL A   1      42.707  28.978  33.422  1.00  0.00     0.049 A 
ATOM     34  H   UNL A   1      40.994  30.087  32.886  1.00  0.00     0.167 HD
ATOM     35  C   UNL A   1      42.333  30.491  35.349  1.00  0.00     0.074 A 
ATOM     36  C   UNL A   1      42.634  30.985  36.677  1.00  0.00     0.031 C 
ATOM     37  C   UNL A   1      43.026  29.508  34.723  1.00  0.00     0.034 A 
BRANCH  24  38
ATOM     38  C   UNL A   1      40.696  27.874  29.240  1.00  0.00     0.023 A 
ATOM     39  C   UNL A   1      39.840  26.757  29.174  1.00  0.00     0.012 A 
ATOM     40  C   UNL A   1      41.559  28.148  28.160  1.00  0.00     0.148 A 
ATOM     41  C   UNL A   1      39.860  25.910  28.065  1.00  0.00     0.002 A 
ATOM     42  C   UNL A   1      41.547  27.320  27.043  1.00  0.00     0.091 A 
ATOM     43  F   UNL A   1      42.382  29.203  28.249  1.00  0.00    -0.205 F 
ATOM     44  C   UNL A   1      40.706  26.197  26.997  1.00  0.00     0.022 A 
BRANCH  42  45
ATOM     45  S   UNL A   1      42.549  27.653  25.588  1.00  0.00     0.127 S 
ATOM     46  O   UNL A   1      41.991  28.927  25.133  1.00  0.00    -0.237 OA
ATOM     47  O   UNL A   1      43.898  27.750  26.155  1.00  0.00    -0.237 OA
ATOM     48  O   UNL A   1      42.349  26.523  24.698  1.00  0.00    -0.744 OA
ENDBRANCH  42  45
ENDBRANCH  24  38
BRANCH  25  49
ATOM     49  C   UNL A   1      39.599  33.898  37.118  1.00  0.00     0.023 A 
ATOM     50  C   UNL A   1      39.990  35.249  37.063  1.00  0.00     0.012 A 
ATOM     51  C   UNL A   1      38.975  33.409  38.283  1.00  0.00     0.148 A 
ATOM     52  C   UNL A   1      39.782  36.093  38.154  1.00  0.00     0.002 A 
ATOM     53  C   UNL A   1      38.717  34.269  39.343  1.00  0.00     0.091 A 
ATOM     54  F   UNL A   1      38.627  32.115  38.323  1.00  0.00    -0.205 F 
ATOM     55  C   UNL A   1      39.133  35.609  39.287  1.00  0.00     0.022 A 
BRANCH  53  56
ATOM     56  S   UNL A   1      37.758  33.762  40.774  1.00  0.00     0.127 S 
ATOM     57  O   UNL A   1      38.710  32.916  41.489  1.00  0.00    -0.237 OA
ATOM     58  O   UNL A   1      37.468  35.044  41.418  1.00  0.00    -0.237 OA
ATOM     59  O   UNL A   1      36.584  33.087  40.236  1.00  0.00    -0.744 OA
ENDBRANCH  53  56
ENDBRANCH  25  49
BRANCH  37  60
ATOM     60  C   UNL A   1      44.195  28.907  35.459  1.00  0.00     0.023 A 
ATOM     61  C   UNL A   1      45.481  29.457  35.290  1.00  0.00     0.012 A 
ATOM     62  C   UNL A   1      44.011  27.841  36.362  1.00  0.00     0.148 A 
ATOM     63  C   UNL A   1      46.571  28.938  35.988  1.00  0.00     0.002 A 
ATOM     64  C   UNL A   1      45.095  27.358  37.088  1.00  0.00     0.091 A 
ATOM     65  F   UNL A   1      42.784  27.316  36.491  1.00  0.00    -0.205 F 
ATOM     66  C   UNL A   1      46.377  27.898  36.894  1.00  0.00     0.022 A 
BRANCH  64  67
ATOM     67  S   UNL A   1      44.919  26.082  38.339  1.00  0.00     0.127 S 
ATOM     68  O   UNL A   1      46.313  25.816  38.692  1.00  0.00    -0.237 OA
ATOM     69  O   UNL A   1      44.146  26.764  39.377  1.00  0.00    -0.237 OA
ATOM     70  O   UNL A   1      44.216  24.982  37.691  1.00  0.00    -0.744 OA
ENDBRANCH  64  67
ENDBRANCH  37  60
ENDBRANCH  11  12
ENDBRANCH   4   6
ENDBRANCH   1   2
BRANCH   1  71
ATOM     71  C   UNL A   1      31.564  32.224  26.737  1.00  0.00     0.042 C 
BRANCH  71  72
ATOM     72  C   UNL A   1      31.763  30.844  26.109  1.00  0.00     0.117 C 
BRANCH  72  73
ATOM     73  N   UNL A   1      31.467  29.721  26.995  1.00  0.00    -0.354 N 
ATOM     74  C   UNL A   1      31.541  28.364  26.830  1.00  0.00     0.242 C 
ATOM     75  H   UNL A   1      31.153  29.994  27.887  1.00  0.00     0.163 HD
ATOM     76  O   UNL A   1      31.363  27.671  27.835  1.00  0.00    -0.273 OA
BRANCH  74  77
ATOM     77  C   UNL A   1      31.913  27.758  25.462  1.00  0.00     0.175 C 
ATOM     78  C   UNL A   1      32.397  26.322  25.832  1.00  0.00     0.044 C 
ATOM     79  N   UNL A   1      31.026  27.436  24.327  1.00  0.00    -0.330 N 
ATOM     80  C   UNL A   1      32.475  25.524  24.513  1.00  0.00    -0.006 C 
ATOM     81  C   UNL A   1      31.695  26.408  23.533  1.00  0.00     0.127 C 
ATOM     82  C   UNL A   1      31.764  24.150  24.593  1.00  0.00     0.030 C 
ATOM     83  C   UNL A   1      33.944  25.313  24.088  1.00  0.00     0.030 C 
ATOM     84  C   UNL A   1      32.517  23.143  25.448  1.00  0.00     0.120 C 
ATOM     85  C   UNL A   1      34.656  24.257  24.946  1.00  0.00     0.120 C 
ATOM     86  N   UNL A   1      33.894  23.014  24.975  1.00  0.00    -0.339 N 
ATOM     87  C   UNL A   1      34.533  21.815  24.675  1.00  0.00     0.253 C 
ATOM     88  O   UNL A   1      35.745  21.706  24.503  1.00  0.00    -0.269 OA
BRANCH  79  89
ATOM     89  C   UNL A   1      30.043  28.142  23.630  1.00  0.00     0.226 C 
ATOM     90  O   UNL A   1      28.929  27.637  23.480  1.00  0.00    -0.275 OA
BRANCH  89  91
ATOM     91  C   UNL A   1      30.170  29.518  23.077  1.00  0.00     0.079 C 
ATOM     92  C   UNL A   1      29.348  30.170  22.010  1.00  0.00     0.014 C 
ATOM     93  C   UNL A   1      29.233  30.622  23.438  1.00  0.00     0.014 C 
ENDBRANCH  89  91
ENDBRANCH  79  89
BRANCH  87  94
ATOM     94  C   UNL A   1      33.713  20.595  24.526  1.00  0.00     0.043 A 
ATOM     95  C   UNL A   1      33.022  20.359  23.332  1.00  0.00     0.014 A 
ATOM     96  C   UNL A   1      33.673  19.667  25.567  1.00  0.00     0.060 A 
ATOM     97  C   UNL A   1      32.252  19.204  23.197  1.00  0.00     0.005 A 
ATOM     98  C   UNL A   1      32.900  18.521  25.420  1.00  0.00     0.116 A 
ATOM     99  C   UNL A   1      32.184  18.284  24.246  1.00  0.00     0.046 A 
BRANCH  98 100
ATOM    100  O   UNL A   1      32.862  17.641  26.460  1.00  0.00    -0.508 OA
ATOM    101  H   UNL A   1      32.452  16.804  26.352  1.00  0.00     0.293 HD
ENDBRANCH  98 100
ENDBRANCH  87  94
ENDBRANCH  74  77
ENDBRANCH  72  73
ENDBRANCH  71  72
ENDBRANCH   1  71
TORSDOF 17
ENDMDL
MODEL 2
REMARK VINA RESULT:     -13.0      6.078     11.696
REMARK SMILES O=C(NCCCNC(=O)[C@H]1CC2(CCN(C(=O)c3cccc(O)c3)CC2)CN1C(=O)C1CC1)c1ccc(-c2c3nc(c(-c4cccc(S(=O)(=O)[O-])c4F)c4ccc([nH]4)c(-c4cccc(S(=O)(=O)[O-])c4F)c4nc(c(-c5cccc(S(=O)(=O)[O-])c5F)c5ccc2[nH]5)C=C4)C=C3)cc1
REMARK SMILES IDX 4 1 3 2 1 3 2 4 34 6 35 7 96 8 36 9 95 10 37 11 38 12 39 13
REMARK SMILES IDX 89 14 40 15 94 16 88 17 90 18 41 19 93 20 87 21 86 22 42 24
REMARK SMILES IDX 74 25 54 26 73 27 55 28 58 29 72 30 91 31 56 32 57 33 71 35
REMARK SMILES IDX 92 36 59 37 43 38 44 39 52 40 45 41 47 42 53 43 46 44 48 45
REMARK SMILES IDX 49 46 50 47 51 48 75 49 76 50 84 51 77 52 79 53 85 54 78 55
REMARK SMILES IDX 80 56 81 57 82 58 83 59 60 60 61 61 69 62 62 63 64 64 70 65
REMARK SMILES IDX 63 66 65 67 66 68 67 69 68 70 5 71 6 72 7 73 8 74 9 76 10 77
REMARK SMILES IDX 11 78 28 79 12 80 27 81 13 82 26 83 14 84 25 85 15 86 16 87
REMARK SMILES IDX 17 88 29 89 30 90 31 91 32 92 33 93 18 94 19 95 24 96 20 97
REMARK SMILES IDX 22 98 21 99 23 100
REMARK H PARENT 3 5 90 23 58 34 7 75 23 101
REMARK Flexibility Score: inf
ROOT
ATOM      1  C   UNL A   1      39.294  19.700  26.284  1.00  0.00     0.118 C 
ENDROOT
BRANCH   1   2
ATOM      2  N   UNL A   1      40.562  19.007  26.150  1.00  0.00    -0.352 N 
ATOM      3  O   UNL A   1      42.756  18.801  25.713  1.00  0.00    -0.269 OA
ATOM      4  C   UNL A   1      41.832  19.530  26.072  1.00  0.00     0.251 C 
ATOM      5  H   UNL A   1      40.505  18.025  26.109  1.00  0.00     0.163 HD
BRANCH   4   6
ATOM      6  C   UNL A   1      42.088  20.951  26.402  1.00  0.00     0.039 A 
ATOM      7  C   UNL A   1      42.370  21.350  27.713  1.00  0.00     0.014 A 
ATOM      8  C   UNL A   1      42.117  21.894  25.370  1.00  0.00     0.014 A 
ATOM      9  C   UNL A   1      42.581  22.699  28.003  1.00  0.00     0.010 A 
ATOM     10  C   UNL A   1      42.395  23.236  25.653  1.00  0.00     0.010 A 
ATOM     11  C   UNL A   1      42.616  23.654  26.974  1.00  0.00    -0.014 A 
BRANCH  11  12
ATOM     12  C   UNL A   1      42.988  25.062  27.282  1.00  0.00     0.031 A 
ATOM     13  C   UNL A   1      42.018  26.011  27.930  1.00  0.00     0.074 A 
ATOM     14  C   UNL A   1      44.216  25.497  26.932  1.00  0.00     0.049 A 
ATOM     15  N   UNL A   1      42.196  27.263  28.268  1.00  0.00    -0.248 NA
ATOM     16  C   UNL A   1      40.673  25.496  28.230  1.00  0.00     0.031 C 
ATOM     17  C   UNL A   1      45.224  24.693  26.238  1.00  0.00     0.029 A 
ATOM     18  N   UNL A   1      44.819  26.718  27.095  1.00  0.00    -0.354 N 
ATOM     19  C   UNL A   1      40.981  27.699  28.786  1.00  0.00     0.074 A 
ATOM     20  C   UNL A   1      40.070  26.576  28.711  1.00  0.00     0.031 C 
ATOM     21  C   UNL A   1      46.322  25.438  26.042  1.00  0.00     0.029 A 
ATOM     22  C   UNL A   1      46.085  26.781  26.559  1.00  0.00     0.049 A 
ATOM     23  H   UNL A   1      44.389  27.477  27.551  1.00  0.00     0.167 HD
ATOM     24  C   UNL A   1      40.662  28.913  29.294  1.00  0.00     0.034 A 
ATOM     25  C   UNL A   1      46.956  27.806  26.475  1.00  0.00     0.034 A 
ATOM     26  C   UNL A   1      41.580  30.018  29.399  1.00  0.00     0.049 A 
ATOM     27  C   UNL A   1      46.586  29.130  27.078  1.00  0.00     0.074 A 
ATOM     28  C   UNL A   1      41.370  31.259  29.976  1.00  0.00     0.029 A 
ATOM     29  N   UNL A   1      42.877  30.023  28.907  1.00  0.00    -0.354 N 
ATOM     30  N   UNL A   1      45.488  29.471  27.708  1.00  0.00    -0.248 NA
ATOM     31  C   UNL A   1      47.586  30.204  26.986  1.00  0.00     0.031 C 
ATOM     32  C   UNL A   1      42.534  32.021  29.814  1.00  0.00     0.029 A 
ATOM     33  C   UNL A   1      43.474  31.248  29.154  1.00  0.00     0.049 A 
ATOM     34  H   UNL A   1      43.309  29.267  28.449  1.00  0.00     0.167 HD
ATOM     35  C   UNL A   1      45.673  30.789  28.108  1.00  0.00     0.074 A 
ATOM     36  C   UNL A   1      47.000  31.176  27.674  1.00  0.00     0.031 C 
ATOM     37  C   UNL A   1      44.812  31.609  28.759  1.00  0.00     0.034 A 
BRANCH  24  38
ATOM     38  C   UNL A   1      39.265  29.108  29.827  1.00  0.00     0.023 A 
ATOM     39  C   UNL A   1      38.964  28.708  31.144  1.00  0.00     0.012 A 
ATOM     40  C   UNL A   1      38.275  29.753  29.058  1.00  0.00     0.148 A 
ATOM     41  C   UNL A   1      37.694  28.919  31.680  1.00  0.00     0.002 A 
ATOM     42  C   UNL A   1      37.022  29.992  29.612  1.00  0.00     0.091 A 
ATOM     43  F   UNL A   1      38.572  30.108  27.800  1.00  0.00    -0.205 F 
ATOM     44  C   UNL A   1      36.727  29.570  30.918  1.00  0.00     0.022 A 
BRANCH  42  45
ATOM     45  S   UNL A   1      35.737  30.890  28.731  1.00  0.00     0.127 S 
ATOM     46  O   UNL A   1      34.964  31.456  29.838  1.00  0.00    -0.237 OA
ATOM     47  O   UNL A   1      36.512  31.873  27.968  1.00  0.00    -0.237 OA
ATOM     48  O   UNL A   1      35.046  29.904  27.919  1.00  0.00    -0.744 OA
ENDBRANCH  42  45
ENDBRANCH  24  38
BRANCH  25  49
ATOM     49  C   UNL A   1      48.284  27.589  25.838  1.00  0.00     0.023 A 
ATOM     50  C   UNL A   1      49.384  27.223  26.636  1.00  0.00     0.012 A 
ATOM     51  C   UNL A   1      48.447  27.684  24.442  1.00  0.00     0.148 A 
ATOM     52  C   UNL A   1      50.630  26.977  26.057  1.00  0.00     0.002 A 
ATOM     53  C   UNL A   1      49.675  27.379  23.867  1.00  0.00     0.091 A 
ATOM     54  F   UNL A   1      47.392  28.051  23.702  1.00  0.00    -0.205 F 
ATOM     55  C   UNL A   1      50.772  27.040  24.674  1.00  0.00     0.022 A 
BRANCH  53  56
ATOM     56  S   UNL A   1      49.901  27.294  22.087  1.00  0.00     0.127 S 
ATOM     57  O   UNL A   1      49.687  28.684  21.691  1.00  0.00    -0.237 OA
ATOM     58  O   UNL A   1      51.285  26.829  21.977  1.00  0.00    -0.237 OA
ATOM     59  O   UNL A   1      48.911  26.336  21.615  1.00  0.00    -0.744 OA
ENDBRANCH  53  56
ENDBRANCH  25  49
BRANCH  37  60
ATOM     60  C   UNL A   1      45.279  33.009  29.059  1.00  0.00     0.023 A 
ATOM     61  C   UNL A   1      45.975  33.268  30.257  1.00  0.00     0.012 A 
ATOM     62  C   UNL A   1      45.086  34.052  28.132  1.00  0.00     0.148 A 
ATOM     63  C   UNL A   1      46.447  34.549  30.539  1.00  0.00     0.002 A 
ATOM     64  C   UNL A   1      45.599  35.316  28.400  1.00  0.00     0.091 A 
ATOM     65  F   UNL A   1      44.402  33.791  27.009  1.00  0.00    -0.205 F 
ATOM     66  C   UNL A   1      46.270  35.570  29.608  1.00  0.00     0.022 A 
BRANCH  64  67
ATOM     67  S   UNL A   1      45.494  36.665  27.218  1.00  0.00     0.127 S 
ATOM     68  O   UNL A   1      46.157  37.749  27.942  1.00  0.00    -0.237 OA
ATOM     69  O   UNL A   1      46.247  36.142  26.078  1.00  0.00    -0.237 OA
ATOM     70  O   UNL A   1      44.073  36.860  26.961  1.00  0.00    -0.744 OA
ENDBRANCH  64  67
ENDBRANCH  37  60
ENDBRANCH  11  12
ENDBRANCH   4   6
ENDBRANCH   1   2
BRANCH   1  71
ATOM     71  C   UNL A   1      38.518  19.742  24.966  1.00  0.00     0.042 C 
BRANCH  71  72
ATOM     72  C   UNL A   1      37.247  20.593  24.990  1.00  0.00     0.117 C 
BRANCH  72  73
ATOM     73  N   UNL A   1      37.118  21.530  23.878  1.00  0.00    -0.354 N 
ATOM     74  C   UNL A   1      36.347  22.646  23.688  1.00  0.00     0.242 C 
ATOM     75  H   UNL A   1      37.700  21.318  23.113  1.00  0.00     0.163 HD
ATOM     76  O   UNL A   1      36.581  23.319  22.681  1.00  0.00    -0.273 OA
BRANCH  74  77
ATOM     77  C   UNL A   1      35.300  23.065  24.740  1.00  0.00     0.175 C 
ATOM     78  C   UNL A   1      34.724  24.391  24.155  1.00  0.00     0.044 C 
ATOM     79  N   UNL A   1      34.042  22.387  25.106  1.00  0.00    -0.330 N 
ATOM     80  C   UNL A   1      33.444  24.713  24.956  1.00  0.00    -0.006 C 
ATOM     81  C   UNL A   1      33.160  23.396  25.687  1.00  0.00     0.127 C 
ATOM     82  C   UNL A   1      32.228  25.035  24.053  1.00  0.00     0.030 C 
ATOM     83  C   UNL A   1      33.688  25.892  25.922  1.00  0.00     0.030 C 
ATOM     84  C   UNL A   1      32.344  26.386  23.364  1.00  0.00     0.120 C 
ATOM     85  C   UNL A   1      33.754  27.242  25.194  1.00  0.00     0.120 C 
ATOM     86  N   UNL A   1      32.577  27.435  24.354  1.00  0.00    -0.339 N 
ATOM     87  C   UNL A   1      31.847  28.615  24.465  1.00  0.00     0.253 C 
ATOM     88  O   UNL A   1      32.196  29.579  25.142  1.00  0.00    -0.269 OA
BRANCH  79  89
ATOM     89  C   UNL A   1      33.708  21.075  25.449  1.00  0.00     0.226 C 
ATOM     90  O   UNL A   1      33.524  20.789  26.635  1.00  0.00    -0.275 OA
BRANCH  89  91
ATOM     91  C   UNL A   1      33.478  19.948  24.506  1.00  0.00     0.079 C 
ATOM     92  C   UNL A   1      34.023  18.555  24.571  1.00  0.00     0.014 C 
ATOM     93  C   UNL A   1      32.562  18.810  24.816  1.00  0.00     0.014 C 
ENDBRANCH  89  91
ENDBRANCH  79  89
BRANCH  87  94
ATOM     94  C   UNL A   1      30.559  28.719  23.748  1.00  0.00     0.043 A 
ATOM     95  C   UNL A   1      30.382  29.705  22.770  1.00  0.00     0.014 A 
ATOM     96  C   UNL A   1      29.547  27.800  24.024  1.00  0.00     0.060 A 
ATOM     97  C   UNL A   1      29.165  29.796  22.095  1.00  0.00     0.005 A 
ATOM     98  C   UNL A   1      28.338  27.904  23.345  1.00  0.00     0.116 A 
ATOM     99  C   UNL A   1      28.136  28.897  22.387  1.00  0.00     0.046 A 
BRANCH  98 100
ATOM    100  O   UNL A   1      27.359  27.006  23.650  1.00  0.00    -0.508 OA
ATOM    101  H   UNL A   1      27.585  26.169  24.008  1.00  0.00     0.293 HD
ENDBRANCH  98 100
ENDBRANCH  87  94
ENDBRANCH  74  77
ENDBRANCH  72  73
ENDBRANCH  71  72
ENDBRANCH   1  71
TORSDOF 17
ENDMDL
MODEL 3
REMARK VINA RESULT:     -12.9      0.375      7.476
REMARK SMILES O=C(NCCCNC(=O)[C@H]1CC2(CCN(C(=O)c3cccc(O)c3)CC2)CN1C(=O)C1CC1)c1ccc(-c2c3nc(c(-c4cccc(S(=O)(=O)[O-])c4F)c4ccc([nH]4)c(-c4cccc(S(=O)(=O)[O-])c4F)c4nc(c(-c5cccc(S(=O)(=O)[O-])c5F)c5ccc2[nH]5)C=C4)C=C3)cc1
REMARK SMILES IDX 4 1 3 2 1 3 2 4 34 6 35 7 96 8 36 9 95 10 37 11 38 12 39 13
REMARK SMILES IDX 89 14 40 15 94 16 88 17 90 18 41 19 93 20 87 21 86 22 42 24
REMARK SMILES IDX 74 25 54 26 73 27 55 28 58 29 72 30 91 31 56 32 57 33 71 35
REMARK SMILES IDX 92 36 59 37 43 38 44 39 52 40 45 41 47 42 53 43 46 44 48 45
REMARK SMILES IDX 49 46 50 47 51 48 75 49 76 50 84 51 77 52 79 53 85 54 78 55
REMARK SMILES IDX 80 56 81 57 82 58 83 59 60 60 61 61 69 62 62 63 64 64 70 65
REMARK SMILES IDX 63 66 65 67 66 68 67 69 68 70 5 71 6 72 7 73 8 74 9 76 10 77
REMARK SMILES IDX 11 78 28 79 12 80 27 81 13 82 26 83 14 84 25 85 15 86 16 87
REMARK SMILES IDX 17 88 29 89 30 90 31 91 32 92 33 93 18 94 19 95 24 96 20 97
REMARK SMILES IDX 22 98 21 99 23 100
REMARK H PARENT 3 5 90 23 58 34 7 75 23 101
REMARK Flexibility Score: inf
ROOT
ATOM      1  C   UNL A   1      32.917  32.731  27.331  1.00  0.00     0.118 C 
ENDROOT
BRANCH   1   2
ATOM      2  N   UNL A   1      32.669  34.093  27.768  1.00  0.00    -0.352 N 
ATOM      3  O   UNL A   1      32.655  35.820  29.203  1.00  0.00    -0.269 OA
ATOM      4  C   UNL A   1      33.172  34.758  28.862  1.00  0.00     0.251 C 
ATOM      5  H   UNL A   1      32.053  34.613  27.202  1.00  0.00     0.163 HD
BRANCH   4   6
ATOM      6  C   UNL A   1      34.311  34.202  29.630  1.00  0.00     0.039 A 
ATOM      7  C   UNL A   1      34.103  33.328  30.701  1.00  0.00     0.014 A 
ATOM      8  C   UNL A   1      35.615  34.507  29.227  1.00  0.00     0.014 A 
ATOM      9  C   UNL A   1      35.191  32.840  31.427  1.00  0.00     0.010 A 
ATOM     10  C   UNL A   1      36.706  33.964  29.914  1.00  0.00     0.010 A 
ATOM     11  C   UNL A   1      36.505  33.136  31.029  1.00  0.00    -0.014 A 
BRANCH  11  12
ATOM     12  C   UNL A   1      37.653  32.489  31.722  1.00  0.00     0.031 A 
ATOM     13  C   UNL A   1      38.128  32.959  33.069  1.00  0.00     0.074 A 
ATOM     14  C   UNL A   1      38.299  31.482  31.100  1.00  0.00     0.049 A 
ATOM     15  N   UNL A   1      39.106  32.494  33.803  1.00  0.00    -0.248 NA
ATOM     16  C   UNL A   1      37.422  34.104  33.668  1.00  0.00     0.031 C 
ATOM     17  C   UNL A   1      37.977  30.978  29.763  1.00  0.00     0.029 A 
ATOM     18  N   UNL A   1      39.364  30.714  31.496  1.00  0.00    -0.354 N 
ATOM     19  C   UNL A   1      39.162  33.305  34.931  1.00  0.00     0.074 A 
ATOM     20  C   UNL A   1      38.119  34.299  34.780  1.00  0.00     0.031 C 
ATOM     21  C   UNL A   1      38.820  29.982  29.453  1.00  0.00     0.029 A 
ATOM     22  C   UNL A   1      39.765  29.800  30.549  1.00  0.00     0.049 A 
ATOM     23  H   UNL A   1      39.800  30.807  32.375  1.00  0.00     0.167 HD
ATOM     24  C   UNL A   1      39.990  33.218  36.000  1.00  0.00     0.034 A 
ATOM     25  C   UNL A   1      40.788  28.923  30.550  1.00  0.00     0.034 A 
ATOM     26  C   UNL A   1      41.004  32.208  36.163  1.00  0.00     0.049 A 
ATOM     27  C   UNL A   1      41.668  28.826  31.763  1.00  0.00     0.074 A 
ATOM     28  C   UNL A   1      41.833  31.990  37.249  1.00  0.00     0.029 A 
ATOM     29  N   UNL A   1      41.336  31.255  35.211  1.00  0.00    -0.354 N 
ATOM     30  N   UNL A   1      41.598  29.497  32.887  1.00  0.00    -0.248 NA
ATOM     31  C   UNL A   1      42.749  27.831  31.722  1.00  0.00     0.031 C 
ATOM     32  C   UNL A   1      42.681  30.918  36.946  1.00  0.00     0.029 A 
ATOM     33  C   UNL A   1      42.367  30.456  35.679  1.00  0.00     0.049 A 
ATOM     34  H   UNL A   1      40.903  31.161  34.333  1.00  0.00     0.167 HD
ATOM     35  C   UNL A   1      42.608  28.991  33.695  1.00  0.00     0.074 A 
ATOM     36  C   UNL A   1      43.258  27.937  32.943  1.00  0.00     0.031 C 
ATOM     37  C   UNL A   1      42.976  29.380  34.941  1.00  0.00     0.034 A 
BRANCH  24  38
ATOM     38  C   UNL A   1      39.809  34.218  37.114  1.00  0.00     0.023 A 
ATOM     39  C   UNL A   1      40.116  35.574  36.884  1.00  0.00     0.012 A 
ATOM     40  C   UNL A   1      39.265  33.834  38.356  1.00  0.00     0.148 A 
ATOM     41  C   UNL A   1      39.913  36.528  37.880  1.00  0.00     0.002 A 
ATOM     42  C   UNL A   1      39.032  34.797  39.331  1.00  0.00     0.091 A 
ATOM     43  F   UNL A   1      38.998  32.537  38.565  1.00  0.00    -0.205 F 
ATOM     44  C   UNL A   1      39.362  36.142  39.099  1.00  0.00     0.022 A 
BRANCH  42  45
ATOM     45  S   UNL A   1      38.257  34.404  40.906  1.00  0.00     0.127 S 
ATOM     46  O   UNL A   1      37.917  35.737  41.406  1.00  0.00    -0.237 OA
ATOM     47  O   UNL A   1      37.103  33.600  40.491  1.00  0.00    -0.237 OA
ATOM     48  O   UNL A   1      39.254  33.678  41.672  1.00  0.00    -0.744 OA
ENDBRANCH  42  45
ENDBRANCH  24  38
BRANCH  25  49
ATOM     49  C   UNL A   1      40.990  28.033  29.374  1.00  0.00     0.023 A 
ATOM     50  C   UNL A   1      40.229  26.854  29.258  1.00  0.00     0.012 A 
ATOM     51  C   UNL A   1      41.888  28.378  28.344  1.00  0.00     0.148 A 
ATOM     52  C   UNL A   1      40.373  26.024  28.146  1.00  0.00     0.002 A 
ATOM     53  C   UNL A   1      41.982  27.577  27.212  1.00  0.00     0.091 A 
ATOM     54  F   UNL A   1      42.616  29.494  28.482  1.00  0.00    -0.205 F 
ATOM     55  C   UNL A   1      41.237  26.391  27.117  1.00  0.00     0.022 A 
BRANCH  53  56
ATOM     56  S   UNL A   1      42.959  28.055  25.782  1.00  0.00     0.127 S 
ATOM     57  O   UNL A   1      42.259  27.369  24.699  1.00  0.00    -0.237 OA
ATOM     58  O   UNL A   1      42.813  29.511  25.786  1.00  0.00    -0.237 OA
ATOM     59  O   UNL A   1      44.311  27.591  26.063  1.00  0.00    -0.744 OA
ENDBRANCH  53  56
ENDBRANCH  25  49
BRANCH  37  60
ATOM     60  C   UNL A   1      44.128  28.652  35.583  1.00  0.00     0.023 A 
ATOM     61  C   UNL A   1      45.450  29.022  35.264  1.00  0.00     0.012 A 
ATOM     62  C   UNL A   1      43.904  27.647  36.546  1.00  0.00     0.148 A 
ATOM     63  C   UNL A   1      46.531  28.385  35.872  1.00  0.00     0.002 A 
ATOM     64  C   UNL A   1      44.986  27.048  37.181  1.00  0.00     0.091 A 
ATOM     65  F   UNL A   1      42.640  27.293  36.819  1.00  0.00    -0.205 F 
ATOM     66  C   UNL A   1      46.300  27.408  36.838  1.00  0.00     0.022 A 
BRANCH  64  67
ATOM     67  S   UNL A   1      44.780  25.844  38.498  1.00  0.00     0.127 S 
ATOM     68  O   UNL A   1      44.103  24.753  37.801  1.00  0.00    -0.237 OA
ATOM     69  O   UNL A   1      46.162  25.560  38.882  1.00  0.00    -0.237 OA
ATOM     70  O   UNL A   1      43.995  26.513  39.529  1.00  0.00    -0.744 OA
ENDBRANCH  64  67
ENDBRANCH  37  60
ENDBRANCH  11  12
ENDBRANCH   4   6
ENDBRANCH   1   2
BRANCH   1  71
ATOM     71  C   UNL A   1      31.653  32.058  26.795  1.00  0.00     0.042 C 
BRANCH  71  72
ATOM     72  C   UNL A   1      31.869  30.680  26.166  1.00  0.00     0.117 C 
BRANCH  72  73
ATOM     73  N   UNL A   1      31.551  29.554  27.037  1.00  0.00    -0.354 N 
ATOM     74  C   UNL A   1      31.602  28.197  26.857  1.00  0.00     0.242 C 
ATOM     75  H   UNL A   1      31.237  29.821  27.931  1.00  0.00     0.163 HD
ATOM     76  O   UNL A   1      31.407  27.496  27.854  1.00  0.00    -0.273 OA
BRANCH  74  77
ATOM     77  C   UNL A   1      31.969  27.600  25.484  1.00  0.00     0.175 C 
ATOM     78  C   UNL A   1      32.450  26.161  25.842  1.00  0.00     0.044 C 
ATOM     79  N   UNL A   1      31.079  27.290  24.349  1.00  0.00    -0.330 N 
ATOM     80  C   UNL A   1      32.522  25.372  24.518  1.00  0.00    -0.006 C 
ATOM     81  C   UNL A   1      31.744  26.266  23.546  1.00  0.00     0.127 C 
ATOM     82  C   UNL A   1      31.808  24.000  24.589  1.00  0.00     0.030 C 
ATOM     83  C   UNL A   1      33.990  25.159  24.088  1.00  0.00     0.030 C 
ATOM     84  C   UNL A   1      32.560  22.984  25.435  1.00  0.00     0.120 C 
ATOM     85  C   UNL A   1      34.701  24.095  24.937  1.00  0.00     0.120 C 
ATOM     86  N   UNL A   1      33.935  22.854  24.958  1.00  0.00    -0.339 N 
ATOM     87  C   UNL A   1      34.570  21.655  24.648  1.00  0.00     0.253 C 
ATOM     88  O   UNL A   1      35.781  21.544  24.473  1.00  0.00    -0.269 OA
BRANCH  79  89
ATOM     89  C   UNL A   1      30.098  28.004  23.659  1.00  0.00     0.226 C 
ATOM     90  O   UNL A   1      28.979  27.506  23.512  1.00  0.00    -0.275 OA
BRANCH  89  91
ATOM     91  C   UNL A   1      30.230  29.380  23.110  1.00  0.00     0.079 C 
ATOM     92  C   UNL A   1      29.381  30.056  22.079  1.00  0.00     0.014 C 
ATOM     93  C   UNL A   1      29.329  30.501  23.513  1.00  0.00     0.014 C 
ENDBRANCH  89  91
ENDBRANCH  79  89
BRANCH  87  94
ATOM     94  C   UNL A   1      33.746  20.439  24.492  1.00  0.00     0.043 A 
ATOM     95  C   UNL A   1      32.966  20.267  23.341  1.00  0.00     0.014 A 
ATOM     96  C   UNL A   1      33.790  19.452  25.477  1.00  0.00     0.060 A 
ATOM     97  C   UNL A   1      32.193  19.114  23.199  1.00  0.00     0.005 A 
ATOM     98  C   UNL A   1      33.012  18.311  25.323  1.00  0.00     0.116 A 
ATOM     99  C   UNL A   1      32.209  18.136  24.195  1.00  0.00     0.046 A 
BRANCH  98 100
ATOM    100  O   UNL A   1      33.057  17.372  26.310  1.00  0.00    -0.508 OA
ATOM    101  H   UNL A   1      33.001  17.634  27.209  1.00  0.00     0.293 HD
ENDBRANCH  98 100
ENDBRANCH  87  94
ENDBRANCH  74  77
ENDBRANCH  72  73
ENDBRANCH  71  72
ENDBRANCH   1  71
TORSDOF 17
ENDMDL
