MODEL 1
REMARK VINA RESULT:     -12.3      0.000      0.000
REMARK SMILES O=C(NCCCNC(=O)[C@@]1([NH2+]C2CC2)CC[C@@H]([N@@H+]2CC[N@@H+]3CCC[C@@H]3C2)C1)c1ccc(-c2c3nc(c(-c4cccc(S(=O)(=O)[O-])c4F)c4ccc([nH]4)c(-c4cccc(S(=O)(=O)[O-])c4F)c4nc(c(-c5cccc(S(=O)(=O)[O-])c5F)c5ccc2[nH]5)C=C4)C=C3)cc1
REMARK SMILES IDX 4 1 3 2 1 3 2 4 28 6 29 7 90 8 30 9 89 10 31 11 32 12 33 13
REMARK SMILES IDX 83 14 34 15 88 16 82 17 84 18 35 19 87 20 81 21 80 22 36 24
REMARK SMILES IDX 68 25 48 26 67 27 49 28 52 29 66 30 85 31 50 32 51 33 65 35
REMARK SMILES IDX 86 36 53 37 37 38 38 39 46 40 39 41 41 42 47 43 40 44 42 45
REMARK SMILES IDX 43 46 44 47 45 48 69 49 70 50 78 51 71 52 73 53 79 54 72 55
REMARK SMILES IDX 74 56 75 57 76 58 77 59 54 60 55 61 63 62 56 63 58 64 64 65
REMARK SMILES IDX 57 66 59 67 60 68 61 69 62 70 5 71 6 72 7 73 8 74 9 76 10 77
REMARK SMILES IDX 15 78 27 79 16 80 17 81 11 82 12 85 13 86 14 87 18 88 19 89
REMARK SMILES IDX 26 90 20 92 25 93 21 94 24 95 22 96 23 98
REMARK H PARENT 3 5 84 23 52 34 7 75 11 83 11 84 18 91 21 97
REMARK Flexibility Score: inf
ROOT
ATOM      1  C   UNL A   1      33.779  29.056  26.264  1.00  0.00     0.118 C 
ENDROOT
BRANCH   1   2
ATOM      2  N   UNL A   1      33.840  30.432  26.724  1.00  0.00    -0.352 N 
ATOM      3  O   UNL A   1      34.328  32.079  28.158  1.00  0.00    -0.269 OA
ATOM      4  C   UNL A   1      34.653  31.000  27.671  1.00  0.00     0.251 C 
ATOM      5  H   UNL A   1      33.205  31.048  26.292  1.00  0.00     0.163 HD
BRANCH   4   6
ATOM      6  C   UNL A   1      35.905  30.333  28.097  1.00  0.00     0.039 A 
ATOM      7  C   UNL A   1      37.072  30.421  27.330  1.00  0.00     0.014 A 
ATOM      8  C   UNL A   1      35.935  29.692  29.340  1.00  0.00     0.014 A 
ATOM      9  C   UNL A   1      38.242  29.804  27.766  1.00  0.00     0.010 A 
ATOM     10  C   UNL A   1      37.126  29.132  29.806  1.00  0.00     0.010 A 
ATOM     11  C   UNL A   1      38.288  29.175  29.019  1.00  0.00    -0.014 A 
BRANCH  11  12
ATOM     12  C   UNL A   1      39.570  28.652  29.549  1.00  0.00     0.031 A 
ATOM     13  C   UNL A   1      40.291  29.361  30.658  1.00  0.00     0.074 A 
ATOM     14  C   UNL A   1      40.119  27.568  28.967  1.00  0.00     0.049 A 
ATOM     15  N   UNL A   1      41.452  29.085  31.192  1.00  0.00    -0.248 NA
ATOM     16  C   UNL A   1      39.629  30.542  31.234  1.00  0.00     0.031 C 
ATOM     17  C   UNL A   1      39.533  26.834  27.843  1.00  0.00     0.029 A 
ATOM     18  N   UNL A   1      41.300  26.916  29.210  1.00  0.00    -0.354 N 
ATOM     19  C   UNL A   1      41.684  30.079  32.133  1.00  0.00     0.074 A 
ATOM     20  C   UNL A   1      40.541  30.968  32.096  1.00  0.00     0.031 C 
ATOM     21  C   UNL A   1      40.363  25.846  27.483  1.00  0.00     0.029 A 
ATOM     22  C   UNL A   1      41.559  25.903  28.318  1.00  0.00     0.049 A 
ATOM     23  H   UNL A   1      41.905  27.152  29.951  1.00  0.00     0.167 HD
ATOM     24  C   UNL A   1      42.746  30.228  32.960  1.00  0.00     0.034 A 
ATOM     25  C   UNL A   1      42.649  25.126  28.161  1.00  0.00     0.034 A 
ATOM     26  C   UNL A   1      43.863  29.321  33.008  1.00  0.00     0.049 A 
ATOM     27  C   UNL A   1      43.802  25.292  29.107  1.00  0.00     0.074 A 
ATOM     28  C   UNL A   1      44.944  29.333  33.870  1.00  0.00     0.029 A 
ATOM     29  N   UNL A   1      44.051  28.252  32.145  1.00  0.00    -0.354 N 
ATOM     30  N   UNL A   1      43.935  26.142  30.095  1.00  0.00    -0.248 NA
ATOM     31  C   UNL A   1      44.939  24.376  28.942  1.00  0.00     0.031 C 
ATOM     32  C   UNL A   1      45.799  28.284  33.512  1.00  0.00     0.029 A 
ATOM     33  C   UNL A   1      45.239  27.604  32.443  1.00  0.00     0.049 A 
ATOM     34  H   UNL A   1      43.431  27.990  31.426  1.00  0.00     0.167 HD
ATOM     35  C   UNL A   1      45.157  25.850  30.688  1.00  0.00     0.074 A 
ATOM     36  C   UNL A   1      45.719  24.732  29.956  1.00  0.00     0.031 C 
ATOM     37  C   UNL A   1      45.761  26.461  31.737  1.00  0.00     0.034 A 
BRANCH  24  38
ATOM     38  C   UNL A   1      42.738  31.403  33.902  1.00  0.00     0.023 A 
ATOM     39  C   UNL A   1      43.302  32.629  33.496  1.00  0.00     0.012 A 
ATOM     40  C   UNL A   1      42.138  31.308  35.174  1.00  0.00     0.148 A 
ATOM     41  C   UNL A   1      43.304  33.730  34.353  1.00  0.00     0.002 A 
ATOM     42  C   UNL A   1      42.108  32.422  36.007  1.00  0.00     0.091 A 
ATOM     43  F   UNL A   1      41.628  30.129  35.557  1.00  0.00    -0.205 F 
ATOM     44  C   UNL A   1      42.700  33.629  35.603  1.00  0.00     0.022 A 
BRANCH  42  45
ATOM     45  S   UNL A   1      41.284  32.399  37.604  1.00  0.00     0.127 S 
ATOM     46  O   UNL A   1      39.967  31.875  37.249  1.00  0.00    -0.237 OA
ATOM     47  O   UNL A   1      42.119  31.476  38.374  1.00  0.00    -0.237 OA
ATOM     48  O   UNL A   1      41.314  33.775  38.081  1.00  0.00    -0.744 OA
ENDBRANCH  42  45
ENDBRANCH  24  38
BRANCH  25  49
ATOM     49  C   UNL A   1      42.659  24.105  27.077  1.00  0.00     0.023 A 
ATOM     50  C   UNL A   1      43.375  24.354  25.892  1.00  0.00     0.012 A 
ATOM     51  C   UNL A   1      42.047  22.848  27.261  1.00  0.00     0.148 A 
ATOM     52  C   UNL A   1      43.475  23.374  24.905  1.00  0.00     0.002 A 
ATOM     53  C   UNL A   1      42.200  21.857  26.300  1.00  0.00     0.091 A 
ATOM     54  F   UNL A   1      41.362  22.637  28.394  1.00  0.00    -0.205 F 
ATOM     55  C   UNL A   1      42.902  22.123  25.114  1.00  0.00     0.022 A 
BRANCH  53  56
ATOM     56  S   UNL A   1      41.623  20.173  26.550  1.00  0.00     0.127 S 
ATOM     57  O   UNL A   1      40.176  20.357  26.595  1.00  0.00    -0.237 OA
ATOM     58  O   UNL A   1      42.123  19.505  25.348  1.00  0.00    -0.237 OA
ATOM     59  O   UNL A   1      42.243  19.724  27.789  1.00  0.00    -0.744 OA
ENDBRANCH  53  56
ENDBRANCH  25  49
BRANCH  37  60
ATOM     60  C   UNL A   1      47.093  25.925  32.188  1.00  0.00     0.023 A 
ATOM     61  C   UNL A   1      48.277  26.398  31.589  1.00  0.00     0.012 A 
ATOM     62  C   UNL A   1      47.173  25.036  33.278  1.00  0.00     0.148 A 
ATOM     63  C   UNL A   1      49.521  25.983  32.060  1.00  0.00     0.002 A 
ATOM     64  C   UNL A   1      48.418  24.661  33.770  1.00  0.00     0.091 A 
ATOM     65  F   UNL A   1      46.032  24.584  33.818  1.00  0.00    -0.205 F 
ATOM     66  C   UNL A   1      49.592  25.127  33.157  1.00  0.00     0.022 A 
BRANCH  64  67
ATOM     67  S   UNL A   1      48.608  23.640  35.236  1.00  0.00     0.127 S 
ATOM     68  O   UNL A   1      48.041  22.369  34.788  1.00  0.00    -0.237 OA
ATOM     69  O   UNL A   1      50.060  23.630  35.419  1.00  0.00    -0.237 OA
ATOM     70  O   UNL A   1      47.868  24.312  36.295  1.00  0.00    -0.744 OA
ENDBRANCH  64  67
ENDBRANCH  37  60
ENDBRANCH  11  12
ENDBRANCH   4   6
ENDBRANCH   1   2
BRANCH   1  71
ATOM     71  C   UNL A   1      32.925  28.203  27.197  1.00  0.00     0.042 C 
BRANCH  71  72
ATOM     72  C   UNL A   1      31.519  27.916  26.650  1.00  0.00     0.118 C 
BRANCH  72  73
ATOM     73  N   UNL A   1      31.078  26.588  27.033  1.00  0.00    -0.351 N 
ATOM     74  C   UNL A   1      31.091  25.401  26.364  1.00  0.00     0.281 C 
ATOM     75  H   UNL A   1      30.701  26.535  27.941  1.00  0.00     0.163 HD
ATOM     76  O   UNL A   1      30.181  24.630  26.697  1.00  0.00    -0.268 OA
BRANCH  74  77
ATOM     77  C   UNL A   1      32.170  24.973  25.314  1.00  0.00     0.181 C 
ATOM     78  C   UNL A   1      33.521  24.725  26.022  1.00  0.00     0.085 C 
ATOM     79  C   UNL A   1      31.947  23.599  24.651  1.00  0.00     0.144 C 
ATOM     80  C   UNL A   1      34.335  23.881  25.049  1.00  0.00     0.072 C 
ATOM     81  C   UNL A   1      33.316  22.936  24.402  1.00  0.00     0.191 C 
BRANCH  77  82
ATOM     82  N   UNL A   1      32.269  25.958  24.207  1.00  0.00    -0.331 N 
ATOM     83  H   UNL A   1      33.202  25.842  23.810  1.00  0.00     0.347 HD
ATOM     84  H   UNL A   1      32.024  26.826  24.684  1.00  0.00     0.347 HD
BRANCH  82  85
ATOM     85  C   UNL A   1      31.346  25.975  23.071  1.00  0.00     0.183 C 
ATOM     86  C   UNL A   1      31.057  27.095  22.119  1.00  0.00     0.071 C 
ATOM     87  C   UNL A   1      31.936  25.969  21.678  1.00  0.00     0.071 C 
ENDBRANCH  82  85
ENDBRANCH  77  82
BRANCH  81  88
ATOM     88  N   UNL A   1      33.386  21.540  24.863  1.00  0.00    -0.323 N 
ATOM     89  C   UNL A   1      34.718  21.163  25.395  1.00  0.00     0.324 C 
ATOM     90  C   UNL A   1      32.853  20.528  23.936  1.00  0.00     0.328 C 
ATOM     91  H   UNL A   1      32.732  21.529  25.645  1.00  0.00     0.348 HD
ATOM     92  C   UNL A   1      35.297  19.807  24.907  1.00  0.00     0.324 C 
ATOM     93  C   UNL A   1      32.994  19.087  24.472  1.00  0.00     0.240 C 
ATOM     94  N   UNL A   1      34.335  18.707  24.959  1.00  0.00    -0.323 N 
ATOM     95  C   UNL A   1      32.625  18.046  23.415  1.00  0.00     0.077 C 
ATOM     96  C   UNL A   1      34.780  17.516  24.227  1.00  0.00     0.263 C 
ATOM     97  H   UNL A   1      34.274  18.479  25.950  1.00  0.00     0.348 HD
ATOM     98  C   UNL A   1      33.490  16.855  23.775  1.00  0.00     0.068 C 
ENDBRANCH  81  88
ENDBRANCH  74  77
ENDBRANCH  72  73
ENDBRANCH  71  72
ENDBRANCH   1  71
TORSDOF 16
ENDMDL
MODEL 2
REMARK VINA RESULT:     -12.1      3.432      8.751
REMARK SMILES O=C(NCCCNC(=O)[C@@]1([NH2+]C2CC2)CC[C@@H]([N@@H+]2CC[N@@H+]3CCC[C@@H]3C2)C1)c1ccc(-c2c3nc(c(-c4cccc(S(=O)(=O)[O-])c4F)c4ccc([nH]4)c(-c4cccc(S(=O)(=O)[O-])c4F)c4nc(c(-c5cccc(S(=O)(=O)[O-])c5F)c5ccc2[nH]5)C=C4)C=C3)cc1
REMARK SMILES IDX 4 1 3 2 1 3 2 4 28 6 29 7 90 8 30 9 89 10 31 11 32 12 33 13
REMARK SMILES IDX 83 14 34 15 88 16 82 17 84 18 35 19 87 20 81 21 80 22 36 24
REMARK SMILES IDX 68 25 48 26 67 27 49 28 52 29 66 30 85 31 50 32 51 33 65 35
REMARK SMILES IDX 86 36 53 37 37 38 38 39 46 40 39 41 41 42 47 43 40 44 42 45
REMARK SMILES IDX 43 46 44 47 45 48 69 49 70 50 78 51 71 52 73 53 79 54 72 55
REMARK SMILES IDX 74 56 75 57 76 58 77 59 54 60 55 61 63 62 56 63 58 64 64 65
REMARK SMILES IDX 57 66 59 67 60 68 61 69 62 70 5 71 6 72 7 73 8 74 9 76 10 77
REMARK SMILES IDX 15 78 27 79 16 80 17 81 11 82 12 85 13 86 14 87 18 88 19 89
REMARK SMILES IDX 26 90 20 92 25 93 21 94 24 95 22 96 23 98
REMARK H PARENT 3 5 84 23 52 34 7 75 11 83 11 84 18 91 21 97
REMARK Flexibility Score: inf
ROOT
ATOM      1  C   UNL A   1      32.683  32.385  27.285  1.00  0.00     0.118 C 
ENDROOT
BRANCH   1   2
ATOM      2  N   UNL A   1      32.575  33.809  27.541  1.00  0.00    -0.352 N 
ATOM      3  O   UNL A   1      32.669  35.666  28.786  1.00  0.00    -0.269 OA
ATOM      4  C   UNL A   1      33.144  34.562  28.536  1.00  0.00     0.251 C 
ATOM      5  H   UNL A   1      32.010  34.309  26.908  1.00  0.00     0.163 HD
BRANCH   4   6
ATOM      6  C   UNL A   1      34.314  34.062  29.293  1.00  0.00     0.039 A 
ATOM      7  C   UNL A   1      34.162  33.165  30.356  1.00  0.00     0.014 A 
ATOM      8  C   UNL A   1      35.596  34.422  28.864  1.00  0.00     0.014 A 
ATOM      9  C   UNL A   1      35.281  32.691  31.037  1.00  0.00     0.010 A 
ATOM     10  C   UNL A   1      36.719  33.894  29.505  1.00  0.00     0.010 A 
ATOM     11  C   UNL A   1      36.571  33.032  30.602  1.00  0.00    -0.014 A 
BRANCH  11  12
ATOM     12  C   UNL A   1      37.762  32.409  31.230  1.00  0.00     0.031 A 
ATOM     13  C   UNL A   1      38.467  31.261  30.570  1.00  0.00     0.074 A 
ATOM     14  C   UNL A   1      38.158  32.843  32.442  1.00  0.00     0.049 A 
ATOM     15  N   UNL A   1      39.475  30.554  31.010  1.00  0.00    -0.248 NA
ATOM     16  C   UNL A   1      37.968  30.841  29.252  1.00  0.00     0.031 C 
ATOM     17  C   UNL A   1      37.510  33.915  33.201  1.00  0.00     0.029 A 
ATOM     18  N   UNL A   1      39.171  32.419  33.264  1.00  0.00    -0.354 N 
ATOM     19  C   UNL A   1      39.705  29.578  30.048  1.00  0.00     0.074 A 
ATOM     20  C   UNL A   1      38.726  29.783  29.000  1.00  0.00     0.031 C 
ATOM     21  C   UNL A   1      38.128  34.053  34.382  1.00  0.00     0.029 A 
ATOM     22  C   UNL A   1      39.185  33.052  34.484  1.00  0.00     0.049 A 
ATOM     23  H   UNL A   1      39.824  31.728  33.005  1.00  0.00     0.167 HD
ATOM     24  C   UNL A   1      40.651  28.609  30.036  1.00  0.00     0.034 A 
ATOM     25  C   UNL A   1      39.938  32.833  35.580  1.00  0.00     0.034 A 
ATOM     26  C   UNL A   1      41.636  28.434  31.071  1.00  0.00     0.049 A 
ATOM     27  C   UNL A   1      40.999  31.772  35.532  1.00  0.00     0.074 A 
ATOM     28  C   UNL A   1      42.692  27.542  31.110  1.00  0.00     0.029 A 
ATOM     29  N   UNL A   1      41.674  29.152  32.257  1.00  0.00    -0.354 N 
ATOM     30  N   UNL A   1      41.302  30.960  34.549  1.00  0.00    -0.248 NA
ATOM     31  C   UNL A   1      41.842  31.616  36.725  1.00  0.00     0.031 C 
ATOM     32  C   UNL A   1      43.355  27.704  32.332  1.00  0.00     0.029 A 
ATOM     33  C   UNL A   1      42.727  28.713  33.043  1.00  0.00     0.049 A 
ATOM     34  H   UNL A   1      41.047  29.868  32.503  1.00  0.00     0.167 HD
ATOM     35  C   UNL A   1      42.386  30.213  34.992  1.00  0.00     0.074 A 
ATOM     36  C   UNL A   1      42.697  30.681  36.328  1.00  0.00     0.031 C 
ATOM     37  C   UNL A   1      43.055  29.223  34.351  1.00  0.00     0.034 A 
BRANCH  24  38
ATOM     38  C   UNL A   1      40.684  27.680  28.851  1.00  0.00     0.023 A 
ATOM     39  C   UNL A   1      39.700  26.680  28.720  1.00  0.00     0.012 A 
ATOM     40  C   UNL A   1      41.663  27.821  27.847  1.00  0.00     0.148 A 
ATOM     41  C   UNL A   1      39.711  25.809  27.630  1.00  0.00     0.002 A 
ATOM     42  C   UNL A   1      41.643  26.975  26.743  1.00  0.00     0.091 A 
ATOM     43  F   UNL A   1      42.607  28.760  27.998  1.00  0.00    -0.205 F 
ATOM     44  C   UNL A   1      40.677  25.962  26.638  1.00  0.00     0.022 A 
BRANCH  42  45
ATOM     45  S   UNL A   1      42.805  27.152  25.384  1.00  0.00     0.127 S 
ATOM     46  O   UNL A   1      42.636  25.881  24.682  1.00  0.00    -0.237 OA
ATOM     47  O   UNL A   1      42.279  28.316  24.670  1.00  0.00    -0.237 OA
ATOM     48  O   UNL A   1      44.106  27.367  26.004  1.00  0.00    -0.744 OA
ENDBRANCH  42  45
ENDBRANCH  24  38
BRANCH  25  49
ATOM     49  C   UNL A   1      39.717  33.673  36.789  1.00  0.00     0.023 A 
ATOM     50  C   UNL A   1      40.085  35.031  36.770  1.00  0.00     0.012 A 
ATOM     51  C   UNL A   1      39.049  33.156  37.917  1.00  0.00     0.148 A 
ATOM     52  C   UNL A   1      39.800  35.858  37.857  1.00  0.00     0.002 A 
ATOM     53  C   UNL A   1      38.718  33.998  38.972  1.00  0.00     0.091 A 
ATOM     54  F   UNL A   1      38.716  31.857  37.917  1.00  0.00    -0.205 F 
ATOM     55  C   UNL A   1      39.105  35.347  38.949  1.00  0.00     0.022 A 
BRANCH  53  56
ATOM     56  S   UNL A   1      37.696  33.463  40.350  1.00  0.00     0.127 S 
ATOM     57  O   UNL A   1      36.502  32.976  39.665  1.00  0.00    -0.237 OA
ATOM     58  O   UNL A   1      38.529  32.422  40.953  1.00  0.00    -0.237 OA
ATOM     59  O   UNL A   1      37.510  34.642  41.184  1.00  0.00    -0.744 OA
ENDBRANCH  53  56
ENDBRANCH  25  49
BRANCH  37  60
ATOM     60  C   UNL A   1      44.216  28.584  35.067  1.00  0.00     0.023 A 
ATOM     61  C   UNL A   1      45.521  29.064  34.846  1.00  0.00     0.012 A 
ATOM     62  C   UNL A   1      43.996  27.586  36.036  1.00  0.00     0.148 A 
ATOM     63  C   UNL A   1      46.595  28.548  35.570  1.00  0.00     0.002 A 
ATOM     64  C   UNL A   1      45.064  27.109  36.786  1.00  0.00     0.091 A 
ATOM     65  F   UNL A   1      42.747  27.133  36.214  1.00  0.00    -0.205 F 
ATOM     66  C   UNL A   1      46.365  27.583  36.548  1.00  0.00     0.022 A 
BRANCH  64  67
ATOM     67  S   UNL A   1      44.852  25.937  38.131  1.00  0.00     0.127 S 
ATOM     68  O   UNL A   1      44.342  24.763  37.424  1.00  0.00    -0.237 OA
ATOM     69  O   UNL A   1      46.217  25.799  38.639  1.00  0.00    -0.237 OA
ATOM     70  O   UNL A   1      43.919  26.556  39.062  1.00  0.00    -0.744 OA
ENDBRANCH  64  67
ENDBRANCH  37  60
ENDBRANCH  11  12
ENDBRANCH   4   6
ENDBRANCH   1   2
BRANCH   1  71
ATOM     71  C   UNL A   1      31.458  31.867  26.537  1.00  0.00     0.042 C 
BRANCH  71  72
ATOM     72  C   UNL A   1      31.524  30.368  26.215  1.00  0.00     0.118 C 
BRANCH  72  73
ATOM     73  N   UNL A   1      32.675  30.069  25.383  1.00  0.00    -0.351 N 
ATOM     74  C   UNL A   1      32.899  29.087  24.465  1.00  0.00     0.281 C 
ATOM     75  H   UNL A   1      33.431  30.688  25.505  1.00  0.00     0.163 HD
ATOM     76  O   UNL A   1      34.090  28.762  24.363  1.00  0.00    -0.268 OA
BRANCH  74  77
ATOM     77  C   UNL A   1      31.804  28.444  23.551  1.00  0.00     0.181 C 
ATOM     78  C   UNL A   1      32.442  27.364  22.649  1.00  0.00     0.085 C 
ATOM     79  C   UNL A   1      30.737  27.603  24.280  1.00  0.00     0.144 C 
ATOM     80  C   UNL A   1      31.281  26.498  22.177  1.00  0.00     0.072 C 
ATOM     81  C   UNL A   1      30.337  26.416  23.383  1.00  0.00     0.191 C 
BRANCH  77  82
ATOM     82  N   UNL A   1      31.065  29.478  22.782  1.00  0.00    -0.331 N 
ATOM     83  H   UNL A   1      31.148  29.211  21.801  1.00  0.00     0.347 HD
ATOM     84  H   UNL A   1      31.508  30.334  23.114  1.00  0.00     0.347 HD
BRANCH  82  85
ATOM     85  C   UNL A   1      29.649  29.773  23.003  1.00  0.00     0.183 C 
ATOM     86  C   UNL A   1      29.024  31.049  23.478  1.00  0.00     0.071 C 
ATOM     87  C   UNL A   1      28.957  30.699  22.026  1.00  0.00     0.071 C 
ENDBRANCH  82  85
ENDBRANCH  77  82
BRANCH  81  88
ATOM     88  N   UNL A   1      30.339  25.121  24.084  1.00  0.00    -0.323 N 
ATOM     89  C   UNL A   1      30.547  25.246  25.547  1.00  0.00     0.324 C 
ATOM     90  C   UNL A   1      31.182  24.070  23.492  1.00  0.00     0.328 C 
ATOM     91  H   UNL A   1      29.387  24.787  23.939  1.00  0.00     0.348 HD
ATOM     92  C   UNL A   1      31.576  24.272  26.182  1.00  0.00     0.324 C 
ATOM     93  C   UNL A   1      31.162  22.755  24.302  1.00  0.00     0.240 C 
ATOM     94  N   UNL A   1      31.413  22.884  25.750  1.00  0.00    -0.323 N 
ATOM     95  C   UNL A   1      32.195  21.752  23.788  1.00  0.00     0.077 C 
ATOM     96  C   UNL A   1      32.552  22.031  26.108  1.00  0.00     0.263 C 
ATOM     97  H   UNL A   1      30.590  22.562  26.258  1.00  0.00     0.348 HD
ATOM     98  C   UNL A   1      32.569  20.964  25.028  1.00  0.00     0.068 C 
ENDBRANCH  81  88
ENDBRANCH  74  77
ENDBRANCH  72  73
ENDBRANCH  71  72
ENDBRANCH   1  71
TORSDOF 16
ENDMDL
MODEL 3
REMARK VINA RESULT:     -12.0      2.111      7.972
REMARK SMILES O=C(NCCCNC(=O)[C@@]1([NH2+]C2CC2)CC[C@@H]([N@@H+]2CC[N@@H+]3CCC[C@@H]3C2)C1)c1ccc(-c2c3nc(c(-c4cccc(S(=O)(=O)[O-])c4F)c4ccc([nH]4)c(-c4cccc(S(=O)(=O)[O-])c4F)c4nc(c(-c5cccc(S(=O)(=O)[O-])c5F)c5ccc2[nH]5)C=C4)C=C3)cc1
REMARK SMILES IDX 4 1 3 2 1 3 2 4 28 6 29 7 90 8 30 9 89 10 31 11 32 12 33 13
REMARK SMILES IDX 83 14 34 15 88 16 82 17 84 18 35 19 87 20 81 21 80 22 36 24
REMARK SMILES IDX 68 25 48 26 67 27 49 28 52 29 66 30 85 31 50 32 51 33 65 35
REMARK SMILES IDX 86 36 53 37 37 38 38 39 46 40 39 41 41 42 47 43 40 44 42 45
REMARK SMILES IDX 43 46 44 47 45 48 69 49 70 50 78 51 71 52 73 53 79 54 72 55
REMARK SMILES IDX 74 56 75 57 76 58 77 59 54 60 55 61 63 62 56 63 58 64 64 65
REMARK SMILES IDX 57 66 59 67 60 68 61 69 62 70 5 71 6 72 7 73 8 74 9 76 10 77
REMARK SMILES IDX 15 78 27 79 16 80 17 81 11 82 12 85 13 86 14 87 18 88 19 89
REMARK SMILES IDX 26 90 20 92 25 93 21 94 24 95 22 96 23 98
REMARK H PARENT 3 5 84 23 52 34 7 75 11 83 11 84 18 91 21 97
REMARK Flexibility Score: inf
ROOT
ATOM      1  C   UNL A   1      32.802  29.814  25.750  1.00  0.00     0.118 C 
ENDROOT
BRANCH   1   2
ATOM      2  N   UNL A   1      32.553  31.193  26.131  1.00  0.00    -0.352 N 
ATOM      3  O   UNL A   1      32.561  32.957  27.507  1.00  0.00    -0.269 OA
ATOM      4  C   UNL A   1      33.134  31.942  27.121  1.00  0.00     0.251 C 
ATOM      5  H   UNL A   1      31.866  31.658  25.600  1.00  0.00     0.163 HD
BRANCH   4   6
ATOM      6  C   UNL A   1      34.433  31.545  27.713  1.00  0.00     0.039 A 
ATOM      7  C   UNL A   1      35.441  32.486  27.948  1.00  0.00     0.014 A 
ATOM      8  C   UNL A   1      34.604  30.222  28.132  1.00  0.00     0.014 A 
ATOM      9  C   UNL A   1      36.645  32.091  28.527  1.00  0.00     0.010 A 
ATOM     10  C   UNL A   1      35.784  29.841  28.773  1.00  0.00     0.010 A 
ATOM     11  C   UNL A   1      36.819  30.771  28.967  1.00  0.00    -0.014 A 
BRANCH  11  12
ATOM     12  C   UNL A   1      38.038  30.386  29.720  1.00  0.00     0.031 A 
ATOM     13  C   UNL A   1      39.014  29.400  29.151  1.00  0.00     0.074 A 
ATOM     14  C   UNL A   1      38.216  30.881  30.961  1.00  0.00     0.049 A 
ATOM     15  N   UNL A   1      40.090  28.899  29.700  1.00  0.00    -0.248 NA
ATOM     16  C   UNL A   1      38.743  28.901  27.794  1.00  0.00     0.031 C 
ATOM     17  C   UNL A   1      37.300  31.802  31.636  1.00  0.00     0.029 A 
ATOM     18  N   UNL A   1      39.203  30.655  31.886  1.00  0.00    -0.354 N 
ATOM     19  C   UNL A   1      40.600  27.993  28.780  1.00  0.00     0.074 A 
ATOM     20  C   UNL A   1      39.713  28.012  27.635  1.00  0.00     0.031 C 
ATOM     21  C   UNL A   1      37.756  32.049  32.872  1.00  0.00     0.029 A 
ATOM     22  C   UNL A   1      38.970  31.270  33.093  1.00  0.00     0.049 A 
ATOM     23  H   UNL A   1      39.999  30.105  31.705  1.00  0.00     0.167 HD
ATOM     24  C   UNL A   1      41.712  27.225  28.876  1.00  0.00     0.034 A 
ATOM     25  C   UNL A   1      39.635  31.193  34.263  1.00  0.00     0.034 A 
ATOM     26  C   UNL A   1      42.602  27.237  30.007  1.00  0.00     0.049 A 
ATOM     27  C   UNL A   1      40.880  30.359  34.337  1.00  0.00     0.074 A 
ATOM     28  C   UNL A   1      43.801  26.566  30.165  1.00  0.00     0.029 A 
ATOM     29  N   UNL A   1      42.380  27.940  31.182  1.00  0.00    -0.354 N 
ATOM     30  N   UNL A   1      41.434  29.627  33.401  1.00  0.00    -0.248 NA
ATOM     31  C   UNL A   1      41.611  30.360  35.611  1.00  0.00     0.031 C 
ATOM     32  C   UNL A   1      44.292  26.844  31.445  1.00  0.00     0.029 A 
ATOM     33  C   UNL A   1      43.411  27.708  32.076  1.00  0.00     0.049 A 
ATOM     34  H   UNL A   1      41.603  28.520  31.354  1.00  0.00     0.167 HD
ATOM     35  C   UNL A   1      42.590  29.101  33.960  1.00  0.00     0.074 A 
ATOM     36  C   UNL A   1      42.667  29.611  35.315  1.00  0.00     0.031 C 
ATOM     37  C   UNL A   1      43.500  28.263  33.404  1.00  0.00     0.034 A 
BRANCH  24  38
ATOM     38  C   UNL A   1      42.044  26.328  27.713  1.00  0.00     0.023 A 
ATOM     39  C   UNL A   1      42.780  26.839  26.624  1.00  0.00     0.012 A 
ATOM     40  C   UNL A   1      41.665  24.971  27.712  1.00  0.00     0.148 A 
ATOM     41  C   UNL A   1      43.099  26.026  25.537  1.00  0.00     0.002 A 
ATOM     42  C   UNL A   1      42.023  24.156  26.643  1.00  0.00     0.091 A 
ATOM     43  F   UNL A   1      40.944  24.505  28.742  1.00  0.00    -0.205 F 
ATOM     44  C   UNL A   1      42.729  24.684  25.550  1.00  0.00     0.022 A 
BRANCH  42  45
ATOM     45  S   UNL A   1      41.650  22.398  26.615  1.00  0.00     0.127 S 
ATOM     46  O   UNL A   1      42.272  21.944  27.857  1.00  0.00    -0.237 OA
ATOM     47  O   UNL A   1      40.186  22.388  26.629  1.00  0.00    -0.237 OA
ATOM     48  O   UNL A   1      42.242  21.891  25.385  1.00  0.00    -0.744 OA
ENDBRANCH  42  45
ENDBRANCH  24  38
BRANCH  25  49
ATOM     49  C   UNL A   1      39.134  31.967  35.432  1.00  0.00     0.023 A 
ATOM     50  C   UNL A   1      38.282  31.347  36.364  1.00  0.00     0.012 A 
ATOM     51  C   UNL A   1      39.584  33.281  35.677  1.00  0.00     0.148 A 
ATOM     52  C   UNL A   1      37.877  32.024  37.515  1.00  0.00     0.002 A 
ATOM     53  C   UNL A   1      39.224  33.927  36.852  1.00  0.00     0.091 A 
ATOM     54  F   UNL A   1      40.388  33.855  34.770  1.00  0.00    -0.205 F 
ATOM     55  C   UNL A   1      38.359  33.306  37.766  1.00  0.00     0.022 A 
BRANCH  53  56
ATOM     56  S   UNL A   1      39.913  35.517  37.330  1.00  0.00     0.127 S 
ATOM     57  O   UNL A   1      39.188  35.797  38.566  1.00  0.00    -0.237 OA
ATOM     58  O   UNL A   1      41.328  35.188  37.506  1.00  0.00    -0.237 OA
ATOM     59  O   UNL A   1      39.639  36.416  36.218  1.00  0.00    -0.744 OA
ENDBRANCH  53  56
ENDBRANCH  25  49
BRANCH  37  60
ATOM     60  C   UNL A   1      44.683  27.857  34.242  1.00  0.00     0.023 A 
ATOM     61  C   UNL A   1      45.840  28.658  34.251  1.00  0.00     0.012 A 
ATOM     62  C   UNL A   1      44.601  26.743  35.100  1.00  0.00     0.148 A 
ATOM     63  C   UNL A   1      46.907  28.348  35.092  1.00  0.00     0.002 A 
ATOM     64  C   UNL A   1      45.650  26.466  35.969  1.00  0.00     0.091 A 
ATOM     65  F   UNL A   1      43.496  25.984  35.059  1.00  0.00    -0.205 F 
ATOM     66  C   UNL A   1      46.807  27.262  35.960  1.00  0.00     0.022 A 
BRANCH  64  67
ATOM     67  S   UNL A   1      45.572  25.147  37.187  1.00  0.00     0.127 S 
ATOM     68  O   UNL A   1      45.634  23.957  36.340  1.00  0.00    -0.237 OA
ATOM     69  O   UNL A   1      46.773  25.392  37.985  1.00  0.00    -0.237 OA
ATOM     70  O   UNL A   1      44.319  25.335  37.905  1.00  0.00    -0.744 OA
ENDBRANCH  64  67
ENDBRANCH  37  60
ENDBRANCH  11  12
ENDBRANCH   4   6
ENDBRANCH   1   2
BRANCH   1  71
ATOM     71  C   UNL A   1      31.687  28.897  26.245  1.00  0.00     0.042 C 
BRANCH  71  72
ATOM     72  C   UNL A   1      32.171  27.810  27.214  1.00  0.00     0.118 C 
BRANCH  72  73
ATOM     73  N   UNL A   1      31.270  26.673  27.205  1.00  0.00    -0.351 N 
ATOM     74  C   UNL A   1      30.956  25.773  26.231  1.00  0.00     0.281 C 
ATOM     75  H   UNL A   1      30.801  26.524  28.058  1.00  0.00     0.163 HD
ATOM     76  O   UNL A   1      29.809  25.315  26.325  1.00  0.00    -0.268 OA
BRANCH  74  77
ATOM     77  C   UNL A   1      31.935  25.278  25.115  1.00  0.00     0.181 C 
ATOM     78  C   UNL A   1      33.323  24.985  25.728  1.00  0.00     0.085 C 
ATOM     79  C   UNL A   1      31.606  23.903  24.501  1.00  0.00     0.144 C 
ATOM     80  C   UNL A   1      34.027  24.088  24.718  1.00  0.00     0.072 C 
ATOM     81  C   UNL A   1      32.924  23.176  24.168  1.00  0.00     0.191 C 
BRANCH  77  82
ATOM     82  N   UNL A   1      31.994  26.236  23.982  1.00  0.00    -0.331 N 
ATOM     83  H   UNL A   1      32.724  25.891  23.359  1.00  0.00     0.347 HD
ATOM     84  H   UNL A   1      32.120  27.123  24.471  1.00  0.00     0.347 HD
BRANCH  82  85
ATOM     85  C   UNL A   1      30.842  26.532  23.129  1.00  0.00     0.183 C 
ATOM     86  C   UNL A   1      29.740  27.521  23.357  1.00  0.00     0.071 C 
ATOM     87  C   UNL A   1      30.829  27.850  22.386  1.00  0.00     0.071 C 
ENDBRANCH  82  85
ENDBRANCH  77  82
BRANCH  81  88
ATOM     88  N   UNL A   1      32.968  21.787  24.653  1.00  0.00    -0.323 N 
ATOM     89  C   UNL A   1      34.221  21.457  25.376  1.00  0.00     0.324 C 
ATOM     90  C   UNL A   1      32.604  20.750  23.674  1.00  0.00     0.328 C 
ATOM     91  H   UNL A   1      32.210  21.763  25.334  1.00  0.00     0.348 HD
ATOM     92  C   UNL A   1      34.904  20.116  24.994  1.00  0.00     0.324 C 
ATOM     93  C   UNL A   1      32.710  19.319  24.244  1.00  0.00     0.240 C 
ATOM     94  N   UNL A   1      33.978  18.986  24.923  1.00  0.00    -0.323 N 
ATOM     95  C   UNL A   1      32.527  18.258  23.160  1.00  0.00     0.077 C 
ATOM     96  C   UNL A   1      34.558  17.803  24.279  1.00  0.00     0.263 C 
ATOM     97  H   UNL A   1      33.782  18.766  25.899  1.00  0.00     0.348 HD
ATOM     98  C   UNL A   1      33.367  17.098  23.656  1.00  0.00     0.068 C 
ENDBRANCH  81  88
ENDBRANCH  74  77
ENDBRANCH  72  73
ENDBRANCH  71  72
ENDBRANCH   1  71
TORSDOF 16
ENDMDL
