MODEL 1
REMARK VINA RESULT:     -11.9      0.000      0.000
REMARK SMILES COc1cc(OC(F)(F)F)cc2c1O[C@@H](C(F)(F)F)C(C(=O)NCCCNC(=O)c1ccc(-c3c4nc(c(-c5cccc(S(=O)(=O)[O-])c5F)c5ccc([nH]5)c(-c5cccc(S(=O)(=O)[O-])c5F)c5nc(c(-c6cccc(S(=O)(=O)[O-])c6F)c6ccc3[nH]6)C=C5)C=C4)cc1)=C2
REMARK SMILES IDX 25 1 24 2 23 3 21 4 22 5 20 7 3 8 4 9 13 10 5 11 12 12 14 13
REMARK SMILES IDX 11 14 93 15 15 16 2 17 1 18 6 19 7 20 8 21 9 22 10 23 16 24
REMARK SMILES IDX 17 25 18 26 19 27 26 28 27 29 28 30 29 32 30 33 31 34 92 35
REMARK SMILES IDX 32 36 91 37 33 38 34 39 35 40 85 41 36 42 90 43 84 44 86 45
REMARK SMILES IDX 37 46 89 47 83 48 82 49 38 51 70 52 50 53 69 54 51 55 54 56
REMARK SMILES IDX 68 57 87 58 52 59 53 60 67 62 88 63 55 64 39 65 40 66 48 67
REMARK SMILES IDX 41 68 43 69 49 70 42 71 44 72 45 73 46 74 47 75 71 76 72 77
REMARK SMILES IDX 80 78 73 79 75 80 81 81 74 82 76 83 77 84 78 85 79 86 56 87
REMARK SMILES IDX 57 88 65 89 58 90 60 91 66 92 59 93 61 94 62 95 63 96 64 97
REMARK H PARENT 23 6 27 31 86 50 54 61
REMARK Flexibility Score: inf
ROOT
ATOM      1  C   UNL A   1      33.845  31.577  27.049  1.00  0.00     0.042 C 
ENDROOT
BRANCH   1   2
ATOM      2  C   UNL A   1      34.192  30.151  27.485  1.00  0.00     0.118 C 
BRANCH   2   3
ATOM      3  N   UNL A   1      32.989  29.420  27.851  1.00  0.00    -0.352 N 
ATOM      4  C   UNL A   1      32.289  28.425  27.250  1.00  0.00     0.251 C 
ATOM      5  O   UNL A   1      31.218  28.095  27.752  1.00  0.00    -0.270 OA
ATOM      6  H   UNL A   1      32.604  29.706  28.712  1.00  0.00     0.163 HD
BRANCH   4   7
ATOM      7  C   UNL A   1      32.799  27.672  26.075  1.00  0.00     0.067 C 
ATOM      8  C   UNL A   1      33.753  25.525  22.584  1.00  0.00     0.165 A 
ATOM      9  C   UNL A   1      34.380  24.277  22.699  1.00  0.00     0.097 A 
ATOM     10  C   UNL A   1      33.458  26.272  23.732  1.00  0.00     0.170 A 
ATOM     11  C   UNL A   1      34.751  23.784  23.949  1.00  0.00     0.134 A 
ATOM     12  C   UNL A   1      33.844  25.790  24.983  1.00  0.00     0.025 A 
ATOM     13  O   UNL A   1      32.694  27.396  23.610  1.00  0.00    -0.471 OA
ATOM     14  C   UNL A   1      34.493  24.554  25.086  1.00  0.00     0.059 A 
ATOM     15  C   UNL A   1      33.459  26.511  26.189  1.00  0.00     0.026 C 
ATOM     16  C   UNL A   1      32.691  28.348  24.714  1.00  0.00     0.314 C 
BRANCH   8  17
ATOM     17  O   UNL A   1      33.404  25.871  21.302  1.00  0.00    -0.493 OA
ATOM     18  C   UNL A   1      32.140  25.367  20.876  1.00  0.00     0.278 C 
ENDBRANCH   8  17
BRANCH  11  19
ATOM     19  O   UNL A   1      35.337  22.579  24.212  1.00  0.00    -0.406 OA
BRANCH  19  20
ATOM     20  C   UNL A   1      36.716  22.432  23.922  1.00  0.00     0.573 C 
ATOM     21  F   UNL A   1      37.183  21.242  24.358  1.00  0.00    -0.132 F 
ATOM     22  F   UNL A   1      36.949  22.548  22.598  1.00  0.00    -0.132 F 
ATOM     23  F   UNL A   1      37.402  23.406  24.560  1.00  0.00    -0.132 F 
ENDBRANCH  19  20
ENDBRANCH  11  19
BRANCH  16  24
ATOM     24  C   UNL A   1      31.496  29.296  24.469  1.00  0.00     0.429 C 
ATOM     25  F   UNL A   1      31.574  30.447  25.171  1.00  0.00    -0.167 F 
ATOM     26  F   UNL A   1      31.455  29.682  23.161  1.00  0.00    -0.167 F 
ATOM     27  F   UNL A   1      30.304  28.711  24.733  1.00  0.00    -0.167 F 
ENDBRANCH  16  24
ENDBRANCH   4   7
ENDBRANCH   2   3
ENDBRANCH   1   2
BRANCH   1  28
ATOM     28  C   UNL A   1      32.540  32.088  27.656  1.00  0.00     0.118 C 
BRANCH  28  29
ATOM     29  N   UNL A   1      32.506  33.544  27.716  1.00  0.00    -0.352 N 
ATOM     30  C   UNL A   1      33.227  34.402  28.508  1.00  0.00     0.251 C 
ATOM     31  H   UNL A   1      31.872  33.974  27.098  1.00  0.00     0.163 HD
ATOM     32  O   UNL A   1      32.885  35.578  28.592  1.00  0.00    -0.269 OA
BRANCH  30  33
ATOM     33  C   UNL A   1      34.404  33.914  29.257  1.00  0.00     0.039 A 
ATOM     34  C   UNL A   1      34.211  33.080  30.362  1.00  0.00     0.014 A 
ATOM     35  C   UNL A   1      35.695  34.306  28.890  1.00  0.00     0.014 A 
ATOM     36  C   UNL A   1      35.315  32.598  31.069  1.00  0.00     0.010 A 
ATOM     37  C   UNL A   1      36.795  33.767  29.550  1.00  0.00     0.010 A 
ATOM     38  C   UNL A   1      36.617  32.917  30.652  1.00  0.00    -0.014 A 
BRANCH  38  39
ATOM     39  C   UNL A   1      37.815  32.381  31.347  1.00  0.00     0.031 A 
ATOM     40  C   UNL A   1      38.587  31.241  30.737  1.00  0.00     0.074 A 
ATOM     41  C   UNL A   1      38.136  32.841  32.571  1.00  0.00     0.049 A 
ATOM     42  N   UNL A   1      39.572  30.548  31.244  1.00  0.00    -0.248 NA
ATOM     43  C   UNL A   1      38.176  30.804  29.392  1.00  0.00     0.031 C 
ATOM     44  C   UNL A   1      37.425  33.899  33.292  1.00  0.00     0.029 A 
ATOM     45  N   UNL A   1      39.121  32.451  33.444  1.00  0.00    -0.354 N 
ATOM     46  C   UNL A   1      39.867  29.567  30.305  1.00  0.00     0.074 A 
ATOM     47  C   UNL A   1      38.939  29.738  29.210  1.00  0.00     0.031 C 
ATOM     48  C   UNL A   1      37.990  34.066  34.499  1.00  0.00     0.029 A 
ATOM     49  C   UNL A   1      39.075  33.104  34.654  1.00  0.00     0.049 A 
ATOM     50  H   UNL A   1      39.796  31.767  33.226  1.00  0.00     0.167 HD
ATOM     51  C   UNL A   1      40.837  28.623  30.343  1.00  0.00     0.034 A 
ATOM     52  C   UNL A   1      39.810  32.933  35.770  1.00  0.00     0.034 A 
ATOM     53  C   UNL A   1      41.783  28.487  31.417  1.00  0.00     0.049 A 
ATOM     54  C   UNL A   1      40.904  31.899  35.773  1.00  0.00     0.074 A 
ATOM     55  C   UNL A   1      42.856  27.619  31.513  1.00  0.00     0.029 A 
ATOM     56  N   UNL A   1      41.766  29.234  32.585  1.00  0.00    -0.354 N 
ATOM     57  N   UNL A   1      41.257  31.071  34.820  1.00  0.00    -0.248 NA
ATOM     58  C   UNL A   1      41.723  31.798  36.988  1.00  0.00     0.031 C 
ATOM     59  C   UNL A   1      43.471  27.823  32.752  1.00  0.00     0.029 A 
ATOM     60  C   UNL A   1      42.804  28.843  33.411  1.00  0.00     0.049 A 
ATOM     61  H   UNL A   1      41.111  29.938  32.795  1.00  0.00     0.167 HD
ATOM     62  C   UNL A   1      42.366  30.386  35.301  1.00  0.00     0.074 A 
ATOM     63  C   UNL A   1      42.631  30.902  36.628  1.00  0.00     0.031 C 
ATOM     64  C   UNL A   1      43.093  29.411  34.702  1.00  0.00     0.034 A 
BRANCH  51  65
ATOM     65  C   UNL A   1      40.954  27.687  29.167  1.00  0.00     0.023 A 
ATOM     66  C   UNL A   1      40.190  26.503  29.136  1.00  0.00     0.012 A 
ATOM     67  C   UNL A   1      41.773  28.008  28.065  1.00  0.00     0.148 A 
ATOM     68  C   UNL A   1      40.267  25.634  28.049  1.00  0.00     0.002 A 
ATOM     69  C   UNL A   1      41.808  27.161  26.963  1.00  0.00     0.091 A 
ATOM     70  F   UNL A   1      42.508  29.128  28.119  1.00  0.00    -0.205 F 
ATOM     71  C   UNL A   1      41.067  25.968  26.959  1.00  0.00     0.022 A 
BRANCH  69  72
ATOM     72  S   UNL A   1      42.740  27.542  25.476  1.00  0.00     0.127 S 
ATOM     73  O   UNL A   1      42.073  28.758  25.013  1.00  0.00    -0.237 OA
ATOM     74  O   UNL A   1      44.089  27.749  26.004  1.00  0.00    -0.237 OA
ATOM     75  O   UNL A   1      42.599  26.383  24.606  1.00  0.00    -0.744 OA
ENDBRANCH  69  72
ENDBRANCH  51  65
BRANCH  52  76
ATOM     76  C   UNL A   1      39.574  33.801  36.959  1.00  0.00     0.023 A 
ATOM     77  C   UNL A   1      39.941  35.160  36.907  1.00  0.00     0.012 A 
ATOM     78  C   UNL A   1      38.963  33.298  38.125  1.00  0.00     0.148 A 
ATOM     79  C   UNL A   1      39.739  35.993  38.007  1.00  0.00     0.002 A 
ATOM     80  C   UNL A   1      38.711  34.149  39.195  1.00  0.00     0.091 A 
ATOM     81  F   UNL A   1      38.626  32.002  38.157  1.00  0.00    -0.205 F 
ATOM     82  C   UNL A   1      39.115  35.492  39.146  1.00  0.00     0.022 A 
BRANCH  80  83
ATOM     83  S   UNL A   1      37.794  33.624  40.648  1.00  0.00     0.127 S 
ATOM     84  O   UNL A   1      37.661  34.876  41.387  1.00  0.00    -0.237 OA
ATOM     85  O   UNL A   1      36.554  33.121  40.056  1.00  0.00    -0.237 OA
ATOM     86  O   UNL A   1      38.613  32.598  41.281  1.00  0.00    -0.744 OA
ENDBRANCH  80  83
ENDBRANCH  52  76
BRANCH  64  87
ATOM     87  C   UNL A   1      44.292  28.873  35.440  1.00  0.00     0.023 A 
ATOM     88  C   UNL A   1      45.552  29.482  35.282  1.00  0.00     0.012 A 
ATOM     89  C   UNL A   1      44.141  27.820  36.363  1.00  0.00     0.148 A 
ATOM     90  C   UNL A   1      46.651  29.030  36.013  1.00  0.00     0.002 A 
ATOM     91  C   UNL A   1      45.227  27.410  37.125  1.00  0.00     0.091 A 
ATOM     92  F   UNL A   1      42.936  27.243  36.484  1.00  0.00    -0.205 F 
ATOM     93  C   UNL A   1      46.486  28.006  36.943  1.00  0.00     0.022 A 
BRANCH  91  94
ATOM     94  S   UNL A   1      45.085  26.172  38.418  1.00  0.00     0.127 S 
ATOM     95  O   UNL A   1      44.069  26.763  39.287  1.00  0.00    -0.237 OA
ATOM     96  O   UNL A   1      44.640  24.994  37.671  1.00  0.00    -0.237 OA
ATOM     97  O   UNL A   1      46.413  26.049  39.006  1.00  0.00    -0.744 OA
ENDBRANCH  91  94
ENDBRANCH  64  87
ENDBRANCH  38  39
ENDBRANCH  30  33
ENDBRANCH  28  29
ENDBRANCH   1  28
TORSDOF 17
ENDMDL
MODEL 2
REMARK VINA RESULT:     -11.8      2.543      3.720
REMARK SMILES COc1cc(OC(F)(F)F)cc2c1O[C@@H](C(F)(F)F)C(C(=O)NCCCNC(=O)c1ccc(-c3c4nc(c(-c5cccc(S(=O)(=O)[O-])c5F)c5ccc([nH]5)c(-c5cccc(S(=O)(=O)[O-])c5F)c5nc(c(-c6cccc(S(=O)(=O)[O-])c6F)c6ccc3[nH]6)C=C5)C=C4)cc1)=C2
REMARK SMILES IDX 25 1 24 2 23 3 21 4 22 5 20 7 3 8 4 9 13 10 5 11 12 12 14 13
REMARK SMILES IDX 11 14 93 15 15 16 2 17 1 18 6 19 7 20 8 21 9 22 10 23 16 24
REMARK SMILES IDX 17 25 18 26 19 27 26 28 27 29 28 30 29 32 30 33 31 34 92 35
REMARK SMILES IDX 32 36 91 37 33 38 34 39 35 40 85 41 36 42 90 43 84 44 86 45
REMARK SMILES IDX 37 46 89 47 83 48 82 49 38 51 70 52 50 53 69 54 51 55 54 56
REMARK SMILES IDX 68 57 87 58 52 59 53 60 67 62 88 63 55 64 39 65 40 66 48 67
REMARK SMILES IDX 41 68 43 69 49 70 42 71 44 72 45 73 46 74 47 75 71 76 72 77
REMARK SMILES IDX 80 78 73 79 75 80 81 81 74 82 76 83 77 84 78 85 79 86 56 87
REMARK SMILES IDX 57 88 65 89 58 90 60 91 66 92 59 93 61 94 62 95 63 96 64 97
REMARK H PARENT 23 6 27 31 86 50 54 61
REMARK Flexibility Score: inf
ROOT
ATOM      1  C   UNL A   1      33.362  29.241  23.396  1.00  0.00     0.042 C 
ENDROOT
BRANCH   1   2
ATOM      2  C   UNL A   1      33.852  27.966  22.706  1.00  0.00     0.118 C 
BRANCH   2   3
ATOM      3  N   UNL A   1      32.838  27.452  21.798  1.00  0.00    -0.352 N 
ATOM      4  C   UNL A   1      32.251  26.237  21.655  1.00  0.00     0.251 C 
ATOM      5  O   UNL A   1      31.506  26.072  20.693  1.00  0.00    -0.270 OA
ATOM      6  H   UNL A   1      32.511  28.124  21.157  1.00  0.00     0.163 HD
BRANCH   4   7
ATOM      7  C   UNL A   1      32.404  25.142  22.648  1.00  0.00     0.067 C 
ATOM      8  C   UNL A   1      32.853  22.415  25.821  1.00  0.00     0.165 A 
ATOM      9  C   UNL A   1      33.945  21.536  25.818  1.00  0.00     0.097 A 
ATOM     10  C   UNL A   1      32.665  23.307  24.757  1.00  0.00     0.170 A 
ATOM     11  C   UNL A   1      34.832  21.514  24.743  1.00  0.00     0.134 A 
ATOM     12  C   UNL A   1      33.540  23.275  23.671  1.00  0.00     0.025 A 
ATOM     13  O   UNL A   1      31.702  24.268  24.863  1.00  0.00    -0.471 OA
ATOM     14  C   UNL A   1      34.614  22.376  23.666  1.00  0.00     0.059 A 
ATOM     15  C   UNL A   1      33.412  24.260  22.606  1.00  0.00     0.026 C 
ATOM     16  C   UNL A   1      31.270  24.945  23.647  1.00  0.00     0.314 C 
BRANCH   8  17
ATOM     17  O   UNL A   1      32.084  22.364  26.958  1.00  0.00    -0.493 OA
ATOM     18  C   UNL A   1      32.827  22.283  28.172  1.00  0.00     0.278 C 
ENDBRANCH   8  17
BRANCH  11  19
ATOM     19  O   UNL A   1      35.949  20.738  24.621  1.00  0.00    -0.406 OA
BRANCH  19  20
ATOM     20  C   UNL A   1      37.206  21.337  24.880  1.00  0.00     0.573 C 
ATOM     21  F   UNL A   1      38.193  20.415  24.897  1.00  0.00    -0.132 F 
ATOM     22  F   UNL A   1      37.493  22.283  23.960  1.00  0.00    -0.132 F 
ATOM     23  F   UNL A   1      37.167  21.926  26.096  1.00  0.00    -0.132 F 
ENDBRANCH  19  20
ENDBRANCH  11  19
BRANCH  16  24
ATOM     24  C   UNL A   1      30.480  26.193  24.100  1.00  0.00     0.429 C 
ATOM     25  F   UNL A   1      29.785  26.778  23.100  1.00  0.00    -0.167 F 
ATOM     26  F   UNL A   1      29.540  25.850  25.028  1.00  0.00    -0.167 F 
ATOM     27  F   UNL A   1      31.268  27.128  24.680  1.00  0.00    -0.167 F 
ENDBRANCH  16  24
ENDBRANCH   4   7
ENDBRANCH   2   3
ENDBRANCH   1   2
BRANCH   1  28
ATOM     28  C   UNL A   1      33.574  29.223  24.908  1.00  0.00     0.118 C 
BRANCH  28  29
ATOM     29  N   UNL A   1      32.871  30.318  25.564  1.00  0.00    -0.352 N 
ATOM     30  C   UNL A   1      33.142  30.939  26.758  1.00  0.00     0.251 C 
ATOM     31  H   UNL A   1      32.085  30.661  25.080  1.00  0.00     0.163 HD
ATOM     32  O   UNL A   1      32.297  31.673  27.263  1.00  0.00    -0.269 OA
BRANCH  30  33
ATOM     33  C   UNL A   1      34.440  30.726  27.431  1.00  0.00     0.039 A 
ATOM     34  C   UNL A   1      35.307  31.810  27.597  1.00  0.00     0.014 A 
ATOM     35  C   UNL A   1      34.816  29.453  27.868  1.00  0.00     0.014 A 
ATOM     36  C   UNL A   1      36.531  31.627  28.245  1.00  0.00     0.010 A 
ATOM     37  C   UNL A   1      36.001  29.287  28.577  1.00  0.00     0.010 A 
ATOM     38  C   UNL A   1      36.876  30.369  28.765  1.00  0.00    -0.014 A 
BRANCH  38  39
ATOM     39  C   UNL A   1      38.143  30.148  29.506  1.00  0.00     0.031 A 
ATOM     40  C   UNL A   1      39.186  29.218  28.946  1.00  0.00     0.074 A 
ATOM     41  C   UNL A   1      38.303  30.690  30.729  1.00  0.00     0.049 A 
ATOM     42  N   UNL A   1      40.291  28.790  29.497  1.00  0.00    -0.248 NA
ATOM     43  C   UNL A   1      38.938  28.675  27.599  1.00  0.00     0.031 C 
ATOM     44  C   UNL A   1      37.334  31.556  31.403  1.00  0.00     0.029 A 
ATOM     45  N   UNL A   1      39.322  30.561  31.639  1.00  0.00    -0.354 N 
ATOM     46  C   UNL A   1      40.845  27.895  28.589  1.00  0.00     0.074 A 
ATOM     47  C   UNL A   1      39.941  27.821  27.463  1.00  0.00     0.031 C 
ATOM     48  C   UNL A   1      37.801  31.872  32.623  1.00  0.00     0.029 A 
ATOM     49  C   UNL A   1      39.080  31.202  32.832  1.00  0.00     0.049 A 
ATOM     50  H   UNL A   1      40.148  30.056  31.456  1.00  0.00     0.167 HD
ATOM     51  C   UNL A   1      42.011  27.212  28.677  1.00  0.00     0.034 A 
ATOM     52  C   UNL A   1      39.796  31.230  33.973  1.00  0.00     0.034 A 
ATOM     53  C   UNL A   1      42.925  27.324  29.781  1.00  0.00     0.049 A 
ATOM     54  C   UNL A   1      41.105  30.489  34.031  1.00  0.00     0.074 A 
ATOM     55  C   UNL A   1      44.171  26.741  29.929  1.00  0.00     0.029 A 
ATOM     56  N   UNL A   1      42.689  28.062  30.931  1.00  0.00    -0.354 N 
ATOM     57  N   UNL A   1      41.679  29.756  33.108  1.00  0.00    -0.248 NA
ATOM     58  C   UNL A   1      41.883  30.606  35.272  1.00  0.00     0.031 C 
ATOM     59  C   UNL A   1      44.676  27.105  31.180  1.00  0.00     0.029 A 
ATOM     60  C   UNL A   1      43.762  27.945  31.796  1.00  0.00     0.049 A 
ATOM     61  H   UNL A   1      41.878  28.591  31.105  1.00  0.00     0.167 HD
ATOM     62  C   UNL A   1      42.903  29.365  33.637  1.00  0.00     0.074 A 
ATOM     63  C   UNL A   1      42.991  29.949  34.959  1.00  0.00     0.031 C 
ATOM     64  C   UNL A   1      43.863  28.585  33.082  1.00  0.00     0.034 A 
BRANCH  51  65
ATOM     65  C   UNL A   1      42.389  26.315  27.526  1.00  0.00     0.023 A 
ATOM     66  C   UNL A   1      43.217  26.808  26.497  1.00  0.00     0.012 A 
ATOM     67  C   UNL A   1      41.974  24.969  27.491  1.00  0.00     0.148 A 
ATOM     68  C   UNL A   1      43.595  25.989  25.434  1.00  0.00     0.002 A 
ATOM     69  C   UNL A   1      42.394  24.145  26.454  1.00  0.00     0.091 A 
ATOM     70  F   UNL A   1      41.170  24.521  28.467  1.00  0.00    -0.205 F 
ATOM     71  C   UNL A   1      43.194  24.656  25.418  1.00  0.00     0.022 A 
BRANCH  69  72
ATOM     72  S   UNL A   1      42.001  22.393  26.385  1.00  0.00     0.127 S 
ATOM     73  O   UNL A   1      42.684  21.986  25.158  1.00  0.00    -0.237 OA
ATOM     74  O   UNL A   1      42.611  21.893  27.617  1.00  0.00    -0.237 OA
ATOM     75  O   UNL A   1      40.548  22.309  26.348  1.00  0.00    -0.744 OA
ENDBRANCH  69  72
ENDBRANCH  51  65
BRANCH  52  76
ATOM     76  C   UNL A   1      39.318  32.033  35.134  1.00  0.00     0.023 A 
ATOM     77  C   UNL A   1      38.427  31.451  36.056  1.00  0.00     0.012 A 
ATOM     78  C   UNL A   1      39.763  33.353  35.346  1.00  0.00     0.148 A 
ATOM     79  C   UNL A   1      37.957  32.181  37.148  1.00  0.00     0.002 A 
ATOM     80  C   UNL A   1      39.335  34.054  36.469  1.00  0.00     0.091 A 
ATOM     81  F   UNL A   1      40.606  33.890  34.455  1.00  0.00    -0.205 F 
ATOM     82  C   UNL A   1      38.418  33.477  37.361  1.00  0.00     0.022 A 
BRANCH  80  83
ATOM     83  S   UNL A   1      39.979  35.676  36.893  1.00  0.00     0.127 S 
ATOM     84  O   UNL A   1      41.410  35.409  37.010  1.00  0.00    -0.237 OA
ATOM     85  O   UNL A   1      39.592  36.469  35.726  1.00  0.00    -0.237 OA
ATOM     86  O   UNL A   1      39.303  36.058  38.127  1.00  0.00    -0.744 OA
ENDBRANCH  80  83
ENDBRANCH  52  76
BRANCH  64  87
ATOM     87  C   UNL A   1      45.130  28.362  33.866  1.00  0.00     0.023 A 
ATOM     88  C   UNL A   1      46.199  29.272  33.758  1.00  0.00     0.012 A 
ATOM     89  C   UNL A   1      45.216  27.297  34.783  1.00  0.00     0.148 A 
ATOM     90  C   UNL A   1      47.348  29.108  34.531  1.00  0.00     0.002 A 
ATOM     91  C   UNL A   1      46.340  27.169  35.588  1.00  0.00     0.091 A 
ATOM     92  F   UNL A   1      44.193  26.432  34.857  1.00  0.00    -0.205 F 
ATOM     93  C   UNL A   1      47.413  28.067  35.455  1.00  0.00     0.022 A 
BRANCH  91  94
ATOM     94  S   UNL A   1      46.469  25.923  36.875  1.00  0.00     0.127 S 
ATOM     95  O   UNL A   1      47.782  26.220  37.446  1.00  0.00    -0.237 OA
ATOM     96  O   UNL A   1      45.337  26.255  37.742  1.00  0.00    -0.237 OA
ATOM     97  O   UNL A   1      46.358  24.636  36.202  1.00  0.00    -0.744 OA
ENDBRANCH  91  94
ENDBRANCH  64  87
ENDBRANCH  38  39
ENDBRANCH  30  33
ENDBRANCH  28  29
ENDBRANCH   1  28
TORSDOF 17
ENDMDL
MODEL 3
REMARK VINA RESULT:     -11.6      1.260      1.859
REMARK SMILES COc1cc(OC(F)(F)F)cc2c1O[C@@H](C(F)(F)F)C(C(=O)NCCCNC(=O)c1ccc(-c3c4nc(c(-c5cccc(S(=O)(=O)[O-])c5F)c5ccc([nH]5)c(-c5cccc(S(=O)(=O)[O-])c5F)c5nc(c(-c6cccc(S(=O)(=O)[O-])c6F)c6ccc3[nH]6)C=C5)C=C4)cc1)=C2
REMARK SMILES IDX 25 1 24 2 23 3 21 4 22 5 20 7 3 8 4 9 13 10 5 11 12 12 14 13
REMARK SMILES IDX 11 14 93 15 15 16 2 17 1 18 6 19 7 20 8 21 9 22 10 23 16 24
REMARK SMILES IDX 17 25 18 26 19 27 26 28 27 29 28 30 29 32 30 33 31 34 92 35
REMARK SMILES IDX 32 36 91 37 33 38 34 39 35 40 85 41 36 42 90 43 84 44 86 45
REMARK SMILES IDX 37 46 89 47 83 48 82 49 38 51 70 52 50 53 69 54 51 55 54 56
REMARK SMILES IDX 68 57 87 58 52 59 53 60 67 62 88 63 55 64 39 65 40 66 48 67
REMARK SMILES IDX 41 68 43 69 49 70 42 71 44 72 45 73 46 74 47 75 71 76 72 77
REMARK SMILES IDX 80 78 73 79 75 80 81 81 74 82 76 83 77 84 78 85 79 86 56 87
REMARK SMILES IDX 57 88 65 89 58 90 60 91 66 92 59 93 61 94 62 95 63 96 64 97
REMARK H PARENT 23 6 27 31 86 50 54 61
REMARK Flexibility Score: inf
ROOT
ATOM      1  C   UNL A   1      31.655  31.151  26.480  1.00  0.00     0.042 C 
ENDROOT
BRANCH   1   2
ATOM      2  C   UNL A   1      31.974  29.750  25.952  1.00  0.00     0.118 C 
BRANCH   2   3
ATOM      3  N   UNL A   1      32.016  29.748  24.498  1.00  0.00    -0.352 N 
ATOM      4  C   UNL A   1      32.364  28.809  23.581  1.00  0.00     0.251 C 
ATOM      5  O   UNL A   1      32.421  29.153  22.404  1.00  0.00    -0.270 OA
ATOM      6  H   UNL A   1      31.735  30.603  24.098  1.00  0.00     0.163 HD
BRANCH   4   7
ATOM      7  C   UNL A   1      32.589  27.383  23.929  1.00  0.00     0.067 C 
ATOM      8  C   UNL A   1      32.826  23.391  25.241  1.00  0.00     0.165 A 
ATOM      9  C   UNL A   1      34.014  22.933  25.826  1.00  0.00     0.097 A 
ATOM     10  C   UNL A   1      32.738  24.706  24.766  1.00  0.00     0.170 A 
ATOM     11  C   UNL A   1      35.129  23.765  25.908  1.00  0.00     0.134 A 
ATOM     12  C   UNL A   1      33.857  25.536  24.829  1.00  0.00     0.025 A 
ATOM     13  O   UNL A   1      31.524  25.182  24.362  1.00  0.00    -0.471 OA
ATOM     14  C   UNL A   1      35.047  25.062  25.393  1.00  0.00     0.059 A 
ATOM     15  C   UNL A   1      33.749  26.932  24.427  1.00  0.00     0.026 C 
ATOM     16  C   UNL A   1      31.496  26.391  23.549  1.00  0.00     0.314 C 
BRANCH   8  17
ATOM     17  O   UNL A   1      31.794  22.485  25.263  1.00  0.00    -0.493 OA
ATOM     18  C   UNL A   1      31.980  21.357  24.411  1.00  0.00     0.278 C 
ENDBRANCH   8  17
BRANCH  11  19
ATOM     19  O   UNL A   1      36.334  23.465  26.476  1.00  0.00    -0.406 OA
BRANCH  19  20
ATOM     20  C   UNL A   1      37.433  23.221  25.616  1.00  0.00     0.573 C 
ATOM     21  F   UNL A   1      37.019  22.975  24.353  1.00  0.00    -0.132 F 
ATOM     22  F   UNL A   1      38.289  24.264  25.612  1.00  0.00    -0.132 F 
ATOM     23  F   UNL A   1      38.097  22.128  26.055  1.00  0.00    -0.132 F 
ENDBRANCH  19  20
ENDBRANCH  11  19
BRANCH  16  24
ATOM     24  C   UNL A   1      30.033  26.889  23.558  1.00  0.00     0.429 C 
ATOM     25  F   UNL A   1      29.746  27.688  24.609  1.00  0.00    -0.167 F 
ATOM     26  F   UNL A   1      29.785  27.654  22.456  1.00  0.00    -0.167 F 
ATOM     27  F   UNL A   1      29.137  25.876  23.530  1.00  0.00    -0.167 F 
ENDBRANCH  16  24
ENDBRANCH   4   7
ENDBRANCH   2   3
ENDBRANCH   1   2
BRANCH   1  28
ATOM     28  C   UNL A   1      32.835  31.802  27.199  1.00  0.00     0.118 C 
BRANCH  28  29
ATOM     29  N   UNL A   1      32.594  33.216  27.460  1.00  0.00    -0.352 N 
ATOM     30  C   UNL A   1      33.165  34.041  28.396  1.00  0.00     0.251 C 
ATOM     31  H   UNL A   1      31.921  33.640  26.880  1.00  0.00     0.163 HD
ATOM     32  O   UNL A   1      32.658  35.135  28.628  1.00  0.00    -0.269 OA
BRANCH  30  33
ATOM     33  C   UNL A   1      34.380  33.615  29.122  1.00  0.00     0.039 A 
ATOM     34  C   UNL A   1      34.255  32.735  30.202  1.00  0.00     0.014 A 
ATOM     35  C   UNL A   1      35.637  34.108  28.761  1.00  0.00     0.014 A 
ATOM     36  C   UNL A   1      35.396  32.312  30.888  1.00  0.00     0.010 A 
ATOM     37  C   UNL A   1      36.777  33.629  29.397  1.00  0.00     0.010 A 
ATOM     38  C   UNL A   1      36.669  32.735  30.473  1.00  0.00    -0.014 A 
BRANCH  38  39
ATOM     39  C   UNL A   1      37.907  32.265  31.143  1.00  0.00     0.031 A 
ATOM     40  C   UNL A   1      38.684  31.114  30.561  1.00  0.00     0.074 A 
ATOM     41  C   UNL A   1      38.265  32.794  32.329  1.00  0.00     0.049 A 
ATOM     42  N   UNL A   1      39.707  30.472  31.060  1.00  0.00    -0.248 NA
ATOM     43  C   UNL A   1      38.231  30.599  29.257  1.00  0.00     0.031 C 
ATOM     44  C   UNL A   1      37.556  33.870  33.024  1.00  0.00     0.029 A 
ATOM     45  N   UNL A   1      39.294  32.473  33.179  1.00  0.00    -0.354 N 
ATOM     46  C   UNL A   1      39.989  29.451  30.160  1.00  0.00     0.074 A 
ATOM     47  C   UNL A   1      39.014  29.543  29.097  1.00  0.00     0.031 C 
ATOM     48  C   UNL A   1      38.164  34.112  34.197  1.00  0.00     0.029 A 
ATOM     49  C   UNL A   1      39.280  33.185  34.355  1.00  0.00     0.049 A 
ATOM     50  H   UNL A   1      39.977  31.795  32.967  1.00  0.00     0.167 HD
ATOM     51  C   UNL A   1      40.985  28.533  30.205  1.00  0.00     0.034 A 
ATOM     52  C   UNL A   1      40.063  33.090  35.447  1.00  0.00     0.034 A 
ATOM     53  C   UNL A   1      41.976  28.475  31.245  1.00  0.00     0.049 A 
ATOM     54  C   UNL A   1      41.182  32.084  35.456  1.00  0.00     0.074 A 
ATOM     55  C   UNL A   1      43.074  27.640  31.340  1.00  0.00     0.029 A 
ATOM     56  N   UNL A   1      41.986  29.281  32.373  1.00  0.00    -0.354 N 
ATOM     57  N   UNL A   1      41.519  31.217  34.533  1.00  0.00    -0.248 NA
ATOM     58  C   UNL A   1      42.052  32.065  36.641  1.00  0.00     0.031 C 
ATOM     59  C   UNL A   1      43.733  27.922  32.541  1.00  0.00     0.029 A 
ATOM     60  C   UNL A   1      43.066  28.958  33.175  1.00  0.00     0.049 A 
ATOM     61  H   UNL A   1      41.322  29.978  32.574  1.00  0.00     0.167 HD
ATOM     62  C   UNL A   1      42.664  30.584  35.001  1.00  0.00     0.074 A 
ATOM     63  C   UNL A   1      42.969  31.174  36.288  1.00  0.00     0.031 C 
ATOM     64  C   UNL A   1      43.392  29.598  34.422  1.00  0.00     0.034 A 
BRANCH  51  65
ATOM     65  C   UNL A   1      41.079  27.542  29.073  1.00  0.00     0.023 A 
ATOM     66  C   UNL A   1      40.291  26.374  29.100  1.00  0.00     0.012 A 
ATOM     67  C   UNL A   1      41.901  27.795  27.957  1.00  0.00     0.148 A 
ATOM     68  C   UNL A   1      40.347  25.453  28.054  1.00  0.00     0.002 A 
ATOM     69  C   UNL A   1      41.915  26.897  26.895  1.00  0.00     0.091 A 
ATOM     70  F   UNL A   1      42.658  28.901  27.957  1.00  0.00    -0.205 F 
ATOM     71  C   UNL A   1      41.149  25.720  26.948  1.00  0.00     0.022 A 
BRANCH  69  72
ATOM     72  S   UNL A   1      42.850  27.189  25.390  1.00  0.00     0.127 S 
ATOM     73  O   UNL A   1      44.195  27.410  25.917  1.00  0.00    -0.237 OA
ATOM     74  O   UNL A   1      42.676  25.927  24.670  1.00  0.00    -0.237 OA
ATOM     75  O   UNL A   1      42.233  28.343  24.751  1.00  0.00    -0.744 OA
ENDBRANCH  69  72
ENDBRANCH  51  65
BRANCH  52  76
ATOM     76  C   UNL A   1      39.852  34.011  36.600  1.00  0.00     0.023 A 
ATOM     77  C   UNL A   1      40.159  35.379  36.457  1.00  0.00     0.012 A 
ATOM     78  C   UNL A   1      39.322  33.550  37.821  1.00  0.00     0.148 A 
ATOM     79  C   UNL A   1      39.979  36.263  37.521  1.00  0.00     0.002 A 
ATOM     80  C   UNL A   1      39.090  34.447  38.857  1.00  0.00     0.091 A 
ATOM     81  F   UNL A   1      39.042  32.245  37.939  1.00  0.00    -0.205 F 
ATOM     82  C   UNL A   1      39.435  35.801  38.717  1.00  0.00     0.022 A 
BRANCH  80  83
ATOM     83  S   UNL A   1      38.271  33.967  40.383  1.00  0.00     0.127 S 
ATOM     84  O   UNL A   1      37.077  33.292  39.881  1.00  0.00    -0.237 OA
ATOM     85  O   UNL A   1      39.267  33.087  40.995  1.00  0.00    -0.237 OA
ATOM     86  O   UNL A   1      38.039  35.207  41.112  1.00  0.00    -0.744 OA
ENDBRANCH  80  83
ENDBRANCH  52  76
BRANCH  64  87
ATOM     87  C   UNL A   1      44.633  29.128  35.136  1.00  0.00     0.023 A 
ATOM     88  C   UNL A   1      45.877  29.730  34.865  1.00  0.00     0.012 A 
ATOM     89  C   UNL A   1      44.541  28.150  36.145  1.00  0.00     0.148 A 
ATOM     90  C   UNL A   1      47.017  29.345  35.570  1.00  0.00     0.002 A 
ATOM     91  C   UNL A   1      45.669  27.809  36.879  1.00  0.00     0.091 A 
ATOM     92  F   UNL A   1      43.350  27.577  36.374  1.00  0.00    -0.205 F 
ATOM     93  C   UNL A   1      46.911  28.397  36.585  1.00  0.00     0.022 A 
BRANCH  91  94
ATOM     94  S   UNL A   1      45.608  26.675  38.271  1.00  0.00     0.127 S 
ATOM     95  O   UNL A   1      45.031  25.481  37.657  1.00  0.00    -0.237 OA
ATOM     96  O   UNL A   1      47.021  26.554  38.634  1.00  0.00    -0.237 OA
ATOM     97  O   UNL A   1      44.778  27.320  39.280  1.00  0.00    -0.744 OA
ENDBRANCH  91  94
ENDBRANCH  64  87
ENDBRANCH  38  39
ENDBRANCH  30  33
ENDBRANCH  28  29
ENDBRANCH   1  28
TORSDOF 17
ENDMDL
