MODEL 1
REMARK VINA RESULT:     -11.1      0.000      0.000
REMARK SMILES [NH3+][C@@H](C[S@@](=O)c1cccc(F)c1)C(=O)NCCCNC(=O)c1ccc(-c2c3nc(c(-c4cccc(S(=O)(=O)[O-])c4F)c4ccc([nH]4)c(-c4cccc(S(=O)(=O)[O-])c4F)c4nc(c(-c5cccc(S(=O)(=O)[O-])c5F)c5ccc2[nH]5)C=C4)C=C3)cc1
REMARK SMILES IDX 17 1 16 2 15 3 13 4 14 5 2 7 1 8 3 12 4 13 5 14 6 15 7 16
REMARK SMILES IDX 12 17 8 18 10 19 9 20 11 21 18 22 19 23 20 24 21 26 22 27
REMARK SMILES IDX 23 28 84 29 24 30 83 31 25 32 26 33 27 34 77 35 28 36 82 37
REMARK SMILES IDX 76 38 78 39 29 40 81 41 75 42 74 43 30 45 62 46 42 47 61 48
REMARK SMILES IDX 43 49 46 50 60 51 79 52 44 53 45 54 59 56 80 57 47 58 31 59
REMARK SMILES IDX 32 60 40 61 33 62 35 63 41 64 34 65 36 66 37 67 38 68 39 69
REMARK SMILES IDX 63 70 64 71 72 72 65 73 67 74 73 75 66 76 68 77 69 78 70 79
REMARK SMILES IDX 71 80 48 81 49 82 57 83 50 84 52 85 58 86 51 87 53 88 54 89
REMARK SMILES IDX 55 90 56 91
REMARK H PARENT 15 6 1 9 1 10 1 11 19 25 78 44 46 55
REMARK Flexibility Score: inf
ROOT
ATOM      1  C   UNL A   1      33.939  35.352  28.530  1.00  0.00     0.042 C 
ENDROOT
BRANCH   1   2
ATOM      2  C   UNL A   1      33.322  35.371  29.909  1.00  0.00     0.118 C 
BRANCH   2   3
ATOM      3  N   UNL A   1      32.926  36.660  30.420  1.00  0.00    -0.351 N 
ATOM      4  C   UNL A   1      32.943  37.108  31.710  1.00  0.00     0.279 C 
ATOM      5  O   UNL A   1      32.904  38.332  31.882  1.00  0.00    -0.268 OA
ATOM      6  H   UNL A   1      32.602  37.303  29.748  1.00  0.00     0.163 HD
BRANCH   4   7
ATOM      7  C   UNL A   1      32.980  36.151  32.926  1.00  0.00     0.283 C 
BRANCH   7   8
ATOM      8  N   UNL A   1      31.920  35.125  32.841  1.00  0.00    -0.347 N 
ATOM      9  H   UNL A   1      32.145  34.351  33.466  1.00  0.00     0.345 HD
ATOM     10  H   UNL A   1      31.856  34.782  31.883  1.00  0.00     0.345 HD
ATOM     11  H   UNL A   1      31.027  35.536  33.116  1.00  0.00     0.345 HD
ENDBRANCH   7   8
BRANCH   7  12
ATOM     12  C   UNL A   1      34.348  35.732  33.486  1.00  0.00     0.185 C 
BRANCH  12  13
ATOM     13  S   UNL A   1      34.904  34.022  33.400  1.00  0.00     0.060 S 
ATOM     14  O   UNL A   1      34.016  33.293  32.437  1.00  0.00    -0.254 OA
BRANCH  13  15
ATOM     15  C   UNL A   1      36.523  34.060  32.586  1.00  0.00     0.042 A 
ATOM     16  C   UNL A   1      36.725  33.940  31.207  1.00  0.00     0.018 A 
ATOM     17  C   UNL A   1      37.630  34.346  33.402  1.00  0.00     0.057 A 
ATOM     18  C   UNL A   1      37.982  34.201  30.647  1.00  0.00     0.004 A 
ATOM     19  C   UNL A   1      38.879  34.579  32.837  1.00  0.00     0.124 A 
ATOM     20  C   UNL A   1      39.061  34.532  31.462  1.00  0.00     0.039 A 
ATOM     21  F   UNL A   1      39.913  34.884  33.632  1.00  0.00    -0.207 F 
ENDBRANCH  13  15
ENDBRANCH  12  13
ENDBRANCH   7  12
ENDBRANCH   4   7
ENDBRANCH   2   3
ENDBRANCH   1   2
BRANCH   1  22
ATOM     22  C   UNL A   1      34.689  34.080  28.191  1.00  0.00     0.118 C 
BRANCH  22  23
ATOM     23  N   UNL A   1      33.833  33.015  27.683  1.00  0.00    -0.352 N 
ATOM     24  C   UNL A   1      34.041  31.661  27.531  1.00  0.00     0.251 C 
ATOM     25  H   UNL A   1      32.942  33.320  27.394  1.00  0.00     0.163 HD
ATOM     26  O   UNL A   1      33.196  30.995  26.947  1.00  0.00    -0.269 OA
BRANCH  24  27
ATOM     27  C   UNL A   1      35.276  31.015  28.035  1.00  0.00     0.039 A 
ATOM     28  C   UNL A   1      36.477  31.733  28.011  1.00  0.00     0.014 A 
ATOM     29  C   UNL A   1      35.270  29.708  28.514  1.00  0.00     0.014 A 
ATOM     30  C   UNL A   1      37.637  31.170  28.553  1.00  0.00     0.010 A 
ATOM     31  C   UNL A   1      36.385  29.200  29.167  1.00  0.00     0.010 A 
ATOM     32  C   UNL A   1      37.589  29.917  29.185  1.00  0.00    -0.014 A 
BRANCH  32  33
ATOM     33  C   UNL A   1      38.771  29.325  29.866  1.00  0.00     0.031 A 
ATOM     34  C   UNL A   1      39.195  29.829  31.221  1.00  0.00     0.074 A 
ATOM     35  C   UNL A   1      39.531  28.416  29.220  1.00  0.00     0.049 A 
ATOM     36  N   UNL A   1      40.264  29.533  31.914  1.00  0.00    -0.248 NA
ATOM     37  C   UNL A   1      38.329  30.833  31.865  1.00  0.00     0.031 C 
ATOM     38  C   UNL A   1      39.281  27.910  27.867  1.00  0.00     0.029 A 
ATOM     39  N   UNL A   1      40.684  27.776  29.602  1.00  0.00    -0.354 N 
ATOM     40  C   UNL A   1      40.224  30.347  33.040  1.00  0.00     0.074 A 
ATOM     41  C   UNL A   1      39.049  31.179  32.921  1.00  0.00     0.031 C 
ATOM     42  C   UNL A   1      40.237  27.027  27.543  1.00  0.00     0.029 A 
ATOM     43  C   UNL A   1      41.190  26.928  28.644  1.00  0.00     0.049 A 
ATOM     44  H   UNL A   1      41.108  27.910  30.480  1.00  0.00     0.167 HD
ATOM     45  C   UNL A   1      41.065  30.371  34.100  1.00  0.00     0.034 A 
ATOM     46  C   UNL A   1      42.298  26.159  28.647  1.00  0.00     0.034 A 
ATOM     47  C   UNL A   1      42.181  29.479  34.257  1.00  0.00     0.049 A 
ATOM     48  C   UNL A   1      43.171  26.142  29.871  1.00  0.00     0.074 A 
ATOM     49  C   UNL A   1      43.028  29.350  35.344  1.00  0.00     0.029 A 
ATOM     50  N   UNL A   1      42.596  28.557  33.310  1.00  0.00    -0.354 N 
ATOM     51  N   UNL A   1      43.035  26.816  30.988  1.00  0.00    -0.248 NA
ATOM     52  C   UNL A   1      44.331  25.239  29.854  1.00  0.00     0.031 C 
ATOM     53  C   UNL A   1      43.963  28.354  35.049  1.00  0.00     0.029 A 
ATOM     54  C   UNL A   1      43.687  27.853  33.786  1.00  0.00     0.049 A 
ATOM     55  H   UNL A   1      42.176  28.422  32.430  1.00  0.00     0.167 HD
ATOM     56  C   UNL A   1      44.070  26.397  31.816  1.00  0.00     0.074 A 
ATOM     57  C   UNL A   1      44.816  25.398  31.080  1.00  0.00     0.031 C 
ATOM     58  C   UNL A   1      44.384  26.818  33.066  1.00  0.00     0.034 A 
BRANCH  45  59
ATOM     59  C   UNL A   1      40.768  31.334  35.219  1.00  0.00     0.023 A 
ATOM     60  C   UNL A   1      41.635  32.424  35.440  1.00  0.00     0.012 A 
ATOM     61  C   UNL A   1      39.597  31.213  35.993  1.00  0.00     0.148 A 
ATOM     62  C   UNL A   1      41.357  33.364  36.431  1.00  0.00     0.002 A 
ATOM     63  C   UNL A   1      39.303  32.179  36.949  1.00  0.00     0.091 A 
ATOM     64  F   UNL A   1      38.796  30.159  35.782  1.00  0.00    -0.205 F 
ATOM     65  C   UNL A   1      40.185  33.249  37.176  1.00  0.00     0.022 A 
BRANCH  63  66
ATOM     66  S   UNL A   1      37.781  32.171  37.902  1.00  0.00     0.127 S 
ATOM     67  O   UNL A   1      38.202  32.833  39.136  1.00  0.00    -0.237 OA
ATOM     68  O   UNL A   1      36.885  32.963  37.060  1.00  0.00    -0.237 OA
ATOM     69  O   UNL A   1      37.403  30.772  38.044  1.00  0.00    -0.744 OA
ENDBRANCH  63  66
ENDBRANCH  45  59
BRANCH  46  70
ATOM     70  C   UNL A   1      42.578  25.272  27.482  1.00  0.00     0.023 A 
ATOM     71  C   UNL A   1      43.440  25.728  26.466  1.00  0.00     0.012 A 
ATOM     72  C   UNL A   1      42.065  23.962  27.410  1.00  0.00     0.148 A 
ATOM     73  C   UNL A   1      43.773  24.904  25.391  1.00  0.00     0.002 A 
ATOM     74  C   UNL A   1      42.446  23.126  26.365  1.00  0.00     0.091 A 
ATOM     75  F   UNL A   1      41.236  23.550  28.380  1.00  0.00    -0.205 F 
ATOM     76  C   UNL A   1      43.288  23.600  25.347  1.00  0.00     0.022 A 
BRANCH  74  77
ATOM     77  S   UNL A   1      41.988  21.389  26.305  1.00  0.00     0.127 S 
ATOM     78  O   UNL A   1      40.575  21.463  25.947  1.00  0.00    -0.237 OA
ATOM     79  O   UNL A   1      42.866  20.879  25.252  1.00  0.00    -0.237 OA
ATOM     80  O   UNL A   1      42.278  20.860  27.632  1.00  0.00    -0.744 OA
ENDBRANCH  74  77
ENDBRANCH  46  70
BRANCH  58  81
ATOM     81  C   UNL A   1      45.573  26.196  33.747  1.00  0.00     0.023 A 
ATOM     82  C   UNL A   1      46.827  26.830  33.668  1.00  0.00     0.012 A 
ATOM     83  C   UNL A   1      45.418  25.065  34.573  1.00  0.00     0.148 A 
ATOM     84  C   UNL A   1      47.915  26.340  34.390  1.00  0.00     0.002 A 
ATOM     85  C   UNL A   1      46.493  24.610  35.326  1.00  0.00     0.091 A 
ATOM     86  F   UNL A   1      44.217  24.468  34.621  1.00  0.00    -0.205 F 
ATOM     87  C   UNL A   1      47.745  25.241  35.229  1.00  0.00     0.022 A 
BRANCH  85  88
ATOM     88  S   UNL A   1      46.342  23.268  36.511  1.00  0.00     0.127 S 
ATOM     89  O   UNL A   1      45.295  23.770  37.397  1.00  0.00    -0.237 OA
ATOM     90  O   UNL A   1      45.939  22.147  35.663  1.00  0.00    -0.237 OA
ATOM     91  O   UNL A   1      47.658  23.122  37.121  1.00  0.00    -0.744 OA
ENDBRANCH  85  88
ENDBRANCH  58  81
ENDBRANCH  32  33
ENDBRANCH  24  27
ENDBRANCH  22  23
ENDBRANCH   1  22
TORSDOF 17
ENDMDL
MODEL 2
REMARK VINA RESULT:     -11.0      2.510      2.869
REMARK SMILES [NH3+][C@@H](C[S@@](=O)c1cccc(F)c1)C(=O)NCCCNC(=O)c1ccc(-c2c3nc(c(-c4cccc(S(=O)(=O)[O-])c4F)c4ccc([nH]4)c(-c4cccc(S(=O)(=O)[O-])c4F)c4nc(c(-c5cccc(S(=O)(=O)[O-])c5F)c5ccc2[nH]5)C=C4)C=C3)cc1
REMARK SMILES IDX 17 1 16 2 15 3 13 4 14 5 2 7 1 8 3 12 4 13 5 14 6 15 7 16
REMARK SMILES IDX 12 17 8 18 10 19 9 20 11 21 18 22 19 23 20 24 21 26 22 27
REMARK SMILES IDX 23 28 84 29 24 30 83 31 25 32 26 33 27 34 77 35 28 36 82 37
REMARK SMILES IDX 76 38 78 39 29 40 81 41 75 42 74 43 30 45 62 46 42 47 61 48
REMARK SMILES IDX 43 49 46 50 60 51 79 52 44 53 45 54 59 56 80 57 47 58 31 59
REMARK SMILES IDX 32 60 40 61 33 62 35 63 41 64 34 65 36 66 37 67 38 68 39 69
REMARK SMILES IDX 63 70 64 71 72 72 65 73 67 74 73 75 66 76 68 77 69 78 70 79
REMARK SMILES IDX 71 80 48 81 49 82 57 83 50 84 52 85 58 86 51 87 53 88 54 89
REMARK SMILES IDX 55 90 56 91
REMARK H PARENT 15 6 1 9 1 10 1 11 19 25 78 44 46 55
REMARK Flexibility Score: inf
ROOT
ATOM      1  C   UNL A   1      33.265  33.938  28.386  1.00  0.00     0.042 C 
ENDROOT
BRANCH   1   2
ATOM      2  C   UNL A   1      33.625  34.951  29.448  1.00  0.00     0.118 C 
BRANCH   2   3
ATOM      3  N   UNL A   1      32.608  35.246  30.427  1.00  0.00    -0.351 N 
ATOM      4  C   UNL A   1      32.739  35.889  31.625  1.00  0.00     0.279 C 
ATOM      5  O   UNL A   1      31.709  36.344  32.135  1.00  0.00    -0.268 OA
ATOM      6  H   UNL A   1      31.699  34.945  30.201  1.00  0.00     0.163 HD
BRANCH   4   7
ATOM      7  C   UNL A   1      34.098  36.032  32.352  1.00  0.00     0.283 C 
BRANCH   7   8
ATOM      8  N   UNL A   1      34.417  37.448  32.630  1.00  0.00    -0.347 N 
ATOM      9  H   UNL A   1      34.013  37.718  33.527  1.00  0.00     0.345 HD
ATOM     10  H   UNL A   1      34.030  38.034  31.892  1.00  0.00     0.345 HD
ATOM     11  H   UNL A   1      35.430  37.567  32.663  1.00  0.00     0.345 HD
ENDBRANCH   7   8
BRANCH   7  12
ATOM     12  C   UNL A   1      34.477  34.984  33.411  1.00  0.00     0.185 C 
BRANCH  12  13
ATOM     13  S   UNL A   1      35.225  33.415  32.941  1.00  0.00     0.060 S 
ATOM     14  O   UNL A   1      34.297  32.725  31.987  1.00  0.00    -0.254 OA
BRANCH  13  15
ATOM     15  C   UNL A   1      36.677  33.831  31.940  1.00  0.00     0.042 A 
ATOM     16  C   UNL A   1      37.820  34.478  32.423  1.00  0.00     0.018 A 
ATOM     17  C   UNL A   1      36.685  33.358  30.618  1.00  0.00     0.057 A 
ATOM     18  C   UNL A   1      38.977  34.560  31.637  1.00  0.00     0.004 A 
ATOM     19  C   UNL A   1      37.831  33.467  29.837  1.00  0.00     0.124 A 
ATOM     20  C   UNL A   1      38.987  34.043  30.344  1.00  0.00     0.039 A 
ATOM     21  F   UNL A   1      37.826  32.977  28.591  1.00  0.00    -0.207 F 
ENDBRANCH  13  15
ENDBRANCH  12  13
ENDBRANCH   7  12
ENDBRANCH   4   7
ENDBRANCH   2   3
ENDBRANCH   1   2
BRANCH   1  22
ATOM     22  C   UNL A   1      34.312  32.867  28.155  1.00  0.00     0.118 C 
BRANCH  22  23
ATOM     23  N   UNL A   1      33.768  31.623  27.624  1.00  0.00    -0.352 N 
ATOM     24  C   UNL A   1      34.313  30.364  27.489  1.00  0.00     0.251 C 
ATOM     25  H   UNL A   1      32.840  31.695  27.302  1.00  0.00     0.163 HD
ATOM     26  O   UNL A   1      33.683  29.509  26.880  1.00  0.00    -0.269 OA
BRANCH  24  27
ATOM     27  C   UNL A   1      35.652  30.047  28.039  1.00  0.00     0.039 A 
ATOM     28  C   UNL A   1      35.762  29.660  29.379  1.00  0.00     0.014 A 
ATOM     29  C   UNL A   1      36.801  30.141  27.257  1.00  0.00     0.014 A 
ATOM     30  C   UNL A   1      37.006  29.282  29.895  1.00  0.00     0.010 A 
ATOM     31  C   UNL A   1      38.008  29.643  27.730  1.00  0.00     0.010 A 
ATOM     32  C   UNL A   1      38.132  29.218  29.060  1.00  0.00    -0.014 A 
BRANCH  32  33
ATOM     33  C   UNL A   1      39.450  28.723  29.538  1.00  0.00     0.031 A 
ATOM     34  C   UNL A   1      40.173  29.446  30.645  1.00  0.00     0.074 A 
ATOM     35  C   UNL A   1      40.050  27.695  28.903  1.00  0.00     0.049 A 
ATOM     36  N   UNL A   1      41.380  29.247  31.110  1.00  0.00    -0.248 NA
ATOM     37  C   UNL A   1      39.467  30.570  31.287  1.00  0.00     0.031 C 
ATOM     38  C   UNL A   1      39.497  26.967  27.758  1.00  0.00     0.029 A 
ATOM     39  N   UNL A   1      41.271  27.102  29.112  1.00  0.00    -0.354 N 
ATOM     40  C   UNL A   1      41.593  30.246  32.051  1.00  0.00     0.074 A 
ATOM     41  C   UNL A   1      40.411  31.076  32.066  1.00  0.00     0.031 C 
ATOM     42  C   UNL A   1      40.363  26.015  27.380  1.00  0.00     0.029 A 
ATOM     43  C   UNL A   1      41.551  26.086  28.226  1.00  0.00     0.049 A 
ATOM     44  H   UNL A   1      41.888  27.377  29.828  1.00  0.00     0.167 HD
ATOM     45  C   UNL A   1      42.660  30.434  32.863  1.00  0.00     0.034 A 
ATOM     46  C   UNL A   1      42.639  25.300  28.105  1.00  0.00     0.034 A 
ATOM     47  C   UNL A   1      43.795  29.555  32.910  1.00  0.00     0.049 A 
ATOM     48  C   UNL A   1      43.777  25.475  29.074  1.00  0.00     0.074 A 
ATOM     49  C   UNL A   1      44.876  29.595  33.772  1.00  0.00     0.029 A 
ATOM     50  N   UNL A   1      43.990  28.469  32.070  1.00  0.00    -0.354 N 
ATOM     51  N   UNL A   1      43.897  26.338  30.054  1.00  0.00    -0.248 NA
ATOM     52  C   UNL A   1      44.915  24.552  28.945  1.00  0.00     0.031 C 
ATOM     53  C   UNL A   1      45.731  28.538  33.447  1.00  0.00     0.029 A 
ATOM     54  C   UNL A   1      45.174  27.832  32.393  1.00  0.00     0.049 A 
ATOM     55  H   UNL A   1      43.377  28.194  31.351  1.00  0.00     0.167 HD
ATOM     56  C   UNL A   1      45.105  26.043  30.677  1.00  0.00     0.074 A 
ATOM     57  C   UNL A   1      45.672  24.910  29.975  1.00  0.00     0.031 C 
ATOM     58  C   UNL A   1      45.697  26.668  31.724  1.00  0.00     0.034 A 
BRANCH  45  59
ATOM     59  C   UNL A   1      42.619  31.586  33.833  1.00  0.00     0.023 A 
ATOM     60  C   UNL A   1      43.056  32.858  33.411  1.00  0.00     0.012 A 
ATOM     61  C   UNL A   1      42.076  31.434  35.123  1.00  0.00     0.148 A 
ATOM     62  C   UNL A   1      42.978  33.957  34.266  1.00  0.00     0.002 A 
ATOM     63  C   UNL A   1      41.960  32.542  35.954  1.00  0.00     0.091 A 
ATOM     64  F   UNL A   1      41.686  30.212  35.514  1.00  0.00    -0.205 F 
ATOM     65  C   UNL A   1      42.419  33.801  35.532  1.00  0.00     0.022 A 
BRANCH  63  66
ATOM     66  S   UNL A   1      41.178  32.467  37.570  1.00  0.00     0.127 S 
ATOM     67  O   UNL A   1      41.193  33.874  37.970  1.00  0.00    -0.237 OA
ATOM     68  O   UNL A   1      39.853  31.939  37.246  1.00  0.00    -0.237 OA
ATOM     69  O   UNL A   1      42.005  31.582  38.377  1.00  0.00    -0.744 OA
ENDBRANCH  63  66
ENDBRANCH  45  59
BRANCH  46  70
ATOM     70  C   UNL A   1      42.652  24.216  27.083  1.00  0.00     0.023 A 
ATOM     71  C   UNL A   1      43.380  24.406  25.892  1.00  0.00     0.012 A 
ATOM     72  C   UNL A   1      42.019  22.977  27.310  1.00  0.00     0.148 A 
ATOM     73  C   UNL A   1      43.463  23.390  24.939  1.00  0.00     0.002 A 
ATOM     74  C   UNL A   1      42.154  21.950  26.381  1.00  0.00     0.091 A 
ATOM     75  F   UNL A   1      41.321  22.820  28.443  1.00  0.00    -0.205 F 
ATOM     76  C   UNL A   1      42.862  22.159  25.189  1.00  0.00     0.022 A 
BRANCH  74  77
ATOM     77  S   UNL A   1      41.539  20.290  26.687  1.00  0.00     0.127 S 
ATOM     78  O   UNL A   1      41.915  19.599  25.457  1.00  0.00    -0.237 OA
ATOM     79  O   UNL A   1      42.299  19.897  27.873  1.00  0.00    -0.237 OA
ATOM     80  O   UNL A   1      40.106  20.436  26.918  1.00  0.00    -0.744 OA
ENDBRANCH  74  77
ENDBRANCH  46  70
BRANCH  58  81
ATOM     81  C   UNL A   1      47.023  26.144  32.206  1.00  0.00     0.023 A 
ATOM     82  C   UNL A   1      47.062  25.254  33.296  1.00  0.00     0.012 A 
ATOM     83  C   UNL A   1      48.207  26.424  31.496  1.00  0.00     0.148 A 
ATOM     84  C   UNL A   1      48.262  24.660  33.683  1.00  0.00     0.002 A 
ATOM     85  C   UNL A   1      49.391  25.793  31.857  1.00  0.00     0.091 A 
ATOM     86  F   UNL A   1      48.149  27.287  30.471  1.00  0.00    -0.205 F 
ATOM     87  C   UNL A   1      49.422  24.917  32.955  1.00  0.00     0.022 A 
BRANCH  85  88
ATOM     88  S   UNL A   1      50.911  25.981  30.916  1.00  0.00     0.127 S 
ATOM     89  O   UNL A   1      51.848  25.182  31.702  1.00  0.00    -0.237 OA
ATOM     90  O   UNL A   1      50.549  25.403  29.623  1.00  0.00    -0.237 OA
ATOM     91  O   UNL A   1      51.187  27.412  30.882  1.00  0.00    -0.744 OA
ENDBRANCH  85  88
ENDBRANCH  58  81
ENDBRANCH  32  33
ENDBRANCH  24  27
ENDBRANCH  22  23
ENDBRANCH   1  22
TORSDOF 17
ENDMDL
MODEL 3
REMARK VINA RESULT:     -10.9      5.326     13.010
REMARK SMILES [NH3+][C@@H](C[S@@](=O)c1cccc(F)c1)C(=O)NCCCNC(=O)c1ccc(-c2c3nc(c(-c4cccc(S(=O)(=O)[O-])c4F)c4ccc([nH]4)c(-c4cccc(S(=O)(=O)[O-])c4F)c4nc(c(-c5cccc(S(=O)(=O)[O-])c5F)c5ccc2[nH]5)C=C4)C=C3)cc1
REMARK SMILES IDX 17 1 16 2 15 3 13 4 14 5 2 7 1 8 3 12 4 13 5 14 6 15 7 16
REMARK SMILES IDX 12 17 8 18 10 19 9 20 11 21 18 22 19 23 20 24 21 26 22 27
REMARK SMILES IDX 23 28 84 29 24 30 83 31 25 32 26 33 27 34 77 35 28 36 82 37
REMARK SMILES IDX 76 38 78 39 29 40 81 41 75 42 74 43 30 45 62 46 42 47 61 48
REMARK SMILES IDX 43 49 46 50 60 51 79 52 44 53 45 54 59 56 80 57 47 58 31 59
REMARK SMILES IDX 32 60 40 61 33 62 35 63 41 64 34 65 36 66 37 67 38 68 39 69
REMARK SMILES IDX 63 70 64 71 72 72 65 73 67 74 73 75 66 76 68 77 69 78 70 79
REMARK SMILES IDX 71 80 48 81 49 82 57 83 50 84 52 85 58 86 51 87 53 88 54 89
REMARK SMILES IDX 55 90 56 91
REMARK H PARENT 15 6 1 9 1 10 1 11 19 25 78 44 46 55
REMARK Flexibility Score: inf
ROOT
ATOM      1  C   UNL A   1      41.538  19.196  26.297  1.00  0.00     0.042 C 
ENDROOT
BRANCH   1   2
ATOM      2  C   UNL A   1      43.040  19.128  26.139  1.00  0.00     0.118 C 
BRANCH   2   3
ATOM      3  N   UNL A   1      43.538  18.975  24.794  1.00  0.00    -0.351 N 
ATOM      4  C   UNL A   1      44.826  19.059  24.347  1.00  0.00     0.279 C 
ATOM      5  O   UNL A   1      45.074  18.554  23.247  1.00  0.00    -0.268 OA
ATOM      6  H   UNL A   1      42.859  18.784  24.107  1.00  0.00     0.163 HD
BRANCH   4   7
ATOM      7  C   UNL A   1      45.942  19.774  25.147  1.00  0.00     0.283 C 
BRANCH   7   8
ATOM      8  N   UNL A   1      46.797  18.807  25.867  1.00  0.00    -0.347 N 
ATOM      9  H   UNL A   1      46.487  17.857  25.657  1.00  0.00     0.345 HD
ATOM     10  H   UNL A   1      46.728  18.973  26.870  1.00  0.00     0.345 HD
ATOM     11  H   UNL A   1      47.766  18.922  25.568  1.00  0.00     0.345 HD
ENDBRANCH   7   8
BRANCH   7  12
ATOM     12  C   UNL A   1      46.613  21.009  24.525  1.00  0.00     0.185 C 
BRANCH  12  13
ATOM     13  S   UNL A   1      45.730  22.570  24.373  1.00  0.00     0.060 S 
ATOM     14  O   UNL A   1      44.427  22.300  23.682  1.00  0.00    -0.254 OA
BRANCH  13  15
ATOM     15  C   UNL A   1      45.260  23.048  26.056  1.00  0.00     0.042 A 
ATOM     16  C   UNL A   1      44.076  22.664  26.693  1.00  0.00     0.018 A 
ATOM     17  C   UNL A   1      46.219  23.758  26.798  1.00  0.00     0.057 A 
ATOM     18  C   UNL A   1      43.897  22.894  28.064  1.00  0.00     0.004 A 
ATOM     19  C   UNL A   1      46.021  24.003  28.152  1.00  0.00     0.124 A 
ATOM     20  C   UNL A   1      44.877  23.556  28.799  1.00  0.00     0.039 A 
ATOM     21  F   UNL A   1      46.964  24.651  28.847  1.00  0.00    -0.207 F 
ENDBRANCH  13  15
ENDBRANCH  12  13
ENDBRANCH   7  12
ENDBRANCH   4   7
ENDBRANCH   2   3
ENDBRANCH   1   2
BRANCH   1  22
ATOM     22  C   UNL A   1      40.992  20.588  26.545  1.00  0.00     0.118 C 
BRANCH  22  23
ATOM     23  N   UNL A   1      39.623  20.770  26.076  1.00  0.00    -0.352 N 
ATOM     24  C   UNL A   1      38.766  21.847  26.138  1.00  0.00     0.251 C 
ATOM     25  H   UNL A   1      39.241  19.977  25.635  1.00  0.00     0.163 HD
ATOM     26  O   UNL A   1      37.603  21.699  25.783  1.00  0.00    -0.269 OA
BRANCH  24  27
ATOM     27  C   UNL A   1      39.222  23.160  26.652  1.00  0.00     0.039 A 
ATOM     28  C   UNL A   1      40.177  23.197  27.674  1.00  0.00     0.014 A 
ATOM     29  C   UNL A   1      38.710  24.355  26.151  1.00  0.00     0.014 A 
ATOM     30  C   UNL A   1      40.677  24.425  28.118  1.00  0.00     0.010 A 
ATOM     31  C   UNL A   1      39.298  25.564  26.498  1.00  0.00     0.010 A 
ATOM     32  C   UNL A   1      40.281  25.619  27.497  1.00  0.00    -0.014 A 
BRANCH  32  33
ATOM     33  C   UNL A   1      40.862  26.938  27.864  1.00  0.00     0.031 A 
ATOM     34  C   UNL A   1      42.313  27.229  27.581  1.00  0.00     0.074 A 
ATOM     35  C   UNL A   1      40.120  27.829  28.553  1.00  0.00     0.049 A 
ATOM     36  N   UNL A   1      43.032  28.262  27.939  1.00  0.00    -0.248 NA
ATOM     37  C   UNL A   1      43.072  26.207  26.837  1.00  0.00     0.031 C 
ATOM     38  C   UNL A   1      38.729  27.631  28.969  1.00  0.00     0.029 A 
ATOM     39  N   UNL A   1      40.440  29.068  29.051  1.00  0.00    -0.354 N 
ATOM     40  C   UNL A   1      44.327  27.989  27.514  1.00  0.00     0.074 A 
ATOM     41  C   UNL A   1      44.308  26.678  26.907  1.00  0.00     0.031 C 
ATOM     42  C   UNL A   1      38.310  28.716  29.639  1.00  0.00     0.029 A 
ATOM     43  C   UNL A   1      39.410  29.671  29.736  1.00  0.00     0.049 A 
ATOM     44  H   UNL A   1      41.323  29.486  28.929  1.00  0.00     0.167 HD
ATOM     45  C   UNL A   1      45.426  28.776  27.582  1.00  0.00     0.034 A 
ATOM     46  C   UNL A   1      39.354  30.858  30.373  1.00  0.00     0.034 A 
ATOM     47  C   UNL A   1      45.422  30.115  28.104  1.00  0.00     0.049 A 
ATOM     48  C   UNL A   1      40.566  31.750  30.363  1.00  0.00     0.074 A 
ATOM     49  C   UNL A   1      46.457  31.033  28.118  1.00  0.00     0.029 A 
ATOM     50  N   UNL A   1      44.328  30.732  28.690  1.00  0.00    -0.354 N 
ATOM     51  N   UNL A   1      41.743  31.532  29.827  1.00  0.00    -0.248 NA
ATOM     52  C   UNL A   1      40.437  33.062  31.014  1.00  0.00     0.031 C 
ATOM     53  C   UNL A   1      45.990  32.204  28.723  1.00  0.00     0.029 A 
ATOM     54  C   UNL A   1      44.661  32.019  29.069  1.00  0.00     0.049 A 
ATOM     55  H   UNL A   1      43.445  30.316  28.817  1.00  0.00     0.167 HD
ATOM     56  C   UNL A   1      42.484  32.687  30.048  1.00  0.00     0.074 A 
ATOM     57  C   UNL A   1      41.617  33.611  30.751  1.00  0.00     0.031 C 
ATOM     58  C   UNL A   1      43.771  32.949  29.715  1.00  0.00     0.034 A 
BRANCH  45  59
ATOM     59  C   UNL A   1      46.713  28.248  27.003  1.00  0.00     0.023 A 
ATOM     60  C   UNL A   1      47.688  27.711  27.867  1.00  0.00     0.012 A 
ATOM     61  C   UNL A   1      46.922  28.206  25.611  1.00  0.00     0.148 A 
ATOM     62  C   UNL A   1      48.865  27.163  27.358  1.00  0.00     0.002 A 
ATOM     63  C   UNL A   1      48.077  27.617  25.108  1.00  0.00     0.091 A 
ATOM     64  F   UNL A   1      45.992  28.741  24.807  1.00  0.00    -0.205 F 
ATOM     65  C   UNL A   1      49.053  27.105  25.979  1.00  0.00     0.022 A 
BRANCH  63  66
ATOM     66  S   UNL A   1      48.378  27.416  23.349  1.00  0.00     0.127 S 
ATOM     67  O   UNL A   1      47.274  28.181  22.771  1.00  0.00    -0.237 OA
ATOM     68  O   UNL A   1      49.695  28.031  23.189  1.00  0.00    -0.237 OA
ATOM     69  O   UNL A   1      48.341  25.982  23.096  1.00  0.00    -0.744 OA
ENDBRANCH  63  66
ENDBRANCH  45  59
BRANCH  46  70
ATOM     70  C   UNL A   1      38.070  31.302  30.986  1.00  0.00     0.023 A 
ATOM     71  C   UNL A   1      37.873  31.122  32.369  1.00  0.00     0.012 A 
ATOM     72  C   UNL A   1      37.082  31.967  30.234  1.00  0.00     0.148 A 
ATOM     73  C   UNL A   1      36.710  31.578  32.988  1.00  0.00     0.002 A 
ATOM     74  C   UNL A   1      35.950  32.470  30.867  1.00  0.00     0.091 A 
ATOM     75  F   UNL A   1      37.281  32.119  28.917  1.00  0.00    -0.205 F 
ATOM     76  C   UNL A   1      35.755  32.264  32.242  1.00  0.00     0.022 A 
BRANCH  74  77
ATOM     77  S   UNL A   1      34.741  33.490  30.014  1.00  0.00     0.127 S 
ATOM     78  O   UNL A   1      34.119  32.527  29.111  1.00  0.00    -0.237 OA
ATOM     79  O   UNL A   1      33.891  33.941  31.116  1.00  0.00    -0.237 OA
ATOM     80  O   UNL A   1      35.506  34.555  29.376  1.00  0.00    -0.744 OA
ENDBRANCH  74  77
ENDBRANCH  46  70
BRANCH  58  81
ATOM     81  C   UNL A   1      44.339  34.295  30.079  1.00  0.00     0.023 A 
ATOM     82  C   UNL A   1      45.063  34.441  31.277  1.00  0.00     0.012 A 
ATOM     83  C   UNL A   1      44.272  35.372  29.173  1.00  0.00     0.148 A 
ATOM     84  C   UNL A   1      45.701  35.643  31.578  1.00  0.00     0.002 A 
ATOM     85  C   UNL A   1      44.948  36.552  29.457  1.00  0.00     0.091 A 
ATOM     86  F   UNL A   1      43.563  35.216  28.045  1.00  0.00    -0.205 F 
ATOM     87  C   UNL A   1      45.657  36.692  30.662  1.00  0.00     0.022 A 
BRANCH  85  88
ATOM     88  S   UNL A   1      45.035  37.918  28.292  1.00  0.00     0.127 S 
ATOM     89  O   UNL A   1      43.621  38.224  28.086  1.00  0.00    -0.237 OA
ATOM     90  O   UNL A   1      45.774  38.927  29.051  1.00  0.00    -0.237 OA
ATOM     91  O   UNL A   1      45.739  37.405  27.124  1.00  0.00    -0.744 OA
ENDBRANCH  85  88
ENDBRANCH  58  81
ENDBRANCH  32  33
ENDBRANCH  24  27
ENDBRANCH  22  23
ENDBRANCH   1  22
TORSDOF 17
ENDMDL
