MODEL 1
REMARK VINA RESULT:     -11.5      0.000      0.000
REMARK SMILES O=C(NCCCNC(=O)c1cc(-c2ccn(C(F)F)c(=O)c2)ccc1O)c1ccc(-c2c3nc(c(-c4cccc(S(=O)(=O)[O-])c4F)c4ccc([nH]4)c(-c4cccc(S(=O)(=O)[O-])c4F)c4nc(c(-c5cccc(S(=O)(=O)[O-])c5F)c5ccc2[nH]5)C=C4)C=C3)cc1
REMARK SMILES IDX 4 1 3 2 1 3 2 4 27 6 28 7 89 8 29 9 88 10 30 11 31 12 32 13
REMARK SMILES IDX 82 14 33 15 87 16 81 17 83 18 34 19 86 20 80 21 79 22 35 24
REMARK SMILES IDX 67 25 47 26 66 27 48 28 51 29 65 30 84 31 49 32 50 33 64 35
REMARK SMILES IDX 85 36 52 37 36 38 37 39 45 40 38 41 40 42 46 43 39 44 41 45
REMARK SMILES IDX 42 46 43 47 44 48 68 49 69 50 77 51 70 52 72 53 78 54 71 55
REMARK SMILES IDX 73 56 74 57 75 58 76 59 53 60 54 61 62 62 55 63 57 64 63 65
REMARK SMILES IDX 56 66 58 67 59 68 60 69 61 70 5 71 6 72 7 73 8 74 9 76 10 77
REMARK SMILES IDX 11 78 25 79 12 80 24 81 23 82 26 83 13 85 14 86 22 87 15 88
REMARK SMILES IDX 20 89 16 90 21 91 17 92 18 93 19 94
REMARK H PARENT 3 5 83 23 51 34 7 75 26 84
REMARK Flexibility Score: inf
ROOT
ATOM      1  C   UNL A   1      34.654  34.271  28.776  1.00  0.00     0.118 C 
ENDROOT
BRANCH   1   2
ATOM      2  N   UNL A   1      33.839  33.254  28.128  1.00  0.00    -0.352 N 
ATOM      3  O   UNL A   1      33.374  31.348  27.039  1.00  0.00    -0.269 OA
ATOM      4  C   UNL A   1      34.145  31.966  27.769  1.00  0.00     0.251 C 
ATOM      5  H   UNL A   1      32.920  33.536  27.913  1.00  0.00     0.163 HD
BRANCH   4   6
ATOM      6  C   UNL A   1      35.387  31.316  28.249  1.00  0.00     0.039 A 
ATOM      7  C   UNL A   1      35.316  30.014  28.753  1.00  0.00     0.014 A 
ATOM      8  C   UNL A   1      36.605  32.002  28.270  1.00  0.00     0.014 A 
ATOM      9  C   UNL A   1      36.464  29.399  29.260  1.00  0.00     0.010 A 
ATOM     10  C   UNL A   1      37.765  31.355  28.683  1.00  0.00     0.010 A 
ATOM     11  C   UNL A   1      37.699  30.063  29.223  1.00  0.00    -0.014 A 
BRANCH  11  12
ATOM     12  C   UNL A   1      38.917  29.477  29.833  1.00  0.00     0.031 A 
ATOM     13  C   UNL A   1      39.372  29.957  31.188  1.00  0.00     0.074 A 
ATOM     14  C   UNL A   1      39.635  28.550  29.171  1.00  0.00     0.049 A 
ATOM     15  N   UNL A   1      40.453  29.644  31.853  1.00  0.00    -0.248 NA
ATOM     16  C   UNL A   1      38.509  30.935  31.875  1.00  0.00     0.031 C 
ATOM     17  C   UNL A   1      39.318  28.023  27.843  1.00  0.00     0.029 A 
ATOM     18  N   UNL A   1      40.791  27.899  29.523  1.00  0.00    -0.354 N 
ATOM     19  C   UNL A   1      40.416  30.407  33.014  1.00  0.00     0.074 A 
ATOM     20  C   UNL A   1      39.229  31.227  32.949  1.00  0.00     0.031 C 
ATOM     21  C   UNL A   1      40.247  27.116  27.499  1.00  0.00     0.029 A 
ATOM     22  C   UNL A   1      41.242  27.024  28.565  1.00  0.00     0.049 A 
ATOM     23  H   UNL A   1      41.253  28.046  30.380  1.00  0.00     0.167 HD
ATOM     24  C   UNL A   1      41.270  30.398  34.062  1.00  0.00     0.034 A 
ATOM     25  C   UNL A   1      42.337  26.238  28.542  1.00  0.00     0.034 A 
ATOM     26  C   UNL A   1      42.418  29.542  34.158  1.00  0.00     0.049 A 
ATOM     27  C   UNL A   1      43.273  26.241  29.718  1.00  0.00     0.074 A 
ATOM     28  C   UNL A   1      43.317  29.428  35.202  1.00  0.00     0.029 A 
ATOM     29  N   UNL A   1      42.820  28.646  33.180  1.00  0.00    -0.354 N 
ATOM     30  N   UNL A   1      43.186  26.921  30.835  1.00  0.00    -0.248 NA
ATOM     31  C   UNL A   1      44.444  25.356  29.643  1.00  0.00     0.031 C 
ATOM     32  C   UNL A   1      44.268  28.466  34.854  1.00  0.00     0.029 A 
ATOM     33  C   UNL A   1      43.951  27.971  33.598  1.00  0.00     0.049 A 
ATOM     34  H   UNL A   1      42.366  28.511  32.317  1.00  0.00     0.167 HD
ATOM     35  C   UNL A   1      44.274  26.533  31.605  1.00  0.00     0.074 A 
ATOM     36  C   UNL A   1      45.003  25.548  30.831  1.00  0.00     0.031 C 
ATOM     37  C   UNL A   1      44.641  26.963  32.836  1.00  0.00     0.034 A 
BRANCH  24  38
ATOM     38  C   UNL A   1      40.956  31.291  35.230  1.00  0.00     0.023 A 
ATOM     39  C   UNL A   1      41.899  32.261  35.626  1.00  0.00     0.012 A 
ATOM     40  C   UNL A   1      39.710  31.225  35.883  1.00  0.00     0.148 A 
ATOM     41  C   UNL A   1      41.612  33.145  36.663  1.00  0.00     0.002 A 
ATOM     42  C   UNL A   1      39.419  32.132  36.895  1.00  0.00     0.091 A 
ATOM     43  F   UNL A   1      38.837  30.284  35.498  1.00  0.00    -0.205 F 
ATOM     44  C   UNL A   1      40.371  33.088  37.289  1.00  0.00     0.022 A 
BRANCH  42  45
ATOM     45  S   UNL A   1      37.833  32.179  37.735  1.00  0.00     0.127 S 
ATOM     46  O   UNL A   1      36.986  32.820  36.729  1.00  0.00    -0.237 OA
ATOM     47  O   UNL A   1      37.558  30.758  37.948  1.00  0.00    -0.237 OA
ATOM     48  O   UNL A   1      38.041  32.953  38.951  1.00  0.00    -0.744 OA
ENDBRANCH  42  45
ENDBRANCH  24  38
BRANCH  25  49
ATOM     49  C   UNL A   1      42.551  25.332  27.383  1.00  0.00     0.023 A 
ATOM     50  C   UNL A   1      43.329  25.780  26.299  1.00  0.00     0.012 A 
ATOM     51  C   UNL A   1      42.076  24.007  27.393  1.00  0.00     0.148 A 
ATOM     52  C   UNL A   1      43.632  24.923  25.241  1.00  0.00     0.002 A 
ATOM     53  C   UNL A   1      42.410  23.147  26.353  1.00  0.00     0.091 A 
ATOM     54  F   UNL A   1      41.342  23.607  28.441  1.00  0.00    -0.205 F 
ATOM     55  C   UNL A   1      43.183  23.605  25.273  1.00  0.00     0.022 A 
BRANCH  53  56
ATOM     56  S   UNL A   1      41.963  21.407  26.349  1.00  0.00     0.127 S 
ATOM     57  O   UNL A   1      40.547  21.464  25.996  1.00  0.00    -0.237 OA
ATOM     58  O   UNL A   1      42.839  20.880  25.302  1.00  0.00    -0.237 OA
ATOM     59  O   UNL A   1      42.251  20.918  27.689  1.00  0.00    -0.744 OA
ENDBRANCH  53  56
ENDBRANCH  25  49
BRANCH  37  60
ATOM     60  C   UNL A   1      45.878  26.373  33.456  1.00  0.00     0.023 A 
ATOM     61  C   UNL A   1      47.111  27.036  33.303  1.00  0.00     0.012 A 
ATOM     62  C   UNL A   1      45.791  25.247  34.297  1.00  0.00     0.148 A 
ATOM     63  C   UNL A   1      48.244  26.580  33.973  1.00  0.00     0.002 A 
ATOM     64  C   UNL A   1      46.917  24.818  34.988  1.00  0.00     0.091 A 
ATOM     65  F   UNL A   1      44.605  24.634  34.422  1.00  0.00    -0.205 F 
ATOM     66  C   UNL A   1      48.146  25.481  34.825  1.00  0.00     0.022 A 
BRANCH  64  67
ATOM     67  S   UNL A   1      46.876  23.458  36.161  1.00  0.00     0.127 S 
ATOM     68  O   UNL A   1      48.267  23.411  36.609  1.00  0.00    -0.237 OA
ATOM     69  O   UNL A   1      45.929  23.944  37.164  1.00  0.00    -0.237 OA
ATOM     70  O   UNL A   1      46.428  22.291  35.413  1.00  0.00    -0.744 OA
ENDBRANCH  64  67
ENDBRANCH  37  60
ENDBRANCH  11  12
ENDBRANCH   4   6
ENDBRANCH   1   2
BRANCH   1  71
ATOM     71  C   UNL A   1      34.016  35.650  28.729  1.00  0.00     0.042 C 
BRANCH  71  72
ATOM     72  C   UNL A   1      32.735  35.774  29.537  1.00  0.00     0.118 C 
BRANCH  72  73
ATOM     73  N   UNL A   1      32.755  36.890  30.468  1.00  0.00    -0.352 N 
ATOM     74  C   UNL A   1      33.294  36.951  31.729  1.00  0.00     0.255 C 
ATOM     75  H   UNL A   1      32.324  37.716  30.151  1.00  0.00     0.163 HD
ATOM     76  O   UNL A   1      33.170  37.970  32.405  1.00  0.00    -0.269 OA
BRANCH  74  77
ATOM     77  C   UNL A   1      33.966  35.773  32.317  1.00  0.00     0.082 A 
ATOM     78  C   UNL A   1      35.368  35.739  32.253  1.00  0.00     0.026 A 
ATOM     79  C   UNL A   1      33.266  34.704  32.890  1.00  0.00     0.128 A 
ATOM     80  C   UNL A   1      36.067  34.662  32.807  1.00  0.00    -0.017 A 
ATOM     81  C   UNL A   1      33.958  33.649  33.479  1.00  0.00     0.047 A 
ATOM     82  C   UNL A   1      35.352  33.635  33.442  1.00  0.00     0.012 A 
BRANCH  79  83
ATOM     83  O   UNL A   1      31.899  34.675  32.874  1.00  0.00    -0.507 OA
ATOM     84  H   UNL A   1      31.431  35.031  32.145  1.00  0.00     0.293 HD
ENDBRANCH  79  83
BRANCH  80  85
ATOM     85  C   UNL A   1      37.532  34.540  32.692  1.00  0.00    -0.011 A 
ATOM     86  C   UNL A   1      38.384  34.586  33.866  1.00  0.00     0.027 A 
ATOM     87  C   UNL A   1      38.096  34.444  31.476  1.00  0.00     0.080 A 
ATOM     88  C   UNL A   1      39.715  34.598  33.741  1.00  0.00     0.095 A 
ATOM     89  C   UNL A   1      39.580  34.439  31.324  1.00  0.00     0.255 A 
ATOM     90  N   UNL A   1      40.311  34.544  32.497  1.00  0.00    -0.258 N 
ATOM     91  O   UNL A   1      40.058  34.368  30.195  1.00  0.00    -0.269 OA
BRANCH  90  92
ATOM     92  C   UNL A   1      41.744  34.626  32.373  1.00  0.00     0.451 C 
ATOM     93  F   UNL A   1      42.340  34.803  33.577  1.00  0.00    -0.185 F 
ATOM     94  F   UNL A   1      42.248  33.500  31.812  1.00  0.00    -0.185 F 
ENDBRANCH  90  92
ENDBRANCH  80  85
ENDBRANCH  74  77
ENDBRANCH  72  73
ENDBRANCH  71  72
ENDBRANCH   1  71
TORSDOF 16
ENDMDL
MODEL 2
REMARK VINA RESULT:     -11.2      0.413      7.535
REMARK SMILES O=C(NCCCNC(=O)c1cc(-c2ccn(C(F)F)c(=O)c2)ccc1O)c1ccc(-c2c3nc(c(-c4cccc(S(=O)(=O)[O-])c4F)c4ccc([nH]4)c(-c4cccc(S(=O)(=O)[O-])c4F)c4nc(c(-c5cccc(S(=O)(=O)[O-])c5F)c5ccc2[nH]5)C=C4)C=C3)cc1
REMARK SMILES IDX 4 1 3 2 1 3 2 4 27 6 28 7 89 8 29 9 88 10 30 11 31 12 32 13
REMARK SMILES IDX 82 14 33 15 87 16 81 17 83 18 34 19 86 20 80 21 79 22 35 24
REMARK SMILES IDX 67 25 47 26 66 27 48 28 51 29 65 30 84 31 49 32 50 33 64 35
REMARK SMILES IDX 85 36 52 37 36 38 37 39 45 40 38 41 40 42 46 43 39 44 41 45
REMARK SMILES IDX 42 46 43 47 44 48 68 49 69 50 77 51 70 52 72 53 78 54 71 55
REMARK SMILES IDX 73 56 74 57 75 58 76 59 53 60 54 61 62 62 55 63 57 64 63 65
REMARK SMILES IDX 56 66 58 67 59 68 60 69 61 70 5 71 6 72 7 73 8 74 9 76 10 77
REMARK SMILES IDX 11 78 25 79 12 80 24 81 23 82 26 83 13 85 14 86 22 87 15 88
REMARK SMILES IDX 20 89 16 90 21 91 17 92 18 93 19 94
REMARK H PARENT 3 5 83 23 51 34 7 75 26 84
REMARK Flexibility Score: inf
ROOT
ATOM      1  C   UNL A   1      33.946  33.636  28.947  1.00  0.00     0.118 C 
ENDROOT
BRANCH   1   2
ATOM      2  N   UNL A   1      33.433  32.629  28.031  1.00  0.00    -0.352 N 
ATOM      3  O   UNL A   1      33.490  30.897  26.605  1.00  0.00    -0.269 OA
ATOM      4  C   UNL A   1      34.025  31.496  27.535  1.00  0.00     0.251 C 
ATOM      5  H   UNL A   1      32.513  32.786  27.716  1.00  0.00     0.163 HD
BRANCH   4   6
ATOM      6  C   UNL A   1      35.296  30.989  28.104  1.00  0.00     0.039 A 
ATOM      7  C   UNL A   1      35.314  29.719  28.689  1.00  0.00     0.014 A 
ATOM      8  C   UNL A   1      36.448  31.779  28.127  1.00  0.00     0.014 A 
ATOM      9  C   UNL A   1      36.486  29.241  29.280  1.00  0.00     0.010 A 
ATOM     10  C   UNL A   1      37.640  31.264  28.626  1.00  0.00     0.010 A 
ATOM     11  C   UNL A   1      37.661  30.008  29.248  1.00  0.00    -0.014 A 
BRANCH  11  12
ATOM     12  C   UNL A   1      38.896  29.570  29.942  1.00  0.00     0.031 A 
ATOM     13  C   UNL A   1      39.787  28.543  29.290  1.00  0.00     0.074 A 
ATOM     14  C   UNL A   1      39.204  30.053  31.160  1.00  0.00     0.049 A 
ATOM     15  N   UNL A   1      40.856  27.960  29.765  1.00  0.00    -0.248 NA
ATOM     16  C   UNL A   1      39.414  28.097  27.935  1.00  0.00     0.031 C 
ATOM     17  C   UNL A   1      38.411  31.027  31.910  1.00  0.00     0.029 A 
ATOM     18  N   UNL A   1      40.263  29.775  31.987  1.00  0.00    -0.354 N 
ATOM     19  C   UNL A   1      41.261  27.060  28.787  1.00  0.00     0.074 A 
ATOM     20  C   UNL A   1      40.305  27.143  27.707  1.00  0.00     0.031 C 
ATOM     21  C   UNL A   1      39.021  31.281  33.080  1.00  0.00     0.029 A 
ATOM     22  C   UNL A   1      40.226  30.461  33.177  1.00  0.00     0.049 A 
ATOM     23  H   UNL A   1      40.981  29.145  31.750  1.00  0.00     0.167 HD
ATOM     24  C   UNL A   1      42.354  26.264  28.766  1.00  0.00     0.034 A 
ATOM     25  C   UNL A   1      41.064  30.431  34.232  1.00  0.00     0.034 A 
ATOM     26  C   UNL A   1      43.339  26.222  29.809  1.00  0.00     0.049 A 
ATOM     27  C   UNL A   1      42.275  29.542  34.189  1.00  0.00     0.074 A 
ATOM     28  C   UNL A   1      44.505  25.481  29.856  1.00  0.00     0.029 A 
ATOM     29  N   UNL A   1      43.280  26.958  30.981  1.00  0.00    -0.354 N 
ATOM     30  N   UNL A   1      42.675  28.747  33.227  1.00  0.00    -0.248 NA
ATOM     31  C   UNL A   1      43.159  29.559  35.363  1.00  0.00     0.031 C 
ATOM     32  C   UNL A   1      45.151  25.764  31.063  1.00  0.00     0.029 A 
ATOM     33  C   UNL A   1      44.393  26.693  31.758  1.00  0.00     0.049 A 
ATOM     34  H   UNL A   1      42.554  27.577  31.224  1.00  0.00     0.167 HD
ATOM     35  C   UNL A   1      43.867  28.186  33.667  1.00  0.00     0.074 A 
ATOM     36  C   UNL A   1      44.131  28.740  34.979  1.00  0.00     0.031 C 
ATOM     37  C   UNL A   1      44.664  27.284  33.042  1.00  0.00     0.034 A 
BRANCH  24  38
ATOM     38  C   UNL A   1      42.587  25.424  27.541  1.00  0.00     0.023 A 
ATOM     39  C   UNL A   1      43.312  25.969  26.463  1.00  0.00     0.012 A 
ATOM     40  C   UNL A   1      42.161  24.083  27.486  1.00  0.00     0.148 A 
ATOM     41  C   UNL A   1      43.599  25.196  25.340  1.00  0.00     0.002 A 
ATOM     42  C   UNL A   1      42.480  23.309  26.377  1.00  0.00     0.091 A 
ATOM     43  F   UNL A   1      41.460  23.592  28.518  1.00  0.00    -0.205 F 
ATOM     44  C   UNL A   1      43.194  23.865  25.302  1.00  0.00     0.022 A 
BRANCH  42  45
ATOM     45  S   UNL A   1      42.050  21.570  26.245  1.00  0.00     0.127 S 
ATOM     46  O   UNL A   1      42.952  21.123  25.184  1.00  0.00    -0.237 OA
ATOM     47  O   UNL A   1      42.382  21.071  27.580  1.00  0.00    -0.237 OA
ATOM     48  O   UNL A   1      40.633  21.528  25.910  1.00  0.00    -0.744 OA
ENDBRANCH  42  45
ENDBRANCH  24  38
BRANCH  25  49
ATOM     49  C   UNL A   1      40.808  31.338  35.384  1.00  0.00     0.023 A 
ATOM     50  C   UNL A   1      41.754  32.332  35.693  1.00  0.00     0.012 A 
ATOM     51  C   UNL A   1      39.600  31.283  36.103  1.00  0.00     0.148 A 
ATOM     52  C   UNL A   1      41.501  33.262  36.702  1.00  0.00     0.002 A 
ATOM     53  C   UNL A   1      39.338  32.232  37.083  1.00  0.00     0.091 A 
ATOM     54  F   UNL A   1      38.716  30.327  35.783  1.00  0.00    -0.205 F 
ATOM     55  C   UNL A   1      40.290  33.219  37.389  1.00  0.00     0.022 A 
BRANCH  53  56
ATOM     56  S   UNL A   1      37.771  32.323  37.956  1.00  0.00     0.127 S 
ATOM     57  O   UNL A   1      37.453  30.909  38.145  1.00  0.00    -0.237 OA
ATOM     58  O   UNL A   1      38.152  33.037  39.175  1.00  0.00    -0.237 OA
ATOM     59  O   UNL A   1      36.867  33.051  37.078  1.00  0.00    -0.744 OA
ENDBRANCH  53  56
ENDBRANCH  25  49
BRANCH  37  60
ATOM     60  C   UNL A   1      45.914  26.834  33.745  1.00  0.00     0.023 A 
ATOM     61  C   UNL A   1      47.087  27.606  33.631  1.00  0.00     0.012 A 
ATOM     62  C   UNL A   1      45.887  25.733  34.622  1.00  0.00     0.148 A 
ATOM     63  C   UNL A   1      48.219  27.280  34.375  1.00  0.00     0.002 A 
ATOM     64  C   UNL A   1      47.009  25.434  35.386  1.00  0.00     0.091 A 
ATOM     65  F   UNL A   1      44.758  25.015  34.710  1.00  0.00    -0.205 F 
ATOM     66  C   UNL A   1      48.178  26.205  35.260  1.00  0.00     0.022 A 
BRANCH  64  67
ATOM     67  S   UNL A   1      47.031  24.115  36.605  1.00  0.00     0.127 S 
ATOM     68  O   UNL A   1      48.349  24.294  37.212  1.00  0.00    -0.237 OA
ATOM     69  O   UNL A   1      45.907  24.475  37.469  1.00  0.00    -0.237 OA
ATOM     70  O   UNL A   1      46.856  22.874  35.862  1.00  0.00    -0.744 OA
ENDBRANCH  64  67
ENDBRANCH  37  60
ENDBRANCH  11  12
ENDBRANCH   4   6
ENDBRANCH   1   2
BRANCH   1  71
ATOM     71  C   UNL A   1      33.175  34.945  28.869  1.00  0.00     0.042 C 
BRANCH  71  72
ATOM     72  C   UNL A   1      34.001  36.178  29.195  1.00  0.00     0.118 C 
BRANCH  72  73
ATOM     73  N   UNL A   1      33.362  37.052  30.164  1.00  0.00    -0.352 N 
ATOM     74  C   UNL A   1      33.309  36.932  31.530  1.00  0.00     0.255 C 
ATOM     75  H   UNL A   1      32.906  37.840  29.790  1.00  0.00     0.163 HD
ATOM     76  O   UNL A   1      32.670  37.743  32.197  1.00  0.00    -0.269 OA
BRANCH  74  77
ATOM     77  C   UNL A   1      33.955  35.790  32.210  1.00  0.00     0.082 A 
ATOM     78  C   UNL A   1      35.358  35.753  32.205  1.00  0.00     0.026 A 
ATOM     79  C   UNL A   1      33.230  34.753  32.813  1.00  0.00     0.128 A 
ATOM     80  C   UNL A   1      36.033  34.710  32.846  1.00  0.00    -0.017 A 
ATOM     81  C   UNL A   1      33.897  33.733  33.486  1.00  0.00     0.047 A 
ATOM     82  C   UNL A   1      35.291  33.719  33.508  1.00  0.00     0.012 A 
BRANCH  79  83
ATOM     83  O   UNL A   1      31.865  34.722  32.742  1.00  0.00    -0.507 OA
ATOM     84  H   UNL A   1      31.354  34.774  33.526  1.00  0.00     0.293 HD
ENDBRANCH  79  83
BRANCH  80  85
ATOM     85  C   UNL A   1      37.500  34.583  32.798  1.00  0.00    -0.011 A 
ATOM     86  C   UNL A   1      38.299  34.629  34.009  1.00  0.00     0.027 A 
ATOM     87  C   UNL A   1      38.119  34.483  31.609  1.00  0.00     0.080 A 
ATOM     88  C   UNL A   1      39.634  34.638  33.945  1.00  0.00     0.095 A 
ATOM     89  C   UNL A   1      39.608  34.473  31.525  1.00  0.00     0.255 A 
ATOM     90  N   UNL A   1      40.286  34.579  32.729  1.00  0.00    -0.258 N 
ATOM     91  O   UNL A   1      40.137  34.398  30.419  1.00  0.00    -0.269 OA
BRANCH  90  92
ATOM     92  C   UNL A   1      41.723  34.657  32.671  1.00  0.00     0.451 C 
ATOM     93  F   UNL A   1      42.241  35.190  33.804  1.00  0.00    -0.185 F 
ATOM     94  F   UNL A   1      42.268  33.428  32.493  1.00  0.00    -0.185 F 
ENDBRANCH  90  92
ENDBRANCH  80  85
ENDBRANCH  74  77
ENDBRANCH  72  73
ENDBRANCH  71  72
ENDBRANCH   1  71
TORSDOF 16
ENDMDL
MODEL 3
REMARK VINA RESULT:     -11.1      6.080     12.485
REMARK SMILES O=C(NCCCNC(=O)c1cc(-c2ccn(C(F)F)c(=O)c2)ccc1O)c1ccc(-c2c3nc(c(-c4cccc(S(=O)(=O)[O-])c4F)c4ccc([nH]4)c(-c4cccc(S(=O)(=O)[O-])c4F)c4nc(c(-c5cccc(S(=O)(=O)[O-])c5F)c5ccc2[nH]5)C=C4)C=C3)cc1
REMARK SMILES IDX 4 1 3 2 1 3 2 4 27 6 28 7 89 8 29 9 88 10 30 11 31 12 32 13
REMARK SMILES IDX 82 14 33 15 87 16 81 17 83 18 34 19 86 20 80 21 79 22 35 24
REMARK SMILES IDX 67 25 47 26 66 27 48 28 51 29 65 30 84 31 49 32 50 33 64 35
REMARK SMILES IDX 85 36 52 37 36 38 37 39 45 40 38 41 40 42 46 43 39 44 41 45
REMARK SMILES IDX 42 46 43 47 44 48 68 49 69 50 77 51 70 52 72 53 78 54 71 55
REMARK SMILES IDX 73 56 74 57 75 58 76 59 53 60 54 61 62 62 55 63 57 64 63 65
REMARK SMILES IDX 56 66 58 67 59 68 60 69 61 70 5 71 6 72 7 73 8 74 9 76 10 77
REMARK SMILES IDX 11 78 25 79 12 80 24 81 23 82 26 83 13 85 14 86 22 87 15 88
REMARK SMILES IDX 20 89 16 90 21 91 17 92 18 93 19 94
REMARK H PARENT 3 5 83 23 51 34 7 75 26 84
REMARK Flexibility Score: inf
ROOT
ATOM      1  C   UNL A   1      38.221  20.603  25.412  1.00  0.00     0.118 C 
ENDROOT
BRANCH   1   2
ATOM      2  N   UNL A   1      39.291  19.753  25.913  1.00  0.00    -0.352 N 
ATOM      3  O   UNL A   1      41.355  19.201  26.598  1.00  0.00    -0.269 OA
ATOM      4  C   UNL A   1      40.516  20.084  26.434  1.00  0.00     0.251 C 
ATOM      5  H   UNL A   1      39.106  18.787  25.871  1.00  0.00     0.163 HD
BRANCH   4   6
ATOM      6  C   UNL A   1      40.838  21.483  26.797  1.00  0.00     0.039 A 
ATOM      7  C   UNL A   1      40.252  22.522  26.066  1.00  0.00     0.014 A 
ATOM      8  C   UNL A   1      41.764  21.779  27.801  1.00  0.00     0.014 A 
ATOM      9  C   UNL A   1      40.581  23.849  26.354  1.00  0.00     0.010 A 
ATOM     10  C   UNL A   1      42.016  23.101  28.153  1.00  0.00     0.010 A 
ATOM     11  C   UNL A   1      41.462  24.149  27.405  1.00  0.00    -0.014 A 
BRANCH  11  12
ATOM     12  C   UNL A   1      41.901  25.539  27.679  1.00  0.00     0.031 A 
ATOM     13  C   UNL A   1      43.289  25.969  27.279  1.00  0.00     0.074 A 
ATOM     14  C   UNL A   1      41.085  26.401  28.314  1.00  0.00     0.049 A 
ATOM     15  N   UNL A   1      43.899  27.103  27.508  1.00  0.00    -0.248 NA
ATOM     16  C   UNL A   1      44.108  24.989  26.543  1.00  0.00     0.031 C 
ATOM     17  C   UNL A   1      39.731  26.100  28.779  1.00  0.00     0.029 A 
ATOM     18  N   UNL A   1      41.286  27.705  28.690  1.00  0.00    -0.354 N 
ATOM     19  C   UNL A   1      45.175  26.959  26.978  1.00  0.00     0.074 A 
ATOM     20  C   UNL A   1      45.270  25.618  26.449  1.00  0.00     0.031 C 
ATOM     21  C   UNL A   1      39.214  27.194  29.362  1.00  0.00     0.029 A 
ATOM     22  C   UNL A   1      40.212  28.260  29.345  1.00  0.00     0.049 A 
ATOM     23  H   UNL A   1      42.120  28.197  28.509  1.00  0.00     0.167 HD
ATOM     24  C   UNL A   1      46.168  27.873  26.899  1.00  0.00     0.034 A 
ATOM     25  C   UNL A   1      40.050  29.488  29.877  1.00  0.00     0.034 A 
ATOM     26  C   UNL A   1      46.059  29.224  27.370  1.00  0.00     0.049 A 
ATOM     27  C   UNL A   1      41.165  30.490  29.776  1.00  0.00     0.074 A 
ATOM     28  C   UNL A   1      46.996  30.237  27.291  1.00  0.00     0.029 A 
ATOM     29  N   UNL A   1      44.942  29.755  27.995  1.00  0.00    -0.354 N 
ATOM     30  N   UNL A   1      42.341  30.356  29.213  1.00  0.00    -0.248 NA
ATOM     31  C   UNL A   1      40.928  31.816  30.364  1.00  0.00     0.031 C 
ATOM     32  C   UNL A   1      46.449  31.382  27.876  1.00  0.00     0.029 A 
ATOM     33  C   UNL A   1      45.164  31.083  28.305  1.00  0.00     0.049 A 
ATOM     34  H   UNL A   1      44.114  29.259  28.190  1.00  0.00     0.167 HD
ATOM     35  C   UNL A   1      42.976  31.583  29.357  1.00  0.00     0.074 A 
ATOM     36  C   UNL A   1      42.049  32.454  30.052  1.00  0.00     0.031 C 
ATOM     37  C   UNL A   1      44.218  31.950  28.958  1.00  0.00     0.034 A 
BRANCH  24  38
ATOM     38  C   UNL A   1      47.442  27.467  26.211  1.00  0.00     0.023 A 
ATOM     39  C   UNL A   1      48.462  26.850  26.964  1.00  0.00     0.012 A 
ATOM     40  C   UNL A   1      47.601  27.621  24.821  1.00  0.00     0.148 A 
ATOM     41  C   UNL A   1      49.628  26.404  26.345  1.00  0.00     0.002 A 
ATOM     42  C   UNL A   1      48.752  27.145  24.206  1.00  0.00     0.091 A 
ATOM     43  F   UNL A   1      46.623  28.225  24.130  1.00  0.00    -0.205 F 
ATOM     44  C   UNL A   1      49.768  26.541  24.967  1.00  0.00     0.022 A 
BRANCH  42  45
ATOM     45  S   UNL A   1      49.015  27.226  22.432  1.00  0.00     0.127 S 
ATOM     46  O   UNL A   1      50.470  27.114  22.344  1.00  0.00    -0.237 OA
ATOM     47  O   UNL A   1      48.282  26.051  21.960  1.00  0.00    -0.237 OA
ATOM     48  O   UNL A   1      48.466  28.504  21.999  1.00  0.00    -0.744 OA
ENDBRANCH  42  45
ENDBRANCH  24  38
BRANCH  25  49
ATOM     49  C   UNL A   1      38.740  29.844  30.485  1.00  0.00     0.023 A 
ATOM     50  C   UNL A   1      38.478  29.464  31.814  1.00  0.00     0.012 A 
ATOM     51  C   UNL A   1      37.802  30.633  29.792  1.00  0.00     0.148 A 
ATOM     52  C   UNL A   1      37.302  29.866  32.447  1.00  0.00     0.002 A 
ATOM     53  C   UNL A   1      36.649  31.059  30.439  1.00  0.00     0.091 A 
ATOM     54  F   UNL A   1      38.081  30.983  28.528  1.00  0.00    -0.205 F 
ATOM     55  C   UNL A   1      36.394  30.671  31.765  1.00  0.00     0.022 A 
BRANCH  53  56
ATOM     56  S   UNL A   1      35.465  32.178  29.681  1.00  0.00     0.127 S 
ATOM     57  O   UNL A   1      34.471  32.323  30.742  1.00  0.00    -0.237 OA
ATOM     58  O   UNL A   1      36.289  33.362  29.441  1.00  0.00    -0.237 OA
ATOM     59  O   UNL A   1      34.997  31.506  28.478  1.00  0.00    -0.744 OA
ENDBRANCH  53  56
ENDBRANCH  25  49
BRANCH  37  60
ATOM     60  C   UNL A   1      44.668  33.357  29.239  1.00  0.00     0.023 A 
ATOM     61  C   UNL A   1      45.302  33.648  30.462  1.00  0.00     0.012 A 
ATOM     62  C   UNL A   1      44.587  34.348  28.241  1.00  0.00     0.148 A 
ATOM     63  C   UNL A   1      45.842  34.912  30.691  1.00  0.00     0.002 A 
ATOM     64  C   UNL A   1      45.157  35.595  28.464  1.00  0.00     0.091 A 
ATOM     65  F   UNL A   1      43.976  34.043  27.088  1.00  0.00    -0.205 F 
ATOM     66  C   UNL A   1      45.782  35.880  29.691  1.00  0.00     0.022 A 
BRANCH  64  67
ATOM     67  S   UNL A   1      45.194  36.883  27.213  1.00  0.00     0.127 S 
ATOM     68  O   UNL A   1      43.773  37.040  26.907  1.00  0.00    -0.237 OA
ATOM     69  O   UNL A   1      45.789  38.003  27.940  1.00  0.00    -0.237 OA
ATOM     70  O   UNL A   1      46.007  36.364  26.121  1.00  0.00    -0.744 OA
ENDBRANCH  64  67
ENDBRANCH  37  60
ENDBRANCH  11  12
ENDBRANCH   4   6
ENDBRANCH   1   2
BRANCH   1  71
ATOM     71  C   UNL A   1      37.055  19.804  24.851  1.00  0.00     0.042 C 
BRANCH  71  72
ATOM     72  C   UNL A   1      35.703  20.483  24.999  1.00  0.00     0.118 C 
BRANCH  72  73
ATOM     73  N   UNL A   1      34.632  19.555  25.323  1.00  0.00    -0.352 N 
ATOM     74  C   UNL A   1      33.290  19.661  25.057  1.00  0.00     0.255 C 
ATOM     75  H   UNL A   1      34.907  18.737  25.796  1.00  0.00     0.163 HD
ATOM     76  O   UNL A   1      32.511  18.798  25.458  1.00  0.00    -0.269 OA
BRANCH  74  77
ATOM     77  C   UNL A   1      32.754  20.845  24.353  1.00  0.00     0.082 A 
ATOM     78  C   UNL A   1      32.750  22.059  25.057  1.00  0.00     0.026 A 
ATOM     79  C   UNL A   1      32.233  20.787  23.054  1.00  0.00     0.128 A 
ATOM     80  C   UNL A   1      32.273  23.221  24.443  1.00  0.00    -0.017 A 
ATOM     81  C   UNL A   1      31.795  21.948  22.424  1.00  0.00     0.047 A 
ATOM     82  C   UNL A   1      31.823  23.159  23.115  1.00  0.00     0.012 A 
BRANCH  79  83
ATOM     83  O   UNL A   1      32.140  19.595  22.391  1.00  0.00    -0.507 OA
ATOM     84  H   UNL A   1      31.574  18.922  22.713  1.00  0.00     0.293 HD
ENDBRANCH  79  83
BRANCH  80  85
ATOM     85  C   UNL A   1      32.171  24.501  25.167  1.00  0.00    -0.011 A 
ATOM     86  C   UNL A   1      30.886  25.026  25.589  1.00  0.00     0.027 A 
ATOM     87  C   UNL A   1      33.280  25.228  25.389  1.00  0.00     0.080 A 
ATOM     88  C   UNL A   1      30.793  26.243  26.133  1.00  0.00     0.095 A 
ATOM     89  C   UNL A   1      33.192  26.580  26.013  1.00  0.00     0.255 A 
ATOM     90  N   UNL A   1      31.917  27.021  26.330  1.00  0.00    -0.258 N 
ATOM     91  O   UNL A   1      34.226  27.220  26.183  1.00  0.00    -0.269 OA
BRANCH  90  92
ATOM     92  C   UNL A   1      31.794  28.356  26.854  1.00  0.00     0.451 C 
ATOM     93  F   UNL A   1      31.243  29.201  25.949  1.00  0.00    -0.185 F 
ATOM     94  F   UNL A   1      31.023  28.370  27.970  1.00  0.00    -0.185 F 
ENDBRANCH  90  92
ENDBRANCH  80  85
ENDBRANCH  74  77
ENDBRANCH  72  73
ENDBRANCH  71  72
ENDBRANCH   1  71
TORSDOF 16
ENDMDL
