MODEL 1
REMARK VINA RESULT:     -12.8      0.000      0.000
REMARK SMILES Cc1cc(Br)c(C)c([C@@H]2[NH2+][C@H](C(=O)NCCCNC(=O)c3ccc(-c4c5nc(c(-c6cccc(S(=O)(=O)[O-])c6F)c6ccc([nH]6)c(-c6cccc(S(=O)(=O)[O-])c6F)c6nc(c(-c7cccc(S(=O)(=O)[O-])c7F)c7ccc4[nH]7)C=C6)C=C5)cc3)CS2)c1O
REMARK SMILES IDX 16 1 15 2 14 3 12 4 13 5 11 7 9 8 10 9 85 10 84 13 8 14 1 15
REMARK SMILES IDX 2 16 3 17 86 18 4 19 5 20 6 21 7 22 87 23 17 25 18 26 19 27
REMARK SMILES IDX 20 29 21 30 22 31 83 32 23 33 82 34 24 35 25 36 26 37 76 38
REMARK SMILES IDX 27 39 81 40 75 41 77 42 28 43 80 44 74 45 73 46 29 48 61 49
REMARK SMILES IDX 41 50 60 51 42 52 45 53 59 54 78 55 43 56 44 57 58 59 79 60
REMARK SMILES IDX 46 61 30 62 31 63 39 64 32 65 34 66 40 67 33 68 35 69 36 70
REMARK SMILES IDX 37 71 38 72 62 73 63 74 71 75 64 76 66 77 72 78 65 79 67 80
REMARK SMILES IDX 68 81 69 82 70 83 47 84 48 85 56 86 49 87 51 88 57 89 50 90
REMARK SMILES IDX 52 91 53 92 54 93 55 94
REMARK H PARENT 14 6 10 11 10 12 87 24 18 28 77 47 45 58
REMARK Flexibility Score: inf
ROOT
ATOM      1  C   UNL A   1      31.473  29.092  27.227  1.00  0.00     0.042 C 
ENDROOT
BRANCH   1   2
ATOM      2  C   UNL A   1      32.029  27.674  27.300  1.00  0.00     0.118 C 
BRANCH   2   3
ATOM      3  N   UNL A   1      31.126  26.661  26.785  1.00  0.00    -0.351 N 
ATOM      4  C   UNL A   1      31.225  25.831  25.709  1.00  0.00     0.279 C 
ATOM      5  O   UNL A   1      30.394  24.915  25.649  1.00  0.00    -0.268 OA
ATOM      6  H   UNL A   1      30.298  26.554  27.306  1.00  0.00     0.163 HD
BRANCH   4   7
ATOM      7  C   UNL A   1      32.323  25.923  24.632  1.00  0.00     0.283 C 
ATOM      8  C   UNL A   1      34.130  24.571  23.746  1.00  0.00     0.278 C 
ATOM      9  N   UNL A   1      33.530  25.144  24.960  1.00  0.00    -0.320 N 
ATOM     10  S   UNL A   1      33.215  25.142  22.299  1.00  0.00    -0.087 SA
ATOM     11  H   UNL A   1      34.210  25.756  25.412  1.00  0.00     0.348 HD
ATOM     12  H   UNL A   1      33.267  24.382  25.585  1.00  0.00     0.348 HD
ATOM     13  C   UNL A   1      31.754  25.550  23.271  1.00  0.00     0.151 C 
BRANCH   8  14
ATOM     14  C   UNL A   1      34.341  23.066  23.969  1.00  0.00     0.066 A 
ATOM     15  C   UNL A   1      32.329  19.966  25.147  1.00  0.00     0.048 C 
ATOM     16  C   UNL A   1      33.450  20.872  24.713  1.00  0.00    -0.008 A 
ATOM     17  C   UNL A   1      34.755  20.413  24.886  1.00  0.00     0.023 A 
ATOM     18  C   UNL A   1      33.261  22.185  24.253  1.00  0.00     0.128 A 
ATOM     19  C   UNL A   1      35.845  21.232  24.595  1.00  0.00     0.021 A 
ATOM     20  Br  UNL A   1      37.564  20.485  24.944  1.00  0.00    -0.051 Br
ATOM     21  C   UNL A   1      35.671  22.557  24.136  1.00  0.00    -0.023 A 
ATOM     22  C   UNL A   1      36.907  23.413  23.960  1.00  0.00     0.046 C 
BRANCH  18  23
ATOM     23  O   UNL A   1      31.979  22.657  24.161  1.00  0.00    -0.507 OA
ATOM     24  H   UNL A   1      31.403  22.595  24.898  1.00  0.00     0.293 HD
ENDBRANCH  18  23
ENDBRANCH   8  14
ENDBRANCH   4   7
ENDBRANCH   2   3
ENDBRANCH   1   2
BRANCH   1  25
ATOM     25  C   UNL A   1      32.329  30.060  26.413  1.00  0.00     0.118 C 
BRANCH  25  26
ATOM     26  N   UNL A   1      32.187  31.467  26.776  1.00  0.00    -0.352 N 
ATOM     27  C   UNL A   1      33.048  32.342  27.401  1.00  0.00     0.251 C 
ATOM     28  H   UNL A   1      31.319  31.862  26.529  1.00  0.00     0.163 HD
ATOM     29  O   UNL A   1      32.657  33.489  27.629  1.00  0.00    -0.269 OA
BRANCH  27  30
ATOM     30  C   UNL A   1      34.396  31.919  27.850  1.00  0.00     0.039 A 
ATOM     31  C   UNL A   1      34.670  30.596  28.180  1.00  0.00     0.014 A 
ATOM     32  C   UNL A   1      35.416  32.876  27.958  1.00  0.00     0.014 A 
ATOM     33  C   UNL A   1      35.854  30.279  28.834  1.00  0.00     0.010 A 
ATOM     34  C   UNL A   1      36.657  32.528  28.505  1.00  0.00     0.010 A 
ATOM     35  C   UNL A   1      36.866  31.239  29.009  1.00  0.00    -0.014 A 
BRANCH  35  36
ATOM     36  C   UNL A   1      38.119  30.826  29.698  1.00  0.00     0.031 A 
ATOM     37  C   UNL A   1      38.389  31.201  31.131  1.00  0.00     0.074 A 
ATOM     38  C   UNL A   1      38.963  30.001  29.043  1.00  0.00     0.049 A 
ATOM     39  N   UNL A   1      39.339  30.774  31.923  1.00  0.00    -0.248 NA
ATOM     40  C   UNL A   1      37.486  32.177  31.761  1.00  0.00     0.031 C 
ATOM     41  C   UNL A   1      38.813  29.599  27.643  1.00  0.00     0.029 A 
ATOM     42  N   UNL A   1      40.069  29.311  29.469  1.00  0.00    -0.354 N 
ATOM     43  C   UNL A   1      39.165  31.443  33.130  1.00  0.00     0.074 A 
ATOM     44  C   UNL A   1      38.027  32.319  32.965  1.00  0.00     0.031 C 
ATOM     45  C   UNL A   1      39.725  28.662  27.354  1.00  0.00     0.029 A 
ATOM     46  C   UNL A   1      40.569  28.444  28.524  1.00  0.00     0.049 A 
ATOM     47  H   UNL A   1      40.467  29.425  30.363  1.00  0.00     0.167 HD
ATOM     48  C   UNL A   1      39.877  31.322  34.276  1.00  0.00     0.034 A 
ATOM     49  C   UNL A   1      41.585  27.561  28.589  1.00  0.00     0.034 A 
ATOM     50  C   UNL A   1      40.990  30.424  34.439  1.00  0.00     0.049 A 
ATOM     51  C   UNL A   1      42.343  27.433  29.878  1.00  0.00     0.074 A 
ATOM     52  C   UNL A   1      41.771  30.220  35.564  1.00  0.00     0.029 A 
ATOM     53  N   UNL A   1      41.478  29.579  33.455  1.00  0.00    -0.354 N 
ATOM     54  N   UNL A   1      42.109  28.015  31.030  1.00  0.00    -0.248 NA
ATOM     55  C   UNL A   1      43.496  26.523  29.885  1.00  0.00     0.031 C 
ATOM     56  C   UNL A   1      42.739  29.260  35.253  1.00  0.00     0.029 A 
ATOM     57  C   UNL A   1      42.552  28.855  33.941  1.00  0.00     0.049 A 
ATOM     58  H   UNL A   1      41.113  29.505  32.543  1.00  0.00     0.167 HD
ATOM     59  C   UNL A   1      43.083  27.545  31.899  1.00  0.00     0.074 A 
ATOM     60  C   UNL A   1      43.885  26.595  31.151  1.00  0.00     0.031 C 
ATOM     61  C   UNL A   1      43.313  27.889  33.190  1.00  0.00     0.034 A 
BRANCH  48  62
ATOM     62  C   UNL A   1      39.449  32.140  35.468  1.00  0.00     0.023 A 
ATOM     63  C   UNL A   1      39.769  33.512  35.514  1.00  0.00     0.012 A 
ATOM     64  C   UNL A   1      38.658  31.581  36.493  1.00  0.00     0.148 A 
ATOM     65  C   UNL A   1      39.324  34.312  36.566  1.00  0.00     0.002 A 
ATOM     66  C   UNL A   1      38.189  32.393  37.521  1.00  0.00     0.091 A 
ATOM     67  F   UNL A   1      38.379  30.271  36.442  1.00  0.00    -0.205 F 
ATOM     68  C   UNL A   1      38.526  33.755  37.562  1.00  0.00     0.022 A 
BRANCH  66  69
ATOM     69  S   UNL A   1      37.096  31.791  38.814  1.00  0.00     0.127 S 
ATOM     70  O   UNL A   1      36.885  30.404  38.401  1.00  0.00    -0.237 OA
ATOM     71  O   UNL A   1      37.918  31.951  40.014  1.00  0.00    -0.237 OA
ATOM     72  O   UNL A   1      35.914  32.641  38.770  1.00  0.00    -0.744 OA
ENDBRANCH  66  69
ENDBRANCH  48  62
BRANCH  49  73
ATOM     73  C   UNL A   1      41.876  26.689  27.413  1.00  0.00     0.023 A 
ATOM     74  C   UNL A   1      42.656  27.190  26.354  1.00  0.00     0.012 A 
ATOM     75  C   UNL A   1      41.475  25.338  27.387  1.00  0.00     0.148 A 
ATOM     76  C   UNL A   1      43.032  26.364  25.294  1.00  0.00     0.002 A 
ATOM     77  C   UNL A   1      41.914  24.503  26.367  1.00  0.00     0.091 A 
ATOM     78  F   UNL A   1      40.705  24.884  28.385  1.00  0.00    -0.205 F 
ATOM     79  C   UNL A   1      42.680  25.016  25.310  1.00  0.00     0.022 A 
BRANCH  77  80
ATOM     80  S   UNL A   1      41.660  22.725  26.425  1.00  0.00     0.127 S 
ATOM     81  O   UNL A   1      42.383  22.279  25.237  1.00  0.00    -0.237 OA
ATOM     82  O   UNL A   1      42.285  22.365  27.699  1.00  0.00    -0.237 OA
ATOM     83  O   UNL A   1      40.214  22.543  26.402  1.00  0.00    -0.744 OA
ENDBRANCH  77  80
ENDBRANCH  49  73
BRANCH  61  84
ATOM     84  C   UNL A   1      44.489  27.253  33.880  1.00  0.00     0.023 A 
ATOM     85  C   UNL A   1      45.752  27.872  33.794  1.00  0.00     0.012 A 
ATOM     86  C   UNL A   1      44.327  26.112  34.689  1.00  0.00     0.148 A 
ATOM     87  C   UNL A   1      46.842  27.353  34.490  1.00  0.00     0.002 A 
ATOM     88  C   UNL A   1      45.409  25.626  35.413  1.00  0.00     0.091 A 
ATOM     89  F   UNL A   1      43.122  25.527  34.738  1.00  0.00    -0.205 F 
ATOM     90  C   UNL A   1      46.669  26.240  35.309  1.00  0.00     0.022 A 
BRANCH  88  91
ATOM     91  S   UNL A   1      45.254  24.254  36.564  1.00  0.00     0.127 S 
ATOM     92  O   UNL A   1      46.615  24.148  37.084  1.00  0.00    -0.237 OA
ATOM     93  O   UNL A   1      44.271  24.760  37.523  1.00  0.00    -0.237 OA
ATOM     94  O   UNL A   1      44.794  23.121  35.771  1.00  0.00    -0.744 OA
ENDBRANCH  88  91
ENDBRANCH  61  84
ENDBRANCH  35  36
ENDBRANCH  27  30
ENDBRANCH  25  26
ENDBRANCH   1  25
TORSDOF 15
ENDMDL
MODEL 2
REMARK VINA RESULT:     -12.8      1.407      1.712
REMARK SMILES Cc1cc(Br)c(C)c([C@@H]2[NH2+][C@H](C(=O)NCCCNC(=O)c3ccc(-c4c5nc(c(-c6cccc(S(=O)(=O)[O-])c6F)c6ccc([nH]6)c(-c6cccc(S(=O)(=O)[O-])c6F)c6nc(c(-c7cccc(S(=O)(=O)[O-])c7F)c7ccc4[nH]7)C=C6)C=C5)cc3)CS2)c1O
REMARK SMILES IDX 16 1 15 2 14 3 12 4 13 5 11 7 9 8 10 9 85 10 84 13 8 14 1 15
REMARK SMILES IDX 2 16 3 17 86 18 4 19 5 20 6 21 7 22 87 23 17 25 18 26 19 27
REMARK SMILES IDX 20 29 21 30 22 31 83 32 23 33 82 34 24 35 25 36 26 37 76 38
REMARK SMILES IDX 27 39 81 40 75 41 77 42 28 43 80 44 74 45 73 46 29 48 61 49
REMARK SMILES IDX 41 50 60 51 42 52 45 53 59 54 78 55 43 56 44 57 58 59 79 60
REMARK SMILES IDX 46 61 30 62 31 63 39 64 32 65 34 66 40 67 33 68 35 69 36 70
REMARK SMILES IDX 37 71 38 72 62 73 63 74 71 75 64 76 66 77 72 78 65 79 67 80
REMARK SMILES IDX 68 81 69 82 70 83 47 84 48 85 56 86 49 87 51 88 57 89 50 90
REMARK SMILES IDX 52 91 53 92 54 93 55 94
REMARK H PARENT 14 6 10 11 10 12 87 24 18 28 77 47 45 58
REMARK Flexibility Score: inf
ROOT
ATOM      1  C   UNL A   1      31.487  29.431  27.083  1.00  0.00     0.042 C 
ENDROOT
BRANCH   1   2
ATOM      2  C   UNL A   1      32.251  28.133  27.319  1.00  0.00     0.118 C 
BRANCH   2   3
ATOM      3  N   UNL A   1      31.473  26.937  27.056  1.00  0.00    -0.351 N 
ATOM      4  C   UNL A   1      31.622  25.954  26.123  1.00  0.00     0.279 C 
ATOM      5  O   UNL A   1      30.931  24.939  26.285  1.00  0.00    -0.268 OA
ATOM      6  H   UNL A   1      30.704  26.812  27.658  1.00  0.00     0.163 HD
BRANCH   4   7
ATOM      7  C   UNL A   1      32.625  26.003  24.954  1.00  0.00     0.283 C 
ATOM      8  C   UNL A   1      34.279  24.574  23.905  1.00  0.00     0.278 C 
ATOM      9  N   UNL A   1      33.817  25.163  25.170  1.00  0.00    -0.320 N 
ATOM     10  S   UNL A   1      33.269  25.204  22.547  1.00  0.00    -0.087 SA
ATOM     11  H   UNL A   1      34.562  25.737  25.564  1.00  0.00     0.348 HD
ATOM     12  H   UNL A   1      33.572  24.408  25.812  1.00  0.00     0.348 HD
ATOM     13  C   UNL A   1      31.921  25.672  23.647  1.00  0.00     0.151 C 
BRANCH   8  14
ATOM     14  C   UNL A   1      34.434  23.059  24.100  1.00  0.00     0.066 A 
ATOM     15  C   UNL A   1      32.334  20.026  25.300  1.00  0.00     0.048 C 
ATOM     16  C   UNL A   1      33.476  20.892  24.842  1.00  0.00    -0.008 A 
ATOM     17  C   UNL A   1      34.766  20.377  24.966  1.00  0.00     0.023 A 
ATOM     18  C   UNL A   1      33.328  22.219  24.407  1.00  0.00     0.128 A 
ATOM     19  C   UNL A   1      35.880  21.155  24.651  1.00  0.00     0.021 A 
ATOM     20  Br  UNL A   1      37.576  20.333  24.932  1.00  0.00    -0.051 Br
ATOM     21  C   UNL A   1      35.746  22.493  24.216  1.00  0.00    -0.023 A 
ATOM     22  C   UNL A   1      37.011  23.300  24.012  1.00  0.00     0.046 C 
BRANCH  18  23
ATOM     23  O   UNL A   1      32.064  22.744  24.364  1.00  0.00    -0.507 OA
ATOM     24  H   UNL A   1      31.539  22.640  23.595  1.00  0.00     0.293 HD
ENDBRANCH  18  23
ENDBRANCH   8  14
ENDBRANCH   4   7
ENDBRANCH   2   3
ENDBRANCH   1   2
BRANCH   1  25
ATOM     25  C   UNL A   1      32.258  30.474  26.276  1.00  0.00     0.118 C 
BRANCH  25  26
ATOM     26  N   UNL A   1      32.115  31.849  26.745  1.00  0.00    -0.352 N 
ATOM     27  C   UNL A   1      32.966  32.665  27.459  1.00  0.00     0.251 C 
ATOM     28  H   UNL A   1      31.258  32.269  26.507  1.00  0.00     0.163 HD
ATOM     29  O   UNL A   1      32.576  33.793  27.768  1.00  0.00    -0.269 OA
BRANCH  27  30
ATOM     30  C   UNL A   1      34.298  32.196  27.909  1.00  0.00     0.039 A 
ATOM     31  C   UNL A   1      34.489  30.906  28.394  1.00  0.00     0.014 A 
ATOM     32  C   UNL A   1      35.389  33.076  27.857  1.00  0.00     0.014 A 
ATOM     33  C   UNL A   1      35.675  30.580  29.039  1.00  0.00     0.010 A 
ATOM     34  C   UNL A   1      36.625  32.701  28.398  1.00  0.00     0.010 A 
ATOM     35  C   UNL A   1      36.762  31.472  29.053  1.00  0.00    -0.014 A 
BRANCH  35  36
ATOM     36  C   UNL A   1      38.012  31.050  29.742  1.00  0.00     0.031 A 
ATOM     37  C   UNL A   1      38.301  31.454  31.164  1.00  0.00     0.074 A 
ATOM     38  C   UNL A   1      38.834  30.193  29.102  1.00  0.00     0.049 A 
ATOM     39  N   UNL A   1      39.249  31.026  31.959  1.00  0.00    -0.248 NA
ATOM     40  C   UNL A   1      37.423  32.463  31.777  1.00  0.00     0.031 C 
ATOM     41  C   UNL A   1      38.665  29.760  27.712  1.00  0.00     0.029 A 
ATOM     42  N   UNL A   1      39.929  29.490  29.536  1.00  0.00    -0.354 N 
ATOM     43  C   UNL A   1      39.098  31.728  33.150  1.00  0.00     0.074 A 
ATOM     44  C   UNL A   1      37.977  32.622  32.973  1.00  0.00     0.031 C 
ATOM     45  C   UNL A   1      39.555  28.798  27.439  1.00  0.00     0.029 A 
ATOM     46  C   UNL A   1      40.404  28.591  28.608  1.00  0.00     0.049 A 
ATOM     47  H   UNL A   1      40.336  29.617  30.423  1.00  0.00     0.167 HD
ATOM     48  C   UNL A   1      39.816  31.619  34.294  1.00  0.00     0.034 A 
ATOM     49  C   UNL A   1      41.402  27.689  28.686  1.00  0.00     0.034 A 
ATOM     50  C   UNL A   1      40.912  30.703  34.470  1.00  0.00     0.049 A 
ATOM     51  C   UNL A   1      42.168  27.576  29.973  1.00  0.00     0.074 A 
ATOM     52  C   UNL A   1      41.697  30.510  35.594  1.00  0.00     0.029 A 
ATOM     53  N   UNL A   1      41.375  29.825  33.503  1.00  0.00    -0.354 N 
ATOM     54  N   UNL A   1      41.955  28.190  31.112  1.00  0.00    -0.248 NA
ATOM     55  C   UNL A   1      43.302  26.643  29.993  1.00  0.00     0.031 C 
ATOM     56  C   UNL A   1      42.644  29.523  35.299  1.00  0.00     0.029 A 
ATOM     57  C   UNL A   1      42.438  29.091  33.998  1.00  0.00     0.049 A 
ATOM     58  H   UNL A   1      41.002  29.737  32.596  1.00  0.00     0.167 HD
ATOM     59  C   UNL A   1      42.926  27.721  31.985  1.00  0.00     0.074 A 
ATOM     60  C   UNL A   1      43.703  26.738  31.254  1.00  0.00     0.031 C 
ATOM     61  C   UNL A   1      43.173  28.091  33.266  1.00  0.00     0.034 A 
BRANCH  48  62
ATOM     62  C   UNL A   1      39.414  32.474  35.469  1.00  0.00     0.023 A 
ATOM     63  C   UNL A   1      38.635  31.908  36.499  1.00  0.00     0.012 A 
ATOM     64  C   UNL A   1      39.879  33.798  35.603  1.00  0.00     0.148 A 
ATOM     65  C   UNL A   1      38.310  32.649  37.634  1.00  0.00     0.002 A 
ATOM     66  C   UNL A   1      39.579  34.520  36.755  1.00  0.00     0.091 A 
ATOM     67  F   UNL A   1      40.603  34.325  34.606  1.00  0.00    -0.205 F 
ATOM     68  C   UNL A   1      38.791  33.950  37.767  1.00  0.00     0.022 A 
BRANCH  66  69
ATOM     69  S   UNL A   1      40.208  36.176  37.056  1.00  0.00     0.127 S 
ATOM     70  O   UNL A   1      39.885  36.848  35.799  1.00  0.00    -0.237 OA
ATOM     71  O   UNL A   1      39.407  36.608  38.202  1.00  0.00    -0.237 OA
ATOM     72  O   UNL A   1      41.630  36.022  37.333  1.00  0.00    -0.744 OA
ENDBRANCH  66  69
ENDBRANCH  48  62
BRANCH  49  73
ATOM     73  C   UNL A   1      41.667  26.783  27.530  1.00  0.00     0.023 A 
ATOM     74  C   UNL A   1      42.477  27.231  26.469  1.00  0.00     0.012 A 
ATOM     75  C   UNL A   1      41.208  25.451  27.525  1.00  0.00     0.148 A 
ATOM     76  C   UNL A   1      42.826  26.369  25.428  1.00  0.00     0.002 A 
ATOM     77  C   UNL A   1      41.619  24.579  26.524  1.00  0.00     0.091 A 
ATOM     78  F   UNL A   1      40.410  25.048  28.524  1.00  0.00    -0.205 F 
ATOM     79  C   UNL A   1      42.416  25.038  25.467  1.00  0.00     0.022 A 
BRANCH  77  80
ATOM     80  S   UNL A   1      41.288  22.814  26.613  1.00  0.00     0.127 S 
ATOM     81  O   UNL A   1      39.834  22.774  26.480  1.00  0.00    -0.237 OA
ATOM     82  O   UNL A   1      42.028  22.302  25.458  1.00  0.00    -0.237 OA
ATOM     83  O   UNL A   1      41.827  22.388  27.898  1.00  0.00    -0.744 OA
ENDBRANCH  77  80
ENDBRANCH  49  73
BRANCH  61  84
ATOM     84  C   UNL A   1      44.341  27.448  33.961  1.00  0.00     0.023 A 
ATOM     85  C   UNL A   1      45.610  28.057  33.879  1.00  0.00     0.012 A 
ATOM     86  C   UNL A   1      44.168  26.311  34.773  1.00  0.00     0.148 A 
ATOM     87  C   UNL A   1      46.693  27.531  34.580  1.00  0.00     0.002 A 
ATOM     88  C   UNL A   1      45.243  25.818  35.503  1.00  0.00     0.091 A 
ATOM     89  F   UNL A   1      42.957  25.736  34.820  1.00  0.00    -0.205 F 
ATOM     90  C   UNL A   1      46.508  26.422  35.402  1.00  0.00     0.022 A 
BRANCH  88  91
ATOM     91  S   UNL A   1      45.073  24.452  36.657  1.00  0.00     0.127 S 
ATOM     92  O   UNL A   1      44.658  23.365  35.773  1.00  0.00    -0.237 OA
ATOM     93  O   UNL A   1      46.429  24.321  37.191  1.00  0.00    -0.237 OA
ATOM     94  O   UNL A   1      44.080  24.880  37.635  1.00  0.00    -0.744 OA
ENDBRANCH  88  91
ENDBRANCH  61  84
ENDBRANCH  35  36
ENDBRANCH  27  30
ENDBRANCH  25  26
ENDBRANCH   1  25
TORSDOF 15
ENDMDL
MODEL 3
REMARK VINA RESULT:     -12.6      1.677      2.296
REMARK SMILES Cc1cc(Br)c(C)c([C@@H]2[NH2+][C@H](C(=O)NCCCNC(=O)c3ccc(-c4c5nc(c(-c6cccc(S(=O)(=O)[O-])c6F)c6ccc([nH]6)c(-c6cccc(S(=O)(=O)[O-])c6F)c6nc(c(-c7cccc(S(=O)(=O)[O-])c7F)c7ccc4[nH]7)C=C6)C=C5)cc3)CS2)c1O
REMARK SMILES IDX 16 1 15 2 14 3 12 4 13 5 11 7 9 8 10 9 85 10 84 13 8 14 1 15
REMARK SMILES IDX 2 16 3 17 86 18 4 19 5 20 6 21 7 22 87 23 17 25 18 26 19 27
REMARK SMILES IDX 20 29 21 30 22 31 83 32 23 33 82 34 24 35 25 36 26 37 76 38
REMARK SMILES IDX 27 39 81 40 75 41 77 42 28 43 80 44 74 45 73 46 29 48 61 49
REMARK SMILES IDX 41 50 60 51 42 52 45 53 59 54 78 55 43 56 44 57 58 59 79 60
REMARK SMILES IDX 46 61 30 62 31 63 39 64 32 65 34 66 40 67 33 68 35 69 36 70
REMARK SMILES IDX 37 71 38 72 62 73 63 74 71 75 64 76 66 77 72 78 65 79 67 80
REMARK SMILES IDX 68 81 69 82 70 83 47 84 48 85 56 86 49 87 51 88 57 89 50 90
REMARK SMILES IDX 52 91 53 92 54 93 55 94
REMARK H PARENT 14 6 10 11 10 12 87 24 18 28 77 47 45 58
REMARK Flexibility Score: inf
ROOT
ATOM      1  C   UNL A   1      33.096  29.306  24.359  1.00  0.00     0.042 C 
ENDROOT
BRANCH   1   2
ATOM      2  C   UNL A   1      32.375  28.294  23.476  1.00  0.00     0.118 C 
BRANCH   2   3
ATOM      3  N   UNL A   1      33.262  27.356  22.811  1.00  0.00    -0.351 N 
ATOM      4  C   UNL A   1      33.255  25.994  22.758  1.00  0.00     0.279 C 
ATOM      5  O   UNL A   1      34.012  25.477  21.926  1.00  0.00    -0.268 OA
ATOM      6  H   UNL A   1      33.996  27.778  22.309  1.00  0.00     0.163 HD
BRANCH   4   7
ATOM      7  C   UNL A   1      32.332  25.091  23.600  1.00  0.00     0.283 C 
ATOM      8  C   UNL A   1      32.378  22.906  24.649  1.00  0.00     0.278 C 
ATOM      9  N   UNL A   1      32.581  23.652  23.399  1.00  0.00    -0.320 N 
ATOM     10  S   UNL A   1      31.786  24.033  25.930  1.00  0.00    -0.087 SA
ATOM     11  H   UNL A   1      31.939  23.298  22.690  1.00  0.00     0.348 HD
ATOM     12  H   UNL A   1      33.548  23.527  23.097  1.00  0.00     0.348 HD
ATOM     13  C   UNL A   1      32.410  25.486  25.067  1.00  0.00     0.151 C 
BRANCH   8  14
ATOM     14  C   UNL A   1      33.619  22.042  24.910  1.00  0.00     0.066 A 
ATOM     15  C   UNL A   1      37.478  22.416  25.036  1.00  0.00     0.048 C 
ATOM     16  C   UNL A   1      36.091  21.835  25.025  1.00  0.00    -0.008 A 
ATOM     17  C   UNL A   1      35.971  20.454  24.873  1.00  0.00     0.023 A 
ATOM     18  C   UNL A   1      34.918  22.607  25.048  1.00  0.00     0.128 A 
ATOM     19  C   UNL A   1      34.718  19.853  24.760  1.00  0.00     0.021 A 
ATOM     20  Br  UNL A   1      34.720  17.966  24.492  1.00  0.00    -0.051 Br
ATOM     21  C   UNL A   1      33.529  20.618  24.776  1.00  0.00    -0.023 A 
ATOM     22  C   UNL A   1      32.221  19.896  24.528  1.00  0.00     0.046 C 
BRANCH  18  23
ATOM     23  O   UNL A   1      35.045  23.968  25.118  1.00  0.00    -0.507 OA
ATOM     24  H   UNL A   1      34.464  24.466  25.658  1.00  0.00     0.293 HD
ENDBRANCH  18  23
ENDBRANCH   8  14
ENDBRANCH   4   7
ENDBRANCH   2   3
ENDBRANCH   1   2
BRANCH   1  25
ATOM     25  C   UNL A   1      32.628  29.315  25.812  1.00  0.00     0.118 C 
BRANCH  25  26
ATOM     26  N   UNL A   1      32.286  30.631  26.345  1.00  0.00    -0.352 N 
ATOM     27  C   UNL A   1      32.995  31.510  27.133  1.00  0.00     0.251 C 
ATOM     28  H   UNL A   1      31.388  30.946  26.094  1.00  0.00     0.163 HD
ATOM     29  O   UNL A   1      32.448  32.558  27.482  1.00  0.00    -0.269 OA
BRANCH  27  30
ATOM     30  C   UNL A   1      34.363  31.198  27.611  1.00  0.00     0.039 A 
ATOM     31  C   UNL A   1      34.735  29.901  27.951  1.00  0.00     0.014 A 
ATOM     32  C   UNL A   1      35.299  32.233  27.737  1.00  0.00     0.014 A 
ATOM     33  C   UNL A   1      35.926  29.680  28.630  1.00  0.00     0.010 A 
ATOM     34  C   UNL A   1      36.553  31.986  28.312  1.00  0.00     0.010 A 
ATOM     35  C   UNL A   1      36.854  30.719  28.823  1.00  0.00    -0.014 A 
BRANCH  35  36
ATOM     36  C   UNL A   1      38.122  30.409  29.539  1.00  0.00     0.031 A 
ATOM     37  C   UNL A   1      38.340  30.828  30.969  1.00  0.00     0.074 A 
ATOM     38  C   UNL A   1      39.033  29.635  28.913  1.00  0.00     0.049 A 
ATOM     39  N   UNL A   1      39.305  30.484  31.784  1.00  0.00    -0.248 NA
ATOM     40  C   UNL A   1      37.360  31.749  31.566  1.00  0.00     0.031 C 
ATOM     41  C   UNL A   1      38.936  29.198  27.519  1.00  0.00     0.029 A 
ATOM     42  N   UNL A   1      40.179  29.033  29.369  1.00  0.00    -0.354 N 
ATOM     43  C   UNL A   1      39.064  31.161  32.974  1.00  0.00     0.074 A 
ATOM     44  C   UNL A   1      37.869  31.949  32.775  1.00  0.00     0.031 C 
ATOM     45  C   UNL A   1      39.916  28.324  27.262  1.00  0.00     0.029 A 
ATOM     46  C   UNL A   1      40.755  28.187  28.448  1.00  0.00     0.049 A 
ATOM     47  H   UNL A   1      40.552  29.191  30.267  1.00  0.00     0.167 HD
ATOM     48  C   UNL A   1      39.763  31.111  34.133  1.00  0.00     0.034 A 
ATOM     49  C   UNL A   1      41.829  27.381  28.546  1.00  0.00     0.034 A 
ATOM     50  C   UNL A   1      40.934  30.298  34.331  1.00  0.00     0.049 A 
ATOM     51  C   UNL A   1      42.573  27.330  29.849  1.00  0.00     0.074 A 
ATOM     52  C   UNL A   1      41.708  30.170  35.471  1.00  0.00     0.029 A 
ATOM     53  N   UNL A   1      41.497  29.473  33.370  1.00  0.00    -0.354 N 
ATOM     54  N   UNL A   1      42.279  27.914  30.986  1.00  0.00    -0.248 NA
ATOM     55  C   UNL A   1      43.787  26.505  29.891  1.00  0.00     0.031 C 
ATOM     56  C   UNL A   1      42.748  29.277  35.194  1.00  0.00     0.029 A 
ATOM     57  C   UNL A   1      42.612  28.836  33.887  1.00  0.00     0.049 A 
ATOM     58  H   UNL A   1      41.155  29.357  32.454  1.00  0.00     0.167 HD
ATOM     59  C   UNL A   1      43.269  27.530  31.879  1.00  0.00     0.074 A 
ATOM     60  C   UNL A   1      44.149  26.627  31.162  1.00  0.00     0.031 C 
ATOM     61  C   UNL A   1      43.452  27.913  33.167  1.00  0.00     0.034 A 
BRANCH  48  62
ATOM     62  C   UNL A   1      39.258  31.917  35.303  1.00  0.00     0.023 A 
ATOM     63  C   UNL A   1      38.373  31.318  36.223  1.00  0.00     0.012 A 
ATOM     64  C   UNL A   1      39.725  33.225  35.546  1.00  0.00     0.148 A 
ATOM     65  C   UNL A   1      37.946  32.012  37.354  1.00  0.00     0.002 A 
ATOM     66  C   UNL A   1      39.322  33.898  36.696  1.00  0.00     0.091 A 
ATOM     67  F   UNL A   1      40.552  33.785  34.651  1.00  0.00    -0.205 F 
ATOM     68  C   UNL A   1      38.429  33.296  37.597  1.00  0.00     0.022 A 
BRANCH  66  69
ATOM     69  S   UNL A   1      39.941  35.526  37.137  1.00  0.00     0.127 S 
ATOM     70  O   UNL A   1      39.211  35.793  38.376  1.00  0.00    -0.237 OA
ATOM     71  O   UNL A   1      41.371  35.276  37.314  1.00  0.00    -0.237 OA
ATOM     72  O   UNL A   1      39.610  36.399  36.019  1.00  0.00    -0.744 OA
ENDBRANCH  66  69
ENDBRANCH  48  62
BRANCH  49  73
ATOM     73  C   UNL A   1      42.202  26.511  27.392  1.00  0.00     0.023 A 
ATOM     74  C   UNL A   1      43.038  27.020  26.381  1.00  0.00     0.012 A 
ATOM     75  C   UNL A   1      41.819  25.156  27.344  1.00  0.00     0.148 A 
ATOM     76  C   UNL A   1      43.487  26.197  25.347  1.00  0.00     0.002 A 
ATOM     77  C   UNL A   1      42.328  24.324  26.353  1.00  0.00     0.091 A 
ATOM     78  F   UNL A   1      40.995  24.693  28.295  1.00  0.00    -0.205 F 
ATOM     79  C   UNL A   1      43.150  24.845  25.345  1.00  0.00     0.022 A 
BRANCH  77  80
ATOM     80  S   UNL A   1      42.092  22.543  26.400  1.00  0.00     0.127 S 
ATOM     81  O   UNL A   1      40.636  22.432  26.355  1.00  0.00    -0.237 OA
ATOM     82  O   UNL A   1      42.782  22.108  25.184  1.00  0.00    -0.237 OA
ATOM     83  O   UNL A   1      42.731  22.104  27.633  1.00  0.00    -0.744 OA
ENDBRANCH  77  80
ENDBRANCH  49  73
BRANCH  61  84
ATOM     84  C   UNL A   1      44.658  27.375  33.886  1.00  0.00     0.023 A 
ATOM     85  C   UNL A   1      45.852  28.124  33.880  1.00  0.00     0.012 A 
ATOM     86  C   UNL A   1      44.584  26.192  34.646  1.00  0.00     0.148 A 
ATOM     87  C   UNL A   1      46.961  27.693  34.605  1.00  0.00     0.002 A 
ATOM     88  C   UNL A   1      45.680  25.792  35.401  1.00  0.00     0.091 A 
ATOM     89  F   UNL A   1      43.446  25.485  34.620  1.00  0.00    -0.205 F 
ATOM     90  C   UNL A   1      46.871  26.537  35.376  1.00  0.00     0.022 A 
BRANCH  88  91
ATOM     91  S   UNL A   1      45.622  24.368  36.495  1.00  0.00     0.127 S 
ATOM     92  O   UNL A   1      45.437  23.272  35.547  1.00  0.00    -0.237 OA
ATOM     93  O   UNL A   1      46.938  24.408  37.133  1.00  0.00    -0.237 OA
ATOM     94  O   UNL A   1      44.506  24.609  37.401  1.00  0.00    -0.744 OA
ENDBRANCH  88  91
ENDBRANCH  61  84
ENDBRANCH  35  36
ENDBRANCH  27  30
ENDBRANCH  25  26
ENDBRANCH   1  25
TORSDOF 15
ENDMDL
