MODEL 1
REMARK VINA RESULT:     -12.0      0.000      0.000
REMARK SMILES C[C@H](C(=O)NCCCNC(=O)c1ccc(-c2c3nc(c(-c4cccc(S(=O)(=O)[O-])c4F)c4ccc([nH]4)c(-c4cccc(S(=O)(=O)[O-])c4F)c4nc(c(-c5cccc(S(=O)(=O)[O-])c5F)c5ccc2[nH]5)C=C4)C=C3)cc1)[C@@H](C)Nc1cccc2ccccc12
REMARK SMILES IDX 7 1 6 2 5 3 3 4 4 5 2 7 1 8 75 9 76 10 77 11 78 13 79 14
REMARK SMILES IDX 87 15 80 16 82 17 86 18 81 19 83 20 85 21 84 22 8 23 9 24
REMARK SMILES IDX 10 25 11 27 12 28 13 29 74 30 14 31 73 32 15 33 16 34 17 35
REMARK SMILES IDX 67 36 18 37 72 38 66 39 68 40 19 41 71 42 65 43 64 44 20 46
REMARK SMILES IDX 52 47 32 48 51 49 33 50 36 51 50 52 69 53 34 54 35 55 49 57
REMARK SMILES IDX 70 58 37 59 21 60 22 61 30 62 23 63 25 64 31 65 24 66 26 67
REMARK SMILES IDX 27 68 28 69 29 70 53 71 54 72 62 73 55 74 57 75 63 76 56 77
REMARK SMILES IDX 58 78 59 79 60 80 61 81 38 82 39 83 47 84 40 85 42 86 48 87
REMARK SMILES IDX 41 88 43 89 44 90 45 91 46 92
REMARK H PARENT 5 6 77 12 9 26 68 45 36 56
REMARK Flexibility Score: inf
ROOT
ATOM      1  C   UNL A   1      31.639  31.927  26.645  1.00  0.00     0.042 C 
ENDROOT
BRANCH   1   2
ATOM      2  C   UNL A   1      31.763  30.414  26.488  1.00  0.00     0.117 C 
BRANCH   2   3
ATOM      3  N   UNL A   1      32.546  30.111  25.311  1.00  0.00    -0.356 N 
ATOM      4  C   UNL A   1      32.344  29.197  24.325  1.00  0.00     0.224 C 
ATOM      5  O   UNL A   1      33.325  28.936  23.624  1.00  0.00    -0.275 OA
ATOM      6  H   UNL A   1      33.360  30.656  25.206  1.00  0.00     0.163 HD
BRANCH   4   7
ATOM      7  C   UNL A   1      30.954  28.612  24.035  1.00  0.00     0.097 C 
ATOM      8  C   UNL A   1      30.587  29.088  22.606  1.00  0.00     0.020 C 
BRANCH   7   9
ATOM      9  C   UNL A   1      30.877  27.050  24.149  1.00  0.00     0.088 C 
ATOM     10  C   UNL A   1      31.266  26.319  22.856  1.00  0.00     0.031 C 
BRANCH   9  11
ATOM     11  N   UNL A   1      31.819  26.591  25.172  1.00  0.00    -0.381 N 
ATOM     12  H   UNL A   1      32.379  27.301  25.561  1.00  0.00     0.160 HD
BRANCH  11  13
ATOM     13  C   UNL A   1      32.054  25.319  25.689  1.00  0.00     0.042 A 
ATOM     14  C   UNL A   1      30.880  24.665  26.133  1.00  0.00     0.026 A 
ATOM     15  C   UNL A   1      33.300  24.612  25.799  1.00  0.00     0.005 A 
ATOM     16  C   UNL A   1      30.906  23.436  26.776  1.00  0.00     0.003 A 
ATOM     17  C   UNL A   1      33.312  23.384  26.525  1.00  0.00    -0.016 A 
ATOM     18  C   UNL A   1      34.553  24.997  25.249  1.00  0.00     0.011 A 
ATOM     19  C   UNL A   1      32.124  22.824  27.007  1.00  0.00     0.009 A 
ATOM     20  C   UNL A   1      34.511  22.691  26.766  1.00  0.00     0.009 A 
ATOM     21  C   UNL A   1      35.734  24.272  25.455  1.00  0.00     0.001 A 
ATOM     22  C   UNL A   1      35.719  23.135  26.241  1.00  0.00     0.001 A 
ENDBRANCH  11  13
ENDBRANCH   9  11
ENDBRANCH   7   9
ENDBRANCH   4   7
ENDBRANCH   2   3
ENDBRANCH   1   2
BRANCH   1  23
ATOM     23  C   UNL A   1      32.849  32.570  27.298  1.00  0.00     0.118 C 
BRANCH  23  24
ATOM     24  N   UNL A   1      32.596  33.954  27.667  1.00  0.00    -0.352 N 
ATOM     25  C   UNL A   1      33.144  34.697  28.688  1.00  0.00     0.251 C 
ATOM     26  H   UNL A   1      31.939  34.427  27.106  1.00  0.00     0.163 HD
ATOM     27  O   UNL A   1      32.638  35.771  28.995  1.00  0.00    -0.269 OA
BRANCH  25  28
ATOM     28  C   UNL A   1      34.332  34.195  29.417  1.00  0.00     0.039 A 
ATOM     29  C   UNL A   1      34.156  33.454  30.589  1.00  0.00     0.014 A 
ATOM     30  C   UNL A   1      35.619  34.466  28.951  1.00  0.00     0.014 A 
ATOM     31  C   UNL A   1      35.270  32.937  31.260  1.00  0.00     0.010 A 
ATOM     32  C   UNL A   1      36.714  33.862  29.553  1.00  0.00     0.010 A 
ATOM     33  C   UNL A   1      36.558  33.113  30.729  1.00  0.00    -0.014 A 
BRANCH  33  34
ATOM     34  C   UNL A   1      37.776  32.578  31.390  1.00  0.00     0.031 A 
ATOM     35  C   UNL A   1      38.514  31.431  30.751  1.00  0.00     0.074 A 
ATOM     36  C   UNL A   1      38.136  33.017  32.610  1.00  0.00     0.049 A 
ATOM     37  N   UNL A   1      39.469  30.685  31.239  1.00  0.00    -0.248 NA
ATOM     38  C   UNL A   1      38.082  31.044  29.397  1.00  0.00     0.031 C 
ATOM     39  C   UNL A   1      37.464  34.078  33.362  1.00  0.00     0.029 A 
ATOM     40  N   UNL A   1      39.129  32.588  33.456  1.00  0.00    -0.354 N 
ATOM     41  C   UNL A   1      39.707  29.706  30.282  1.00  0.00     0.074 A 
ATOM     42  C   UNL A   1      38.771  29.931  29.203  1.00  0.00     0.031 C 
ATOM     43  C   UNL A   1      38.051  34.204  34.562  1.00  0.00     0.029 A 
ATOM     44  C   UNL A   1      39.108  33.206  34.685  1.00  0.00     0.049 A 
ATOM     45  H   UNL A   1      39.792  31.903  33.207  1.00  0.00     0.167 HD
ATOM     46  C   UNL A   1      40.636  28.720  30.288  1.00  0.00     0.034 A 
ATOM     47  C   UNL A   1      39.835  32.973  35.796  1.00  0.00     0.034 A 
ATOM     48  C   UNL A   1      41.590  28.532  31.345  1.00  0.00     0.049 A 
ATOM     49  C   UNL A   1      40.891  31.901  35.772  1.00  0.00     0.074 A 
ATOM     50  C   UNL A   1      42.635  27.628  31.409  1.00  0.00     0.029 A 
ATOM     51  N   UNL A   1      41.609  29.253  32.528  1.00  0.00    -0.354 N 
ATOM     52  N   UNL A   1      41.194  31.068  34.806  1.00  0.00    -0.248 NA
ATOM     53  C   UNL A   1      41.726  31.757  36.972  1.00  0.00     0.031 C 
ATOM     54  C   UNL A   1      43.263  27.779  32.650  1.00  0.00     0.029 A 
ATOM     55  C   UNL A   1      42.640  28.810  33.337  1.00  0.00     0.049 A 
ATOM     56  H   UNL A   1      40.980  29.976  32.760  1.00  0.00     0.167 HD
ATOM     57  C   UNL A   1      42.281  30.331  35.264  1.00  0.00     0.074 A 
ATOM     58  C   UNL A   1      42.584  30.819  36.593  1.00  0.00     0.031 C 
ATOM     59  C   UNL A   1      42.964  29.343  34.636  1.00  0.00     0.034 A 
BRANCH  46  60
ATOM     60  C   UNL A   1      40.673  27.792  29.100  1.00  0.00     0.023 A 
ATOM     61  C   UNL A   1      39.805  26.680  29.047  1.00  0.00     0.012 A 
ATOM     62  C   UNL A   1      41.555  28.026  28.027  1.00  0.00     0.148 A 
ATOM     63  C   UNL A   1      39.859  25.784  27.981  1.00  0.00     0.002 A 
ATOM     64  C   UNL A   1      41.564  27.160  26.941  1.00  0.00     0.091 A 
ATOM     65  F   UNL A   1      42.387  29.076  28.098  1.00  0.00    -0.205 F 
ATOM     66  C   UNL A   1      40.732  26.028  26.924  1.00  0.00     0.022 A 
BRANCH  64  67
ATOM     67  S   UNL A   1      42.588  27.439  25.492  1.00  0.00     0.127 S 
ATOM     68  O   UNL A   1      43.931  27.393  26.067  1.00  0.00    -0.237 OA
ATOM     69  O   UNL A   1      42.246  26.293  24.647  1.00  0.00    -0.237 OA
ATOM     70  O   UNL A   1      42.176  28.729  24.956  1.00  0.00    -0.744 OA
ENDBRANCH  64  67
ENDBRANCH  46  60
BRANCH  47  71
ATOM     71  C   UNL A   1      39.608  33.812  37.006  1.00  0.00     0.023 A 
ATOM     72  C   UNL A   1      39.979  35.170  36.989  1.00  0.00     0.012 A 
ATOM     73  C   UNL A   1      38.963  33.287  38.144  1.00  0.00     0.148 A 
ATOM     74  C   UNL A   1      39.730  35.987  38.092  1.00  0.00     0.002 A 
ATOM     75  C   UNL A   1      38.668  34.120  39.217  1.00  0.00     0.091 A 
ATOM     76  F   UNL A   1      38.618  31.992  38.137  1.00  0.00    -0.205 F 
ATOM     77  C   UNL A   1      39.064  35.467  39.199  1.00  0.00     0.022 A 
BRANCH  75  78
ATOM     78  S   UNL A   1      37.703  33.575  40.631  1.00  0.00     0.127 S 
ATOM     79  O   UNL A   1      37.620  34.797  41.428  1.00  0.00    -0.237 OA
ATOM     80  O   UNL A   1      36.450  33.167  39.996  1.00  0.00    -0.237 OA
ATOM     81  O   UNL A   1      38.459  32.486  41.235  1.00  0.00    -0.744 OA
ENDBRANCH  75  78
ENDBRANCH  47  71
BRANCH  59  82
ATOM     82  C   UNL A   1      44.157  28.748  35.336  1.00  0.00     0.023 A 
ATOM     83  C   UNL A   1      45.434  29.319  35.176  1.00  0.00     0.012 A 
ATOM     84  C   UNL A   1      43.979  27.693  36.254  1.00  0.00     0.148 A 
ATOM     85  C   UNL A   1      46.519  28.838  35.908  1.00  0.00     0.002 A 
ATOM     86  C   UNL A   1      45.052  27.255  37.018  1.00  0.00     0.091 A 
ATOM     87  F   UNL A   1      42.757  27.155  36.376  1.00  0.00    -0.205 F 
ATOM     88  C   UNL A   1      46.325  27.819  36.839  1.00  0.00     0.022 A 
BRANCH  86  89
ATOM     89  S   UNL A   1      44.874  26.025  38.315  1.00  0.00     0.127 S 
ATOM     90  O   UNL A   1      43.984  26.708  39.253  1.00  0.00    -0.237 OA
ATOM     91  O   UNL A   1      44.264  24.907  37.597  1.00  0.00    -0.237 OA
ATOM     92  O   UNL A   1      46.218  25.766  38.814  1.00  0.00    -0.744 OA
ENDBRANCH  86  89
ENDBRANCH  59  82
ENDBRANCH  33  34
ENDBRANCH  25  28
ENDBRANCH  23  24
ENDBRANCH   1  23
TORSDOF 16
ENDMDL
MODEL 2
REMARK VINA RESULT:     -11.9      2.547      3.384
REMARK SMILES C[C@H](C(=O)NCCCNC(=O)c1ccc(-c2c3nc(c(-c4cccc(S(=O)(=O)[O-])c4F)c4ccc([nH]4)c(-c4cccc(S(=O)(=O)[O-])c4F)c4nc(c(-c5cccc(S(=O)(=O)[O-])c5F)c5ccc2[nH]5)C=C4)C=C3)cc1)[C@@H](C)Nc1cccc2ccccc12
REMARK SMILES IDX 7 1 6 2 5 3 3 4 4 5 2 7 1 8 75 9 76 10 77 11 78 13 79 14
REMARK SMILES IDX 87 15 80 16 82 17 86 18 81 19 83 20 85 21 84 22 8 23 9 24
REMARK SMILES IDX 10 25 11 27 12 28 13 29 74 30 14 31 73 32 15 33 16 34 17 35
REMARK SMILES IDX 67 36 18 37 72 38 66 39 68 40 19 41 71 42 65 43 64 44 20 46
REMARK SMILES IDX 52 47 32 48 51 49 33 50 36 51 50 52 69 53 34 54 35 55 49 57
REMARK SMILES IDX 70 58 37 59 21 60 22 61 30 62 23 63 25 64 31 65 24 66 26 67
REMARK SMILES IDX 27 68 28 69 29 70 53 71 54 72 62 73 55 74 57 75 63 76 56 77
REMARK SMILES IDX 58 78 59 79 60 80 61 81 38 82 39 83 47 84 40 85 42 86 48 87
REMARK SMILES IDX 41 88 43 89 44 90 45 91 46 92
REMARK H PARENT 5 6 77 12 9 26 68 45 36 56
REMARK Flexibility Score: inf
ROOT
ATOM      1  C   UNL A   1      31.945  27.844  25.246  1.00  0.00     0.042 C 
ENDROOT
BRANCH   1   2
ATOM      2  C   UNL A   1      31.409  28.267  23.882  1.00  0.00     0.117 C 
BRANCH   2   3
ATOM      3  N   UNL A   1      32.467  28.189  22.899  1.00  0.00    -0.356 N 
ATOM      4  C   UNL A   1      32.894  27.146  22.139  1.00  0.00     0.224 C 
ATOM      5  O   UNL A   1      34.010  27.274  21.628  1.00  0.00    -0.275 OA
ATOM      6  H   UNL A   1      32.960  29.030  22.756  1.00  0.00     0.163 HD
BRANCH   4   7
ATOM      7  C   UNL A   1      31.997  25.934  21.849  1.00  0.00     0.097 C 
ATOM      8  C   UNL A   1      32.530  25.322  20.528  1.00  0.00     0.020 C 
BRANCH   7   9
ATOM      9  C   UNL A   1      31.966  24.865  22.996  1.00  0.00     0.088 C 
ATOM     10  C   UNL A   1      30.551  24.554  23.506  1.00  0.00     0.031 C 
BRANCH   9  11
ATOM     11  N   UNL A   1      32.503  23.599  22.494  1.00  0.00    -0.381 N 
ATOM     12  H   UNL A   1      32.463  23.496  21.515  1.00  0.00     0.160 HD
BRANCH  11  13
ATOM     13  C   UNL A   1      33.061  22.515  23.168  1.00  0.00     0.042 A 
ATOM     14  C   UNL A   1      32.208  21.387  23.222  1.00  0.00     0.026 A 
ATOM     15  C   UNL A   1      34.360  22.406  23.772  1.00  0.00     0.005 A 
ATOM     16  C   UNL A   1      32.528  20.241  23.937  1.00  0.00     0.003 A 
ATOM     17  C   UNL A   1      34.639  21.248  24.558  1.00  0.00    -0.016 A 
ATOM     18  C   UNL A   1      35.431  23.335  23.669  1.00  0.00     0.011 A 
ATOM     19  C   UNL A   1      33.721  20.195  24.635  1.00  0.00     0.009 A 
ATOM     20  C   UNL A   1      35.846  21.122  25.265  1.00  0.00     0.009 A 
ATOM     21  C   UNL A   1      36.650  23.174  24.341  1.00  0.00     0.001 A 
ATOM     22  C   UNL A   1      36.846  22.081  25.165  1.00  0.00     0.001 A 
ENDBRANCH  11  13
ENDBRANCH   9  11
ENDBRANCH   7   9
ENDBRANCH   4   7
ENDBRANCH   2   3
ENDBRANCH   1   2
BRANCH   1  23
ATOM     23  C   UNL A   1      33.049  28.745  25.770  1.00  0.00     0.118 C 
BRANCH  23  24
ATOM     24  N   UNL A   1      32.580  30.105  25.992  1.00  0.00    -0.352 N 
ATOM     25  C   UNL A   1      33.060  31.060  26.859  1.00  0.00     0.251 C 
ATOM     26  H   UNL A   1      31.810  30.381  25.444  1.00  0.00     0.163 HD
ATOM     27  O   UNL A   1      32.394  32.065  27.082  1.00  0.00    -0.269 OA
BRANCH  25  28
ATOM     28  C   UNL A   1      34.368  30.866  27.527  1.00  0.00     0.039 A 
ATOM     29  C   UNL A   1      35.255  31.943  27.627  1.00  0.00     0.014 A 
ATOM     30  C   UNL A   1      34.725  29.619  28.042  1.00  0.00     0.014 A 
ATOM     31  C   UNL A   1      36.473  31.780  28.296  1.00  0.00     0.010 A 
ATOM     32  C   UNL A   1      35.881  29.490  28.800  1.00  0.00     0.010 A 
ATOM     33  C   UNL A   1      36.783  30.559  28.913  1.00  0.00    -0.014 A 
BRANCH  33  34
ATOM     34  C   UNL A   1      38.054  30.332  29.646  1.00  0.00     0.031 A 
ATOM     35  C   UNL A   1      39.068  29.373  29.079  1.00  0.00     0.074 A 
ATOM     36  C   UNL A   1      38.240  30.866  30.868  1.00  0.00     0.049 A 
ATOM     37  N   UNL A   1      40.141  28.876  29.634  1.00  0.00    -0.248 NA
ATOM     38  C   UNL A   1      38.808  28.870  27.719  1.00  0.00     0.031 C 
ATOM     39  C   UNL A   1      37.305  31.758  31.554  1.00  0.00     0.029 A 
ATOM     40  N   UNL A   1      39.259  30.693  31.772  1.00  0.00    -0.354 N 
ATOM     41  C   UNL A   1      40.647  27.959  28.720  1.00  0.00     0.074 A 
ATOM     42  C   UNL A   1      39.743  27.942  27.592  1.00  0.00     0.031 C 
ATOM     43  C   UNL A   1      37.783  32.039  32.776  1.00  0.00     0.029 A 
ATOM     44  C   UNL A   1      39.033  31.313  32.979  1.00  0.00     0.049 A 
ATOM     45  H   UNL A   1      40.073  30.174  31.576  1.00  0.00     0.167 HD
ATOM     46  C   UNL A   1      41.775  27.214  28.800  1.00  0.00     0.034 A 
ATOM     47  C   UNL A   1      39.733  31.275  34.130  1.00  0.00     0.034 A 
ATOM     48  C   UNL A   1      42.690  27.271  29.906  1.00  0.00     0.049 A 
ATOM     49  C   UNL A   1      41.006  30.475  34.189  1.00  0.00     0.074 A 
ATOM     50  C   UNL A   1      43.909  26.633  30.048  1.00  0.00     0.029 A 
ATOM     51  N   UNL A   1      42.481  28.000  31.066  1.00  0.00    -0.354 N 
ATOM     52  N   UNL A   1      41.543  29.715  33.265  1.00  0.00    -0.248 NA
ATOM     53  C   UNL A   1      41.787  30.550  35.431  1.00  0.00     0.031 C 
ATOM     54  C   UNL A   1      44.420  26.949  31.311  1.00  0.00     0.029 A 
ATOM     55  C   UNL A   1      43.542  27.822  31.935  1.00  0.00     0.049 A 
ATOM     56  H   UNL A   1      41.692  28.564  31.245  1.00  0.00     0.167 HD
ATOM     57  C   UNL A   1      42.744  29.257  33.795  1.00  0.00     0.074 A 
ATOM     58  C   UNL A   1      42.857  29.827  35.122  1.00  0.00     0.031 C 
ATOM     59  C   UNL A   1      43.667  28.440  33.231  1.00  0.00     0.034 A 
BRANCH  46  60
ATOM     60  C   UNL A   1      42.086  26.296  27.645  1.00  0.00     0.023 A 
ATOM     61  C   UNL A   1      42.788  26.788  26.523  1.00  0.00     0.012 A 
ATOM     62  C   UNL A   1      41.696  24.943  27.671  1.00  0.00     0.148 A 
ATOM     63  C   UNL A   1      43.040  25.968  25.425  1.00  0.00     0.002 A 
ATOM     64  C   UNL A   1      42.000  24.117  26.597  1.00  0.00     0.091 A 
ATOM     65  F   UNL A   1      41.013  24.494  28.735  1.00  0.00    -0.205 F 
ATOM     66  C   UNL A   1      42.654  24.631  25.465  1.00  0.00     0.022 A 
BRANCH  64  67
ATOM     67  S   UNL A   1      41.625  22.360  26.594  1.00  0.00     0.127 S 
ATOM     68  O   UNL A   1      42.250  21.923  27.841  1.00  0.00    -0.237 OA
ATOM     69  O   UNL A   1      40.161  22.358  26.612  1.00  0.00    -0.237 OA
ATOM     70  O   UNL A   1      42.215  21.829  25.373  1.00  0.00    -0.744 OA
ENDBRANCH  64  67
ENDBRANCH  46  60
BRANCH  47  71
ATOM     71  C   UNL A   1      39.257  32.063  35.302  1.00  0.00     0.023 A 
ATOM     72  C   UNL A   1      38.407  31.458  36.246  1.00  0.00     0.012 A 
ATOM     73  C   UNL A   1      39.702  33.383  35.519  1.00  0.00     0.148 A 
ATOM     74  C   UNL A   1      37.990  32.160  37.378  1.00  0.00     0.002 A 
ATOM     75  C   UNL A   1      39.326  34.056  36.676  1.00  0.00     0.091 A 
ATOM     76  F   UNL A   1      40.512  33.937  34.607  1.00  0.00    -0.205 F 
ATOM     77  C   UNL A   1      38.458  33.452  37.599  1.00  0.00     0.022 A 
BRANCH  75  78
ATOM     78  S   UNL A   1      39.980  35.673  37.112  1.00  0.00     0.127 S 
ATOM     79  O   UNL A   1      41.400  35.385  37.290  1.00  0.00    -0.237 OA
ATOM     80  O   UNL A   1      39.654  36.456  35.919  1.00  0.00    -0.237 OA
ATOM     81  O   UNL A   1      39.269  36.079  38.316  1.00  0.00    -0.744 OA
ENDBRANCH  75  78
ENDBRANCH  47  71
BRANCH  59  82
ATOM     82  C   UNL A   1      44.926  28.150  34.004  1.00  0.00     0.023 A 
ATOM     83  C   UNL A   1      46.027  29.024  33.926  1.00  0.00     0.012 A 
ATOM     84  C   UNL A   1      44.961  27.068  34.908  1.00  0.00     0.148 A 
ATOM     85  C   UNL A   1      47.151  28.815  34.725  1.00  0.00     0.002 A 
ATOM     86  C   UNL A   1      46.060  26.898  35.737  1.00  0.00     0.091 A 
ATOM     87  F   UNL A   1      43.907  26.240  34.951  1.00  0.00    -0.205 F 
ATOM     88  C   UNL A   1      47.161  27.765  35.640  1.00  0.00     0.022 A 
BRANCH  86  89
ATOM     89  S   UNL A   1      46.117  25.640  37.020  1.00  0.00     0.127 S 
ATOM     90  O   UNL A   1      47.380  25.954  37.687  1.00  0.00    -0.237 OA
ATOM     91  O   UNL A   1      44.920  25.945  37.802  1.00  0.00    -0.237 OA
ATOM     92  O   UNL A   1      46.082  24.358  36.330  1.00  0.00    -0.744 OA
ENDBRANCH  86  89
ENDBRANCH  59  82
ENDBRANCH  33  34
ENDBRANCH  25  28
ENDBRANCH  23  24
ENDBRANCH   1  23
TORSDOF 16
ENDMDL
MODEL 3
REMARK VINA RESULT:     -11.9      5.966     10.643
REMARK SMILES C[C@H](C(=O)NCCCNC(=O)c1ccc(-c2c3nc(c(-c4cccc(S(=O)(=O)[O-])c4F)c4ccc([nH]4)c(-c4cccc(S(=O)(=O)[O-])c4F)c4nc(c(-c5cccc(S(=O)(=O)[O-])c5F)c5ccc2[nH]5)C=C4)C=C3)cc1)[C@@H](C)Nc1cccc2ccccc12
REMARK SMILES IDX 7 1 6 2 5 3 3 4 4 5 2 7 1 8 75 9 76 10 77 11 78 13 79 14
REMARK SMILES IDX 87 15 80 16 82 17 86 18 81 19 83 20 85 21 84 22 8 23 9 24
REMARK SMILES IDX 10 25 11 27 12 28 13 29 74 30 14 31 73 32 15 33 16 34 17 35
REMARK SMILES IDX 67 36 18 37 72 38 66 39 68 40 19 41 71 42 65 43 64 44 20 46
REMARK SMILES IDX 52 47 32 48 51 49 33 50 36 51 50 52 69 53 34 54 35 55 49 57
REMARK SMILES IDX 70 58 37 59 21 60 22 61 30 62 23 63 25 64 31 65 24 66 26 67
REMARK SMILES IDX 27 68 28 69 29 70 53 71 54 72 62 73 55 74 57 75 63 76 56 77
REMARK SMILES IDX 58 78 59 79 60 80 61 81 38 82 39 83 47 84 40 85 42 86 48 87
REMARK SMILES IDX 41 88 43 89 44 90 45 91 46 92
REMARK H PARENT 5 6 77 12 9 26 68 45 36 56
REMARK Flexibility Score: inf
ROOT
ATOM      1  C   UNL A   1      35.199  22.995  24.552  1.00  0.00     0.042 C 
ENDROOT
BRANCH   1   2
ATOM      2  C   UNL A   1      34.686  24.430  24.487  1.00  0.00     0.117 C 
BRANCH   2   3
ATOM      3  N   UNL A   1      34.453  24.801  23.108  1.00  0.00    -0.356 N 
ATOM      4  C   UNL A   1      33.585  25.696  22.567  1.00  0.00     0.224 C 
ATOM      5  O   UNL A   1      33.375  25.576  21.357  1.00  0.00    -0.275 OA
ATOM      6  H   UNL A   1      35.016  24.327  22.454  1.00  0.00     0.163 HD
BRANCH   4   7
ATOM      7  C   UNL A   1      32.990  26.847  23.390  1.00  0.00     0.097 C 
ATOM      8  C   UNL A   1      33.475  28.150  22.703  1.00  0.00     0.020 C 
BRANCH   7   9
ATOM      9  C   UNL A   1      31.426  26.816  23.506  1.00  0.00     0.088 C 
ATOM     10  C   UNL A   1      30.713  27.596  22.393  1.00  0.00     0.031 C 
BRANCH   9  11
ATOM     11  N   UNL A   1      30.960  25.432  23.394  1.00  0.00    -0.381 N 
ATOM     12  H   UNL A   1      30.509  25.219  22.545  1.00  0.00     0.160 HD
BRANCH  11  13
ATOM     13  C   UNL A   1      31.046  24.367  24.287  1.00  0.00     0.042 A 
ATOM     14  C   UNL A   1      30.630  24.697  25.599  1.00  0.00     0.026 A 
ATOM     15  C   UNL A   1      31.471  23.018  24.036  1.00  0.00     0.005 A 
ATOM     16  C   UNL A   1      30.736  23.811  26.662  1.00  0.00     0.003 A 
ATOM     17  C   UNL A   1      31.638  22.148  25.154  1.00  0.00    -0.016 A 
ATOM     18  C   UNL A   1      31.744  22.429  22.770  1.00  0.00     0.011 A 
ATOM     19  C   UNL A   1      31.279  22.558  26.442  1.00  0.00     0.009 A 
ATOM     20  C   UNL A   1      32.153  20.849  24.997  1.00  0.00     0.009 A 
ATOM     21  C   UNL A   1      32.211  21.116  22.623  1.00  0.00     0.001 A 
ATOM     22  C   UNL A   1      32.445  20.336  23.740  1.00  0.00     0.001 A 
ENDBRANCH  11  13
ENDBRANCH   9  11
ENDBRANCH   7   9
ENDBRANCH   4   7
ENDBRANCH   2   3
ENDBRANCH   1   2
BRANCH   1  23
ATOM     23  C   UNL A   1      35.954  22.678  25.830  1.00  0.00     0.118 C 
BRANCH  23  24
ATOM     24  N   UNL A   1      36.812  21.512  25.679  1.00  0.00    -0.352 N 
ATOM     25  C   UNL A   1      38.183  21.424  25.760  1.00  0.00     0.251 C 
ATOM     26  H   UNL A   1      36.345  20.665  25.492  1.00  0.00     0.163 HD
ATOM     27  O   UNL A   1      38.749  20.408  25.370  1.00  0.00    -0.269 OA
BRANCH  25  28
ATOM     28  C   UNL A   1      38.969  22.556  26.304  1.00  0.00     0.039 A 
ATOM     29  C   UNL A   1      40.032  22.299  27.175  1.00  0.00     0.014 A 
ATOM     30  C   UNL A   1      38.649  23.872  25.964  1.00  0.00     0.014 A 
ATOM     31  C   UNL A   1      40.807  23.359  27.658  1.00  0.00     0.010 A 
ATOM     32  C   UNL A   1      39.485  24.909  26.354  1.00  0.00     0.010 A 
ATOM     33  C   UNL A   1      40.557  24.671  27.227  1.00  0.00    -0.014 A 
BRANCH  33  34
ATOM     34  C   UNL A   1      41.353  25.834  27.696  1.00  0.00     0.031 A 
ATOM     35  C   UNL A   1      40.667  26.933  28.462  1.00  0.00     0.074 A 
ATOM     36  C   UNL A   1      42.639  25.973  27.322  1.00  0.00     0.049 A 
ATOM     37  N   UNL A   1      41.111  28.117  28.792  1.00  0.00    -0.248 NA
ATOM     38  C   UNL A   1      39.273  26.680  28.869  1.00  0.00     0.031 C 
ATOM     39  C   UNL A   1      43.399  25.008  26.525  1.00  0.00     0.029 A 
ATOM     40  N   UNL A   1      43.520  27.007  27.521  1.00  0.00    -0.354 N 
ATOM     41  C   UNL A   1      40.037  28.770  29.386  1.00  0.00     0.074 A 
ATOM     42  C   UNL A   1      38.911  27.864  29.336  1.00  0.00     0.031 C 
ATOM     43  C   UNL A   1      44.623  25.504  26.287  1.00  0.00     0.029 A 
ATOM     44  C   UNL A   1      44.722  26.837  26.874  1.00  0.00     0.049 A 
ATOM     45  H   UNL A   1      43.311  27.795  28.074  1.00  0.00     0.167 HD
ATOM     46  C   UNL A   1      39.995  30.003  29.944  1.00  0.00     0.034 A 
ATOM     47  C   UNL A   1      45.771  27.672  26.738  1.00  0.00     0.034 A 
ATOM     48  C   UNL A   1      41.131  30.878  30.027  1.00  0.00     0.049 A 
ATOM     49  C   UNL A   1      45.725  29.023  27.399  1.00  0.00     0.074 A 
ATOM     50  C   UNL A   1      41.227  32.106  30.654  1.00  0.00     0.029 A 
ATOM     51  N   UNL A   1      42.368  30.621  29.455  1.00  0.00    -0.354 N 
ATOM     52  N   UNL A   1      44.745  29.574  28.074  1.00  0.00    -0.248 NA
ATOM     53  C   UNL A   1      46.933  29.853  27.311  1.00  0.00     0.031 C 
ATOM     54  C   UNL A   1      42.512  32.610  30.429  1.00  0.00     0.029 A 
ATOM     55  C   UNL A   1      43.232  31.672  29.704  1.00  0.00     0.049 A 
ATOM     56  H   UNL A   1      42.598  29.809  28.947  1.00  0.00     0.167 HD
ATOM     57  C   UNL A   1      45.232  30.795  28.527  1.00  0.00     0.074 A 
ATOM     58  C   UNL A   1      46.596  30.902  28.051  1.00  0.00     0.031 C 
ATOM     59  C   UNL A   1      44.605  31.739  29.271  1.00  0.00     0.034 A 
BRANCH  46  60
ATOM     60  C   UNL A   1      38.681  30.458  30.527  1.00  0.00     0.023 A 
ATOM     61  C   UNL A   1      38.405  30.245  31.894  1.00  0.00     0.012 A 
ATOM     62  C   UNL A   1      37.723  31.111  29.727  1.00  0.00     0.148 A 
ATOM     63  C   UNL A   1      37.176  30.614  32.439  1.00  0.00     0.002 A 
ATOM     64  C   UNL A   1      36.523  31.527  30.289  1.00  0.00     0.091 A 
ATOM     65  F   UNL A   1      37.991  31.291  28.424  1.00  0.00    -0.205 F 
ATOM     66  C   UNL A   1      36.239  31.262  31.639  1.00  0.00     0.022 A 
BRANCH  64  67
ATOM     67  S   UNL A   1      35.292  32.450  29.363  1.00  0.00     0.127 S 
ATOM     68  O   UNL A   1      34.281  32.704  30.389  1.00  0.00    -0.237 OA
ATOM     69  O   UNL A   1      36.044  33.633  28.943  1.00  0.00    -0.237 OA
ATOM     70  O   UNL A   1      34.877  31.579  28.273  1.00  0.00    -0.744 OA
ENDBRANCH  64  67
ENDBRANCH  46  60
BRANCH  47  71
ATOM     71  C   UNL A   1      46.971  27.221  25.979  1.00  0.00     0.023 A 
ATOM     72  C   UNL A   1      47.850  26.287  26.559  1.00  0.00     0.012 A 
ATOM     73  C   UNL A   1      47.202  27.658  24.659  1.00  0.00     0.148 A 
ATOM     74  C   UNL A   1      48.951  25.811  25.846  1.00  0.00     0.002 A 
ATOM     75  C   UNL A   1      48.270  27.139  23.936  1.00  0.00     0.091 A 
ATOM     76  F   UNL A   1      46.352  28.547  24.127  1.00  0.00    -0.205 F 
ATOM     77  C   UNL A   1      49.154  26.227  24.533  1.00  0.00     0.022 A 
BRANCH  75  78
ATOM     78  S   UNL A   1      48.539  27.515  22.200  1.00  0.00     0.127 S 
ATOM     79  O   UNL A   1      48.652  26.180  21.617  1.00  0.00    -0.237 OA
ATOM     80  O   UNL A   1      47.312  28.235  21.858  1.00  0.00    -0.237 OA
ATOM     81  O   UNL A   1      49.750  28.322  22.149  1.00  0.00    -0.744 OA
ENDBRANCH  75  78
ENDBRANCH  47  71
BRANCH  59  82
ATOM     82  C   UNL A   1      45.390  32.955  29.686  1.00  0.00     0.023 A 
ATOM     83  C   UNL A   1      46.165  32.934  30.861  1.00  0.00     0.012 A 
ATOM     84  C   UNL A   1      45.452  34.076  28.833  1.00  0.00     0.148 A 
ATOM     85  C   UNL A   1      46.978  34.019  31.189  1.00  0.00     0.002 A 
ATOM     86  C   UNL A   1      46.303  35.128  29.139  1.00  0.00     0.091 A 
ATOM     87  F   UNL A   1      44.691  34.079  27.729  1.00  0.00    -0.205 F 
ATOM     88  C   UNL A   1      47.060  35.107  30.321  1.00  0.00     0.022 A 
BRANCH  86  89
ATOM     89  S   UNL A   1      46.555  36.520  28.029  1.00  0.00     0.127 S 
ATOM     90  O   UNL A   1      45.179  36.879  27.688  1.00  0.00    -0.237 OA
ATOM     91  O   UNL A   1      47.242  37.480  28.892  1.00  0.00    -0.237 OA
ATOM     92  O   UNL A   1      47.356  36.015  26.923  1.00  0.00    -0.744 OA
ENDBRANCH  86  89
ENDBRANCH  59  82
ENDBRANCH  33  34
ENDBRANCH  25  28
ENDBRANCH  23  24
ENDBRANCH   1  23
TORSDOF 16
ENDMDL
