MODEL 1
REMARK VINA RESULT:     -13.2      0.000      0.000
REMARK SMILES Cc1cccc(O[C@H](C)C(=O)NNC(=O)[C@H]2[C@@H]3CC[C@@H](C3)[C@@H]2C(=O)NCCCNC(=O)c2ccc(-c3c4nc(c(-c5cccc(S(=O)(=O)[O-])c5F)c5ccc([nH]5)c(-c5cccc(S(=O)(=O)[O-])c5F)c5nc(c(-c6cccc(S(=O)(=O)[O-])c6F)c6ccc3[nH]6)C=C5)C=C4)cc2)c1
REMARK SMILES IDX 26 1 25 2 23 3 24 4 22 6 16 7 17 8 18 9 21 10 20 11 19 12
REMARK SMILES IDX 14 13 13 14 15 16 12 17 10 18 11 19 8 21 9 22 7 23 6 24 1 25
REMARK SMILES IDX 2 26 3 27 95 28 4 29 5 30 27 31 28 32 29 33 30 34 31 36
REMARK SMILES IDX 32 37 33 38 94 39 34 40 93 41 35 42 36 43 37 44 87 45 38 46
REMARK SMILES IDX 92 47 86 48 88 49 39 50 91 51 85 52 84 53 40 55 72 56 52 57
REMARK SMILES IDX 71 58 53 59 56 60 70 61 89 62 54 63 55 64 69 66 90 67 57 68
REMARK SMILES IDX 41 69 42 70 50 71 43 72 45 73 51 74 44 75 46 76 47 77 48 78
REMARK SMILES IDX 49 79 73 80 74 81 82 82 75 83 77 84 83 85 76 86 78 87 79 88
REMARK SMILES IDX 80 89 81 90 58 91 59 92 67 93 60 94 62 95 68 96 61 97 63 98
REMARK SMILES IDX 64 99 65 100 66 101
REMARK H PARENT 25 5 13 15 12 20 29 35 88 54 56 65
REMARK Flexibility Score: inf
ROOT
ATOM      1  C   UNL A   1      33.739  28.077  26.752  1.00  0.00     0.117 C 
ENDROOT
BRANCH   1   2
ATOM      2  N   UNL A   1      34.228  27.250  25.657  1.00  0.00    -0.356 N 
ATOM      3  C   UNL A   1      33.788  26.013  25.265  1.00  0.00     0.224 C 
ATOM      4  O   UNL A   1      34.328  25.437  24.326  1.00  0.00    -0.275 OA
ATOM      5  H   UNL A   1      34.970  27.626  25.133  1.00  0.00     0.163 HD
BRANCH   3   6
ATOM      6  C   UNL A   1      32.628  25.415  26.044  1.00  0.00     0.094 C 
ATOM      7  C   UNL A   1      32.526  23.882  26.006  1.00  0.00     0.096 C 
ATOM      8  C   UNL A   1      31.041  23.632  25.639  1.00  0.00     0.002 C 
ATOM      9  C   UNL A   1      30.875  23.917  24.131  1.00  0.00     0.005 C 
ATOM     10  C   UNL A   1      30.316  24.841  26.224  1.00  0.00     0.009 C 
ATOM     11  C   UNL A   1      31.233  25.847  25.527  1.00  0.00     0.002 C 
ATOM     12  C   UNL A   1      31.044  25.443  24.053  1.00  0.00     0.005 C 
BRANCH   7  13
ATOM     13  C   UNL A   1      33.001  23.079  27.215  1.00  0.00     0.242 C 
ATOM     14  N   UNL A   1      34.298  22.771  27.507  1.00  0.00    -0.267 N 
ATOM     15  H   UNL A   1      34.423  22.042  28.157  1.00  0.00     0.191 HD
ATOM     16  O   UNL A   1      32.151  22.691  28.029  1.00  0.00    -0.273 OA
BRANCH  14  17
ATOM     17  N   UNL A   1      35.452  23.333  27.024  1.00  0.00    -0.264 N 
ATOM     18  C   UNL A   1      36.175  22.983  25.928  1.00  0.00     0.279 C 
ATOM     19  O   UNL A   1      37.053  23.800  25.601  1.00  0.00    -0.269 OA
ATOM     20  H   UNL A   1      35.804  24.093  27.542  1.00  0.00     0.191 HD
BRANCH  18  21
ATOM     21  C   UNL A   1      36.080  21.633  25.161  1.00  0.00     0.260 C 
ATOM     22  C   UNL A   1      37.419  21.326  24.473  1.00  0.00     0.064 C 
BRANCH  21  23
ATOM     23  O   UNL A   1      35.313  20.504  25.508  1.00  0.00    -0.481 OA
BRANCH  23  24
ATOM     24  C   UNL A   1      34.298  19.973  24.783  1.00  0.00     0.120 A 
ATOM     25  C   UNL A   1      33.743  16.443  23.442  1.00  0.00     0.044 C 
ATOM     26  C   UNL A   1      33.551  17.904  23.726  1.00  0.00    -0.047 A 
ATOM     27  C   UNL A   1      32.504  18.604  23.123  1.00  0.00     0.003 A 
ATOM     28  C   UNL A   1      34.433  18.596  24.563  1.00  0.00     0.049 A 
ATOM     29  C   UNL A   1      32.338  19.965  23.371  1.00  0.00     0.004 A 
ATOM     30  C   UNL A   1      33.226  20.648  24.207  1.00  0.00     0.046 A 
ENDBRANCH  23  24
ENDBRANCH  21  23
ENDBRANCH  18  21
ENDBRANCH  14  17
ENDBRANCH   7  13
ENDBRANCH   3   6
ENDBRANCH   1   2
BRANCH   1  31
ATOM     31  C   UNL A   1      33.584  29.541  26.359  1.00  0.00     0.042 C 
BRANCH  31  32
ATOM     32  C   UNL A   1      33.489  30.440  27.576  1.00  0.00     0.118 C 
BRANCH  32  33
ATOM     33  N   UNL A   1      34.416  31.562  27.529  1.00  0.00    -0.352 N 
ATOM     34  C   UNL A   1      35.739  31.650  27.916  1.00  0.00     0.251 C 
ATOM     35  H   UNL A   1      34.039  32.394  27.162  1.00  0.00     0.163 HD
ATOM     36  O   UNL A   1      36.267  32.762  27.914  1.00  0.00    -0.269 OA
BRANCH  34  37
ATOM     37  C   UNL A   1      36.540  30.425  28.163  1.00  0.00     0.039 A 
ATOM     38  C   UNL A   1      36.727  30.028  29.496  1.00  0.00     0.014 A 
ATOM     39  C   UNL A   1      37.306  29.848  27.157  1.00  0.00     0.014 A 
ATOM     40  C   UNL A   1      37.863  29.303  29.843  1.00  0.00     0.010 A 
ATOM     41  C   UNL A   1      38.483  29.235  27.504  1.00  0.00     0.010 A 
ATOM     42  C   UNL A   1      38.796  29.041  28.852  1.00  0.00    -0.014 A 
BRANCH  42  43
ATOM     43  C   UNL A   1      40.154  28.590  29.066  1.00  0.00     0.031 A 
ATOM     44  C   UNL A   1      40.456  27.154  28.892  1.00  0.00     0.074 A 
ATOM     45  C   UNL A   1      41.132  29.529  29.055  1.00  0.00     0.049 A 
ATOM     46  N   UNL A   1      41.629  26.652  29.052  1.00  0.00    -0.248 NA
ATOM     47  C   UNL A   1      39.449  26.155  28.534  1.00  0.00     0.031 C 
ATOM     48  C   UNL A   1      42.533  29.329  28.695  1.00  0.00     0.029 A 
ATOM     49  N   UNL A   1      41.112  30.857  29.505  1.00  0.00    -0.354 N 
ATOM     50  C   UNL A   1      41.611  25.390  28.508  1.00  0.00     0.074 A 
ATOM     51  C   UNL A   1      40.216  25.075  28.342  1.00  0.00     0.031 C 
ATOM     52  C   UNL A   1      43.260  30.332  29.210  1.00  0.00     0.029 A 
ATOM     53  C   UNL A   1      42.372  31.052  30.102  1.00  0.00     0.049 A 
ATOM     54  H   UNL A   1      40.378  31.508  29.424  1.00  0.00     0.167 HD
ATOM     55  C   UNL A   1      42.799  24.843  28.133  1.00  0.00     0.034 A 
ATOM     56  C   UNL A   1      42.571  31.161  31.452  1.00  0.00     0.034 A 
ATOM     57  C   UNL A   1      43.923  25.635  28.662  1.00  0.00     0.049 A 
ATOM     58  C   UNL A   1      43.541  30.128  32.029  1.00  0.00     0.074 A 
ATOM     59  C   UNL A   1      44.848  26.501  28.108  1.00  0.00     0.029 A 
ATOM     60  N   UNL A   1      44.032  25.785  30.042  1.00  0.00    -0.354 N 
ATOM     61  N   UNL A   1      44.050  29.124  31.366  1.00  0.00    -0.248 NA
ATOM     62  C   UNL A   1      43.986  30.134  33.418  1.00  0.00     0.031 C 
ATOM     63  C   UNL A   1      45.471  27.220  29.173  1.00  0.00     0.029 A 
ATOM     64  C   UNL A   1      44.958  26.760  30.374  1.00  0.00     0.049 A 
ATOM     65  H   UNL A   1      43.517  25.263  30.698  1.00  0.00     0.167 HD
ATOM     66  C   UNL A   1      44.745  28.287  32.209  1.00  0.00     0.074 A 
ATOM     67  C   UNL A   1      44.728  29.013  33.471  1.00  0.00     0.031 C 
ATOM     68  C   UNL A   1      45.206  27.057  31.789  1.00  0.00     0.034 A 
BRANCH  55  69
ATOM     69  C   UNL A   1      42.995  23.691  27.157  1.00  0.00     0.023 A 
ATOM     70  C   UNL A   1      43.748  23.964  25.991  1.00  0.00     0.012 A 
ATOM     71  C   UNL A   1      42.418  22.397  27.228  1.00  0.00     0.148 A 
ATOM     72  C   UNL A   1      43.898  23.034  24.955  1.00  0.00     0.002 A 
ATOM     73  C   UNL A   1      42.617  21.447  26.219  1.00  0.00     0.091 A 
ATOM     74  F   UNL A   1      41.594  22.079  28.226  1.00  0.00    -0.205 F 
ATOM     75  C   UNL A   1      43.343  21.769  25.071  1.00  0.00     0.022 A 
BRANCH  73  76
ATOM     76  S   UNL A   1      41.952  19.771  26.321  1.00  0.00     0.127 S 
ATOM     77  O   UNL A   1      42.669  19.090  25.243  1.00  0.00    -0.237 OA
ATOM     78  O   UNL A   1      42.344  19.357  27.667  1.00  0.00    -0.237 OA
ATOM     79  O   UNL A   1      40.512  19.887  26.125  1.00  0.00    -0.744 OA
ENDBRANCH  73  76
ENDBRANCH  55  69
BRANCH  56  80
ATOM     80  C   UNL A   1      41.409  31.757  32.180  1.00  0.00     0.023 A 
ATOM     81  C   UNL A   1      41.050  33.080  31.828  1.00  0.00     0.012 A 
ATOM     82  C   UNL A   1      40.467  30.954  32.849  1.00  0.00     0.148 A 
ATOM     83  C   UNL A   1      39.737  33.527  31.970  1.00  0.00     0.002 A 
ATOM     84  C   UNL A   1      39.159  31.414  33.002  1.00  0.00     0.091 A 
ATOM     85  F   UNL A   1      40.839  29.736  33.263  1.00  0.00    -0.205 F 
ATOM     86  C   UNL A   1      38.782  32.677  32.517  1.00  0.00     0.022 A 
BRANCH  84  87
ATOM     87  S   UNL A   1      37.861  30.378  33.693  1.00  0.00     0.127 S 
ATOM     88  O   UNL A   1      37.961  30.691  35.115  1.00  0.00    -0.237 OA
ATOM     89  O   UNL A   1      36.662  30.895  33.031  1.00  0.00    -0.237 OA
ATOM     90  O   UNL A   1      38.215  29.022  33.303  1.00  0.00    -0.744 OA
ENDBRANCH  84  87
ENDBRANCH  56  80
BRANCH  68  91
ATOM     91  C   UNL A   1      45.862  25.958  32.646  1.00  0.00     0.023 A 
ATOM     92  C   UNL A   1      47.252  25.767  32.736  1.00  0.00     0.012 A 
ATOM     93  C   UNL A   1      45.078  25.076  33.450  1.00  0.00     0.148 A 
ATOM     94  C   UNL A   1      47.836  24.831  33.603  1.00  0.00     0.002 A 
ATOM     95  C   UNL A   1      45.659  24.193  34.361  1.00  0.00     0.091 A 
ATOM     96  F   UNL A   1      43.748  25.028  33.304  1.00  0.00    -0.205 F 
ATOM     97  C   UNL A   1      47.042  24.068  34.441  1.00  0.00     0.022 A 
BRANCH  95  98
ATOM     98  S   UNL A   1      44.659  23.257  35.528  1.00  0.00     0.127 S 
ATOM     99  O   UNL A   1      43.996  24.323  36.278  1.00  0.00    -0.237 OA
ATOM    100  O   UNL A   1      43.775  22.497  34.641  1.00  0.00    -0.237 OA
ATOM    101  O   UNL A   1      45.604  22.437  36.274  1.00  0.00    -0.744 OA
ENDBRANCH  95  98
ENDBRANCH  68  91
ENDBRANCH  42  43
ENDBRANCH  34  37
ENDBRANCH  32  33
ENDBRANCH  31  32
ENDBRANCH   1  31
TORSDOF 18
ENDMDL
MODEL 2
REMARK VINA RESULT:     -12.9      4.072      9.694
REMARK SMILES Cc1cccc(O[C@H](C)C(=O)NNC(=O)[C@H]2[C@@H]3CC[C@@H](C3)[C@@H]2C(=O)NCCCNC(=O)c2ccc(-c3c4nc(c(-c5cccc(S(=O)(=O)[O-])c5F)c5ccc([nH]5)c(-c5cccc(S(=O)(=O)[O-])c5F)c5nc(c(-c6cccc(S(=O)(=O)[O-])c6F)c6ccc3[nH]6)C=C5)C=C4)cc2)c1
REMARK SMILES IDX 26 1 25 2 23 3 24 4 22 6 16 7 17 8 18 9 21 10 20 11 19 12
REMARK SMILES IDX 14 13 13 14 15 16 12 17 10 18 11 19 8 21 9 22 7 23 6 24 1 25
REMARK SMILES IDX 2 26 3 27 95 28 4 29 5 30 27 31 28 32 29 33 30 34 31 36
REMARK SMILES IDX 32 37 33 38 94 39 34 40 93 41 35 42 36 43 37 44 87 45 38 46
REMARK SMILES IDX 92 47 86 48 88 49 39 50 91 51 85 52 84 53 40 55 72 56 52 57
REMARK SMILES IDX 71 58 53 59 56 60 70 61 89 62 54 63 55 64 69 66 90 67 57 68
REMARK SMILES IDX 41 69 42 70 50 71 43 72 45 73 51 74 44 75 46 76 47 77 48 78
REMARK SMILES IDX 49 79 73 80 74 81 82 82 75 83 77 84 83 85 76 86 78 87 79 88
REMARK SMILES IDX 80 89 81 90 58 91 59 92 67 93 60 94 62 95 68 96 61 97 63 98
REMARK SMILES IDX 64 99 65 100 66 101
REMARK H PARENT 25 5 13 15 12 20 29 35 88 54 56 65
REMARK Flexibility Score: inf
ROOT
ATOM      1  C   UNL A   1      36.777  22.482  23.809  1.00  0.00     0.117 C 
ENDROOT
BRANCH   1   2
ATOM      2  N   UNL A   1      36.242  23.637  24.519  1.00  0.00    -0.356 N 
ATOM      3  C   UNL A   1      34.993  24.191  24.418  1.00  0.00     0.224 C 
ATOM      4  O   UNL A   1      34.706  25.185  25.077  1.00  0.00    -0.275 OA
ATOM      5  H   UNL A   1      36.855  24.075  25.150  1.00  0.00     0.163 HD
BRANCH   3   6
ATOM      6  C   UNL A   1      34.016  23.522  23.465  1.00  0.00     0.094 C 
ATOM      7  C   UNL A   1      32.927  24.438  22.884  1.00  0.00     0.096 C 
ATOM      8  C   UNL A   1      31.623  23.634  23.120  1.00  0.00     0.002 C 
ATOM      9  C   UNL A   1      31.260  23.755  24.615  1.00  0.00     0.005 C 
ATOM     10  C   UNL A   1      32.080  22.179  23.070  1.00  0.00     0.009 C 
ATOM     11  C   UNL A   1      33.180  22.390  24.112  1.00  0.00     0.002 C 
ATOM     12  C   UNL A   1      32.358  22.924  25.300  1.00  0.00     0.005 C 
BRANCH   7  13
ATOM     13  C   UNL A   1      33.078  24.952  21.454  1.00  0.00     0.242 C 
ATOM     14  N   UNL A   1      33.105  26.263  21.078  1.00  0.00    -0.267 N 
ATOM     15  H   UNL A   1      32.945  26.433  20.121  1.00  0.00     0.191 HD
ATOM     16  O   UNL A   1      33.219  24.121  20.546  1.00  0.00    -0.273 OA
BRANCH  14  17
ATOM     17  N   UNL A   1      33.326  27.380  21.843  1.00  0.00    -0.264 N 
ATOM     18  C   UNL A   1      32.493  27.978  22.735  1.00  0.00     0.279 C 
ATOM     19  O   UNL A   1      33.029  28.844  23.448  1.00  0.00    -0.269 OA
ATOM     20  H   UNL A   1      34.206  27.806  21.732  1.00  0.00     0.191 HD
BRANCH  18  21
ATOM     21  C   UNL A   1      30.956  27.765  22.838  1.00  0.00     0.260 C 
ATOM     22  C   UNL A   1      30.561  27.485  24.295  1.00  0.00     0.064 C 
BRANCH  21  23
ATOM     23  O   UNL A   1      29.953  28.368  22.052  1.00  0.00    -0.481 OA
BRANCH  23  24
ATOM     24  C   UNL A   1      29.031  29.263  22.482  1.00  0.00     0.120 A 
ATOM     25  C   UNL A   1      29.269  33.021  23.102  1.00  0.00     0.044 C 
ATOM     26  C   UNL A   1      28.732  31.622  23.031  1.00  0.00    -0.047 A 
ATOM     27  C   UNL A   1      27.464  31.332  23.538  1.00  0.00     0.003 A 
ATOM     28  C   UNL A   1      29.500  30.583  22.494  1.00  0.00     0.049 A 
ATOM     29  C   UNL A   1      26.972  30.028  23.490  1.00  0.00     0.004 A 
ATOM     30  C   UNL A   1      27.748  28.996  22.953  1.00  0.00     0.046 A 
ENDBRANCH  23  24
ENDBRANCH  21  23
ENDBRANCH  18  21
ENDBRANCH  14  17
ENDBRANCH   7  13
ENDBRANCH   3   6
ENDBRANCH   1   2
BRANCH   1  31
ATOM     31  C   UNL A   1      37.639  21.593  24.698  1.00  0.00     0.042 C 
BRANCH  31  32
ATOM     32  C   UNL A   1      37.856  22.210  26.065  1.00  0.00     0.118 C 
BRANCH  32  33
ATOM     33  N   UNL A   1      39.222  22.062  26.547  1.00  0.00    -0.352 N 
ATOM     34  C   UNL A   1      40.171  23.014  26.863  1.00  0.00     0.251 C 
ATOM     35  H   UNL A   1      39.518  21.130  26.665  1.00  0.00     0.163 HD
ATOM     36  O   UNL A   1      41.314  22.629  27.108  1.00  0.00    -0.269 OA
BRANCH  34  37
ATOM     37  C   UNL A   1      39.784  24.432  27.064  1.00  0.00     0.039 A 
ATOM     38  C   UNL A   1      40.451  25.403  26.302  1.00  0.00     0.014 A 
ATOM     39  C   UNL A   1      39.004  24.822  28.146  1.00  0.00     0.014 A 
ATOM     40  C   UNL A   1      40.582  26.697  26.799  1.00  0.00     0.010 A 
ATOM     41  C   UNL A   1      39.225  26.058  28.700  1.00  0.00     0.010 A 
ATOM     42  C   UNL A   1      40.082  26.960  28.065  1.00  0.00    -0.014 A 
BRANCH  42  43
ATOM     43  C   UNL A   1      40.387  28.123  28.870  1.00  0.00     0.031 A 
ATOM     44  C   UNL A   1      39.524  29.315  28.745  1.00  0.00     0.074 A 
ATOM     45  C   UNL A   1      41.202  27.944  29.939  1.00  0.00     0.049 A 
ATOM     46  N   UNL A   1      39.704  30.395  29.418  1.00  0.00    -0.248 NA
ATOM     47  C   UNL A   1      38.383  29.393  27.832  1.00  0.00     0.031 C 
ATOM     48  C   UNL A   1      41.224  28.736  31.165  1.00  0.00     0.029 A 
ATOM     49  N   UNL A   1      42.299  27.086  30.103  1.00  0.00    -0.354 N 
ATOM     50  C   UNL A   1      38.562  31.149  29.295  1.00  0.00     0.074 A 
ATOM     51  C   UNL A   1      37.845  30.564  28.192  1.00  0.00     0.031 C 
ATOM     52  C   UNL A   1      42.404  28.558  31.776  1.00  0.00     0.029 A 
ATOM     53  C   UNL A   1      43.238  27.841  30.832  1.00  0.00     0.049 A 
ATOM     54  H   UNL A   1      42.393  26.162  29.779  1.00  0.00     0.167 HD
ATOM     55  C   UNL A   1      38.311  32.083  30.253  1.00  0.00     0.034 A 
ATOM     56  C   UNL A   1      44.395  28.344  30.299  1.00  0.00     0.034 A 
ATOM     57  C   UNL A   1      39.499  32.287  31.100  1.00  0.00     0.049 A 
ATOM     58  C   UNL A   1      44.533  29.863  30.421  1.00  0.00     0.074 A 
ATOM     59  C   UNL A   1      39.840  31.942  32.396  1.00  0.00     0.029 A 
ATOM     60  N   UNL A   1      40.675  32.721  30.494  1.00  0.00    -0.354 N 
ATOM     61  N   UNL A   1      43.601  30.669  30.857  1.00  0.00    -0.248 NA
ATOM     62  C   UNL A   1      45.732  30.594  30.027  1.00  0.00     0.031 C 
ATOM     63  C   UNL A   1      41.251  32.116  32.541  1.00  0.00     0.029 A 
ATOM     64  C   UNL A   1      41.759  32.608  31.350  1.00  0.00     0.049 A 
ATOM     65  H   UNL A   1      40.729  33.065  29.574  1.00  0.00     0.167 HD
ATOM     66  C   UNL A   1      43.974  31.982  30.684  1.00  0.00     0.074 A 
ATOM     67  C   UNL A   1      45.351  31.869  30.224  1.00  0.00     0.031 C 
ATOM     68  C   UNL A   1      43.086  33.018  30.880  1.00  0.00     0.034 A 
BRANCH  55  69
ATOM     69  C   UNL A   1      36.963  32.719  30.564  1.00  0.00     0.023 A 
ATOM     70  C   UNL A   1      36.494  32.599  31.893  1.00  0.00     0.012 A 
ATOM     71  C   UNL A   1      36.068  33.328  29.647  1.00  0.00     0.148 A 
ATOM     72  C   UNL A   1      35.218  33.026  32.284  1.00  0.00     0.002 A 
ATOM     73  C   UNL A   1      34.816  33.808  30.051  1.00  0.00     0.091 A 
ATOM     74  F   UNL A   1      36.365  33.382  28.349  1.00  0.00    -0.205 F 
ATOM     75  C   UNL A   1      34.381  33.642  31.366  1.00  0.00     0.022 A 
BRANCH  73  76
ATOM     76  S   UNL A   1      33.691  34.650  28.918  1.00  0.00     0.127 S 
ATOM     77  O   UNL A   1      33.353  33.586  27.973  1.00  0.00    -0.237 OA
ATOM     78  O   UNL A   1      32.594  35.049  29.800  1.00  0.00    -0.237 OA
ATOM     79  O   UNL A   1      34.438  35.764  28.348  1.00  0.00    -0.744 OA
ENDBRANCH  73  76
ENDBRANCH  55  69
BRANCH  56  80
ATOM     80  C   UNL A   1      44.951  27.512  29.188  1.00  0.00     0.023 A 
ATOM     81  C   UNL A   1      45.415  26.221  29.533  1.00  0.00     0.012 A 
ATOM     82  C   UNL A   1      44.658  27.790  27.841  1.00  0.00     0.148 A 
ATOM     83  C   UNL A   1      45.410  25.185  28.599  1.00  0.00     0.002 A 
ATOM     84  C   UNL A   1      44.671  26.753  26.908  1.00  0.00     0.091 A 
ATOM     85  F   UNL A   1      44.310  29.038  27.502  1.00  0.00    -0.205 F 
ATOM     86  C   UNL A   1      44.996  25.443  27.297  1.00  0.00     0.022 A 
BRANCH  84  87
ATOM     87  S   UNL A   1      44.144  26.997  25.205  1.00  0.00     0.127 S 
ATOM     88  O   UNL A   1      45.416  27.259  24.539  1.00  0.00    -0.237 OA
ATOM     89  O   UNL A   1      43.532  25.708  24.879  1.00  0.00    -0.237 OA
ATOM     90  O   UNL A   1      43.202  28.105  25.259  1.00  0.00    -0.744 OA
ENDBRANCH  84  87
ENDBRANCH  56  80
BRANCH  68  91
ATOM     91  C   UNL A   1      43.308  34.514  30.586  1.00  0.00     0.023 A 
ATOM     92  C   UNL A   1      43.539  35.477  31.584  1.00  0.00     0.012 A 
ATOM     93  C   UNL A   1      43.337  35.012  29.248  1.00  0.00     0.148 A 
ATOM     94  C   UNL A   1      43.846  36.816  31.292  1.00  0.00     0.002 A 
ATOM     95  C   UNL A   1      43.707  36.325  28.955  1.00  0.00     0.091 A 
ATOM     96  F   UNL A   1      42.941  34.239  28.229  1.00  0.00    -0.205 F 
ATOM     97  C   UNL A   1      43.964  37.233  29.978  1.00  0.00     0.022 A 
BRANCH  95  98
ATOM     98  S   UNL A   1      43.961  36.872  27.260  1.00  0.00     0.127 S 
ATOM     99  O   UNL A   1      44.467  38.230  27.455  1.00  0.00    -0.237 OA
ATOM    100  O   UNL A   1      44.957  35.917  26.770  1.00  0.00    -0.237 OA
ATOM    101  O   UNL A   1      42.658  36.757  26.619  1.00  0.00    -0.744 OA
ENDBRANCH  95  98
ENDBRANCH  68  91
ENDBRANCH  42  43
ENDBRANCH  34  37
ENDBRANCH  32  33
ENDBRANCH  31  32
ENDBRANCH   1  31
TORSDOF 18
ENDMDL
MODEL 3
REMARK VINA RESULT:     -12.5      3.768      9.453
REMARK SMILES Cc1cccc(O[C@H](C)C(=O)NNC(=O)[C@H]2[C@@H]3CC[C@@H](C3)[C@@H]2C(=O)NCCCNC(=O)c2ccc(-c3c4nc(c(-c5cccc(S(=O)(=O)[O-])c5F)c5ccc([nH]5)c(-c5cccc(S(=O)(=O)[O-])c5F)c5nc(c(-c6cccc(S(=O)(=O)[O-])c6F)c6ccc3[nH]6)C=C5)C=C4)cc2)c1
REMARK SMILES IDX 26 1 25 2 23 3 24 4 22 6 16 7 17 8 18 9 21 10 20 11 19 12
REMARK SMILES IDX 14 13 13 14 15 16 12 17 10 18 11 19 8 21 9 22 7 23 6 24 1 25
REMARK SMILES IDX 2 26 3 27 95 28 4 29 5 30 27 31 28 32 29 33 30 34 31 36
REMARK SMILES IDX 32 37 33 38 94 39 34 40 93 41 35 42 36 43 37 44 87 45 38 46
REMARK SMILES IDX 92 47 86 48 88 49 39 50 91 51 85 52 84 53 40 55 72 56 52 57
REMARK SMILES IDX 71 58 53 59 56 60 70 61 89 62 54 63 55 64 69 66 90 67 57 68
REMARK SMILES IDX 41 69 42 70 50 71 43 72 45 73 51 74 44 75 46 76 47 77 48 78
REMARK SMILES IDX 49 79 73 80 74 81 82 82 75 83 77 84 83 85 76 86 78 87 79 88
REMARK SMILES IDX 80 89 81 90 58 91 59 92 67 93 60 94 62 95 68 96 61 97 63 98
REMARK SMILES IDX 64 99 65 100 66 101
REMARK H PARENT 25 5 13 15 12 20 29 35 88 54 56 65
REMARK Flexibility Score: inf
ROOT
ATOM      1  C   UNL A   1      36.089  21.138  25.729  1.00  0.00     0.117 C 
ENDROOT
BRANCH   1   2
ATOM      2  N   UNL A   1      35.695  22.488  26.110  1.00  0.00    -0.356 N 
ATOM      3  C   UNL A   1      34.626  23.218  25.663  1.00  0.00     0.224 C 
ATOM      4  O   UNL A   1      34.445  24.360  26.073  1.00  0.00    -0.275 OA
ATOM      5  H   UNL A   1      36.271  22.932  26.773  1.00  0.00     0.163 HD
BRANCH   3   6
ATOM      6  C   UNL A   1      33.706  22.548  24.655  1.00  0.00     0.094 C 
ATOM      7  C   UNL A   1      32.856  23.501  23.800  1.00  0.00     0.096 C 
ATOM      8  C   UNL A   1      31.429  22.910  23.921  1.00  0.00     0.002 C 
ATOM      9  C   UNL A   1      30.879  23.287  25.313  1.00  0.00     0.005 C 
ATOM     10  C   UNL A   1      31.671  21.416  24.123  1.00  0.00     0.009 C 
ATOM     11  C   UNL A   1      32.631  21.634  25.293  1.00  0.00     0.002 C 
ATOM     12  C   UNL A   1      31.736  22.431  26.260  1.00  0.00     0.005 C 
BRANCH   7  13
ATOM     13  C   UNL A   1      33.282  23.783  22.361  1.00  0.00     0.242 C 
ATOM     14  N   UNL A   1      32.648  24.623  21.493  1.00  0.00    -0.267 N 
ATOM     15  H   UNL A   1      32.878  24.501  20.543  1.00  0.00     0.191 HD
ATOM     16  O   UNL A   1      34.308  23.232  21.937  1.00  0.00    -0.273 OA
BRANCH  14  17
ATOM     17  N   UNL A   1      31.736  25.613  21.755  1.00  0.00    -0.264 N 
ATOM     18  C   UNL A   1      31.927  26.801  22.387  1.00  0.00     0.279 C 
ATOM     19  O   UNL A   1      30.979  27.600  22.291  1.00  0.00    -0.269 OA
ATOM     20  H   UNL A   1      30.818  25.440  21.442  1.00  0.00     0.191 HD
BRANCH  18  21
ATOM     21  C   UNL A   1      33.135  27.171  23.293  1.00  0.00     0.260 C 
ATOM     22  C   UNL A   1      33.881  28.378  22.705  1.00  0.00     0.064 C 
BRANCH  21  23
ATOM     23  O   UNL A   1      33.231  27.033  24.692  1.00  0.00    -0.481 OA
BRANCH  23  24
ATOM     24  C   UNL A   1      33.358  28.041  25.589  1.00  0.00     0.120 A 
ATOM     25  C   UNL A   1      31.295  31.207  26.124  1.00  0.00     0.044 C 
ATOM     26  C   UNL A   1      32.366  30.166  26.265  1.00  0.00    -0.047 A 
ATOM     27  C   UNL A   1      33.439  30.377  27.133  1.00  0.00     0.003 A 
ATOM     28  C   UNL A   1      32.330  28.989  25.509  1.00  0.00     0.049 A 
ATOM     29  C   UNL A   1      34.445  29.419  27.250  1.00  0.00     0.004 A 
ATOM     30  C   UNL A   1      34.401  28.248  26.488  1.00  0.00     0.046 A 
ENDBRANCH  23  24
ENDBRANCH  21  23
ENDBRANCH  18  21
ENDBRANCH  14  17
ENDBRANCH   7  13
ENDBRANCH   3   6
ENDBRANCH   1   2
BRANCH   1  31
ATOM     31  C   UNL A   1      37.548  21.052  25.294  1.00  0.00     0.042 C 
BRANCH  31  32
ATOM     32  C   UNL A   1      38.333  22.276  25.722  1.00  0.00     0.118 C 
BRANCH  32  33
ATOM     33  N   UNL A   1      39.357  21.977  26.714  1.00  0.00    -0.352 N 
ATOM     34  C   UNL A   1      40.269  22.804  27.339  1.00  0.00     0.251 C 
ATOM     35  H   UNL A   1      39.407  21.031  26.982  1.00  0.00     0.163 HD
ATOM     36  O   UNL A   1      41.138  22.280  28.036  1.00  0.00    -0.269 OA
BRANCH  34  37
ATOM     37  C   UNL A   1      40.104  24.278  27.305  1.00  0.00     0.039 A 
ATOM     38  C   UNL A   1      41.150  25.038  26.758  1.00  0.00     0.014 A 
ATOM     39  C   UNL A   1      39.098  24.909  28.027  1.00  0.00     0.014 A 
ATOM     40  C   UNL A   1      41.345  26.348  27.188  1.00  0.00     0.010 A 
ATOM     41  C   UNL A   1      39.348  26.156  28.543  1.00  0.00     0.010 A 
ATOM     42  C   UNL A   1      40.515  26.835  28.185  1.00  0.00    -0.014 A 
BRANCH  42  43
ATOM     43  C   UNL A   1      40.748  28.027  28.972  1.00  0.00     0.031 A 
ATOM     44  C   UNL A   1      39.823  29.168  28.815  1.00  0.00     0.074 A 
ATOM     45  C   UNL A   1      41.559  27.913  30.052  1.00  0.00     0.049 A 
ATOM     46  N   UNL A   1      39.936  30.269  29.469  1.00  0.00    -0.248 NA
ATOM     47  C   UNL A   1      38.690  29.167  27.888  1.00  0.00     0.031 C 
ATOM     48  C   UNL A   1      41.523  28.728  31.263  1.00  0.00     0.029 A 
ATOM     49  N   UNL A   1      42.699  27.119  30.244  1.00  0.00    -0.354 N 
ATOM     50  C   UNL A   1      38.756  30.957  29.320  1.00  0.00     0.074 A 
ATOM     51  C   UNL A   1      38.085  30.313  28.221  1.00  0.00     0.031 C 
ATOM     52  C   UNL A   1      42.705  28.626  31.890  1.00  0.00     0.029 A 
ATOM     53  C   UNL A   1      43.587  27.938  30.969  1.00  0.00     0.049 A 
ATOM     54  H   UNL A   1      42.846  26.196  29.939  1.00  0.00     0.167 HD
ATOM     55  C   UNL A   1      38.444  31.893  30.257  1.00  0.00     0.034 A 
ATOM     56  C   UNL A   1      44.721  28.493  30.439  1.00  0.00     0.034 A 
ATOM     57  C   UNL A   1      39.610  32.177  31.112  1.00  0.00     0.049 A 
ATOM     58  C   UNL A   1      44.775  30.019  30.533  1.00  0.00     0.074 A 
ATOM     59  C   UNL A   1      39.954  31.876  32.418  1.00  0.00     0.029 A 
ATOM     60  N   UNL A   1      40.767  32.663  30.511  1.00  0.00    -0.354 N 
ATOM     61  N   UNL A   1      43.796  30.781  30.943  1.00  0.00    -0.248 NA
ATOM     62  C   UNL A   1      45.937  30.807  30.138  1.00  0.00     0.031 C 
ATOM     63  C   UNL A   1      41.351  32.128  32.574  1.00  0.00     0.029 A 
ATOM     64  C   UNL A   1      41.845  32.625  31.380  1.00  0.00     0.049 A 
ATOM     65  H   UNL A   1      40.813  32.993  29.584  1.00  0.00     0.167 HD
ATOM     66  C   UNL A   1      44.099  32.110  30.749  1.00  0.00     0.074 A 
ATOM     67  C   UNL A   1      45.485  32.063  30.306  1.00  0.00     0.031 C 
ATOM     68  C   UNL A   1      43.154  33.099  30.916  1.00  0.00     0.034 A 
BRANCH  55  69
ATOM     69  C   UNL A   1      37.060  32.460  30.541  1.00  0.00     0.023 A 
ATOM     70  C   UNL A   1      36.516  32.202  31.821  1.00  0.00     0.012 A 
ATOM     71  C   UNL A   1      36.202  33.130  29.632  1.00  0.00     0.148 A 
ATOM     72  C   UNL A   1      35.207  32.555  32.170  1.00  0.00     0.002 A 
ATOM     73  C   UNL A   1      34.913  33.536  29.999  1.00  0.00     0.091 A 
ATOM     74  F   UNL A   1      36.573  33.315  28.365  1.00  0.00    -0.205 F 
ATOM     75  C   UNL A   1      34.406  33.234  31.264  1.00  0.00     0.022 A 
BRANCH  73  76
ATOM     76  S   UNL A   1      33.830  34.452  28.882  1.00  0.00     0.127 S 
ATOM     77  O   UNL A   1      32.751  34.872  29.777  1.00  0.00    -0.237 OA
ATOM     78  O   UNL A   1      34.695  35.538  28.423  1.00  0.00    -0.237 OA
ATOM     79  O   UNL A   1      33.433  33.518  27.836  1.00  0.00    -0.744 OA
ENDBRANCH  73  76
ENDBRANCH  55  69
BRANCH  56  80
ATOM     80  C   UNL A   1      45.334  27.673  29.349  1.00  0.00     0.023 A 
ATOM     81  C   UNL A   1      45.729  26.358  29.691  1.00  0.00     0.012 A 
ATOM     82  C   UNL A   1      45.155  27.996  27.992  1.00  0.00     0.148 A 
ATOM     83  C   UNL A   1      45.763  25.348  28.730  1.00  0.00     0.002 A 
ATOM     84  C   UNL A   1      45.206  26.984  27.034  1.00  0.00     0.091 A 
ATOM     85  F   UNL A   1      44.873  29.263  27.664  1.00  0.00    -0.205 F 
ATOM     86  C   UNL A   1      45.458  25.653  27.408  1.00  0.00     0.022 A 
BRANCH  84  87
ATOM     87  S   UNL A   1      44.820  27.290  25.303  1.00  0.00     0.127 S 
ATOM     88  O   UNL A   1      44.794  25.935  24.764  1.00  0.00    -0.237 OA
ATOM     89  O   UNL A   1      43.515  27.947  25.385  1.00  0.00    -0.237 OA
ATOM     90  O   UNL A   1      45.890  28.154  24.828  1.00  0.00    -0.744 OA
ENDBRANCH  84  87
ENDBRANCH  56  80
BRANCH  68  91
ATOM     91  C   UNL A   1      43.297  34.599  30.596  1.00  0.00     0.023 A 
ATOM     92  C   UNL A   1      43.525  35.584  31.573  1.00  0.00     0.012 A 
ATOM     93  C   UNL A   1      43.249  35.080  29.253  1.00  0.00     0.148 A 
ATOM     94  C   UNL A   1      43.761  36.931  31.253  1.00  0.00     0.002 A 
ATOM     95  C   UNL A   1      43.550  36.404  28.930  1.00  0.00     0.091 A 
ATOM     96  F   UNL A   1      42.848  34.277  28.260  1.00  0.00    -0.205 F 
ATOM     97  C   UNL A   1      43.808  37.335  29.931  1.00  0.00     0.022 A 
BRANCH  95  98
ATOM     98  S   UNL A   1      43.710  36.939  27.219  1.00  0.00     0.127 S 
ATOM     99  O   UNL A   1      44.733  36.025  26.713  1.00  0.00    -0.237 OA
ATOM    100  O   UNL A   1      42.366  36.700  26.690  1.00  0.00    -0.237 OA
ATOM    101  O   UNL A   1      44.082  38.345  27.289  1.00  0.00    -0.744 OA
ENDBRANCH  95  98
ENDBRANCH  68  91
ENDBRANCH  42  43
ENDBRANCH  34  37
ENDBRANCH  32  33
ENDBRANCH  31  32
ENDBRANCH   1  31
TORSDOF 18
ENDMDL
