MODEL 1
REMARK VINA RESULT:     -11.8      0.000      0.000
REMARK SMILES O=C(C[C@@H](C(=O)NCCCNC(=O)c1ccc(-c2c3nc(c(-c4cccc(S(=O)(=O)[O-])c4F)c4ccc([nH]4)c(-c4cccc(S(=O)(=O)[O-])c4F)c4nc(c(-c5cccc(S(=O)(=O)[O-])c5F)c5ccc2[nH]5)C=C4)C=C3)cc1)c1ccccc1)Nc1cc(C(F)(F)F)ccc1-n1cncn1
REMARK SMILES IDX 8 1 7 2 5 3 6 4 4 6 3 7 2 8 1 9 83 10 84 12 85 13 93 14
REMARK SMILES IDX 86 15 92 16 91 17 94 18 95 19 98 20 96 21 97 22 87 23 88 24
REMARK SMILES IDX 89 25 90 26 77 27 78 28 82 29 79 30 81 31 80 32 9 33 10 34
REMARK SMILES IDX 11 35 12 36 13 38 14 39 15 40 76 41 16 42 75 43 17 44 18 45
REMARK SMILES IDX 19 46 69 47 20 48 74 49 68 50 70 51 21 52 73 53 67 54 66 55
REMARK SMILES IDX 22 57 54 58 34 59 53 60 35 61 38 62 52 63 71 64 36 65 37 66
REMARK SMILES IDX 51 68 72 69 39 70 23 71 24 72 32 73 25 74 27 75 33 76 26 77
REMARK SMILES IDX 28 78 29 79 30 80 31 81 55 82 56 83 64 84 57 85 59 86 65 87
REMARK SMILES IDX 58 88 60 89 61 90 62 91 63 92 40 93 41 94 49 95 42 96 44 97
REMARK SMILES IDX 50 98 43 99 45 100 46 101 47 102 48 103
REMARK H PARENT 7 5 83 11 11 37 70 56 38 67
REMARK Flexibility Score: inf
ROOT
ATOM      1  C   UNL A   1      33.047  30.152  26.679  1.00  0.00     0.117 C 
ENDROOT
BRANCH   1   2
ATOM      2  N   UNL A   1      32.474  29.078  27.536  1.00  0.00    -0.355 N 
ATOM      3  C   UNL A   1      31.742  27.952  27.244  1.00  0.00     0.228 C 
ATOM      4  O   UNL A   1      30.842  27.681  28.051  1.00  0.00    -0.274 OA
ATOM      5  H   UNL A   1      32.654  29.199  28.497  1.00  0.00     0.163 HD
BRANCH   3   6
ATOM      6  C   UNL A   1      32.015  27.023  26.029  1.00  0.00     0.118 C 
BRANCH   6   7
ATOM      7  C   UNL A   1      33.517  26.817  25.769  1.00  0.00     0.118 C 
BRANCH   7   8
ATOM      8  C   UNL A   1      33.891  25.372  25.805  1.00  0.00     0.225 C 
ATOM      9  O   UNL A   1      33.285  24.550  26.499  1.00  0.00    -0.275 OA
ATOM     10  N   UNL A   1      35.030  25.135  25.077  1.00  0.00    -0.324 N 
ATOM     11  H   UNL A   1      35.418  25.878  24.560  1.00  0.00     0.170 HD
BRANCH  10  12
ATOM     12  C   UNL A   1      35.665  23.897  25.031  1.00  0.00     0.067 A 
ATOM     13  C   UNL A   1      36.743  23.844  25.871  1.00  0.00     0.041 A 
ATOM     14  C   UNL A   1      35.244  22.712  24.465  1.00  0.00     0.090 A 
ATOM     15  C   UNL A   1      37.742  22.919  25.756  1.00  0.00     0.058 A 
ATOM     16  C   UNL A   1      36.019  21.565  24.658  1.00  0.00     0.031 A 
ATOM     17  C   UNL A   1      37.310  21.704  25.227  1.00  0.00     0.015 A 
BRANCH  14  18
ATOM     18  N   UNL A   1      34.162  22.723  23.581  1.00  0.00    -0.219 N 
ATOM     19  C   UNL A   1      33.108  21.847  23.599  1.00  0.00     0.226 A 
ATOM     20  N   UNL A   1      34.099  23.508  22.487  1.00  0.00    -0.155 NA
ATOM     21  N   UNL A   1      32.455  21.902  22.466  1.00  0.00    -0.223 NA
ATOM     22  C   UNL A   1      33.076  22.942  21.833  1.00  0.00     0.246 A 
ENDBRANCH  14  18
BRANCH  15  23
ATOM     23  C   UNL A   1      38.995  23.390  26.447  1.00  0.00     0.416 C 
ATOM     24  F   UNL A   1      39.458  24.569  25.925  1.00  0.00    -0.166 F 
ATOM     25  F   UNL A   1      38.793  23.715  27.754  1.00  0.00    -0.166 F 
ATOM     26  F   UNL A   1      40.042  22.540  26.411  1.00  0.00    -0.166 F 
ENDBRANCH  15  23
ENDBRANCH  10  12
ENDBRANCH   7   8
ENDBRANCH   6   7
BRANCH   6  27
ATOM     27  C   UNL A   1      31.490  27.630  24.708  1.00  0.00    -0.035 A 
ATOM     28  C   UNL A   1      30.108  27.741  24.441  1.00  0.00     0.004 A 
ATOM     29  C   UNL A   1      32.378  28.233  23.807  1.00  0.00     0.004 A 
ATOM     30  C   UNL A   1      29.635  28.391  23.299  1.00  0.00     0.000 A 
ATOM     31  C   UNL A   1      31.902  28.884  22.661  1.00  0.00     0.000 A 
ATOM     32  C   UNL A   1      30.534  28.955  22.402  1.00  0.00     0.000 A 
ENDBRANCH   6  27
ENDBRANCH   3   6
ENDBRANCH   1   2
BRANCH   1  33
ATOM     33  C   UNL A   1      31.942  31.077  26.080  1.00  0.00     0.042 C 
BRANCH  33  34
ATOM     34  C   UNL A   1      31.396  32.429  26.730  1.00  0.00     0.118 C 
BRANCH  34  35
ATOM     35  N   UNL A   1      32.430  33.354  27.415  1.00  0.00    -0.352 N 
ATOM     36  C   UNL A   1      33.722  33.657  27.883  1.00  0.00     0.251 C 
ATOM     37  H   UNL A   1      31.906  34.155  27.647  1.00  0.00     0.163 HD
ATOM     38  O   UNL A   1      33.837  34.891  28.020  1.00  0.00    -0.269 OA
BRANCH  36  39
ATOM     39  C   UNL A   1      34.984  32.901  28.363  1.00  0.00     0.039 A 
ATOM     40  C   UNL A   1      36.257  33.522  28.169  1.00  0.00     0.014 A 
ATOM     41  C   UNL A   1      35.112  31.652  28.939  1.00  0.00     0.014 A 
ATOM     42  C   UNL A   1      37.495  33.057  28.749  1.00  0.00     0.010 A 
ATOM     43  C   UNL A   1      36.304  31.249  29.638  1.00  0.00     0.010 A 
ATOM     44  C   UNL A   1      37.517  31.961  29.615  1.00  0.00    -0.014 A 
BRANCH  44  45
ATOM     45  C   UNL A   1      38.675  31.534  30.529  1.00  0.00     0.031 A 
ATOM     46  C   UNL A   1      39.636  30.413  30.110  1.00  0.00     0.074 A 
ATOM     47  C   UNL A   1      38.740  31.907  31.837  1.00  0.00     0.049 A 
ATOM     48  N   UNL A   1      40.565  29.788  30.799  1.00  0.00    -0.248 NA
ATOM     49  C   UNL A   1      39.459  29.873  28.754  1.00  0.00     0.031 C 
ATOM     50  C   UNL A   1      37.811  32.815  32.509  1.00  0.00     0.029 A 
ATOM     51  N   UNL A   1      39.578  31.499  32.868  1.00  0.00    -0.354 N 
ATOM     52  C   UNL A   1      41.024  28.747  29.985  1.00  0.00     0.074 A 
ATOM     53  C   UNL A   1      40.208  28.783  28.792  1.00  0.00     0.031 C 
ATOM     54  C   UNL A   1      38.091  32.858  33.826  1.00  0.00     0.029 A 
ATOM     55  C   UNL A   1      39.243  32.007  34.112  1.00  0.00     0.049 A 
ATOM     56  H   UNL A   1      40.345  30.898  32.725  1.00  0.00     0.167 HD
ATOM     57  C   UNL A   1      42.046  27.867  30.162  1.00  0.00     0.034 A 
ATOM     58  C   UNL A   1      39.796  31.836  35.338  1.00  0.00     0.034 A 
ATOM     59  C   UNL A   1      42.893  27.837  31.326  1.00  0.00     0.049 A 
ATOM     60  C   UNL A   1      41.025  30.967  35.500  1.00  0.00     0.074 A 
ATOM     61  C   UNL A   1      44.060  27.120  31.533  1.00  0.00     0.029 A 
ATOM     62  N   UNL A   1      42.650  28.543  32.490  1.00  0.00    -0.354 N 
ATOM     63  N   UNL A   1      41.615  30.202  34.615  1.00  0.00    -0.248 NA
ATOM     64  C   UNL A   1      41.704  30.987  36.809  1.00  0.00     0.031 C 
ATOM     65  C   UNL A   1      44.507  27.376  32.834  1.00  0.00     0.029 A 
ATOM     66  C   UNL A   1      43.640  28.283  33.420  1.00  0.00     0.049 A 
ATOM     67  H   UNL A   1      41.883  29.144  32.636  1.00  0.00     0.167 HD
ATOM     68  C   UNL A   1      42.760  29.706  35.234  1.00  0.00     0.074 A 
ATOM     69  C   UNL A   1      42.784  30.254  36.573  1.00  0.00     0.031 C 
ATOM     70  C   UNL A   1      43.705  28.875  34.731  1.00  0.00     0.034 A 
BRANCH  57  71
ATOM     71  C   UNL A   1      42.384  26.931  29.013  1.00  0.00     0.023 A 
ATOM     72  C   UNL A   1      41.704  25.696  28.918  1.00  0.00     0.012 A 
ATOM     73  C   UNL A   1      43.306  27.275  28.001  1.00  0.00     0.148 A 
ATOM     74  C   UNL A   1      41.983  24.795  27.893  1.00  0.00     0.002 A 
ATOM     75  C   UNL A   1      43.539  26.392  26.947  1.00  0.00     0.091 A 
ATOM     76  F   UNL A   1      43.947  28.450  28.086  1.00  0.00    -0.205 F 
ATOM     77  C   UNL A   1      42.893  25.145  26.904  1.00  0.00     0.022 A 
BRANCH  75  78
ATOM     78  S   UNL A   1      44.619  26.775  25.560  1.00  0.00     0.127 S 
ATOM     79  O   UNL A   1      44.535  25.545  24.773  1.00  0.00    -0.237 OA
ATOM     80  O   UNL A   1      43.947  27.927  24.957  1.00  0.00    -0.237 OA
ATOM     81  O   UNL A   1      45.925  27.062  26.132  1.00  0.00    -0.744 OA
ENDBRANCH  75  78
ENDBRANCH  57  71
BRANCH  58  82
ATOM     82  C   UNL A   1      39.300  32.631  36.511  1.00  0.00     0.023 A 
ATOM     83  C   UNL A   1      39.771  33.952  36.674  1.00  0.00     0.012 A 
ATOM     84  C   UNL A   1      38.381  32.119  37.447  1.00  0.00     0.148 A 
ATOM     85  C   UNL A   1      39.363  34.737  37.754  1.00  0.00     0.002 A 
ATOM     86  C   UNL A   1      37.941  32.924  38.498  1.00  0.00     0.091 A 
ATOM     87  F   UNL A   1      37.953  30.859  37.292  1.00  0.00    -0.205 F 
ATOM     88  C   UNL A   1      38.440  34.227  38.660  1.00  0.00     0.022 A 
BRANCH  86  89
ATOM     89  S   UNL A   1      36.673  32.403  39.663  1.00  0.00     0.127 S 
ATOM     90  O   UNL A   1      37.177  31.097  40.088  1.00  0.00    -0.237 OA
ATOM     91  O   UNL A   1      36.756  33.451  40.682  1.00  0.00    -0.237 OA
ATOM     92  O   UNL A   1      35.432  32.384  38.907  1.00  0.00    -0.744 OA
ENDBRANCH  86  89
ENDBRANCH  58  82
BRANCH  70  93
ATOM     93  C   UNL A   1      44.906  28.548  35.581  1.00  0.00     0.023 A 
ATOM     94  C   UNL A   1      46.109  29.265  35.428  1.00  0.00     0.012 A 
ATOM     95  C   UNL A   1      44.801  27.587  36.609  1.00  0.00     0.148 A 
ATOM     96  C   UNL A   1      47.195  29.013  36.268  1.00  0.00     0.002 A 
ATOM     97  C   UNL A   1      45.867  27.380  37.474  1.00  0.00     0.091 A 
ATOM     98  F   UNL A   1      43.654  26.902  36.726  1.00  0.00    -0.205 F 
ATOM     99  C   UNL A   1      47.069  28.082  37.298  1.00  0.00     0.022 A 
BRANCH  97 100
ATOM    100  S   UNL A   1      45.759  26.279  38.891  1.00  0.00     0.127 S 
ATOM    101  O   UNL A   1      47.091  26.418  39.479  1.00  0.00    -0.237 OA
ATOM    102  O   UNL A   1      44.681  26.888  39.672  1.00  0.00    -0.237 OA
ATOM    103  O   UNL A   1      45.450  24.961  38.356  1.00  0.00    -0.744 OA
ENDBRANCH  97 100
ENDBRANCH  70  93
ENDBRANCH  44  45
ENDBRANCH  36  39
ENDBRANCH  34  35
ENDBRANCH  33  34
ENDBRANCH   1  33
TORSDOF 19
ENDMDL
MODEL 2
REMARK VINA RESULT:     -11.0      4.023      5.438
REMARK SMILES O=C(C[C@@H](C(=O)NCCCNC(=O)c1ccc(-c2c3nc(c(-c4cccc(S(=O)(=O)[O-])c4F)c4ccc([nH]4)c(-c4cccc(S(=O)(=O)[O-])c4F)c4nc(c(-c5cccc(S(=O)(=O)[O-])c5F)c5ccc2[nH]5)C=C4)C=C3)cc1)c1ccccc1)Nc1cc(C(F)(F)F)ccc1-n1cncn1
REMARK SMILES IDX 8 1 7 2 5 3 6 4 4 6 3 7 2 8 1 9 83 10 84 12 85 13 93 14
REMARK SMILES IDX 86 15 92 16 91 17 94 18 95 19 98 20 96 21 97 22 87 23 88 24
REMARK SMILES IDX 89 25 90 26 77 27 78 28 82 29 79 30 81 31 80 32 9 33 10 34
REMARK SMILES IDX 11 35 12 36 13 38 14 39 15 40 76 41 16 42 75 43 17 44 18 45
REMARK SMILES IDX 19 46 69 47 20 48 74 49 68 50 70 51 21 52 73 53 67 54 66 55
REMARK SMILES IDX 22 57 54 58 34 59 53 60 35 61 38 62 52 63 71 64 36 65 37 66
REMARK SMILES IDX 51 68 72 69 39 70 23 71 24 72 32 73 25 74 27 75 33 76 26 77
REMARK SMILES IDX 28 78 29 79 30 80 31 81 55 82 56 83 64 84 57 85 59 86 65 87
REMARK SMILES IDX 58 88 60 89 61 90 62 91 63 92 40 93 41 94 49 95 42 96 44 97
REMARK SMILES IDX 50 98 43 99 45 100 46 101 47 102 48 103
REMARK H PARENT 7 5 83 11 11 37 70 56 38 67
REMARK Flexibility Score: inf
ROOT
ATOM      1  C   UNL A   1      34.157  29.187  27.122  1.00  0.00     0.117 C 
ENDROOT
BRANCH   1   2
ATOM      2  N   UNL A   1      33.075  28.500  27.877  1.00  0.00    -0.355 N 
ATOM      3  C   UNL A   1      31.938  27.840  27.472  1.00  0.00     0.228 C 
ATOM      4  O   UNL A   1      30.941  28.015  28.186  1.00  0.00    -0.274 OA
ATOM      5  H   UNL A   1      33.195  28.522  28.854  1.00  0.00     0.163 HD
BRANCH   3   6
ATOM      6  C   UNL A   1      31.869  26.891  26.244  1.00  0.00     0.118 C 
BRANCH   6   7
ATOM      7  C   UNL A   1      33.240  26.689  25.577  1.00  0.00     0.118 C 
BRANCH   7   8
ATOM      8  C   UNL A   1      33.736  25.291  25.748  1.00  0.00     0.225 C 
ATOM      9  O   UNL A   1      33.180  24.480  26.494  1.00  0.00    -0.275 OA
ATOM     10  N   UNL A   1      34.917  25.096  25.075  1.00  0.00    -0.324 N 
ATOM     11  H   UNL A   1      35.257  25.825  24.508  1.00  0.00     0.170 HD
BRANCH  10  12
ATOM     12  C   UNL A   1      35.658  23.920  25.155  1.00  0.00     0.067 A 
ATOM     13  C   UNL A   1      36.712  24.038  26.020  1.00  0.00     0.041 A 
ATOM     14  C   UNL A   1      35.358  22.658  24.690  1.00  0.00     0.090 A 
ATOM     15  C   UNL A   1      37.790  23.199  26.009  1.00  0.00     0.058 A 
ATOM     16  C   UNL A   1      36.224  21.606  25.002  1.00  0.00     0.031 A 
ATOM     17  C   UNL A   1      37.481  21.908  25.583  1.00  0.00     0.015 A 
BRANCH  14  18
ATOM     18  N   UNL A   1      34.305  22.494  23.786  1.00  0.00    -0.219 N 
ATOM     19  C   UNL A   1      34.176  23.145  22.586  1.00  0.00     0.226 A 
ATOM     20  N   UNL A   1      33.191  21.786  24.056  1.00  0.00    -0.155 NA
ATOM     21  N   UNL A   1      32.948  23.040  22.145  1.00  0.00    -0.223 NA
ATOM     22  C   UNL A   1      32.394  22.184  23.055  1.00  0.00     0.246 A 
ENDBRANCH  14  18
BRANCH  15  23
ATOM     23  C   UNL A   1      38.977  23.839  26.681  1.00  0.00     0.416 C 
ATOM     24  F   UNL A   1      38.611  24.892  27.477  1.00  0.00    -0.166 F 
ATOM     25  F   UNL A   1      39.599  23.012  27.567  1.00  0.00    -0.166 F 
ATOM     26  F   UNL A   1      39.931  24.320  25.857  1.00  0.00    -0.166 F 
ENDBRANCH  15  23
ENDBRANCH  10  12
ENDBRANCH   7   8
ENDBRANCH   6   7
BRANCH   6  27
ATOM     27  C   UNL A   1      30.989  27.473  25.113  1.00  0.00    -0.035 A 
ATOM     28  C   UNL A   1      31.254  28.736  24.542  1.00  0.00     0.004 A 
ATOM     29  C   UNL A   1      29.996  26.683  24.516  1.00  0.00     0.004 A 
ATOM     30  C   UNL A   1      30.528  29.209  23.447  1.00  0.00     0.000 A 
ATOM     31  C   UNL A   1      29.268  27.159  23.418  1.00  0.00     0.000 A 
ATOM     32  C   UNL A   1      29.527  28.423  22.890  1.00  0.00     0.000 A 
ENDBRANCH   6  27
ENDBRANCH   3   6
ENDBRANCH   1   2
BRANCH   1  33
ATOM     33  C   UNL A   1      33.843  30.699  26.891  1.00  0.00     0.042 C 
BRANCH  33  34
ATOM     34  C   UNL A   1      33.966  31.859  27.979  1.00  0.00     0.118 C 
BRANCH  34  35
ATOM     35  N   UNL A   1      34.631  31.498  29.329  1.00  0.00    -0.352 N 
ATOM     36  C   UNL A   1      35.726  31.098  30.118  1.00  0.00     0.251 C 
ATOM     37  H   UNL A   1      33.902  31.604  29.982  1.00  0.00     0.163 HD
ATOM     38  O   UNL A   1      35.521  31.413  31.307  1.00  0.00    -0.269 OA
BRANCH  36  39
ATOM     39  C   UNL A   1      37.044  30.305  29.948  1.00  0.00     0.039 A 
ATOM     40  C   UNL A   1      37.923  30.677  28.884  1.00  0.00     0.014 A 
ATOM     41  C   UNL A   1      37.530  29.221  30.653  1.00  0.00     0.014 A 
ATOM     42  C   UNL A   1      39.273  30.190  28.726  1.00  0.00     0.010 A 
ATOM     43  C   UNL A   1      38.914  28.829  30.595  1.00  0.00     0.010 A 
ATOM     44  C   UNL A   1      39.846  29.337  29.672  1.00  0.00    -0.014 A 
BRANCH  44  45
ATOM     45  C   UNL A   1      41.333  28.977  29.804  1.00  0.00     0.031 A 
ATOM     46  C   UNL A   1      41.938  27.821  28.997  1.00  0.00     0.074 A 
ATOM     47  C   UNL A   1      42.105  29.451  30.821  1.00  0.00     0.049 A 
ATOM     48  N   UNL A   1      43.117  27.246  29.086  1.00  0.00    -0.248 NA
ATOM     49  C   UNL A   1      41.054  27.176  28.014  1.00  0.00     0.031 C 
ATOM     50  C   UNL A   1      41.676  30.414  31.836  1.00  0.00     0.029 A 
ATOM     51  N   UNL A   1      43.391  29.121  31.230  1.00  0.00    -0.354 N 
ATOM     52  C   UNL A   1      43.083  26.143  28.229  1.00  0.00     0.074 A 
ATOM     53  C   UNL A   1      41.738  26.088  27.699  1.00  0.00     0.031 C 
ATOM     54  C   UNL A   1      42.643  30.559  32.761  1.00  0.00     0.029 A 
ATOM     55  C   UNL A   1      43.791  29.727  32.409  1.00  0.00     0.049 A 
ATOM     56  H   UNL A   1      43.970  28.506  30.723  1.00  0.00     0.167 HD
ATOM     57  C   UNL A   1      44.063  25.273  27.861  1.00  0.00     0.034 A 
ATOM     58  C   UNL A   1      44.941  29.650  33.122  1.00  0.00     0.034 A 
ATOM     59  C   UNL A   1      45.416  25.330  28.348  1.00  0.00     0.049 A 
ATOM     60  C   UNL A   1      46.084  28.790  32.625  1.00  0.00     0.074 A 
ATOM     61  C   UNL A   1      46.526  24.625  27.913  1.00  0.00     0.029 A 
ATOM     62  N   UNL A   1      45.839  26.127  29.397  1.00  0.00    -0.354 N 
ATOM     63  N   UNL A   1      46.106  27.954  31.616  1.00  0.00    -0.248 NA
ATOM     64  C   UNL A   1      47.378  28.909  33.323  1.00  0.00     0.031 C 
ATOM     65  C   UNL A   1      47.615  24.980  28.718  1.00  0.00     0.029 A 
ATOM     66  C   UNL A   1      47.190  25.936  29.625  1.00  0.00     0.049 A 
ATOM     67  H   UNL A   1      45.262  26.742  29.906  1.00  0.00     0.167 HD
ATOM     68  C   UNL A   1      47.420  27.502  31.518  1.00  0.00     0.074 A 
ATOM     69  C   UNL A   1      48.168  28.153  32.571  1.00  0.00     0.031 C 
ATOM     70  C   UNL A   1      47.953  26.628  30.630  1.00  0.00     0.034 A 
BRANCH  57  71
ATOM     71  C   UNL A   1      43.737  24.247  26.788  1.00  0.00     0.023 A 
ATOM     72  C   UNL A   1      44.196  24.470  25.471  1.00  0.00     0.012 A 
ATOM     73  C   UNL A   1      43.047  23.048  27.070  1.00  0.00     0.148 A 
ATOM     74  C   UNL A   1      43.916  23.569  24.445  1.00  0.00     0.002 A 
ATOM     75  C   UNL A   1      42.820  22.124  26.050  1.00  0.00     0.091 A 
ATOM     76  F   UNL A   1      42.617  22.832  28.321  1.00  0.00    -0.205 F 
ATOM     77  C   UNL A   1      43.236  22.394  24.736  1.00  0.00     0.022 A 
BRANCH  75  78
ATOM     78  S   UNL A   1      42.037  20.527  26.323  1.00  0.00     0.127 S 
ATOM     79  O   UNL A   1      42.745  19.684  25.359  1.00  0.00    -0.237 OA
ATOM     80  O   UNL A   1      42.370  20.257  27.722  1.00  0.00    -0.237 OA
ATOM     81  O   UNL A   1      40.620  20.721  26.060  1.00  0.00    -0.744 OA
ENDBRANCH  75  78
ENDBRANCH  57  71
BRANCH  58  82
ATOM     82  C   UNL A   1      45.156  30.538  34.313  1.00  0.00     0.023 A 
ATOM     83  C   UNL A   1      44.850  30.031  35.594  1.00  0.00     0.012 A 
ATOM     84  C   UNL A   1      45.657  31.851  34.206  1.00  0.00     0.148 A 
ATOM     85  C   UNL A   1      45.011  30.814  36.739  1.00  0.00     0.002 A 
ATOM     86  C   UNL A   1      45.859  32.611  35.358  1.00  0.00     0.091 A 
ATOM     87  F   UNL A   1      45.929  32.328  32.984  1.00  0.00    -0.205 F 
ATOM     88  C   UNL A   1      45.525  32.100  36.622  1.00  0.00     0.022 A 
BRANCH  86  89
ATOM     89  S   UNL A   1      46.615  34.244  35.330  1.00  0.00     0.127 S 
ATOM     90  O   UNL A   1      46.578  34.615  36.744  1.00  0.00    -0.237 OA
ATOM     91  O   UNL A   1      47.951  33.944  34.811  1.00  0.00    -0.237 OA
ATOM     92  O   UNL A   1      45.784  35.044  34.446  1.00  0.00    -0.744 OA
ENDBRANCH  86  89
ENDBRANCH  58  82
BRANCH  70  93
ATOM     93  C   UNL A   1      49.436  26.363  30.680  1.00  0.00     0.023 A 
ATOM     94  C   UNL A   1      50.334  27.171  29.955  1.00  0.00     0.012 A 
ATOM     95  C   UNL A   1      49.945  25.363  31.535  1.00  0.00     0.148 A 
ATOM     96  C   UNL A   1      51.712  26.972  30.063  1.00  0.00     0.002 A 
ATOM     97  C   UNL A   1      51.317  25.206  31.678  1.00  0.00     0.091 A 
ATOM     98  F   UNL A   1      49.074  24.591  32.202  1.00  0.00    -0.205 F 
ATOM     99  C   UNL A   1      52.203  26.000  30.934  1.00  0.00     0.022 A 
BRANCH  97 100
ATOM    100  S   UNL A   1      52.039  24.054  32.854  1.00  0.00     0.127 S 
ATOM    101  O   UNL A   1      51.541  22.771  32.358  1.00  0.00    -0.237 OA
ATOM    102  O   UNL A   1      53.473  24.269  32.656  1.00  0.00    -0.237 OA
ATOM    103  O   UNL A   1      51.542  24.449  34.164  1.00  0.00    -0.744 OA
ENDBRANCH  97 100
ENDBRANCH  70  93
ENDBRANCH  44  45
ENDBRANCH  36  39
ENDBRANCH  34  35
ENDBRANCH  33  34
ENDBRANCH   1  33
TORSDOF 19
ENDMDL
MODEL 3
REMARK VINA RESULT:     -10.8      3.017      7.725
REMARK SMILES O=C(C[C@@H](C(=O)NCCCNC(=O)c1ccc(-c2c3nc(c(-c4cccc(S(=O)(=O)[O-])c4F)c4ccc([nH]4)c(-c4cccc(S(=O)(=O)[O-])c4F)c4nc(c(-c5cccc(S(=O)(=O)[O-])c5F)c5ccc2[nH]5)C=C4)C=C3)cc1)c1ccccc1)Nc1cc(C(F)(F)F)ccc1-n1cncn1
REMARK SMILES IDX 8 1 7 2 5 3 6 4 4 6 3 7 2 8 1 9 83 10 84 12 85 13 93 14
REMARK SMILES IDX 86 15 92 16 91 17 94 18 95 19 98 20 96 21 97 22 87 23 88 24
REMARK SMILES IDX 89 25 90 26 77 27 78 28 82 29 79 30 81 31 80 32 9 33 10 34
REMARK SMILES IDX 11 35 12 36 13 38 14 39 15 40 76 41 16 42 75 43 17 44 18 45
REMARK SMILES IDX 19 46 69 47 20 48 74 49 68 50 70 51 21 52 73 53 67 54 66 55
REMARK SMILES IDX 22 57 54 58 34 59 53 60 35 61 38 62 52 63 71 64 36 65 37 66
REMARK SMILES IDX 51 68 72 69 39 70 23 71 24 72 32 73 25 74 27 75 33 76 26 77
REMARK SMILES IDX 28 78 29 79 30 80 31 81 55 82 56 83 64 84 57 85 59 86 65 87
REMARK SMILES IDX 58 88 60 89 61 90 62 91 63 92 40 93 41 94 49 95 42 96 44 97
REMARK SMILES IDX 50 98 43 99 45 100 46 101 47 102 48 103
REMARK H PARENT 7 5 83 11 11 37 70 56 38 67
REMARK Flexibility Score: inf
ROOT
ATOM      1  C   UNL A   1      32.565  30.052  26.095  1.00  0.00     0.117 C 
ENDROOT
BRANCH   1   2
ATOM      2  N   UNL A   1      32.522  29.823  24.625  1.00  0.00    -0.355 N 
ATOM      3  C   UNL A   1      31.674  29.093  23.826  1.00  0.00     0.228 C 
ATOM      4  O   UNL A   1      32.216  28.498  22.884  1.00  0.00    -0.274 OA
ATOM      5  H   UNL A   1      33.238  30.283  24.130  1.00  0.00     0.163 HD
BRANCH   3   6
ATOM      6  C   UNL A   1      30.134  29.024  24.019  1.00  0.00     0.118 C 
BRANCH   6   7
ATOM      7  C   UNL A   1      29.534  27.703  23.509  1.00  0.00     0.118 C 
BRANCH   7   8
ATOM      8  C   UNL A   1      30.176  26.520  24.154  1.00  0.00     0.225 C 
ATOM      9  O   UNL A   1      30.259  26.400  25.380  1.00  0.00    -0.275 OA
ATOM     10  N   UNL A   1      30.738  25.687  23.218  1.00  0.00    -0.324 N 
ATOM     11  H   UNL A   1      30.597  25.891  22.266  1.00  0.00     0.170 HD
BRANCH  10  12
ATOM     12  C   UNL A   1      31.498  24.568  23.548  1.00  0.00     0.067 A 
ATOM     13  C   UNL A   1      31.154  24.060  24.771  1.00  0.00     0.041 A 
ATOM     14  C   UNL A   1      32.336  23.809  22.760  1.00  0.00     0.090 A 
ATOM     15  C   UNL A   1      31.960  23.225  25.492  1.00  0.00     0.058 A 
ATOM     16  C   UNL A   1      32.900  22.651  23.303  1.00  0.00     0.031 A 
ATOM     17  C   UNL A   1      32.775  22.423  24.696  1.00  0.00     0.015 A 
BRANCH  14  18
ATOM     18  N   UNL A   1      32.733  24.301  21.514  1.00  0.00    -0.219 N 
ATOM     19  C   UNL A   1      32.727  25.619  21.137  1.00  0.00     0.226 A 
ATOM     20  N   UNL A   1      33.025  23.514  20.458  1.00  0.00    -0.155 NA
ATOM     21  N   UNL A   1      32.823  25.718  19.836  1.00  0.00    -0.223 NA
ATOM     22  C   UNL A   1      33.029  24.418  19.469  1.00  0.00     0.246 A 
ENDBRANCH  14  18
BRANCH  15  23
ATOM     23  C   UNL A   1      31.581  23.238  26.950  1.00  0.00     0.416 C 
ATOM     24  F   UNL A   1      31.603  24.502  27.477  1.00  0.00    -0.166 F 
ATOM     25  F   UNL A   1      30.291  22.858  27.169  1.00  0.00    -0.166 F 
ATOM     26  F   UNL A   1      32.354  22.490  27.766  1.00  0.00    -0.166 F 
ENDBRANCH  15  23
ENDBRANCH  10  12
ENDBRANCH   7   8
ENDBRANCH   6   7
BRANCH   6  27
ATOM     27  C   UNL A   1      29.400  30.108  23.196  1.00  0.00    -0.035 A 
ATOM     28  C   UNL A   1      28.910  29.848  21.898  1.00  0.00     0.004 A 
ATOM     29  C   UNL A   1      29.060  31.333  23.787  1.00  0.00     0.004 A 
ATOM     30  C   UNL A   1      28.150  30.790  21.202  1.00  0.00     0.000 A 
ATOM     31  C   UNL A   1      28.298  32.278  23.088  1.00  0.00     0.000 A 
ATOM     32  C   UNL A   1      27.852  32.012  21.795  1.00  0.00     0.000 A 
ENDBRANCH   6  27
ENDBRANCH   3   6
ENDBRANCH   1   2
BRANCH   1  33
ATOM     33  C   UNL A   1      31.411  30.985  26.579  1.00  0.00     0.042 C 
BRANCH  33  34
ATOM     34  C   UNL A   1      31.458  32.578  26.645  1.00  0.00     0.118 C 
BRANCH  34  35
ATOM     35  N   UNL A   1      32.547  33.219  27.539  1.00  0.00    -0.352 N 
ATOM     36  C   UNL A   1      33.858  33.313  28.042  1.00  0.00     0.251 C 
ATOM     37  H   UNL A   1      32.069  33.946  28.000  1.00  0.00     0.163 HD
ATOM     38  O   UNL A   1      34.041  34.451  28.519  1.00  0.00    -0.269 OA
BRANCH  36  39
ATOM     39  C   UNL A   1      35.081  32.391  28.257  1.00  0.00     0.039 A 
ATOM     40  C   UNL A   1      36.383  32.982  28.237  1.00  0.00     0.014 A 
ATOM     41  C   UNL A   1      35.148  31.023  28.436  1.00  0.00     0.014 A 
ATOM     42  C   UNL A   1      37.597  32.308  28.634  1.00  0.00     0.010 A 
ATOM     43  C   UNL A   1      36.319  30.376  28.966  1.00  0.00     0.010 A 
ATOM     44  C   UNL A   1      37.565  31.005  29.138  1.00  0.00    -0.014 A 
BRANCH  44  45
ATOM     45  C   UNL A   1      38.702  30.273  29.866  1.00  0.00     0.031 A 
ATOM     46  C   UNL A   1      39.225  30.777  31.218  1.00  0.00     0.074 A 
ATOM     47  C   UNL A   1      39.480  29.345  29.243  1.00  0.00     0.049 A 
ATOM     48  N   UNL A   1      40.280  30.411  31.912  1.00  0.00    -0.248 NA
ATOM     49  C   UNL A   1      38.498  31.905  31.820  1.00  0.00     0.031 C 
ATOM     50  C   UNL A   1      39.290  28.854  27.878  1.00  0.00     0.029 A 
ATOM     51  N   UNL A   1      40.648  28.707  29.643  1.00  0.00    -0.354 N 
ATOM     52  C   UNL A   1      40.376  31.306  32.982  1.00  0.00     0.074 A 
ATOM     53  C   UNL A   1      39.320  32.275  32.790  1.00  0.00     0.031 C 
ATOM     54  C   UNL A   1      40.312  28.046  27.540  1.00  0.00     0.029 A 
ATOM     55  C   UNL A   1      41.233  27.919  28.667  1.00  0.00     0.049 A 
ATOM     56  H   UNL A   1      41.028  28.808  30.546  1.00  0.00     0.167 HD
ATOM     57  C   UNL A   1      41.213  31.320  34.055  1.00  0.00     0.034 A 
ATOM     58  C   UNL A   1      42.361  27.166  28.666  1.00  0.00     0.034 A 
ATOM     59  C   UNL A   1      42.247  30.346  34.284  1.00  0.00     0.049 A 
ATOM     60  C   UNL A   1      43.209  27.073  29.917  1.00  0.00     0.074 A 
ATOM     61  C   UNL A   1      43.026  30.155  35.413  1.00  0.00     0.029 A 
ATOM     62  N   UNL A   1      42.661  29.408  33.355  1.00  0.00    -0.354 N 
ATOM     63  N   UNL A   1      43.097  27.739  31.039  1.00  0.00    -0.248 NA
ATOM     64  C   UNL A   1      44.299  26.079  29.926  1.00  0.00     0.031 C 
ATOM     65  C   UNL A   1      43.928  29.116  35.155  1.00  0.00     0.029 A 
ATOM     66  C   UNL A   1      43.681  28.636  33.880  1.00  0.00     0.049 A 
ATOM     67  H   UNL A   1      42.284  29.306  32.450  1.00  0.00     0.167 HD
ATOM     68  C   UNL A   1      44.050  27.205  31.903  1.00  0.00     0.074 A 
ATOM     69  C   UNL A   1      44.736  26.158  31.177  1.00  0.00     0.031 C 
ATOM     70  C   UNL A   1      44.324  27.551  33.185  1.00  0.00     0.034 A 
BRANCH  57  71
ATOM     71  C   UNL A   1      40.969  32.364  35.132  1.00  0.00     0.023 A 
ATOM     72  C   UNL A   1      40.112  32.044  36.209  1.00  0.00     0.012 A 
ATOM     73  C   UNL A   1      41.617  33.619  35.133  1.00  0.00     0.148 A 
ATOM     74  C   UNL A   1      39.844  32.968  37.218  1.00  0.00     0.002 A 
ATOM     75  C   UNL A   1      41.387  34.516  36.176  1.00  0.00     0.091 A 
ATOM     76  F   UNL A   1      42.436  33.920  34.115  1.00  0.00    -0.205 F 
ATOM     77  C   UNL A   1      40.487  34.198  37.206  1.00  0.00     0.022 A 
BRANCH  75  78
ATOM     78  S   UNL A   1      42.233  36.097  36.320  1.00  0.00     0.127 S 
ATOM     79  O   UNL A   1      41.717  36.815  35.154  1.00  0.00    -0.237 OA
ATOM     80  O   UNL A   1      41.738  36.594  37.604  1.00  0.00    -0.237 OA
ATOM     81  O   UNL A   1      43.657  35.799  36.289  1.00  0.00    -0.744 OA
ENDBRANCH  75  78
ENDBRANCH  57  71
BRANCH  58  82
ATOM     82  C   UNL A   1      42.688  26.291  27.491  1.00  0.00     0.023 A 
ATOM     83  C   UNL A   1      43.450  26.839  26.436  1.00  0.00     0.012 A 
ATOM     84  C   UNL A   1      42.274  24.948  27.402  1.00  0.00     0.148 A 
ATOM     85  C   UNL A   1      43.771  26.082  25.308  1.00  0.00     0.002 A 
ATOM     86  C   UNL A   1      42.638  24.183  26.293  1.00  0.00     0.091 A 
ATOM     87  F   UNL A   1      41.539  24.442  28.401  1.00  0.00    -0.205 F 
ATOM     88  C   UNL A   1      43.374  24.752  25.241  1.00  0.00     0.022 A 
BRANCH  86  89
ATOM     89  S   UNL A   1      42.269  22.428  26.153  1.00  0.00     0.127 S 
ATOM     90  O   UNL A   1      40.806  22.427  26.174  1.00  0.00    -0.237 OA
ATOM     91  O   UNL A   1      42.862  22.101  24.855  1.00  0.00    -0.237 OA
ATOM     92  O   UNL A   1      42.915  21.801  27.294  1.00  0.00    -0.744 OA
ENDBRANCH  86  89
ENDBRANCH  58  82
BRANCH  70  93
ATOM     93  C   UNL A   1      45.356  26.756  33.943  1.00  0.00     0.023 A 
ATOM     94  C   UNL A   1      46.710  27.146  33.933  1.00  0.00     0.012 A 
ATOM     95  C   UNL A   1      44.956  25.673  34.753  1.00  0.00     0.148 A 
ATOM     96  C   UNL A   1      47.651  26.454  34.697  1.00  0.00     0.002 A 
ATOM     97  C   UNL A   1      45.888  25.023  35.551  1.00  0.00     0.091 A 
ATOM     98  F   UNL A   1      43.666  25.305  34.734  1.00  0.00    -0.205 F 
ATOM     99  C   UNL A   1      47.239  25.404  35.515  1.00  0.00     0.022 A 
BRANCH  97 100
ATOM    100  S   UNL A   1      45.430  23.731  36.713  1.00  0.00     0.127 S 
ATOM    101  O   UNL A   1      46.731  23.347  37.260  1.00  0.00    -0.237 OA
ATOM    102  O   UNL A   1      44.564  24.450  37.648  1.00  0.00    -0.237 OA
ATOM    103  O   UNL A   1      44.756  22.704  35.931  1.00  0.00    -0.744 OA
ENDBRANCH  97 100
ENDBRANCH  70  93
ENDBRANCH  44  45
ENDBRANCH  36  39
ENDBRANCH  34  35
ENDBRANCH  33  34
ENDBRANCH   1  33
TORSDOF 19
ENDMDL
