MODEL 1
REMARK VINA RESULT:     -11.7      0.000      0.000
REMARK SMILES CCCc1nccn1[C@@H]1CCC[C@]([NH3+])(C(=O)NCCCNC(=O)c2ccc(-c3c4nc(c(-c5cccc(S(=O)(=O)[O-])c5F)c5ccc([nH]5)c(-c5cccc(S(=O)(=O)[O-])c5F)c5nc(c(-c6cccc(S(=O)(=O)[O-])c6F)c6ccc3[nH]6)C=C5)C=C4)cc2)C1
REMARK SMILES IDX 19 1 18 2 17 3 15 4 16 5 13 7 9 8 10 9 87 10 11 11 12 12
REMARK SMILES IDX 8 13 4 14 5 15 6 16 7 17 3 18 2 19 1 20 14 21 20 25 21 26
REMARK SMILES IDX 22 27 23 29 24 30 25 31 86 32 26 33 85 34 27 35 28 36 29 37
REMARK SMILES IDX 79 38 30 39 84 40 78 41 80 42 31 43 83 44 77 45 76 46 32 48
REMARK SMILES IDX 64 49 44 50 63 51 45 52 48 53 62 54 81 55 46 56 47 57 61 59
REMARK SMILES IDX 82 60 49 61 33 62 34 63 42 64 35 65 37 66 43 67 36 68 38 69
REMARK SMILES IDX 39 70 40 71 41 72 65 73 66 74 74 75 67 76 69 77 75 78 68 79
REMARK SMILES IDX 70 80 71 81 72 82 73 83 50 84 51 85 59 86 52 87 54 88 60 89
REMARK SMILES IDX 53 90 55 91 56 92 57 93 58 94
REMARK H PARENT 17 6 14 22 14 23 14 24 21 28 80 47 48 58
REMARK Flexibility Score: inf
ROOT
ATOM      1  C   UNL A   1      37.895  20.123  24.688  1.00  0.00     0.042 C 
ENDROOT
BRANCH   1   2
ATOM      2  C   UNL A   1      36.536  20.730  25.040  1.00  0.00     0.118 C 
BRANCH   2   3
ATOM      3  N   UNL A   1      35.435  19.797  24.933  1.00  0.00    -0.351 N 
ATOM      4  C   UNL A   1      34.087  19.945  25.052  1.00  0.00     0.281 C 
ATOM      5  O   UNL A   1      33.423  18.928  24.813  1.00  0.00    -0.268 OA
ATOM      6  H   UNL A   1      35.716  18.875  24.736  1.00  0.00     0.163 HD
BRANCH   4   7
ATOM      7  C   UNL A   1      33.369  21.293  25.456  1.00  0.00     0.175 C 
ATOM      8  C   UNL A   1      32.591  23.574  24.579  1.00  0.00     0.095 C 
ATOM      9  C   UNL A   1      33.142  24.268  25.836  1.00  0.00     0.026 C 
ATOM     10  C   UNL A   1      33.247  22.228  24.241  1.00  0.00     0.104 C 
ATOM     11  C   UNL A   1      33.394  23.334  27.020  1.00  0.00     0.009 C 
ATOM     12  C   UNL A   1      34.052  22.003  26.638  1.00  0.00     0.079 C 
BRANCH   8  13
ATOM     13  N   UNL A   1      32.477  24.506  23.451  1.00  0.00    -0.332 N 
ATOM     14  C   UNL A   1      31.609  25.556  23.196  1.00  0.00     0.108 A 
ATOM     15  N   UNL A   1      31.843  26.058  21.992  1.00  0.00    -0.242 NA
ATOM     16  C   UNL A   1      32.898  25.369  21.476  1.00  0.00     0.131 A 
ATOM     17  C   UNL A   1      33.306  24.401  22.352  1.00  0.00     0.107 A 
BRANCH  14  18
ATOM     18  C   UNL A   1      30.582  26.169  24.102  1.00  0.00     0.075 C 
BRANCH  18  19
ATOM     19  C   UNL A   1      30.341  27.662  23.876  1.00  0.00     0.005 C 
ATOM     20  C   UNL A   1      29.001  27.946  23.219  1.00  0.00     0.004 C 
ENDBRANCH  18  19
ENDBRANCH  14  18
ENDBRANCH   8  13
BRANCH   7  21
ATOM     21  N   UNL A   1      31.979  20.937  25.860  1.00  0.00    -0.345 N 
ATOM     22  H   UNL A   1      31.496  21.773  26.188  1.00  0.00     0.345 HD
ATOM     23  H   UNL A   1      32.011  20.246  26.609  1.00  0.00     0.345 HD
ATOM     24  H   UNL A   1      31.482  20.549  25.059  1.00  0.00     0.345 HD
ENDBRANCH   7  21
ENDBRANCH   4   7
ENDBRANCH   2   3
ENDBRANCH   1   2
BRANCH   1  25
ATOM     25  C   UNL A   1      38.929  20.327  25.788  1.00  0.00     0.118 C 
BRANCH  25  26
ATOM     26  N   UNL A   1      39.955  19.283  25.787  1.00  0.00    -0.352 N 
ATOM     27  C   UNL A   1      41.319  19.418  25.977  1.00  0.00     0.251 C 
ATOM     28  H   UNL A   1      39.633  18.366  25.630  1.00  0.00     0.163 HD
ATOM     29  O   UNL A   1      42.079  18.526  25.645  1.00  0.00    -0.269 OA
BRANCH  27  30
ATOM     30  C   UNL A   1      41.836  20.673  26.558  1.00  0.00     0.039 A 
ATOM     31  C   UNL A   1      41.995  21.801  25.748  1.00  0.00     0.014 A 
ATOM     32  C   UNL A   1      42.108  20.732  27.923  1.00  0.00     0.014 A 
ATOM     33  C   UNL A   1      42.314  23.018  26.344  1.00  0.00     0.010 A 
ATOM     34  C   UNL A   1      42.317  21.955  28.525  1.00  0.00     0.010 A 
ATOM     35  C   UNL A   1      42.431  23.104  27.742  1.00  0.00    -0.014 A 
BRANCH  35  36
ATOM     36  C   UNL A   1      42.464  24.422  28.385  1.00  0.00     0.031 A 
ATOM     37  C   UNL A   1      41.246  25.246  28.139  1.00  0.00     0.074 A 
ATOM     38  C   UNL A   1      43.376  24.803  29.307  1.00  0.00     0.049 A 
ATOM     39  N   UNL A   1      41.157  26.337  27.453  1.00  0.00    -0.248 NA
ATOM     40  C   UNL A   1      39.945  24.715  28.579  1.00  0.00     0.031 C 
ATOM     41  C   UNL A   1      44.436  23.974  29.893  1.00  0.00     0.029 A 
ATOM     42  N   UNL A   1      43.467  25.964  30.023  1.00  0.00    -0.354 N 
ATOM     43  C   UNL A   1      39.836  26.766  27.601  1.00  0.00     0.074 A 
ATOM     44  C   UNL A   1      39.105  25.632  28.094  1.00  0.00     0.031 C 
ATOM     45  C   UNL A   1      44.883  24.551  31.029  1.00  0.00     0.029 A 
ATOM     46  C   UNL A   1      44.281  25.865  31.150  1.00  0.00     0.049 A 
ATOM     47  H   UNL A   1      43.000  26.792  29.767  1.00  0.00     0.167 HD
ATOM     48  C   UNL A   1      39.533  28.094  27.591  1.00  0.00     0.034 A 
ATOM     49  C   UNL A   1      44.456  26.785  32.127  1.00  0.00     0.034 A 
ATOM     50  C   UNL A   1      40.661  28.868  27.139  1.00  0.00     0.049 A 
ATOM     51  C   UNL A   1      44.069  28.101  31.581  1.00  0.00     0.074 A 
ATOM     52  C   UNL A   1      41.309  29.127  25.954  1.00  0.00     0.029 A 
ATOM     53  N   UNL A   1      41.490  29.255  28.158  1.00  0.00    -0.354 N 
ATOM     54  N   UNL A   1      44.754  28.719  30.661  1.00  0.00    -0.248 NA
ATOM     55  C   UNL A   1      42.746  28.645  31.855  1.00  0.00     0.031 C 
ATOM     56  C   UNL A   1      42.633  29.521  26.306  1.00  0.00     0.029 A 
ATOM     57  C   UNL A   1      42.748  29.518  27.696  1.00  0.00     0.049 A 
ATOM     58  H   UNL A   1      41.216  29.334  29.100  1.00  0.00     0.167 HD
ATOM     59  C   UNL A   1      43.791  29.400  29.942  1.00  0.00     0.074 A 
ATOM     60  C   UNL A   1      42.640  29.492  30.829  1.00  0.00     0.031 C 
ATOM     61  C   UNL A   1      43.887  29.506  28.588  1.00  0.00     0.034 A 
BRANCH  48  62
ATOM     62  C   UNL A   1      38.456  28.787  28.424  1.00  0.00     0.023 A 
ATOM     63  C   UNL A   1      37.627  29.711  27.738  1.00  0.00     0.012 A 
ATOM     64  C   UNL A   1      38.407  28.831  29.835  1.00  0.00     0.148 A 
ATOM     65  C   UNL A   1      36.871  30.679  28.409  1.00  0.00     0.002 A 
ATOM     66  C   UNL A   1      37.605  29.756  30.502  1.00  0.00     0.091 A 
ATOM     67  F   UNL A   1      39.220  28.066  30.562  1.00  0.00    -0.205 F 
ATOM     68  C   UNL A   1      36.863  30.704  29.796  1.00  0.00     0.022 A 
BRANCH  66  69
ATOM     69  S   UNL A   1      37.528  29.817  32.299  1.00  0.00     0.127 S 
ATOM     70  O   UNL A   1      38.864  30.304  32.632  1.00  0.00    -0.237 OA
ATOM     71  O   UNL A   1      36.444  30.775  32.518  1.00  0.00    -0.237 OA
ATOM     72  O   UNL A   1      37.221  28.458  32.727  1.00  0.00    -0.744 OA
ENDBRANCH  66  69
ENDBRANCH  48  62
BRANCH  49  73
ATOM     73  C   UNL A   1      44.889  26.653  33.532  1.00  0.00     0.023 A 
ATOM     74  C   UNL A   1      46.193  27.049  33.895  1.00  0.00     0.012 A 
ATOM     75  C   UNL A   1      43.948  26.421  34.556  1.00  0.00     0.148 A 
ATOM     76  C   UNL A   1      46.534  27.267  35.233  1.00  0.00     0.002 A 
ATOM     77  C   UNL A   1      44.292  26.642  35.886  1.00  0.00     0.091 A 
ATOM     78  F   UNL A   1      42.700  26.074  34.212  1.00  0.00    -0.205 F 
ATOM     79  C   UNL A   1      45.580  27.078  36.227  1.00  0.00     0.022 A 
BRANCH  77  80
ATOM     80  S   UNL A   1      43.107  26.473  37.229  1.00  0.00     0.127 S 
ATOM     81  O   UNL A   1      43.950  26.688  38.406  1.00  0.00    -0.237 OA
ATOM     82  O   UNL A   1      42.170  27.556  36.939  1.00  0.00    -0.237 OA
ATOM     83  O   UNL A   1      42.569  25.123  37.112  1.00  0.00    -0.744 OA
ENDBRANCH  77  80
ENDBRANCH  49  73
BRANCH  61  84
ATOM     84  C   UNL A   1      45.251  29.391  27.976  1.00  0.00     0.023 A 
ATOM     85  C   UNL A   1      46.171  30.457  27.940  1.00  0.00     0.012 A 
ATOM     86  C   UNL A   1      45.646  28.128  27.507  1.00  0.00     0.148 A 
ATOM     87  C   UNL A   1      47.456  30.267  27.426  1.00  0.00     0.002 A 
ATOM     88  C   UNL A   1      46.938  27.930  27.048  1.00  0.00     0.091 A 
ATOM     89  F   UNL A   1      44.746  27.132  27.532  1.00  0.00    -0.205 F 
ATOM     90  C   UNL A   1      47.845  28.999  26.994  1.00  0.00     0.022 A 
BRANCH  88  91
ATOM     91  S   UNL A   1      47.518  26.291  26.610  1.00  0.00     0.127 S 
ATOM     92  O   UNL A   1      47.239  25.531  27.826  1.00  0.00    -0.237 OA
ATOM     93  O   UNL A   1      46.670  25.951  25.466  1.00  0.00    -0.237 OA
ATOM     94  O   UNL A   1      48.927  26.451  26.272  1.00  0.00    -0.744 OA
ENDBRANCH  88  91
ENDBRANCH  61  84
ENDBRANCH  35  36
ENDBRANCH  27  30
ENDBRANCH  25  26
ENDBRANCH   1  25
TORSDOF 17
ENDMDL
MODEL 2
REMARK VINA RESULT:     -11.6      1.940      3.077
REMARK SMILES CCCc1nccn1[C@@H]1CCC[C@]([NH3+])(C(=O)NCCCNC(=O)c2ccc(-c3c4nc(c(-c5cccc(S(=O)(=O)[O-])c5F)c5ccc([nH]5)c(-c5cccc(S(=O)(=O)[O-])c5F)c5nc(c(-c6cccc(S(=O)(=O)[O-])c6F)c6ccc3[nH]6)C=C5)C=C4)cc2)C1
REMARK SMILES IDX 19 1 18 2 17 3 15 4 16 5 13 7 9 8 10 9 87 10 11 11 12 12
REMARK SMILES IDX 8 13 4 14 5 15 6 16 7 17 3 18 2 19 1 20 14 21 20 25 21 26
REMARK SMILES IDX 22 27 23 29 24 30 25 31 86 32 26 33 85 34 27 35 28 36 29 37
REMARK SMILES IDX 79 38 30 39 84 40 78 41 80 42 31 43 83 44 77 45 76 46 32 48
REMARK SMILES IDX 64 49 44 50 63 51 45 52 48 53 62 54 81 55 46 56 47 57 61 59
REMARK SMILES IDX 82 60 49 61 33 62 34 63 42 64 35 65 37 66 43 67 36 68 38 69
REMARK SMILES IDX 39 70 40 71 41 72 65 73 66 74 74 75 67 76 69 77 75 78 68 79
REMARK SMILES IDX 70 80 71 81 72 82 73 83 50 84 51 85 59 86 52 87 54 88 60 89
REMARK SMILES IDX 53 90 55 91 56 92 57 93 58 94
REMARK H PARENT 17 6 14 22 14 23 14 24 21 28 80 47 48 58
REMARK Flexibility Score: inf
ROOT
ATOM      1  C   UNL A   1      38.053  19.774  25.127  1.00  0.00     0.042 C 
ENDROOT
BRANCH   1   2
ATOM      2  C   UNL A   1      37.371  20.890  24.334  1.00  0.00     0.118 C 
BRANCH   2   3
ATOM      3  N   UNL A   1      37.192  22.114  25.085  1.00  0.00    -0.351 N 
ATOM      4  C   UNL A   1      36.152  22.604  25.814  1.00  0.00     0.281 C 
ATOM      5  O   UNL A   1      36.377  23.669  26.403  1.00  0.00    -0.268 OA
ATOM      6  H   UNL A   1      37.975  22.709  25.064  1.00  0.00     0.163 HD
BRANCH   4   7
ATOM      7  C   UNL A   1      34.742  21.903  25.940  1.00  0.00     0.175 C 
ATOM      8  C   UNL A   1      33.213  20.116  24.916  1.00  0.00     0.095 C 
ATOM      9  C   UNL A   1      32.006  21.065  25.010  1.00  0.00     0.026 C 
ATOM     10  C   UNL A   1      34.582  20.809  24.870  1.00  0.00     0.104 C 
ATOM     11  C   UNL A   1      32.193  22.237  25.975  1.00  0.00     0.009 C 
ATOM     12  C   UNL A   1      33.572  22.901  25.895  1.00  0.00     0.079 C 
BRANCH   8  13
ATOM     13  N   UNL A   1      33.010  19.081  23.895  1.00  0.00    -0.332 N 
ATOM     14  C   UNL A   1      33.607  17.848  23.689  1.00  0.00     0.108 A 
ATOM     15  N   UNL A   1      33.148  17.300  22.574  1.00  0.00    -0.242 NA
ATOM     16  C   UNL A   1      32.211  18.153  22.073  1.00  0.00     0.131 A 
ATOM     17  C   UNL A   1      32.109  19.263  22.864  1.00  0.00     0.107 A 
BRANCH  14  18
ATOM     18  C   UNL A   1      34.574  17.112  24.569  1.00  0.00     0.075 C 
BRANCH  18  19
ATOM     19  C   UNL A   1      33.927  16.332  25.714  1.00  0.00     0.005 C 
ATOM     20  C   UNL A   1      32.859  15.364  25.234  1.00  0.00     0.004 C 
ENDBRANCH  18  19
ENDBRANCH  14  18
ENDBRANCH   8  13
BRANCH   7  21
ATOM     21  N   UNL A   1      34.720  21.212  27.260  1.00  0.00    -0.345 N 
ATOM     22  H   UNL A   1      33.803  20.791  27.409  1.00  0.00     0.345 HD
ATOM     23  H   UNL A   1      34.908  21.888  28.000  1.00  0.00     0.345 HD
ATOM     24  H   UNL A   1      35.435  20.484  27.274  1.00  0.00     0.345 HD
ENDBRANCH   7  21
ENDBRANCH   4   7
ENDBRANCH   2   3
ENDBRANCH   1   2
BRANCH   1  25
ATOM     25  C   UNL A   1      39.311  20.249  25.843  1.00  0.00     0.118 C 
BRANCH  25  26
ATOM     26  N   UNL A   1      40.409  19.288  25.733  1.00  0.00    -0.352 N 
ATOM     27  C   UNL A   1      41.765  19.511  25.894  1.00  0.00     0.251 C 
ATOM     28  H   UNL A   1      40.150  18.364  25.515  1.00  0.00     0.163 HD
ATOM     29  O   UNL A   1      42.577  18.705  25.473  1.00  0.00    -0.269 OA
BRANCH  27  30
ATOM     30  C   UNL A   1      42.209  20.755  26.554  1.00  0.00     0.039 A 
ATOM     31  C   UNL A   1      42.531  21.875  25.784  1.00  0.00     0.014 A 
ATOM     32  C   UNL A   1      42.248  20.812  27.946  1.00  0.00     0.014 A 
ATOM     33  C   UNL A   1      42.776  23.086  26.426  1.00  0.00     0.010 A 
ATOM     34  C   UNL A   1      42.383  22.032  28.575  1.00  0.00     0.010 A 
ATOM     35  C   UNL A   1      42.656  23.174  27.823  1.00  0.00    -0.014 A 
BRANCH  35  36
ATOM     36  C   UNL A   1      42.614  24.494  28.463  1.00  0.00     0.031 A 
ATOM     37  C   UNL A   1      41.404  25.294  28.119  1.00  0.00     0.074 A 
ATOM     38  C   UNL A   1      43.444  24.893  29.453  1.00  0.00     0.049 A 
ATOM     39  N   UNL A   1      41.349  26.382  27.425  1.00  0.00    -0.248 NA
ATOM     40  C   UNL A   1      40.083  24.739  28.457  1.00  0.00     0.031 C 
ATOM     41  C   UNL A   1      44.470  24.086  30.123  1.00  0.00     0.029 A 
ATOM     42  N   UNL A   1      43.456  26.057  30.170  1.00  0.00    -0.354 N 
ATOM     43  C   UNL A   1      40.012  26.786  27.467  1.00  0.00     0.074 A 
ATOM     44  C   UNL A   1      39.266  25.639  27.905  1.00  0.00     0.031 C 
ATOM     45  C   UNL A   1      44.815  24.673  31.288  1.00  0.00     0.029 A 
ATOM     46  C   UNL A   1      44.180  25.975  31.357  1.00  0.00     0.049 A 
ATOM     47  H   UNL A   1      42.995  26.876  29.876  1.00  0.00     0.167 HD
ATOM     48  C   UNL A   1      39.686  28.109  27.430  1.00  0.00     0.034 A 
ATOM     49  C   UNL A   1      44.260  26.900  32.343  1.00  0.00     0.034 A 
ATOM     50  C   UNL A   1      40.832  28.903  27.066  1.00  0.00     0.049 A 
ATOM     51  C   UNL A   1      43.893  28.207  31.765  1.00  0.00     0.074 A 
ATOM     52  C   UNL A   1      41.566  29.172  25.934  1.00  0.00     0.029 A 
ATOM     53  N   UNL A   1      41.570  29.307  28.146  1.00  0.00    -0.354 N 
ATOM     54  N   UNL A   1      44.636  28.837  30.900  1.00  0.00    -0.248 NA
ATOM     55  C   UNL A   1      42.542  28.726  31.932  1.00  0.00     0.031 C 
ATOM     56  C   UNL A   1      42.850  29.593  26.389  1.00  0.00     0.029 A 
ATOM     57  C   UNL A   1      42.855  29.593  27.784  1.00  0.00     0.049 A 
ATOM     58  H   UNL A   1      41.221  29.382  29.063  1.00  0.00     0.167 HD
ATOM     59  C   UNL A   1      43.721  29.499  30.105  1.00  0.00     0.074 A 
ATOM     60  C   UNL A   1      42.502  29.570  30.898  1.00  0.00     0.031 C 
ATOM     61  C   UNL A   1      43.921  29.604  28.762  1.00  0.00     0.034 A 
BRANCH  48  62
ATOM     62  C   UNL A   1      38.534  28.781  28.173  1.00  0.00     0.023 A 
ATOM     63  C   UNL A   1      37.721  29.660  27.412  1.00  0.00     0.012 A 
ATOM     64  C   UNL A   1      38.391  28.857  29.577  1.00  0.00     0.148 A 
ATOM     65  C   UNL A   1      36.890  30.615  28.008  1.00  0.00     0.002 A 
ATOM     66  C   UNL A   1      37.516  29.768  30.167  1.00  0.00     0.091 A 
ATOM     67  F   UNL A   1      39.180  28.138  30.374  1.00  0.00    -0.205 F 
ATOM     68  C   UNL A   1      36.791  30.673  29.391  1.00  0.00     0.022 A 
BRANCH  66  69
ATOM     69  S   UNL A   1      37.320  29.867  31.954  1.00  0.00     0.127 S 
ATOM     70  O   UNL A   1      36.019  30.522  32.068  1.00  0.00    -0.237 OA
ATOM     71  O   UNL A   1      37.341  28.455  32.334  1.00  0.00    -0.237 OA
ATOM     72  O   UNL A   1      38.463  30.633  32.435  1.00  0.00    -0.744 OA
ENDBRANCH  66  69
ENDBRANCH  48  62
BRANCH  49  73
ATOM     73  C   UNL A   1      44.584  26.778  33.778  1.00  0.00     0.023 A 
ATOM     74  C   UNL A   1      45.800  27.304  34.261  1.00  0.00     0.012 A 
ATOM     75  C   UNL A   1      43.591  26.416  34.712  1.00  0.00     0.148 A 
ATOM     76  C   UNL A   1      45.999  27.522  35.628  1.00  0.00     0.002 A 
ATOM     77  C   UNL A   1      43.793  26.638  36.070  1.00  0.00     0.091 A 
ATOM     78  F   UNL A   1      42.424  25.944  34.253  1.00  0.00    -0.205 F 
ATOM     79  C   UNL A   1      44.991  27.203  36.530  1.00  0.00     0.022 A 
BRANCH  77  80
ATOM     80  S   UNL A   1      42.524  26.304  37.301  1.00  0.00     0.127 S 
ATOM     81  O   UNL A   1      42.209  24.899  37.036  1.00  0.00    -0.237 OA
ATOM     82  O   UNL A   1      43.246  26.546  38.547  1.00  0.00    -0.237 OA
ATOM     83  O   UNL A   1      41.437  27.230  37.008  1.00  0.00    -0.744 OA
ENDBRANCH  77  80
ENDBRANCH  49  73
BRANCH  61  84
ATOM     84  C   UNL A   1      45.330  29.515  28.260  1.00  0.00     0.023 A 
ATOM     85  C   UNL A   1      46.232  30.596  28.300  1.00  0.00     0.012 A 
ATOM     86  C   UNL A   1      45.782  28.261  27.820  1.00  0.00     0.148 A 
ATOM     87  C   UNL A   1      47.557  30.429  27.888  1.00  0.00     0.002 A 
ATOM     88  C   UNL A   1      47.110  28.086  27.465  1.00  0.00     0.091 A 
ATOM     89  F   UNL A   1      44.901  27.249  27.772  1.00  0.00    -0.205 F 
ATOM     90  C   UNL A   1      48.000  29.170  27.485  1.00  0.00     0.022 A 
BRANCH  88  91
ATOM     91  S   UNL A   1      47.750  26.458  27.069  1.00  0.00     0.127 S 
ATOM     92  O   UNL A   1      47.653  25.769  28.354  1.00  0.00    -0.237 OA
ATOM     93  O   UNL A   1      46.812  25.988  26.049  1.00  0.00    -0.237 OA
ATOM     94  O   UNL A   1      49.102  26.679  26.569  1.00  0.00    -0.744 OA
ENDBRANCH  88  91
ENDBRANCH  61  84
ENDBRANCH  35  36
ENDBRANCH  27  30
ENDBRANCH  25  26
ENDBRANCH   1  25
TORSDOF 17
ENDMDL
MODEL 3
REMARK VINA RESULT:     -11.5      1.673      1.953
REMARK SMILES CCCc1nccn1[C@@H]1CCC[C@]([NH3+])(C(=O)NCCCNC(=O)c2ccc(-c3c4nc(c(-c5cccc(S(=O)(=O)[O-])c5F)c5ccc([nH]5)c(-c5cccc(S(=O)(=O)[O-])c5F)c5nc(c(-c6cccc(S(=O)(=O)[O-])c6F)c6ccc3[nH]6)C=C5)C=C4)cc2)C1
REMARK SMILES IDX 19 1 18 2 17 3 15 4 16 5 13 7 9 8 10 9 87 10 11 11 12 12
REMARK SMILES IDX 8 13 4 14 5 15 6 16 7 17 3 18 2 19 1 20 14 21 20 25 21 26
REMARK SMILES IDX 22 27 23 29 24 30 25 31 86 32 26 33 85 34 27 35 28 36 29 37
REMARK SMILES IDX 79 38 30 39 84 40 78 41 80 42 31 43 83 44 77 45 76 46 32 48
REMARK SMILES IDX 64 49 44 50 63 51 45 52 48 53 62 54 81 55 46 56 47 57 61 59
REMARK SMILES IDX 82 60 49 61 33 62 34 63 42 64 35 65 37 66 43 67 36 68 38 69
REMARK SMILES IDX 39 70 40 71 41 72 65 73 66 74 74 75 67 76 69 77 75 78 68 79
REMARK SMILES IDX 70 80 71 81 72 82 73 83 50 84 51 85 59 86 52 87 54 88 60 89
REMARK SMILES IDX 53 90 55 91 56 92 57 93 58 94
REMARK H PARENT 17 6 14 22 14 23 14 24 21 28 80 47 48 58
REMARK Flexibility Score: inf
ROOT
ATOM      1  C   UNL A   1      38.039  20.075  24.829  1.00  0.00     0.042 C 
ENDROOT
BRANCH   1   2
ATOM      2  C   UNL A   1      36.663  20.512  25.333  1.00  0.00     0.118 C 
BRANCH   2   3
ATOM      3  N   UNL A   1      35.581  19.658  24.891  1.00  0.00    -0.351 N 
ATOM      4  C   UNL A   1      34.231  19.826  24.854  1.00  0.00     0.281 C 
ATOM      5  O   UNL A   1      33.600  18.901  24.326  1.00  0.00    -0.268 OA
ATOM      6  H   UNL A   1      35.881  18.785  24.550  1.00  0.00     0.163 HD
BRANCH   4   7
ATOM      7  C   UNL A   1      33.473  21.090  25.423  1.00  0.00     0.175 C 
ATOM      8  C   UNL A   1      33.040  23.591  25.056  1.00  0.00     0.095 C 
ATOM      9  C   UNL A   1      33.244  23.867  26.555  1.00  0.00     0.026 C 
ATOM     10  C   UNL A   1      33.721  22.318  24.532  1.00  0.00     0.104 C 
ATOM     11  C   UNL A   1      33.130  22.633  27.451  1.00  0.00     0.009 C 
ATOM     12  C   UNL A   1      33.824  21.386  26.892  1.00  0.00     0.079 C 
BRANCH   8  13
ATOM     13  N   UNL A   1      33.272  24.793  24.246  1.00  0.00    -0.332 N 
ATOM     14  C   UNL A   1      33.607  26.094  24.587  1.00  0.00     0.108 A 
ATOM     15  N   UNL A   1      33.625  26.858  23.505  1.00  0.00    -0.242 NA
ATOM     16  C   UNL A   1      33.351  26.047  22.445  1.00  0.00     0.131 A 
ATOM     17  C   UNL A   1      33.123  24.769  22.873  1.00  0.00     0.107 A 
BRANCH  14  18
ATOM     18  C   UNL A   1      33.991  26.645  25.928  1.00  0.00     0.075 C 
BRANCH  18  19
ATOM     19  C   UNL A   1      33.851  28.162  26.058  1.00  0.00     0.005 C 
ATOM     20  C   UNL A   1      32.917  28.570  27.184  1.00  0.00     0.004 C 
ENDBRANCH  18  19
ENDBRANCH  14  18
ENDBRANCH   8  13
BRANCH   7  21
ATOM     21  N   UNL A   1      32.015  20.791  25.339  1.00  0.00    -0.345 N 
ATOM     22  H   UNL A   1      31.551  21.516  24.792  1.00  0.00     0.345 HD
ATOM     23  H   UNL A   1      31.619  20.769  26.279  1.00  0.00     0.345 HD
ATOM     24  H   UNL A   1      31.878  19.886  24.891  1.00  0.00     0.345 HD
ENDBRANCH   7  21
ENDBRANCH   4   7
ENDBRANCH   2   3
ENDBRANCH   1   2
BRANCH   1  25
ATOM     25  C   UNL A   1      39.139  20.306  25.858  1.00  0.00     0.118 C 
BRANCH  25  26
ATOM     26  N   UNL A   1      40.220  19.326  25.745  1.00  0.00    -0.352 N 
ATOM     27  C   UNL A   1      41.582  19.529  25.886  1.00  0.00     0.251 C 
ATOM     28  H   UNL A   1      39.944  18.403  25.542  1.00  0.00     0.163 HD
ATOM     29  O   UNL A   1      42.374  18.706  25.464  1.00  0.00    -0.269 OA
BRANCH  27  30
ATOM     30  C   UNL A   1      42.054  20.774  26.525  1.00  0.00     0.039 A 
ATOM     31  C   UNL A   1      42.300  21.907  25.745  1.00  0.00     0.014 A 
ATOM     32  C   UNL A   1      42.195  20.818  27.911  1.00  0.00     0.014 A 
ATOM     33  C   UNL A   1      42.574  23.115  26.380  1.00  0.00     0.010 A 
ATOM     34  C   UNL A   1      42.358  22.033  28.541  1.00  0.00     0.010 A 
ATOM     35  C   UNL A   1      42.557  23.187  27.784  1.00  0.00    -0.014 A 
BRANCH  35  36
ATOM     36  C   UNL A   1      42.542  24.499  28.440  1.00  0.00     0.031 A 
ATOM     37  C   UNL A   1      41.313  25.298  28.166  1.00  0.00     0.074 A 
ATOM     38  C   UNL A   1      43.419  24.891  29.391  1.00  0.00     0.049 A 
ATOM     39  N   UNL A   1      41.219  26.394  27.488  1.00  0.00    -0.248 NA
ATOM     40  C   UNL A   1      40.013  24.734  28.564  1.00  0.00     0.031 C 
ATOM     41  C   UNL A   1      44.480  24.081  29.999  1.00  0.00     0.029 A 
ATOM     42  N   UNL A   1      43.463  26.047  30.120  1.00  0.00    -0.354 N 
ATOM     43  C   UNL A   1      39.885  26.791  27.602  1.00  0.00     0.074 A 
ATOM     44  C   UNL A   1      39.166  25.636  28.064  1.00  0.00     0.031 C 
ATOM     45  C   UNL A   1      44.882  24.657  31.153  1.00  0.00     0.029 A 
ATOM     46  C   UNL A   1      44.246  25.956  31.268  1.00  0.00     0.049 A 
ATOM     47  H   UNL A   1      42.985  26.867  29.859  1.00  0.00     0.167 HD
ATOM     48  C   UNL A   1      39.552  28.113  27.596  1.00  0.00     0.034 A 
ATOM     49  C   UNL A   1      44.373  26.870  32.258  1.00  0.00     0.034 A 
ATOM     50  C   UNL A   1      40.675  28.915  27.183  1.00  0.00     0.049 A 
ATOM     51  C   UNL A   1      43.972  28.182  31.714  1.00  0.00     0.074 A 
ATOM     52  C   UNL A   1      41.350  29.201  26.019  1.00  0.00     0.029 A 
ATOM     53  N   UNL A   1      41.466  29.312  28.229  1.00  0.00    -0.354 N 
ATOM     54  N   UNL A   1      44.668  28.824  30.820  1.00  0.00    -0.248 NA
ATOM     55  C   UNL A   1      42.630  28.693  31.955  1.00  0.00     0.031 C 
ATOM     56  C   UNL A   1      42.655  29.621  26.414  1.00  0.00     0.029 A 
ATOM     57  C   UNL A   1      42.730  29.607  27.806  1.00  0.00     0.049 A 
ATOM     58  H   UNL A   1      41.163  29.375  29.164  1.00  0.00     0.167 HD
ATOM     59  C   UNL A   1      43.712  29.491  30.080  1.00  0.00     0.074 A 
ATOM     60  C   UNL A   1      42.534  29.548  30.934  1.00  0.00     0.031 C 
ATOM     61  C   UNL A   1      43.844  29.612  28.730  1.00  0.00     0.034 A 
BRANCH  48  62
ATOM     62  C   UNL A   1      38.437  28.772  28.404  1.00  0.00     0.023 A 
ATOM     63  C   UNL A   1      37.535  29.593  27.678  1.00  0.00     0.012 A 
ATOM     64  C   UNL A   1      38.400  28.895  29.810  1.00  0.00     0.148 A 
ATOM     65  C   UNL A   1      36.717  30.541  28.305  1.00  0.00     0.002 A 
ATOM     66  C   UNL A   1      37.540  29.797  30.436  1.00  0.00     0.091 A 
ATOM     67  F   UNL A   1      39.274  28.234  30.568  1.00  0.00    -0.205 F 
ATOM     68  C   UNL A   1      36.723  30.646  29.688  1.00  0.00     0.022 A 
BRANCH  66  69
ATOM     69  S   UNL A   1      37.478  29.956  32.228  1.00  0.00     0.127 S 
ATOM     70  O   UNL A   1      37.177  28.586  32.632  1.00  0.00    -0.237 OA
ATOM     71  O   UNL A   1      38.834  30.411  32.533  1.00  0.00    -0.237 OA
ATOM     72  O   UNL A   1      36.441  30.943  32.500  1.00  0.00    -0.744 OA
ENDBRANCH  66  69
ENDBRANCH  48  62
BRANCH  49  73
ATOM     73  C   UNL A   1      44.769  26.734  33.674  1.00  0.00     0.023 A 
ATOM     74  C   UNL A   1      46.027  27.216  34.092  1.00  0.00     0.012 A 
ATOM     75  C   UNL A   1      43.816  26.404  34.660  1.00  0.00     0.148 A 
ATOM     76  C   UNL A   1      46.306  27.424  35.445  1.00  0.00     0.002 A 
ATOM     77  C   UNL A   1      44.097  26.616  36.006  1.00  0.00     0.091 A 
ATOM     78  F   UNL A   1      42.609  25.974  34.265  1.00  0.00    -0.205 F 
ATOM     79  C   UNL A   1      45.337  27.138  36.401  1.00  0.00     0.022 A 
BRANCH  77  80
ATOM     80  S   UNL A   1      42.886  26.323  37.302  1.00  0.00     0.127 S 
ATOM     81  O   UNL A   1      43.672  26.569  38.512  1.00  0.00    -0.237 OA
ATOM     82  O   UNL A   1      41.880  27.340  37.006  1.00  0.00    -0.237 OA
ATOM     83  O   UNL A   1      42.456  24.941  37.135  1.00  0.00    -0.744 OA
ENDBRANCH  77  80
ENDBRANCH  49  73
BRANCH  61  84
ATOM     84  C   UNL A   1      45.226  29.534  28.156  1.00  0.00     0.023 A 
ATOM     85  C   UNL A   1      45.790  28.340  27.665  1.00  0.00     0.012 A 
ATOM     86  C   UNL A   1      45.940  30.735  28.023  1.00  0.00     0.148 A 
ATOM     87  C   UNL A   1      47.054  28.346  27.071  1.00  0.00     0.002 A 
ATOM     88  C   UNL A   1      47.170  30.746  27.384  1.00  0.00     0.091 A 
ATOM     89  F   UNL A   1      45.392  31.858  28.516  1.00  0.00    -0.205 F 
ATOM     90  C   UNL A   1      47.738  29.552  26.916  1.00  0.00     0.022 A 
BRANCH  88  91
ATOM     91  S   UNL A   1      48.018  32.289  27.047  1.00  0.00     0.127 S 
ATOM     92  O   UNL A   1      48.198  32.840  28.388  1.00  0.00    -0.237 OA
ATOM     93  O   UNL A   1      49.250  31.839  26.398  1.00  0.00    -0.237 OA
ATOM     94  O   UNL A   1      47.130  33.041  26.168  1.00  0.00    -0.744 OA
ENDBRANCH  88  91
ENDBRANCH  61  84
ENDBRANCH  35  36
ENDBRANCH  27  30
ENDBRANCH  25  26
ENDBRANCH   1  25
TORSDOF 17
ENDMDL
