MODEL 1
REMARK VINA RESULT:     -12.7      0.000      0.000
REMARK SMILES CCOc1ccc(-c2cc(Cl)cc3c2O[C@H](C(F)(F)F)C(C(=O)OCCOC(=O)c2ccc(-c4c5nc(c(-c6cccc(S(=O)(=O)[O-])c6F)c6ccc([nH]6)c(-c6cccc(S(=O)(=O)[O-])c6F)c6nc(c(-c7cccc(S(=O)(=O)[O-])c7F)c7ccc4[nH]7)C=C6)C=C5)cc2)=C3)cc1
REMARK SMILES IDX 25 1 24 2 22 3 23 4 21 5 8 6 9 7 14 8 10 9 13 10 15 11 11 12
REMARK SMILES IDX 12 13 93 14 16 15 7 16 4 17 5 18 95 19 6 20 94 21 3 22 2 23
REMARK SMILES IDX 1 24 17 25 18 26 19 27 20 28 26 29 27 30 28 31 29 32 30 33
REMARK SMILES IDX 31 34 92 35 32 36 91 37 33 38 34 39 35 40 85 41 36 42 90 43
REMARK SMILES IDX 84 44 86 45 37 46 89 47 83 48 82 49 38 51 70 52 50 53 69 54
REMARK SMILES IDX 51 55 54 56 68 57 87 58 52 59 53 60 67 62 88 63 55 64 39 65
REMARK SMILES IDX 40 66 48 67 41 68 43 69 49 70 42 71 44 72 45 73 46 74 47 75
REMARK SMILES IDX 71 76 72 77 80 78 73 79 75 80 81 81 74 82 76 83 77 84 78 85
REMARK SMILES IDX 79 86 56 87 57 88 65 89 58 90 60 91 66 92 59 93 61 94 62 95
REMARK SMILES IDX 63 96 64 97
REMARK H PARENT 86 50 54 61
REMARK Flexibility Score: inf
ROOT
ATOM      1  C   UNL A   1      31.222  29.108  24.654  1.00  0.00     0.275 C 
ENDROOT
BRANCH   1   2
ATOM      2  O   UNL A   1      30.851  27.916  25.391  1.00  0.00    -0.459 OA
BRANCH   2   3
ATOM      3  C   UNL A   1      30.624  26.847  24.584  1.00  0.00     0.338 C 
ATOM      4  O   UNL A   1      29.514  26.513  24.182  1.00  0.00    -0.246 OA
BRANCH   3   5
ATOM      5  C   UNL A   1      31.848  26.104  24.185  1.00  0.00     0.087 C 
ATOM      6  C   UNL A   1      31.875  22.092  24.668  1.00  0.00     0.026 A 
ATOM      7  C   UNL A   1      30.887  21.965  25.671  1.00  0.00     0.033 A 
ATOM      8  C   UNL A   1      32.295  23.406  24.448  1.00  0.00     0.135 A 
ATOM      9  C   UNL A   1      30.512  23.006  26.524  1.00  0.00     0.042 A 
ATOM     10  C   UNL A   1      32.115  24.368  25.473  1.00  0.00     0.019 A 
ATOM     11  O   UNL A   1      32.649  23.915  23.201  1.00  0.00    -0.475 OA
ATOM     12  Cl  UNL A   1      29.153  22.946  27.567  1.00  0.00    -0.084 Cl
ATOM     13  C   UNL A   1      31.231  24.173  26.517  1.00  0.00     0.032 A 
ATOM     14  C   UNL A   1      32.602  25.740  25.237  1.00  0.00     0.027 C 
ATOM     15  C   UNL A   1      31.986  25.250  22.936  1.00  0.00     0.316 C 
BRANCH   6  16
ATOM     16  C   UNL A   1      32.498  20.794  24.251  1.00  0.00    -0.014 A 
ATOM     17  C   UNL A   1      32.905  17.962  23.958  1.00  0.00     0.119 A 
ATOM     18  C   UNL A   1      32.444  18.744  22.895  1.00  0.00     0.047 A 
ATOM     19  C   UNL A   1      33.232  18.599  25.144  1.00  0.00     0.047 A 
ATOM     20  C   UNL A   1      32.267  20.144  23.031  1.00  0.00     0.013 A 
ATOM     21  C   UNL A   1      33.035  19.987  25.282  1.00  0.00     0.013 A 
BRANCH  17  22
ATOM     22  O   UNL A   1      33.097  16.633  23.708  1.00  0.00    -0.494 OA
BRANCH  22  23
ATOM     23  C   UNL A   1      33.669  15.823  24.747  1.00  0.00     0.226 C 
ATOM     24  C   UNL A   1      32.618  14.998  25.476  1.00  0.00     0.049 C 
ENDBRANCH  22  23
ENDBRANCH  17  22
ENDBRANCH   6  16
BRANCH  15  25
ATOM     25  C   UNL A   1      32.814  26.095  21.961  1.00  0.00     0.430 C 
ATOM     26  F   UNL A   1      32.590  25.742  20.671  1.00  0.00    -0.167 F 
ATOM     27  F   UNL A   1      32.564  27.417  22.072  1.00  0.00    -0.167 F 
ATOM     28  F   UNL A   1      34.147  25.928  22.181  1.00  0.00    -0.167 F 
ENDBRANCH  15  25
ENDBRANCH   3   5
ENDBRANCH   2   3
ENDBRANCH   1   2
BRANCH   1  29
ATOM     29  C   UNL A   1      32.573  29.694  25.075  1.00  0.00     0.275 C 
BRANCH  29  30
ATOM     30  O   UNL A   1      32.706  29.756  26.506  1.00  0.00    -0.458 OA
BRANCH  30  31
ATOM     31  C   UNL A   1      33.120  30.960  26.968  1.00  0.00     0.338 C 
ATOM     32  O   UNL A   1      32.464  31.996  26.943  1.00  0.00    -0.246 OA
BRANCH  31  33
ATOM     33  C   UNL A   1      34.438  30.867  27.644  1.00  0.00     0.060 A 
ATOM     34  C   UNL A   1      34.794  29.611  28.124  1.00  0.00     0.016 A 
ATOM     35  C   UNL A   1      35.321  31.941  27.830  1.00  0.00     0.016 A 
ATOM     36  C   UNL A   1      36.038  29.427  28.728  1.00  0.00     0.010 A 
ATOM     37  C   UNL A   1      36.585  31.737  28.435  1.00  0.00     0.010 A 
ATOM     38  C   UNL A   1      36.980  30.464  28.860  1.00  0.00    -0.014 A 
BRANCH  38  39
ATOM     39  C   UNL A   1      38.310  30.113  29.477  1.00  0.00     0.031 A 
ATOM     40  C   UNL A   1      38.528  30.415  30.929  1.00  0.00     0.074 A 
ATOM     41  C   UNL A   1      39.254  29.369  28.860  1.00  0.00     0.049 A 
ATOM     42  N   UNL A   1      39.452  29.963  31.735  1.00  0.00    -0.248 NA
ATOM     43  C   UNL A   1      37.569  31.339  31.550  1.00  0.00     0.031 C 
ATOM     44  C   UNL A   1      39.212  28.963  27.471  1.00  0.00     0.029 A 
ATOM     45  N   UNL A   1      40.390  28.739  29.332  1.00  0.00    -0.354 N 
ATOM     46  C   UNL A   1      39.206  30.570  32.954  1.00  0.00     0.074 A 
ATOM     47  C   UNL A   1      38.007  31.370  32.797  1.00  0.00     0.031 C 
ATOM     48  C   UNL A   1      40.125  28.010  27.238  1.00  0.00     0.029 A 
ATOM     49  C   UNL A   1      40.970  27.877  28.418  1.00  0.00     0.049 A 
ATOM     50  H   UNL A   1      40.753  28.891  30.234  1.00  0.00     0.167 HD
ATOM     51  C   UNL A   1      39.936  30.520  34.091  1.00  0.00     0.034 A 
ATOM     52  C   UNL A   1      42.075  27.100  28.486  1.00  0.00     0.034 A 
ATOM     53  C   UNL A   1      41.183  29.825  34.248  1.00  0.00     0.049 A 
ATOM     54  C   UNL A   1      42.934  27.159  29.718  1.00  0.00     0.074 A 
ATOM     55  C   UNL A   1      42.000  29.789  35.364  1.00  0.00     0.029 A 
ATOM     56  N   UNL A   1      41.826  29.099  33.259  1.00  0.00    -0.354 N 
ATOM     57  N   UNL A   1      42.675  27.723  30.870  1.00  0.00    -0.248 NA
ATOM     58  C   UNL A   1      44.240  26.484  29.661  1.00  0.00     0.031 C 
ATOM     59  C   UNL A   1      43.168  29.096  35.029  1.00  0.00     0.029 A 
ATOM     60  C   UNL A   1      43.049  28.642  33.726  1.00  0.00     0.049 A 
ATOM     61  H   UNL A   1      41.468  28.934  32.356  1.00  0.00     0.167 HD
ATOM     62  C   UNL A   1      43.771  27.460  31.681  1.00  0.00     0.074 A 
ATOM     63  C   UNL A   1      44.692  26.664  30.896  1.00  0.00     0.031 C 
ATOM     64  C   UNL A   1      43.982  27.851  32.961  1.00  0.00     0.034 A 
BRANCH  51  65
ATOM     65  C   UNL A   1      39.433  31.369  35.219  1.00  0.00     0.023 A 
ATOM     66  C   UNL A   1      38.477  30.862  36.120  1.00  0.00     0.012 A 
ATOM     67  C   UNL A   1      39.867  32.702  35.330  1.00  0.00     0.148 A 
ATOM     68  C   UNL A   1      37.925  31.693  37.093  1.00  0.00     0.002 A 
ATOM     69  C   UNL A   1      39.343  33.509  36.326  1.00  0.00     0.091 A 
ATOM     70  F   UNL A   1      40.744  33.167  34.427  1.00  0.00    -0.205 F 
ATOM     71  C   UNL A   1      38.362  33.013  37.200  1.00  0.00     0.022 A 
BRANCH  69  72
ATOM     72  S   UNL A   1      39.883  35.203  36.561  1.00  0.00     0.127 S 
ATOM     73  O   UNL A   1      39.257  35.536  37.839  1.00  0.00    -0.237 OA
ATOM     74  O   UNL A   1      41.337  35.057  36.611  1.00  0.00    -0.237 OA
ATOM     75  O   UNL A   1      39.389  35.944  35.408  1.00  0.00    -0.744 OA
ENDBRANCH  69  72
ENDBRANCH  51  65
BRANCH  52  76
ATOM     76  C   UNL A   1      42.464  26.209  27.346  1.00  0.00     0.023 A 
ATOM     77  C   UNL A   1      43.287  26.704  26.312  1.00  0.00     0.012 A 
ATOM     78  C   UNL A   1      42.026  24.872  27.277  1.00  0.00     0.148 A 
ATOM     79  C   UNL A   1      43.658  25.889  25.239  1.00  0.00     0.002 A 
ATOM     80  C   UNL A   1      42.464  24.044  26.251  1.00  0.00     0.091 A 
ATOM     81  F   UNL A   1      41.191  24.429  28.226  1.00  0.00    -0.205 F 
ATOM     82  C   UNL A   1      43.264  24.554  25.219  1.00  0.00     0.022 A 
BRANCH  80  83
ATOM     83  S   UNL A   1      42.134  22.279  26.248  1.00  0.00     0.127 S 
ATOM     84  O   UNL A   1      42.924  21.830  25.105  1.00  0.00    -0.237 OA
ATOM     85  O   UNL A   1      42.650  21.873  27.555  1.00  0.00    -0.237 OA
ATOM     86  O   UNL A   1      40.689  22.154  26.109  1.00  0.00    -0.744 OA
ENDBRANCH  80  83
ENDBRANCH  52  76
BRANCH  64  87
ATOM     87  C   UNL A   1      45.264  27.423  33.631  1.00  0.00     0.023 A 
ATOM     88  C   UNL A   1      46.394  28.265  33.611  1.00  0.00     0.012 A 
ATOM     89  C   UNL A   1      45.321  26.215  34.356  1.00  0.00     0.148 A 
ATOM     90  C   UNL A   1      47.565  27.899  34.276  1.00  0.00     0.002 A 
ATOM     91  C   UNL A   1      46.470  25.886  35.065  1.00  0.00     0.091 A 
ATOM     92  F   UNL A   1      44.247  25.412  34.342  1.00  0.00    -0.205 F 
ATOM     93  C   UNL A   1      47.598  26.720  35.014  1.00  0.00     0.022 A 
BRANCH  91  94
ATOM     94  S   UNL A   1      46.566  24.442  36.130  1.00  0.00     0.127 S 
ATOM     95  O   UNL A   1      47.634  24.825  37.053  1.00  0.00    -0.237 OA
ATOM     96  O   UNL A   1      45.229  24.409  36.724  1.00  0.00    -0.237 OA
ATOM     97  O   UNL A   1      46.871  23.317  35.257  1.00  0.00    -0.744 OA
ENDBRANCH  91  94
ENDBRANCH  64  87
ENDBRANCH  38  39
ENDBRANCH  31  33
ENDBRANCH  30  31
ENDBRANCH  29  30
ENDBRANCH   1  29
TORSDOF 18
ENDMDL
MODEL 2
REMARK VINA RESULT:     -12.2      0.677      7.451
REMARK SMILES CCOc1ccc(-c2cc(Cl)cc3c2O[C@H](C(F)(F)F)C(C(=O)OCCOC(=O)c2ccc(-c4c5nc(c(-c6cccc(S(=O)(=O)[O-])c6F)c6ccc([nH]6)c(-c6cccc(S(=O)(=O)[O-])c6F)c6nc(c(-c7cccc(S(=O)(=O)[O-])c7F)c7ccc4[nH]7)C=C6)C=C5)cc2)=C3)cc1
REMARK SMILES IDX 25 1 24 2 22 3 23 4 21 5 8 6 9 7 14 8 10 9 13 10 15 11 11 12
REMARK SMILES IDX 12 13 93 14 16 15 7 16 4 17 5 18 95 19 6 20 94 21 3 22 2 23
REMARK SMILES IDX 1 24 17 25 18 26 19 27 20 28 26 29 27 30 28 31 29 32 30 33
REMARK SMILES IDX 31 34 92 35 32 36 91 37 33 38 34 39 35 40 85 41 36 42 90 43
REMARK SMILES IDX 84 44 86 45 37 46 89 47 83 48 82 49 38 51 70 52 50 53 69 54
REMARK SMILES IDX 51 55 54 56 68 57 87 58 52 59 53 60 67 62 88 63 55 64 39 65
REMARK SMILES IDX 40 66 48 67 41 68 43 69 49 70 42 71 44 72 45 73 46 74 47 75
REMARK SMILES IDX 71 76 72 77 80 78 73 79 75 80 81 81 74 82 76 83 77 84 78 85
REMARK SMILES IDX 79 86 56 87 57 88 65 89 58 90 60 91 66 92 59 93 61 94 62 95
REMARK SMILES IDX 63 96 64 97
REMARK H PARENT 86 50 54 61
REMARK Flexibility Score: inf
ROOT
ATOM      1  C   UNL A   1      31.258  29.091  24.815  1.00  0.00     0.275 C 
ENDROOT
BRANCH   1   2
ATOM      2  O   UNL A   1      30.899  27.855  25.483  1.00  0.00    -0.459 OA
BRANCH   2   3
ATOM      3  C   UNL A   1      30.666  26.836  24.615  1.00  0.00     0.338 C 
ATOM      4  O   UNL A   1      29.556  26.536  24.189  1.00  0.00    -0.246 OA
BRANCH   3   5
ATOM      5  C   UNL A   1      31.886  26.105  24.182  1.00  0.00     0.087 C 
ATOM      6  C   UNL A   1      31.933  22.084  24.590  1.00  0.00     0.026 A 
ATOM      7  C   UNL A   1      30.962  21.936  25.607  1.00  0.00     0.033 A 
ATOM      8  C   UNL A   1      32.345  23.403  24.387  1.00  0.00     0.135 A 
ATOM      9  C   UNL A   1      30.599  22.960  26.486  1.00  0.00     0.042 A 
ATOM     10  C   UNL A   1      32.179  24.345  25.433  1.00  0.00     0.019 A 
ATOM     11  O   UNL A   1      32.676  23.936  23.144  1.00  0.00    -0.475 OA
ATOM     12  Cl  UNL A   1      29.258  22.876  27.550  1.00  0.00    -0.084 Cl
ATOM     13  C   UNL A   1      31.314  24.128  26.488  1.00  0.00     0.032 A 
ATOM     14  C   UNL A   1      32.659  25.723  25.214  1.00  0.00     0.027 C 
ATOM     15  C   UNL A   1      32.004  25.274  22.916  1.00  0.00     0.316 C 
BRANCH   6  16
ATOM     16  C   UNL A   1      32.552  20.796  24.138  1.00  0.00    -0.014 A 
ATOM     17  C   UNL A   1      33.032  17.972  23.880  1.00  0.00     0.119 A 
ATOM     18  C   UNL A   1      32.418  18.701  22.858  1.00  0.00     0.047 A 
ATOM     19  C   UNL A   1      33.473  18.659  25.000  1.00  0.00     0.047 A 
ATOM     20  C   UNL A   1      32.204  20.098  22.974  1.00  0.00     0.013 A 
ATOM     21  C   UNL A   1      33.238  20.043  25.121  1.00  0.00     0.013 A 
BRANCH  17  22
ATOM     22  O   UNL A   1      33.245  16.643  23.647  1.00  0.00    -0.494 OA
BRANCH  22  23
ATOM     23  C   UNL A   1      33.726  15.833  24.730  1.00  0.00     0.226 C 
ATOM     24  C   UNL A   1      32.605  15.063  25.414  1.00  0.00     0.049 C 
ENDBRANCH  22  23
ENDBRANCH  17  22
ENDBRANCH   6  16
BRANCH  15  25
ATOM     25  C   UNL A   1      32.814  26.139  21.942  1.00  0.00     0.430 C 
ATOM     26  F   UNL A   1      32.514  27.456  22.068  1.00  0.00    -0.167 F 
ATOM     27  F   UNL A   1      34.146  26.005  22.108  1.00  0.00    -0.167 F 
ATOM     28  F   UNL A   1      32.543  25.804  20.651  1.00  0.00    -0.167 F 
ENDBRANCH  15  25
ENDBRANCH   3   5
ENDBRANCH   2   3
ENDBRANCH   1   2
BRANCH   1  29
ATOM     29  C   UNL A   1      31.447  30.273  25.770  1.00  0.00     0.275 C 
BRANCH  29  30
ATOM     30  O   UNL A   1      32.809  30.736  25.782  1.00  0.00    -0.458 OA
BRANCH  30  31
ATOM     31  C   UNL A   1      33.141  31.441  26.890  1.00  0.00     0.338 C 
ATOM     32  O   UNL A   1      32.517  32.398  27.337  1.00  0.00    -0.246 OA
BRANCH  31  33
ATOM     33  C   UNL A   1      34.299  30.843  27.599  1.00  0.00     0.060 A 
ATOM     34  C   UNL A   1      35.094  31.723  28.326  1.00  0.00     0.016 A 
ATOM     35  C   UNL A   1      34.636  29.482  27.578  1.00  0.00     0.016 A 
ATOM     36  C   UNL A   1      36.174  31.235  29.062  1.00  0.00     0.010 A 
ATOM     37  C   UNL A   1      35.729  28.999  28.338  1.00  0.00     0.010 A 
ATOM     38  C   UNL A   1      36.494  29.867  29.126  1.00  0.00    -0.014 A 
BRANCH  38  39
ATOM     39  C   UNL A   1      37.649  29.469  30.009  1.00  0.00     0.031 A 
ATOM     40  C   UNL A   1      38.805  28.743  29.392  1.00  0.00     0.074 A 
ATOM     41  C   UNL A   1      37.805  29.892  31.283  1.00  0.00     0.049 A 
ATOM     42  N   UNL A   1      40.008  28.551  29.866  1.00  0.00    -0.248 NA
ATOM     43  C   UNL A   1      38.573  28.167  28.059  1.00  0.00     0.031 C 
ATOM     44  C   UNL A   1      36.810  30.622  32.041  1.00  0.00     0.029 A 
ATOM     45  N   UNL A   1      38.884  29.856  32.145  1.00  0.00    -0.354 N 
ATOM     46  C   UNL A   1      40.669  27.808  28.906  1.00  0.00     0.074 A 
ATOM     47  C   UNL A   1      39.756  27.640  27.793  1.00  0.00     0.031 C 
ATOM     48  C   UNL A   1      37.359  31.141  33.148  1.00  0.00     0.029 A 
ATOM     49  C   UNL A   1      38.707  30.607  33.293  1.00  0.00     0.049 A 
ATOM     50  H   UNL A   1      39.703  29.342  31.959  1.00  0.00     0.167 HD
ATOM     51  C   UNL A   1      41.904  27.259  28.957  1.00  0.00     0.034 A 
ATOM     52  C   UNL A   1      39.503  30.817  34.367  1.00  0.00     0.034 A 
ATOM     53  C   UNL A   1      42.793  27.315  30.084  1.00  0.00     0.049 A 
ATOM     54  C   UNL A   1      40.819  30.095  34.451  1.00  0.00     0.074 A 
ATOM     55  C   UNL A   1      44.037  26.724  30.215  1.00  0.00     0.029 A 
ATOM     56  N   UNL A   1      42.519  27.941  31.289  1.00  0.00    -0.354 N 
ATOM     57  N   UNL A   1      41.439  29.412  33.523  1.00  0.00    -0.248 NA
ATOM     58  C   UNL A   1      41.545  30.165  35.729  1.00  0.00     0.031 C 
ATOM     59  C   UNL A   1      44.488  26.938  31.521  1.00  0.00     0.029 A 
ATOM     60  C   UNL A   1      43.556  27.719  32.184  1.00  0.00     0.049 A 
ATOM     61  H   UNL A   1      41.708  28.465  31.483  1.00  0.00     0.167 HD
ATOM     62  C   UNL A   1      42.630  28.983  34.093  1.00  0.00     0.074 A 
ATOM     63  C   UNL A   1      42.660  29.504  35.444  1.00  0.00     0.031 C 
ATOM     64  C   UNL A   1      43.604  28.226  33.534  1.00  0.00     0.034 A 
BRANCH  51  65
ATOM     65  C   UNL A   1      42.293  26.432  27.769  1.00  0.00     0.023 A 
ATOM     66  C   UNL A   1      42.906  27.034  26.653  1.00  0.00     0.012 A 
ATOM     67  C   UNL A   1      41.976  25.063  27.745  1.00  0.00     0.148 A 
ATOM     68  C   UNL A   1      43.156  26.284  25.505  1.00  0.00     0.002 A 
ATOM     69  C   UNL A   1      42.266  24.316  26.614  1.00  0.00     0.091 A 
ATOM     70  F   UNL A   1      41.351  24.531  28.805  1.00  0.00    -0.205 F 
ATOM     71  C   UNL A   1      42.842  24.926  25.488  1.00  0.00     0.022 A 
BRANCH  69  72
ATOM     72  S   UNL A   1      41.936  22.555  26.527  1.00  0.00     0.127 S 
ATOM     73  O   UNL A   1      42.449  22.225  25.198  1.00  0.00    -0.237 OA
ATOM     74  O   UNL A   1      42.736  22.038  27.637  1.00  0.00    -0.237 OA
ATOM     75  O   UNL A   1      40.497  22.408  26.699  1.00  0.00    -0.744 OA
ENDBRANCH  69  72
ENDBRANCH  51  65
BRANCH  52  76
ATOM     76  C   UNL A   1      39.079  31.730  35.476  1.00  0.00     0.023 A 
ATOM     77  C   UNL A   1      38.215  31.258  36.488  1.00  0.00     0.012 A 
ATOM     78  C   UNL A   1      39.526  33.064  35.539  1.00  0.00     0.148 A 
ATOM     79  C   UNL A   1      37.807  32.096  37.529  1.00  0.00     0.002 A 
ATOM     80  C   UNL A   1      39.181  33.867  36.620  1.00  0.00     0.091 A 
ATOM     81  F   UNL A   1      40.291  33.524  34.540  1.00  0.00    -0.205 F 
ATOM     82  C   UNL A   1      38.306  33.393  37.607  1.00  0.00     0.022 A 
BRANCH  80  83
ATOM     83  S   UNL A   1      39.915  35.487  36.872  1.00  0.00     0.127 S 
ATOM     84  O   UNL A   1      39.332  35.883  38.150  1.00  0.00    -0.237 OA
ATOM     85  O   UNL A   1      41.343  35.168  36.915  1.00  0.00    -0.237 OA
ATOM     86  O   UNL A   1      39.514  36.279  35.717  1.00  0.00    -0.744 OA
ENDBRANCH  80  83
ENDBRANCH  52  76
BRANCH  64  87
ATOM     87  C   UNL A   1      44.818  27.902  34.369  1.00  0.00     0.023 A 
ATOM     88  C   UNL A   1      45.918  28.782  34.397  1.00  0.00     0.012 A 
ATOM     89  C   UNL A   1      44.831  26.759  35.194  1.00  0.00     0.148 A 
ATOM     90  C   UNL A   1      47.021  28.515  35.211  1.00  0.00     0.002 A 
ATOM     91  C   UNL A   1      45.905  26.531  36.045  1.00  0.00     0.091 A 
ATOM     92  F   UNL A   1      43.789  25.917  35.134  1.00  0.00    -0.205 F 
ATOM     93  C   UNL A   1      47.008  27.400  36.044  1.00  0.00     0.022 A 
BRANCH  91  94
ATOM     94  S   UNL A   1      45.927  25.182  37.231  1.00  0.00     0.127 S 
ATOM     95  O   UNL A   1      45.980  24.014  36.352  1.00  0.00    -0.237 OA
ATOM     96  O   UNL A   1      47.161  25.444  37.973  1.00  0.00    -0.237 OA
ATOM     97  O   UNL A   1      44.707  25.315  38.016  1.00  0.00    -0.744 OA
ENDBRANCH  91  94
ENDBRANCH  64  87
ENDBRANCH  38  39
ENDBRANCH  31  33
ENDBRANCH  30  31
ENDBRANCH  29  30
ENDBRANCH   1  29
TORSDOF 18
ENDMDL
MODEL 3
REMARK VINA RESULT:     -12.1      4.622     10.059
REMARK SMILES CCOc1ccc(-c2cc(Cl)cc3c2O[C@H](C(F)(F)F)C(C(=O)OCCOC(=O)c2ccc(-c4c5nc(c(-c6cccc(S(=O)(=O)[O-])c6F)c6ccc([nH]6)c(-c6cccc(S(=O)(=O)[O-])c6F)c6nc(c(-c7cccc(S(=O)(=O)[O-])c7F)c7ccc4[nH]7)C=C6)C=C5)cc2)=C3)cc1
REMARK SMILES IDX 25 1 24 2 22 3 23 4 21 5 8 6 9 7 14 8 10 9 13 10 15 11 11 12
REMARK SMILES IDX 12 13 93 14 16 15 7 16 4 17 5 18 95 19 6 20 94 21 3 22 2 23
REMARK SMILES IDX 1 24 17 25 18 26 19 27 20 28 26 29 27 30 28 31 29 32 30 33
REMARK SMILES IDX 31 34 92 35 32 36 91 37 33 38 34 39 35 40 85 41 36 42 90 43
REMARK SMILES IDX 84 44 86 45 37 46 89 47 83 48 82 49 38 51 70 52 50 53 69 54
REMARK SMILES IDX 51 55 54 56 68 57 87 58 52 59 53 60 67 62 88 63 55 64 39 65
REMARK SMILES IDX 40 66 48 67 41 68 43 69 49 70 42 71 44 72 45 73 46 74 47 75
REMARK SMILES IDX 71 76 72 77 80 78 73 79 75 80 81 81 74 82 76 83 77 84 78 85
REMARK SMILES IDX 79 86 56 87 57 88 65 89 58 90 60 91 66 92 59 93 61 94 62 95
REMARK SMILES IDX 63 96 64 97
REMARK H PARENT 86 50 54 61
REMARK Flexibility Score: inf
ROOT
ATOM      1  C   UNL A   1      35.367  21.283  25.040  1.00  0.00     0.275 C 
ENDROOT
BRANCH   1   2
ATOM      2  O   UNL A   1      35.054  22.447  25.846  1.00  0.00    -0.459 OA
BRANCH   2   3
ATOM      3  C   UNL A   1      34.763  23.543  25.098  1.00  0.00     0.338 C 
ATOM      4  O   UNL A   1      35.568  24.431  24.838  1.00  0.00    -0.246 OA
BRANCH   3   5
ATOM      5  C   UNL A   1      33.371  23.582  24.576  1.00  0.00     0.087 C 
ATOM      6  C   UNL A   1      31.746  27.195  23.773  1.00  0.00     0.026 A 
ATOM      7  C   UNL A   1      32.545  28.007  24.610  1.00  0.00     0.033 A 
ATOM      8  C   UNL A   1      31.889  25.825  24.009  1.00  0.00     0.135 A 
ATOM      9  C   UNL A   1      33.247  27.524  25.718  1.00  0.00     0.042 A 
ATOM     10  C   UNL A   1      32.370  25.389  25.268  1.00  0.00     0.019 A 
ATOM     11  O   UNL A   1      31.836  24.851  23.015  1.00  0.00    -0.475 OA
ATOM     12  Cl  UNL A   1      34.409  28.436  26.586  1.00  0.00    -0.084 Cl
ATOM     13  C   UNL A   1      33.044  26.233  26.130  1.00  0.00     0.032 A 
ATOM     14  C   UNL A   1      32.474  23.938  25.512  1.00  0.00     0.027 C 
ATOM     15  C   UNL A   1      32.984  23.870  23.136  1.00  0.00     0.316 C 
BRANCH   6  16
ATOM     16  C   UNL A   1      30.691  27.941  23.015  1.00  0.00    -0.014 A 
ATOM     17  C   UNL A   1      28.577  29.810  22.456  1.00  0.00     0.119 A 
ATOM     18  C   UNL A   1      29.876  30.020  21.986  1.00  0.00     0.047 A 
ATOM     19  C   UNL A   1      28.312  28.636  23.142  1.00  0.00     0.047 A 
ATOM     20  C   UNL A   1      30.913  29.087  22.239  1.00  0.00     0.013 A 
ATOM     21  C   UNL A   1      29.350  27.722  23.411  1.00  0.00     0.013 A 
BRANCH  17  22
ATOM     22  O   UNL A   1      27.637  30.739  22.109  1.00  0.00    -0.494 OA
BRANCH  22  23
ATOM     23  C   UNL A   1      28.058  32.101  21.941  1.00  0.00     0.226 C 
ATOM     24  C   UNL A   1      27.759  32.627  20.544  1.00  0.00     0.049 C 
ENDBRANCH  22  23
ENDBRANCH  17  22
ENDBRANCH   6  16
BRANCH  15  25
ATOM     25  C   UNL A   1      32.612  22.508  22.539  1.00  0.00     0.430 C 
ATOM     26  F   UNL A   1      32.887  22.445  21.213  1.00  0.00    -0.167 F 
ATOM     27  F   UNL A   1      33.253  21.482  23.139  1.00  0.00    -0.167 F 
ATOM     28  F   UNL A   1      31.279  22.267  22.668  1.00  0.00    -0.167 F 
ENDBRANCH  15  25
ENDBRANCH   3   5
ENDBRANCH   2   3
ENDBRANCH   1   2
BRANCH   1  29
ATOM     29  C   UNL A   1      36.699  20.622  25.407  1.00  0.00     0.275 C 
BRANCH  29  30
ATOM     30  O   UNL A   1      37.820  21.456  25.066  1.00  0.00    -0.458 OA
BRANCH  30  31
ATOM     31  C   UNL A   1      38.857  21.366  25.932  1.00  0.00     0.338 C 
ATOM     32  O   UNL A   1      39.475  20.340  26.198  1.00  0.00    -0.246 OA
BRANCH  31  33
ATOM     33  C   UNL A   1      39.263  22.696  26.448  1.00  0.00     0.060 A 
ATOM     34  C   UNL A   1      40.433  22.731  27.200  1.00  0.00     0.016 A 
ATOM     35  C   UNL A   1      38.556  23.889  26.236  1.00  0.00     0.016 A 
ATOM     36  C   UNL A   1      40.912  23.950  27.681  1.00  0.00     0.010 A 
ATOM     37  C   UNL A   1      39.060  25.121  26.721  1.00  0.00     0.010 A 
ATOM     38  C   UNL A   1      40.271  25.175  27.420  1.00  0.00    -0.014 A 
BRANCH  38  39
ATOM     39  C   UNL A   1      40.929  26.424  27.947  1.00  0.00     0.031 A 
ATOM     40  C   UNL A   1      42.263  26.819  27.391  1.00  0.00     0.074 A 
ATOM     41  C   UNL A   1      40.313  27.320  28.749  1.00  0.00     0.049 A 
ATOM     42  N   UNL A   1      42.883  27.967  27.471  1.00  0.00    -0.248 NA
ATOM     43  C   UNL A   1      42.985  25.784  26.637  1.00  0.00     0.031 C 
ATOM     44  C   UNL A   1      39.017  27.126  29.365  1.00  0.00     0.029 A 
ATOM     45  N   UNL A   1      40.640  28.611  29.117  1.00  0.00    -0.354 N 
ATOM     46  C   UNL A   1      44.081  27.787  26.804  1.00  0.00     0.074 A 
ATOM     47  C   UNL A   1      44.072  26.440  26.269  1.00  0.00     0.031 C 
ATOM     48  C   UNL A   1      38.558  28.286  29.855  1.00  0.00     0.029 A 
ATOM     49  C   UNL A   1      39.622  29.279  29.774  1.00  0.00     0.049 A 
ATOM     50  H   UNL A   1      41.517  29.017  28.930  1.00  0.00     0.167 HD
ATOM     51  C   UNL A   1      45.127  28.636  26.689  1.00  0.00     0.034 A 
ATOM     52  C   UNL A   1      39.549  30.525  30.297  1.00  0.00     0.034 A 
ATOM     53  C   UNL A   1      45.213  29.935  27.297  1.00  0.00     0.049 A 
ATOM     54  C   UNL A   1      40.770  31.402  30.263  1.00  0.00     0.074 A 
ATOM     55  C   UNL A   1      46.277  30.819  27.265  1.00  0.00     0.029 A 
ATOM     56  N   UNL A   1      44.237  30.514  28.091  1.00  0.00    -0.354 N 
ATOM     57  N   UNL A   1      41.888  31.223  29.609  1.00  0.00    -0.248 NA
ATOM     58  C   UNL A   1      40.724  32.650  31.042  1.00  0.00     0.031 C 
ATOM     59  C   UNL A   1      45.970  31.904  28.092  1.00  0.00     0.029 A 
ATOM     60  C   UNL A   1      44.688  31.729  28.585  1.00  0.00     0.049 A 
ATOM     61  H   UNL A   1      43.353  30.122  28.277  1.00  0.00     0.167 HD
ATOM     62  C   UNL A   1      42.674  32.335  29.881  1.00  0.00     0.074 A 
ATOM     63  C   UNL A   1      41.894  33.199  30.743  1.00  0.00     0.031 C 
ATOM     64  C   UNL A   1      43.929  32.603  29.447  1.00  0.00     0.034 A 
BRANCH  51  65
ATOM     65  C   UNL A   1      46.322  28.096  25.964  1.00  0.00     0.023 A 
ATOM     66  C   UNL A   1      46.412  28.201  24.563  1.00  0.00     0.012 A 
ATOM     67  C   UNL A   1      47.321  27.417  26.685  1.00  0.00     0.148 A 
ATOM     68  C   UNL A   1      47.465  27.592  23.883  1.00  0.00     0.002 A 
ATOM     69  C   UNL A   1      48.386  26.850  26.004  1.00  0.00     0.091 A 
ATOM     70  F   UNL A   1      47.182  27.295  28.013  1.00  0.00    -0.205 F 
ATOM     71  C   UNL A   1      48.454  26.923  24.603  1.00  0.00     0.022 A 
BRANCH  69  72
ATOM     72  S   UNL A   1      49.722  26.011  26.857  1.00  0.00     0.127 S 
ATOM     73  O   UNL A   1      50.232  27.075  27.721  1.00  0.00    -0.237 OA
ATOM     74  O   UNL A   1      49.014  24.941  27.559  1.00  0.00    -0.237 OA
ATOM     75  O   UNL A   1      50.635  25.554  25.819  1.00  0.00    -0.744 OA
ENDBRANCH  69  72
ENDBRANCH  51  65
BRANCH  52  76
ATOM     76  C   UNL A   1      38.287  31.024  30.930  1.00  0.00     0.023 A 
ATOM     77  C   UNL A   1      38.087  30.879  32.319  1.00  0.00     0.012 A 
ATOM     78  C   UNL A   1      37.279  31.645  30.165  1.00  0.00     0.148 A 
ATOM     79  C   UNL A   1      36.915  31.337  32.926  1.00  0.00     0.002 A 
ATOM     80  C   UNL A   1      36.153  32.170  30.787  1.00  0.00     0.091 A 
ATOM     81  F   UNL A   1      37.446  31.719  28.838  1.00  0.00    -0.205 F 
ATOM     82  C   UNL A   1      35.957  32.001  32.164  1.00  0.00     0.022 A 
BRANCH  80  83
ATOM     83  S   UNL A   1      34.961  33.179  29.899  1.00  0.00     0.127 S 
ATOM     84  O   UNL A   1      35.822  34.181  29.278  1.00  0.00    -0.237 OA
ATOM     85  O   UNL A   1      34.374  32.208  28.975  1.00  0.00    -0.237 OA
ATOM     86  O   UNL A   1      34.039  33.674  30.912  1.00  0.00    -0.744 OA
ENDBRANCH  80  83
ENDBRANCH  52  76
BRANCH  64  87
ATOM     87  C   UNL A   1      44.568  33.899  29.881  1.00  0.00     0.023 A 
ATOM     88  C   UNL A   1      45.406  33.936  31.013  1.00  0.00     0.012 A 
ATOM     89  C   UNL A   1      44.401  35.069  29.112  1.00  0.00     0.148 A 
ATOM     90  C   UNL A   1      46.044  35.120  31.388  1.00  0.00     0.002 A 
ATOM     91  C   UNL A   1      45.087  36.228  29.455  1.00  0.00     0.091 A 
ATOM     92  F   UNL A   1      43.579  35.024  28.054  1.00  0.00    -0.205 F 
ATOM     93  C   UNL A   1      45.897  36.259  30.602  1.00  0.00     0.022 A 
BRANCH  91  94
ATOM     94  S   UNL A   1      45.044  37.711  28.443  1.00  0.00     0.127 S 
ATOM     95  O   UNL A   1      45.613  37.228  27.185  1.00  0.00    -0.237 OA
ATOM     96  O   UNL A   1      43.612  38.007  28.392  1.00  0.00    -0.237 OA
ATOM     97  O   UNL A   1      45.844  38.703  29.147  1.00  0.00    -0.744 OA
ENDBRANCH  91  94
ENDBRANCH  64  87
ENDBRANCH  38  39
ENDBRANCH  31  33
ENDBRANCH  30  31
ENDBRANCH  29  30
ENDBRANCH   1  29
TORSDOF 18
ENDMDL
