MODEL 1
REMARK VINA RESULT:     -11.7      0.000      0.000
REMARK SMILES C[C@H]1OCC[C@@H]1C(=O)Nc1sc2c(c1C(=O)OCCOC(=O)c1ccc(-c3c4nc(c(-c5cccc(S(=O)(=O)[O-])c5F)c5ccc([nH]5)c(-c5cccc(S(=O)(=O)[O-])c5F)c5nc(c(-c6cccc(S(=O)(=O)[O-])c6F)c6ccc3[nH]6)C=C5)C=C4)cc1)CCC2
REMARK SMILES IDX 19 1 18 2 17 3 15 4 16 5 14 6 10 7 11 8 12 9 13 10 88 11
REMARK SMILES IDX 86 12 87 13 9 14 7 15 8 16 6 18 1 19 2 20 3 21 4 22 5 23
REMARK SMILES IDX 20 24 21 25 22 26 23 27 24 28 85 29 25 30 84 31 26 32 27 33
REMARK SMILES IDX 28 34 78 35 29 36 83 37 77 38 79 39 30 40 82 41 76 42 75 43
REMARK SMILES IDX 31 45 63 46 43 47 62 48 44 49 47 50 61 51 80 52 45 53 46 54
REMARK SMILES IDX 60 56 81 57 48 58 32 59 33 60 41 61 34 62 36 63 42 64 35 65
REMARK SMILES IDX 37 66 38 67 39 68 40 69 64 70 65 71 73 72 66 73 68 74 74 75
REMARK SMILES IDX 67 76 69 77 70 78 71 79 72 80 49 81 50 82 58 83 51 84 53 85
REMARK SMILES IDX 59 86 52 87 54 88 55 89 56 90 57 91
REMARK H PARENT 9 17 79 44 47 55
REMARK Flexibility Score: inf
ROOT
ATOM      1  C   UNL A   1      37.859  20.883  24.742  1.00  0.00     0.275 C 
ENDROOT
BRANCH   1   2
ATOM      2  C   UNL A   1      36.466  20.625  25.292  1.00  0.00     0.275 C 
BRANCH   2   3
ATOM      3  O   UNL A   1      36.086  21.646  26.239  1.00  0.00    -0.458 OA
BRANCH   3   4
ATOM      4  C   UNL A   1      34.740  21.784  26.453  1.00  0.00     0.341 C 
ATOM      5  O   UNL A   1      34.187  21.552  27.507  1.00  0.00    -0.246 OA
BRANCH   4   6
ATOM      6  C   UNL A   1      34.027  22.246  25.261  1.00  0.00     0.098 A 
ATOM      7  C   UNL A   1      32.990  21.523  24.683  1.00  0.00     0.110 A 
ATOM      8  S   UNL A   1      32.506  22.096  23.141  1.00  0.00    -0.122 S 
ATOM      9  C   UNL A   1      33.281  23.535  23.467  1.00  0.00     0.011 A 
ATOM     10  C   UNL A   1      34.040  23.518  24.610  1.00  0.00    -0.017 A 
ATOM     11  C   UNL A   1      33.149  24.864  22.833  1.00  0.00     0.047 C 
ATOM     12  C   UNL A   1      34.529  24.890  24.919  1.00  0.00     0.038 C 
ATOM     13  C   UNL A   1      33.597  25.770  24.017  1.00  0.00     0.010 C 
BRANCH   7  14
ATOM     14  N   UNL A   1      32.211  20.500  25.173  1.00  0.00    -0.317 N 
ATOM     15  C   UNL A   1      32.744  19.235  25.296  1.00  0.00     0.230 C 
ATOM     16  O   UNL A   1      32.514  18.644  26.358  1.00  0.00    -0.274 OA
ATOM     17  H   UNL A   1      31.277  20.671  25.434  1.00  0.00     0.170 HD
BRANCH  15  18
ATOM     18  C   UNL A   1      33.468  18.492  24.164  1.00  0.00     0.110 C 
ATOM     19  C   UNL A   1      32.195  18.559  21.966  1.00  0.00     0.039 C 
ATOM     20  C   UNL A   1      32.531  17.744  23.211  1.00  0.00     0.127 C 
ATOM     21  O   UNL A   1      33.248  16.563  22.764  1.00  0.00    -0.378 OA
ATOM     22  C   UNL A   1      34.631  16.772  23.074  1.00  0.00     0.161 C 
ATOM     23  C   UNL A   1      34.561  17.484  24.396  1.00  0.00     0.044 C 
ENDBRANCH  15  18
ENDBRANCH   7  14
ENDBRANCH   4   6
ENDBRANCH   3   4
ENDBRANCH   2   3
ENDBRANCH   1   2
BRANCH   1  24
ATOM     24  O   UNL A   1      38.792  21.200  25.786  1.00  0.00    -0.458 OA
BRANCH  24  25
ATOM     25  C   UNL A   1      39.704  20.210  25.903  1.00  0.00     0.338 C 
ATOM     26  O   UNL A   1      39.588  19.078  25.450  1.00  0.00    -0.246 OA
BRANCH  25  27
ATOM     27  C   UNL A   1      40.945  20.605  26.577  1.00  0.00     0.060 A 
ATOM     28  C   UNL A   1      40.866  20.872  27.944  1.00  0.00     0.016 A 
ATOM     29  C   UNL A   1      41.822  21.308  25.751  1.00  0.00     0.016 A 
ATOM     30  C   UNL A   1      41.398  22.067  28.414  1.00  0.00     0.010 A 
ATOM     31  C   UNL A   1      42.391  22.467  26.234  1.00  0.00     0.010 A 
ATOM     32  C   UNL A   1      42.065  22.914  27.523  1.00  0.00    -0.014 A 
BRANCH  32  33
ATOM     33  C   UNL A   1      42.578  24.217  27.971  1.00  0.00     0.031 A 
ATOM     34  C   UNL A   1      41.665  25.367  27.690  1.00  0.00     0.074 A 
ATOM     35  C   UNL A   1      43.627  24.252  28.831  1.00  0.00     0.049 A 
ATOM     36  N   UNL A   1      41.951  26.617  27.491  1.00  0.00    -0.248 NA
ATOM     37  C   UNL A   1      40.227  25.058  27.538  1.00  0.00     0.031 C 
ATOM     38  C   UNL A   1      44.420  23.088  29.259  1.00  0.00     0.029 A 
ATOM     39  N   UNL A   1      44.045  25.242  29.689  1.00  0.00    -0.354 N 
ATOM     40  C   UNL A   1      40.714  27.260  27.437  1.00  0.00     0.074 A 
ATOM     41  C   UNL A   1      39.707  26.252  27.281  1.00  0.00     0.031 C 
ATOM     42  C   UNL A   1      44.958  23.343  30.468  1.00  0.00     0.029 A 
ATOM     43  C   UNL A   1      44.611  24.698  30.851  1.00  0.00     0.049 A 
ATOM     44  H   UNL A   1      43.958  26.207  29.512  1.00  0.00     0.167 HD
ATOM     45  C   UNL A   1      40.548  28.537  27.864  1.00  0.00     0.034 A 
ATOM     46  C   UNL A   1      44.662  25.243  32.092  1.00  0.00     0.034 A 
ATOM     47  C   UNL A   1      41.752  29.309  27.793  1.00  0.00     0.049 A 
ATOM     48  C   UNL A   1      44.379  26.686  31.981  1.00  0.00     0.074 A 
ATOM     49  C   UNL A   1      42.611  29.703  26.791  1.00  0.00     0.029 A 
ATOM     50  N   UNL A   1      42.373  29.579  28.981  1.00  0.00    -0.354 N 
ATOM     51  N   UNL A   1      45.189  27.563  31.464  1.00  0.00    -0.248 NA
ATOM     52  C   UNL A   1      43.023  27.154  32.229  1.00  0.00     0.031 C 
ATOM     53  C   UNL A   1      43.872  29.893  27.421  1.00  0.00     0.029 A 
ATOM     54  C   UNL A   1      43.725  29.598  28.778  1.00  0.00     0.049 A 
ATOM     55  H   UNL A   1      41.921  29.734  29.842  1.00  0.00     0.167 HD
ATOM     56  C   UNL A   1      44.351  28.527  30.926  1.00  0.00     0.074 A 
ATOM     57  C   UNL A   1      43.068  28.321  31.585  1.00  0.00     0.031 C 
ATOM     58  C   UNL A   1      44.687  29.178  29.776  1.00  0.00     0.034 A 
BRANCH  45  59
ATOM     59  C   UNL A   1      39.388  28.951  28.744  1.00  0.00     0.023 A 
ATOM     60  C   UNL A   1      38.535  29.968  28.270  1.00  0.00     0.012 A 
ATOM     61  C   UNL A   1      39.271  28.603  30.114  1.00  0.00     0.148 A 
ATOM     62  C   UNL A   1      37.641  30.629  29.120  1.00  0.00     0.002 A 
ATOM     63  C   UNL A   1      38.319  29.200  30.931  1.00  0.00     0.091 A 
ATOM     64  F   UNL A   1      40.172  27.798  30.687  1.00  0.00    -0.205 F 
ATOM     65  C   UNL A   1      37.522  30.237  30.449  1.00  0.00     0.022 A 
BRANCH  63  66
ATOM     66  S   UNL A   1      38.103  28.661  32.631  1.00  0.00     0.127 S 
ATOM     67  O   UNL A   1      36.820  29.265  32.972  1.00  0.00    -0.237 OA
ATOM     68  O   UNL A   1      38.086  27.204  32.492  1.00  0.00    -0.237 OA
ATOM     69  O   UNL A   1      39.273  29.172  33.338  1.00  0.00    -0.744 OA
ENDBRANCH  63  66
ENDBRANCH  45  59
BRANCH  46  70
ATOM     70  C   UNL A   1      44.740  24.578  33.422  1.00  0.00     0.023 A 
ATOM     71  C   UNL A   1      43.569  24.039  33.992  1.00  0.00     0.012 A 
ATOM     72  C   UNL A   1      45.974  24.272  34.040  1.00  0.00     0.148 A 
ATOM     73  C   UNL A   1      43.622  23.218  35.127  1.00  0.00     0.002 A 
ATOM     74  C   UNL A   1      46.021  23.484  35.190  1.00  0.00     0.091 A 
ATOM     75  F   UNL A   1      47.112  24.670  33.457  1.00  0.00    -0.205 F 
ATOM     76  C   UNL A   1      44.847  22.944  35.728  1.00  0.00     0.022 A 
BRANCH  74  77
ATOM     77  S   UNL A   1      47.569  23.123  36.032  1.00  0.00     0.127 S 
ATOM     78  O   UNL A   1      47.109  22.436  37.242  1.00  0.00    -0.237 OA
ATOM     79  O   UNL A   1      48.251  22.267  35.067  1.00  0.00    -0.237 OA
ATOM     80  O   UNL A   1      48.186  24.419  36.286  1.00  0.00    -0.744 OA
ENDBRANCH  74  77
ENDBRANCH  46  70
BRANCH  58  81
ATOM     81  C   UNL A   1      46.130  29.174  29.350  1.00  0.00     0.023 A 
ATOM     82  C   UNL A   1      47.051  30.134  29.816  1.00  0.00     0.012 A 
ATOM     83  C   UNL A   1      46.607  28.082  28.603  1.00  0.00     0.148 A 
ATOM     84  C   UNL A   1      48.411  30.026  29.517  1.00  0.00     0.002 A 
ATOM     85  C   UNL A   1      47.967  27.948  28.355  1.00  0.00     0.091 A 
ATOM     86  F   UNL A   1      45.721  27.173  28.166  1.00  0.00    -0.205 F 
ATOM     87  C   UNL A   1      48.871  28.924  28.800  1.00  0.00     0.022 A 
BRANCH  85  88
ATOM     88  S   UNL A   1      48.629  26.473  27.573  1.00  0.00     0.127 S 
ATOM     89  O   UNL A   1      49.969  26.906  27.182  1.00  0.00    -0.237 OA
ATOM     90  O   UNL A   1      48.597  25.492  28.660  1.00  0.00    -0.237 OA
ATOM     91  O   UNL A   1      47.716  26.168  26.477  1.00  0.00    -0.744 OA
ENDBRANCH  85  88
ENDBRANCH  58  81
ENDBRANCH  32  33
ENDBRANCH  25  27
ENDBRANCH  24  25
ENDBRANCH   1  24
TORSDOF 16
ENDMDL
MODEL 2
REMARK VINA RESULT:     -11.3      3.447      7.509
REMARK SMILES C[C@H]1OCC[C@@H]1C(=O)Nc1sc2c(c1C(=O)OCCOC(=O)c1ccc(-c3c4nc(c(-c5cccc(S(=O)(=O)[O-])c5F)c5ccc([nH]5)c(-c5cccc(S(=O)(=O)[O-])c5F)c5nc(c(-c6cccc(S(=O)(=O)[O-])c6F)c6ccc3[nH]6)C=C5)C=C4)cc1)CCC2
REMARK SMILES IDX 19 1 18 2 17 3 15 4 16 5 14 6 10 7 11 8 12 9 13 10 88 11
REMARK SMILES IDX 86 12 87 13 9 14 7 15 8 16 6 18 1 19 2 20 3 21 4 22 5 23
REMARK SMILES IDX 20 24 21 25 22 26 23 27 24 28 85 29 25 30 84 31 26 32 27 33
REMARK SMILES IDX 28 34 78 35 29 36 83 37 77 38 79 39 30 40 82 41 76 42 75 43
REMARK SMILES IDX 31 45 63 46 43 47 62 48 44 49 47 50 61 51 80 52 45 53 46 54
REMARK SMILES IDX 60 56 81 57 48 58 32 59 33 60 41 61 34 62 36 63 42 64 35 65
REMARK SMILES IDX 37 66 38 67 39 68 40 69 64 70 65 71 73 72 66 73 68 74 74 75
REMARK SMILES IDX 67 76 69 77 70 78 71 79 72 80 49 81 50 82 58 83 51 84 53 85
REMARK SMILES IDX 59 86 52 87 54 88 55 89 56 90 57 91
REMARK H PARENT 9 17 79 44 47 55
REMARK Flexibility Score: inf
ROOT
ATOM      1  C   UNL A   1      34.872  29.575  27.106  1.00  0.00     0.275 C 
ENDROOT
BRANCH   1   2
ATOM      2  C   UNL A   1      33.459  29.039  27.272  1.00  0.00     0.275 C 
BRANCH   2   3
ATOM      3  O   UNL A   1      33.355  27.690  26.767  1.00  0.00    -0.458 OA
BRANCH   3   4
ATOM      4  C   UNL A   1      32.146  27.077  26.961  1.00  0.00     0.341 C 
ATOM      5  O   UNL A   1      31.237  27.546  27.612  1.00  0.00    -0.246 OA
BRANCH   4   6
ATOM      6  C   UNL A   1      32.064  25.776  26.293  1.00  0.00     0.098 A 
ATOM      7  C   UNL A   1      30.869  25.266  25.799  1.00  0.00     0.110 A 
ATOM      8  S   UNL A   1      30.950  23.618  25.329  1.00  0.00    -0.122 S 
ATOM      9  C   UNL A   1      32.612  23.739  25.300  1.00  0.00     0.011 A 
ATOM     10  C   UNL A   1      33.098  24.916  25.812  1.00  0.00    -0.017 A 
ATOM     11  C   UNL A   1      33.629  22.876  24.664  1.00  0.00     0.047 C 
ATOM     12  C   UNL A   1      34.563  25.014  25.565  1.00  0.00     0.038 C 
ATOM     13  C   UNL A   1      34.776  23.911  24.471  1.00  0.00     0.010 C 
BRANCH   7  14
ATOM     14  N   UNL A   1      29.667  25.872  25.516  1.00  0.00    -0.317 N 
ATOM     15  C   UNL A   1      29.432  26.365  24.251  1.00  0.00     0.230 C 
ATOM     16  O   UNL A   1      28.331  26.100  23.755  1.00  0.00    -0.274 OA
ATOM     17  H   UNL A   1      28.977  25.952  26.214  1.00  0.00     0.170 HD
BRANCH  15  18
ATOM     18  C   UNL A   1      30.383  27.314  23.507  1.00  0.00     0.110 C 
ATOM     19  C   UNL A   1      31.590  26.186  21.576  1.00  0.00     0.039 C 
ATOM     20  C   UNL A   1      31.677  26.647  23.027  1.00  0.00     0.127 C 
ATOM     21  O   UNL A   1      32.715  27.661  23.089  1.00  0.00    -0.378 OA
ATOM     22  C   UNL A   1      32.055  28.928  23.195  1.00  0.00     0.161 C 
ATOM     23  C   UNL A   1      30.886  28.610  24.084  1.00  0.00     0.044 C 
ENDBRANCH  15  18
ENDBRANCH   7  14
ENDBRANCH   4   6
ENDBRANCH   3   4
ENDBRANCH   2   3
ENDBRANCH   1   2
BRANCH   1  24
ATOM     24  O   UNL A   1      35.664  29.359  28.283  1.00  0.00    -0.458 OA
BRANCH  24  25
ATOM     25  C   UNL A   1      36.382  30.469  28.564  1.00  0.00     0.338 C 
ATOM     26  O   UNL A   1      36.209  31.573  28.064  1.00  0.00    -0.246 OA
BRANCH  25  27
ATOM     27  C   UNL A   1      37.391  30.289  29.613  1.00  0.00     0.060 A 
ATOM     28  C   UNL A   1      38.527  31.096  29.543  1.00  0.00     0.016 A 
ATOM     29  C   UNL A   1      37.458  28.983  30.096  1.00  0.00     0.016 A 
ATOM     30  C   UNL A   1      39.773  30.486  29.622  1.00  0.00     0.010 A 
ATOM     31  C   UNL A   1      38.698  28.393  30.222  1.00  0.00     0.010 A 
ATOM     32  C   UNL A   1      39.846  29.108  29.851  1.00  0.00    -0.014 A 
BRANCH  32  33
ATOM     33  C   UNL A   1      41.145  28.420  29.869  1.00  0.00     0.031 A 
ATOM     34  C   UNL A   1      41.832  28.436  31.197  1.00  0.00     0.074 A 
ATOM     35  C   UNL A   1      41.471  27.600  28.839  1.00  0.00     0.049 A 
ATOM     36  N   UNL A   1      43.099  28.387  31.470  1.00  0.00    -0.248 NA
ATOM     37  C   UNL A   1      40.975  28.607  32.391  1.00  0.00     0.031 C 
ATOM     38  C   UNL A   1      40.696  27.439  27.597  1.00  0.00     0.029 A 
ATOM     39  N   UNL A   1      42.381  26.571  28.769  1.00  0.00    -0.354 N 
ATOM     40  C   UNL A   1      43.158  28.274  32.860  1.00  0.00     0.074 A 
ATOM     41  C   UNL A   1      41.863  28.603  33.378  1.00  0.00     0.031 C 
ATOM     42  C   UNL A   1      40.942  26.219  27.080  1.00  0.00     0.029 A 
ATOM     43  C   UNL A   1      41.937  25.559  27.906  1.00  0.00     0.049 A 
ATOM     44  H   UNL A   1      43.234  26.547  29.262  1.00  0.00     0.167 HD
ATOM     45  C   UNL A   1      44.151  27.593  33.485  1.00  0.00     0.034 A 
ATOM     46  C   UNL A   1      42.229  24.236  27.945  1.00  0.00     0.034 A 
ATOM     47  C   UNL A   1      45.359  27.540  32.718  1.00  0.00     0.049 A 
ATOM     48  C   UNL A   1      43.413  24.044  28.804  1.00  0.00     0.074 A 
ATOM     49  C   UNL A   1      46.245  28.465  32.212  1.00  0.00     0.029 A 
ATOM     50  N   UNL A   1      45.657  26.339  32.134  1.00  0.00    -0.354 N 
ATOM     51  N   UNL A   1      44.624  24.396  28.485  1.00  0.00    -0.248 NA
ATOM     52  C   UNL A   1      43.214  23.669  30.197  1.00  0.00     0.031 C 
ATOM     53  C   UNL A   1      46.837  27.845  31.077  1.00  0.00     0.029 A 
ATOM     54  C   UNL A   1      46.280  26.572  30.940  1.00  0.00     0.049 A 
ATOM     55  H   UNL A   1      45.455  25.452  32.512  1.00  0.00     0.167 HD
ATOM     56  C   UNL A   1      45.221  24.703  29.698  1.00  0.00     0.074 A 
ATOM     57  C   UNL A   1      44.383  24.064  30.703  1.00  0.00     0.031 C 
ATOM     58  C   UNL A   1      46.140  25.707  29.787  1.00  0.00     0.034 A 
BRANCH  45  59
ATOM     59  C   UNL A   1      43.878  26.615  34.608  1.00  0.00     0.023 A 
ATOM     60  C   UNL A   1      42.744  25.785  34.492  1.00  0.00     0.012 A 
ATOM     61  C   UNL A   1      44.499  26.678  35.882  1.00  0.00     0.148 A 
ATOM     62  C   UNL A   1      42.235  25.085  35.592  1.00  0.00     0.002 A 
ATOM     63  C   UNL A   1      44.042  25.910  36.946  1.00  0.00     0.091 A 
ATOM     64  F   UNL A   1      45.448  27.587  36.126  1.00  0.00    -0.205 F 
ATOM     65  C   UNL A   1      42.891  25.136  36.817  1.00  0.00     0.022 A 
BRANCH  63  66
ATOM     66  S   UNL A   1      44.915  25.910  38.516  1.00  0.00     0.127 S 
ATOM     67  O   UNL A   1      46.246  26.353  38.114  1.00  0.00    -0.237 OA
ATOM     68  O   UNL A   1      44.146  26.882  39.295  1.00  0.00    -0.237 OA
ATOM     69  O   UNL A   1      44.804  24.541  39.007  1.00  0.00    -0.744 OA
ENDBRANCH  63  66
ENDBRANCH  45  59
BRANCH  46  70
ATOM     70  C   UNL A   1      41.441  23.072  27.456  1.00  0.00     0.023 A 
ATOM     71  C   UNL A   1      40.077  23.245  27.143  1.00  0.00     0.012 A 
ATOM     72  C   UNL A   1      42.050  21.851  27.086  1.00  0.00     0.148 A 
ATOM     73  C   UNL A   1      39.350  22.248  26.479  1.00  0.00     0.002 A 
ATOM     74  C   UNL A   1      41.315  20.847  26.457  1.00  0.00     0.091 A 
ATOM     75  F   UNL A   1      43.369  21.701  27.263  1.00  0.00    -0.205 F 
ATOM     76  C   UNL A   1      39.968  21.049  26.139  1.00  0.00     0.022 A 
BRANCH  74  77
ATOM     77  S   UNL A   1      42.047  19.262  26.024  1.00  0.00     0.127 S 
ATOM     78  O   UNL A   1      42.648  18.842  27.292  1.00  0.00    -0.237 OA
ATOM     79  O   UNL A   1      40.880  18.486  25.616  1.00  0.00    -0.237 OA
ATOM     80  O   UNL A   1      43.018  19.554  24.977  1.00  0.00    -0.744 OA
ENDBRANCH  74  77
ENDBRANCH  46  70
BRANCH  58  81
ATOM     81  C   UNL A   1      46.820  26.165  28.524  1.00  0.00     0.023 A 
ATOM     82  C   UNL A   1      47.985  25.542  28.033  1.00  0.00     0.012 A 
ATOM     83  C   UNL A   1      46.175  27.128  27.726  1.00  0.00     0.148 A 
ATOM     84  C   UNL A   1      48.514  25.895  26.790  1.00  0.00     0.002 A 
ATOM     85  C   UNL A   1      46.674  27.434  26.466  1.00  0.00     0.091 A 
ATOM     86  F   UNL A   1      45.065  27.712  28.204  1.00  0.00    -0.205 F 
ATOM     87  C   UNL A   1      47.850  26.829  25.999  1.00  0.00     0.022 A 
BRANCH  85  88
ATOM     88  S   UNL A   1      45.773  28.513  25.348  1.00  0.00     0.127 S 
ATOM     89  O   UNL A   1      45.679  29.749  26.121  1.00  0.00    -0.237 OA
ATOM     90  O   UNL A   1      46.662  28.585  24.186  1.00  0.00    -0.237 OA
ATOM     91  O   UNL A   1      44.510  27.834  25.081  1.00  0.00    -0.744 OA
ENDBRANCH  85  88
ENDBRANCH  58  81
ENDBRANCH  32  33
ENDBRANCH  25  27
ENDBRANCH  24  25
ENDBRANCH   1  24
TORSDOF 16
ENDMDL
MODEL 3
REMARK VINA RESULT:     -11.1      1.373      2.031
REMARK SMILES C[C@H]1OCC[C@@H]1C(=O)Nc1sc2c(c1C(=O)OCCOC(=O)c1ccc(-c3c4nc(c(-c5cccc(S(=O)(=O)[O-])c5F)c5ccc([nH]5)c(-c5cccc(S(=O)(=O)[O-])c5F)c5nc(c(-c6cccc(S(=O)(=O)[O-])c6F)c6ccc3[nH]6)C=C5)C=C4)cc1)CCC2
REMARK SMILES IDX 19 1 18 2 17 3 15 4 16 5 14 6 10 7 11 8 12 9 13 10 88 11
REMARK SMILES IDX 86 12 87 13 9 14 7 15 8 16 6 18 1 19 2 20 3 21 4 22 5 23
REMARK SMILES IDX 20 24 21 25 22 26 23 27 24 28 85 29 25 30 84 31 26 32 27 33
REMARK SMILES IDX 28 34 78 35 29 36 83 37 77 38 79 39 30 40 82 41 76 42 75 43
REMARK SMILES IDX 31 45 63 46 43 47 62 48 44 49 47 50 61 51 80 52 45 53 46 54
REMARK SMILES IDX 60 56 81 57 48 58 32 59 33 60 41 61 34 62 36 63 42 64 35 65
REMARK SMILES IDX 37 66 38 67 39 68 40 69 64 70 65 71 73 72 66 73 68 74 74 75
REMARK SMILES IDX 67 76 69 77 70 78 71 79 72 80 49 81 50 82 58 83 51 84 53 85
REMARK SMILES IDX 59 86 52 87 54 88 55 89 56 90 57 91
REMARK H PARENT 9 17 79 44 47 55
REMARK Flexibility Score: inf
ROOT
ATOM      1  C   UNL A   1      37.795  20.873  24.761  1.00  0.00     0.275 C 
ENDROOT
BRANCH   1   2
ATOM      2  C   UNL A   1      37.299  22.182  24.167  1.00  0.00     0.275 C 
BRANCH   2   3
ATOM      3  O   UNL A   1      35.966  22.487  24.628  1.00  0.00    -0.458 OA
BRANCH   3   4
ATOM      4  C   UNL A   1      35.758  23.781  25.025  1.00  0.00     0.341 C 
ATOM      5  O   UNL A   1      36.502  24.400  25.756  1.00  0.00    -0.246 OA
BRANCH   4   6
ATOM      6  C   UNL A   1      34.528  24.348  24.470  1.00  0.00     0.098 A 
ATOM      7  C   UNL A   1      33.647  23.604  23.694  1.00  0.00     0.110 A 
ATOM      8  S   UNL A   1      32.440  24.537  22.909  1.00  0.00    -0.122 S 
ATOM      9  C   UNL A   1      32.764  25.786  23.964  1.00  0.00     0.011 A 
ATOM     10  C   UNL A   1      33.869  25.585  24.752  1.00  0.00    -0.017 A 
ATOM     11  C   UNL A   1      31.968  26.982  24.312  1.00  0.00     0.047 C 
ATOM     12  C   UNL A   1      33.962  26.652  25.785  1.00  0.00     0.038 C 
ATOM     13  C   UNL A   1      32.519  27.265  25.740  1.00  0.00     0.010 C 
BRANCH   7  14
ATOM     14  N   UNL A   1      33.502  22.246  23.530  1.00  0.00    -0.317 N 
ATOM     15  C   UNL A   1      32.547  21.569  24.258  1.00  0.00     0.230 C 
ATOM     16  O   UNL A   1      31.853  20.760  23.632  1.00  0.00    -0.274 OA
ATOM     17  H   UNL A   1      34.076  21.760  22.896  1.00  0.00     0.170 HD
BRANCH  15  18
ATOM     18  C   UNL A   1      32.399  21.665  25.783  1.00  0.00     0.110 C 
ATOM     19  C   UNL A   1      30.149  22.603  26.500  1.00  0.00     0.039 C 
ATOM     20  C   UNL A   1      31.624  22.899  26.257  1.00  0.00     0.127 C 
ATOM     21  O   UNL A   1      32.196  23.284  27.535  1.00  0.00    -0.378 OA
ATOM     22  C   UNL A   1      32.960  22.166  28.005  1.00  0.00     0.161 C 
ATOM     23  C   UNL A   1      33.564  21.632  26.736  1.00  0.00     0.044 C 
ENDBRANCH  15  18
ENDBRANCH   7  14
ENDBRANCH   4   6
ENDBRANCH   3   4
ENDBRANCH   2   3
ENDBRANCH   1   2
BRANCH   1  24
ATOM     24  O   UNL A   1      38.669  21.093  25.878  1.00  0.00    -0.458 OA
BRANCH  24  25
ATOM     25  C   UNL A   1      39.623  20.138  25.909  1.00  0.00     0.338 C 
ATOM     26  O   UNL A   1      39.537  19.029  25.399  1.00  0.00    -0.246 OA
BRANCH  25  27
ATOM     27  C   UNL A   1      40.870  20.549  26.562  1.00  0.00     0.060 A 
ATOM     28  C   UNL A   1      40.807  20.832  27.927  1.00  0.00     0.016 A 
ATOM     29  C   UNL A   1      41.733  21.247  25.717  1.00  0.00     0.016 A 
ATOM     30  C   UNL A   1      41.339  22.036  28.375  1.00  0.00     0.010 A 
ATOM     31  C   UNL A   1      42.301  22.415  26.178  1.00  0.00     0.010 A 
ATOM     32  C   UNL A   1      41.989  22.875  27.465  1.00  0.00    -0.014 A 
BRANCH  32  33
ATOM     33  C   UNL A   1      42.500  24.187  27.891  1.00  0.00     0.031 A 
ATOM     34  C   UNL A   1      41.581  25.330  27.599  1.00  0.00     0.074 A 
ATOM     35  C   UNL A   1      43.554  24.239  28.743  1.00  0.00     0.049 A 
ATOM     36  N   UNL A   1      41.861  26.577  27.379  1.00  0.00    -0.248 NA
ATOM     37  C   UNL A   1      40.143  25.013  27.461  1.00  0.00     0.031 C 
ATOM     38  C   UNL A   1      44.354  23.084  29.183  1.00  0.00     0.029 A 
ATOM     39  N   UNL A   1      43.974  25.243  29.584  1.00  0.00    -0.354 N 
ATOM     40  C   UNL A   1      40.621  27.215  27.324  1.00  0.00     0.074 A 
ATOM     41  C   UNL A   1      39.617  26.201  27.189  1.00  0.00     0.031 C 
ATOM     42  C   UNL A   1      44.899  23.358  30.384  1.00  0.00     0.029 A 
ATOM     43  C   UNL A   1      44.550  24.719  30.750  1.00  0.00     0.049 A 
ATOM     44  H   UNL A   1      43.883  26.205  29.393  1.00  0.00     0.167 HD
ATOM     45  C   UNL A   1      40.453  28.498  27.733  1.00  0.00     0.034 A 
ATOM     46  C   UNL A   1      44.607  25.281  31.983  1.00  0.00     0.034 A 
ATOM     47  C   UNL A   1      41.653  29.273  27.642  1.00  0.00     0.049 A 
ATOM     48  C   UNL A   1      44.317  26.722  31.852  1.00  0.00     0.074 A 
ATOM     49  C   UNL A   1      42.504  29.655  26.629  1.00  0.00     0.029 A 
ATOM     50  N   UNL A   1      42.282  29.562  28.823  1.00  0.00    -0.354 N 
ATOM     51  N   UNL A   1      45.121  27.594  31.316  1.00  0.00    -0.248 NA
ATOM     52  C   UNL A   1      42.961  27.189  32.102  1.00  0.00     0.031 C 
ATOM     53  C   UNL A   1      43.769  29.859  27.248  1.00  0.00     0.029 A 
ATOM     54  C   UNL A   1      43.631  29.584  28.610  1.00  0.00     0.049 A 
ATOM     55  H   UNL A   1      41.835  29.728  29.684  1.00  0.00     0.167 HD
ATOM     56  C   UNL A   1      44.275  28.547  30.770  1.00  0.00     0.074 A 
ATOM     57  C   UNL A   1      42.998  28.346  31.440  1.00  0.00     0.031 C 
ATOM     58  C   UNL A   1      44.601  29.182  29.609  1.00  0.00     0.034 A 
BRANCH  45  59
ATOM     59  C   UNL A   1      39.297  28.920  28.615  1.00  0.00     0.023 A 
ATOM     60  C   UNL A   1      38.408  29.891  28.110  1.00  0.00     0.012 A 
ATOM     61  C   UNL A   1      39.213  28.633  30.001  1.00  0.00     0.148 A 
ATOM     62  C   UNL A   1      37.511  30.566  28.946  1.00  0.00     0.002 A 
ATOM     63  C   UNL A   1      38.259  29.241  30.807  1.00  0.00     0.091 A 
ATOM     64  F   UNL A   1      40.146  27.880  30.593  1.00  0.00    -0.205 F 
ATOM     65  C   UNL A   1      37.425  30.232  30.293  1.00  0.00     0.022 A 
BRANCH  63  66
ATOM     66  S   UNL A   1      38.088  28.776  32.533  1.00  0.00     0.127 S 
ATOM     67  O   UNL A   1      39.213  29.477  33.142  1.00  0.00    -0.237 OA
ATOM     68  O   UNL A   1      36.767  29.312  32.867  1.00  0.00    -0.237 OA
ATOM     69  O   UNL A   1      38.149  27.317  32.537  1.00  0.00    -0.744 OA
ENDBRANCH  63  66
ENDBRANCH  45  59
BRANCH  46  70
ATOM     70  C   UNL A   1      44.696  24.636  33.321  1.00  0.00     0.023 A 
ATOM     71  C   UNL A   1      43.522  24.144  33.928  1.00  0.00     0.012 A 
ATOM     72  C   UNL A   1      45.933  24.303  33.917  1.00  0.00     0.148 A 
ATOM     73  C   UNL A   1      43.578  23.341  35.075  1.00  0.00     0.002 A 
ATOM     74  C   UNL A   1      45.984  23.533  35.078  1.00  0.00     0.091 A 
ATOM     75  F   UNL A   1      47.070  24.655  33.300  1.00  0.00    -0.205 F 
ATOM     76  C   UNL A   1      44.807  23.039  35.652  1.00  0.00     0.022 A 
BRANCH  74  77
ATOM     77  S   UNL A   1      47.540  23.138  35.891  1.00  0.00     0.127 S 
ATOM     78  O   UNL A   1      47.090  22.427  37.090  1.00  0.00    -0.237 OA
ATOM     79  O   UNL A   1      48.201  22.299  34.896  1.00  0.00    -0.237 OA
ATOM     80  O   UNL A   1      48.172  24.422  36.166  1.00  0.00    -0.744 OA
ENDBRANCH  74  77
ENDBRANCH  46  70
BRANCH  58  81
ATOM     81  C   UNL A   1      46.043  29.177  29.173  1.00  0.00     0.023 A 
ATOM     82  C   UNL A   1      46.963  30.146  29.620  1.00  0.00     0.012 A 
ATOM     83  C   UNL A   1      46.518  28.077  28.438  1.00  0.00     0.148 A 
ATOM     84  C   UNL A   1      48.321  30.038  29.314  1.00  0.00     0.002 A 
ATOM     85  C   UNL A   1      47.877  27.944  28.183  1.00  0.00     0.091 A 
ATOM     86  F   UNL A   1      45.632  27.159  28.019  1.00  0.00    -0.205 F 
ATOM     87  C   UNL A   1      48.781  28.929  28.609  1.00  0.00     0.022 A 
BRANCH  85  88
ATOM     88  S   UNL A   1      48.539  26.460  27.417  1.00  0.00     0.127 S 
ATOM     89  O   UNL A   1      49.956  26.789  27.282  1.00  0.00    -0.237 OA
ATOM     90  O   UNL A   1      48.243  25.427  28.411  1.00  0.00    -0.237 OA
ATOM     91  O   UNL A   1      47.803  26.304  26.168  1.00  0.00    -0.744 OA
ENDBRANCH  85  88
ENDBRANCH  58  81
ENDBRANCH  32  33
ENDBRANCH  25  27
ENDBRANCH  24  25
ENDBRANCH   1  24
TORSDOF 16
ENDMDL
