MODEL 1
REMARK VINA RESULT:     -14.1      0.000      0.000
REMARK SMILES Cc1ccc(S(=O)(=O)n2cc(C(=O)C(=O)N[C@H](Cc3c[nH]c4ccccc34)C(=O)NCC(=O)OCCOC(=O)c3ccc(-c4c5nc(c(-c6cccc(S(=O)(=O)[O-])c6F)c6ccc([nH]6)c(-c6cccc(S(=O)(=O)[O-])c6F)c6nc(c(-c7cccc(S(=O)(=O)[O-])c7F)c7ccc4[nH]7)C=C6)C=C5)cc3)c3ccccc32)cc1
REMARK SMILES IDX 32 1 33 2 31 3 30 4 28 5 29 6 17 8 16 9 14 10 15 11 12 13
REMARK SMILES IDX 13 14 11 15 9 16 10 17 108 18 103 19 107 20 104 21 106 22
REMARK SMILES IDX 105 23 6 24 7 25 8 26 5 27 1 28 2 29 3 30 110 31 4 32 109 33
REMARK SMILES IDX 18 34 19 35 20 36 27 37 21 38 22 39 26 40 23 42 25 43 24 44
REMARK SMILES IDX 34 45 35 46 36 47 37 48 38 49 39 50 40 51 41 52 102 53 42 54
REMARK SMILES IDX 101 55 43 56 44 57 45 58 95 59 46 60 100 61 94 62 96 63
REMARK SMILES IDX 47 64 99 65 93 66 92 67 48 69 80 70 60 71 79 72 61 73 64 74
REMARK SMILES IDX 78 75 97 76 62 77 63 78 77 80 98 81 65 82 49 83 50 84 58 85
REMARK SMILES IDX 51 86 53 87 59 88 52 89 54 90 55 91 56 92 57 93 81 94 82 95
REMARK SMILES IDX 90 96 83 97 85 98 91 99 84 100 86 101 87 102 88 103 89 104
REMARK SMILES IDX 66 105 67 106 75 107 68 108 70 109 76 110 69 111 71 112
REMARK SMILES IDX 72 113 73 114 74 115
REMARK H PARENT 30 7 16 12 21 41 96 68 64 79
REMARK Flexibility Score: inf
ROOT
ATOM      1  C   UNL A   1      37.667  22.571  25.644  1.00  0.00     0.325 C 
ATOM      2  O   UNL A   1      38.032  23.735  25.717  1.00  0.00    -0.250 OA
ENDROOT
BRANCH   1   3
ATOM      3  C   UNL A   1      36.191  22.040  25.794  1.00  0.00     0.238 C 
BRANCH   3   4
ATOM      4  N   UNL A   1      35.253  21.930  26.901  1.00  0.00    -0.343 N 
ATOM      5  C   UNL A   1      33.981  21.373  26.829  1.00  0.00     0.243 C 
ATOM      6  O   UNL A   1      33.665  20.649  27.785  1.00  0.00    -0.273 OA
ATOM      7  H   UNL A   1      35.544  22.278  27.775  1.00  0.00     0.164 HD
BRANCH   5   8
ATOM      8  C   UNL A   1      32.852  21.783  25.783  1.00  0.00     0.176 C 
BRANCH   8   9
ATOM      9  N   UNL A   1      31.318  22.116  26.100  1.00  0.00    -0.337 N 
ATOM     10  C   UNL A   1      30.344  23.048  26.562  1.00  0.00     0.293 C 
ATOM     11  O   UNL A   1      29.338  22.516  27.053  1.00  0.00    -0.265 OA
ATOM     12  H   UNL A   1      30.816  21.300  25.872  1.00  0.00     0.164 HD
BRANCH  10  13
ATOM     13  C   UNL A   1      30.279  24.622  26.381  1.00  0.00     0.252 C 
ATOM     14  O   UNL A   1      29.236  25.120  26.801  1.00  0.00    -0.283 OA
BRANCH  13  15
ATOM     15  C   UNL A   1      31.410  25.452  25.792  1.00  0.00     0.054 A 
ATOM     16  N   UNL A   1      33.256  26.900  25.930  1.00  0.00    -0.240 N 
ATOM     17  C   UNL A   1      32.358  26.061  26.656  1.00  0.00     0.117 A 
ATOM     18  C   UNL A   1      33.581  25.965  24.853  1.00  0.00     0.065 A 
ATOM     19  C   UNL A   1      31.921  25.734  24.287  1.00  0.00     0.012 A 
ATOM     20  C   UNL A   1      34.977  24.918  24.149  1.00  0.00     0.028 A 
ATOM     21  C   UNL A   1      31.671  24.832  22.684  1.00  0.00     0.011 A 
ATOM     22  C   UNL A   1      34.702  23.788  22.668  1.00  0.00     0.002 A 
ATOM     23  C   UNL A   1      33.065  23.880  21.840  1.00  0.00     0.001 A 
BRANCH  16  24
ATOM     24  S   UNL A   1      32.212  28.607  25.742  1.00  0.00     0.268 S 
ATOM     25  O   UNL A   1      33.293  29.554  25.498  1.00  0.00    -0.201 OA
ATOM     26  O   UNL A   1      31.505  28.588  26.987  1.00  0.00    -0.201 OA
BRANCH  24  27
ATOM     27  C   UNL A   1      30.936  29.115  24.474  1.00  0.00     0.088 A 
ATOM     28  C   UNL A   1      28.045  30.205  21.372  1.00  0.00     0.044 C 
ATOM     29  C   UNL A   1      28.819  29.824  22.599  1.00  0.00    -0.051 A 
ATOM     30  C   UNL A   1      29.136  28.507  22.813  1.00  0.00     0.005 A 
ATOM     31  C   UNL A   1      29.360  30.745  23.508  1.00  0.00     0.005 A 
ATOM     32  C   UNL A   1      30.131  28.203  23.764  1.00  0.00     0.022 A 
ATOM     33  C   UNL A   1      30.378  30.388  24.454  1.00  0.00     0.022 A 
ENDBRANCH  24  27
ENDBRANCH  16  24
ENDBRANCH  13  15
ENDBRANCH  10  13
ENDBRANCH   8   9
BRANCH   8  34
ATOM     34  C   UNL A   1      33.017  21.358  24.324  1.00  0.00     0.072 C 
BRANCH  34  35
ATOM     35  C   UNL A   1      32.894  19.977  23.780  1.00  0.00    -0.020 A 
ATOM     36  C   UNL A   1      31.962  19.614  22.817  1.00  0.00     0.087 A 
ATOM     37  C   UNL A   1      33.661  18.816  24.046  1.00  0.00     0.003 A 
ATOM     38  N   UNL A   1      31.976  18.258  22.694  1.00  0.00    -0.361 N 
ATOM     39  C   UNL A   1      32.999  17.741  23.446  1.00  0.00     0.046 A 
ATOM     40  C   UNL A   1      34.836  18.568  24.773  1.00  0.00     0.010 A 
ATOM     41  H   UNL A   1      31.347  17.731  22.148  1.00  0.00     0.166 HD
ATOM     42  C   UNL A   1      33.393  16.415  23.624  1.00  0.00     0.026 A 
ATOM     43  C   UNL A   1      35.274  17.251  24.918  1.00  0.00     0.001 A 
ATOM     44  C   UNL A   1      34.548  16.192  24.376  1.00  0.00     0.002 A 
ENDBRANCH  34  35
ENDBRANCH   8  34
ENDBRANCH   5   8
ENDBRANCH   3   4
ENDBRANCH   1   3
BRANCH   1  45
ATOM     45  O   UNL A   1      38.535  21.515  25.683  1.00  0.00    -0.461 OA
BRANCH  45  46
ATOM     46  C   UNL A   1      39.698  21.425  26.557  1.00  0.00     0.274 C 
BRANCH  46  47
ATOM     47  C   UNL A   1      41.140  21.473  25.956  1.00  0.00     0.275 C 
BRANCH  47  48
ATOM     48  O   UNL A   1      41.810  22.724  25.662  1.00  0.00    -0.458 OA
BRANCH  48  49
ATOM     49  C   UNL A   1      42.440  23.411  26.645  1.00  0.00     0.338 C 
ATOM     50  O   UNL A   1      43.412  23.017  27.261  1.00  0.00    -0.246 OA
BRANCH  49  51
ATOM     51  C   UNL A   1      41.655  24.625  26.941  1.00  0.00     0.060 A 
ATOM     52  C   UNL A   1      41.526  25.671  26.066  1.00  0.00     0.016 A 
ATOM     53  C   UNL A   1      40.896  24.698  28.122  1.00  0.00     0.016 A 
ATOM     54  C   UNL A   1      40.805  26.771  26.551  1.00  0.00     0.010 A 
ATOM     55  C   UNL A   1      40.046  25.751  28.476  1.00  0.00     0.010 A 
ATOM     56  C   UNL A   1      40.379  26.949  27.893  1.00  0.00    -0.014 A 
BRANCH  56  57
ATOM     57  C   UNL A   1      41.099  28.123  29.076  1.00  0.00     0.031 A 
ATOM     58  C   UNL A   1      39.845  29.397  28.759  1.00  0.00     0.074 A 
ATOM     59  C   UNL A   1      42.532  28.055  30.302  1.00  0.00     0.049 A 
ATOM     60  N   UNL A   1      39.895  30.680  29.022  1.00  0.00    -0.248 NA
ATOM     61  C   UNL A   1      38.585  29.171  28.078  1.00  0.00     0.031 C 
ATOM     62  C   UNL A   1      42.654  28.586  32.002  1.00  0.00     0.029 A 
ATOM     63  N   UNL A   1      43.738  27.235  30.608  1.00  0.00    -0.354 N 
ATOM     64  C   UNL A   1      38.608  31.161  29.113  1.00  0.00     0.074 A 
ATOM     65  C   UNL A   1      37.875  30.289  28.262  1.00  0.00     0.031 C 
ATOM     66  C   UNL A   1      43.811  28.278  32.578  1.00  0.00     0.029 A 
ATOM     67  C   UNL A   1      44.613  27.771  31.539  1.00  0.00     0.049 A 
ATOM     68  H   UNL A   1      43.903  26.367  30.176  1.00  0.00     0.167 HD
ATOM     69  C   UNL A   1      38.293  32.108  30.042  1.00  0.00     0.034 A 
ATOM     70  C   UNL A   1      45.707  28.398  31.057  1.00  0.00     0.034 A 
ATOM     71  C   UNL A   1      39.467  32.425  30.898  1.00  0.00     0.049 A 
ATOM     72  C   UNL A   1      45.250  30.058  31.223  1.00  0.00     0.074 A 
ATOM     73  C   UNL A   1      39.724  32.227  32.247  1.00  0.00     0.029 A 
ATOM     74  N   UNL A   1      40.692  32.791  30.327  1.00  0.00    -0.354 N 
ATOM     75  N   UNL A   1      44.101  30.669  30.942  1.00  0.00    -0.248 NA
ATOM     76  C   UNL A   1      46.089  31.072  31.912  1.00  0.00     0.031 C 
ATOM     77  C   UNL A   1      41.125  32.377  32.462  1.00  0.00     0.029 A 
ATOM     78  C   UNL A   1      41.738  32.643  31.243  1.00  0.00     0.049 A 
ATOM     79  H   UNL A   1      40.803  33.112  29.403  1.00  0.00     0.167 HD
ATOM     80  C   UNL A   1      44.123  32.056  31.173  1.00  0.00     0.074 A 
ATOM     81  C   UNL A   1      45.460  32.249  31.687  1.00  0.00     0.031 C 
ATOM     82  C   UNL A   1      43.119  32.992  30.917  1.00  0.00     0.034 A 
BRANCH  69  83
ATOM     83  C   UNL A   1      36.881  32.583  30.417  1.00  0.00     0.023 A 
ATOM     84  C   UNL A   1      36.401  32.191  31.690  1.00  0.00     0.012 A 
ATOM     85  C   UNL A   1      35.975  33.354  29.643  1.00  0.00     0.148 A 
ATOM     86  C   UNL A   1      35.102  32.457  32.138  1.00  0.00     0.002 A 
ATOM     87  C   UNL A   1      34.679  33.647  30.100  1.00  0.00     0.091 A 
ATOM     88  F   UNL A   1      36.337  33.824  28.450  1.00  0.00    -0.205 F 
ATOM     89  C   UNL A   1      34.236  33.181  31.339  1.00  0.00     0.022 A 
BRANCH  87  90
ATOM     90  S   UNL A   1      33.496  34.629  29.154  1.00  0.00     0.127 S 
ATOM     91  O   UNL A   1      34.332  35.731  28.675  1.00  0.00    -0.237 OA
ATOM     92  O   UNL A   1      33.072  33.693  28.114  1.00  0.00    -0.237 OA
ATOM     93  O   UNL A   1      32.447  35.022  30.086  1.00  0.00    -0.744 OA
ENDBRANCH  87  90
ENDBRANCH  69  83
BRANCH  70  94
ATOM     94  C   UNL A   1      46.306  27.317  29.897  1.00  0.00     0.023 A 
ATOM     95  C   UNL A   1      46.349  25.948  30.338  1.00  0.00     0.012 A 
ATOM     96  C   UNL A   1      46.498  27.397  28.481  1.00  0.00     0.148 A 
ATOM     97  C   UNL A   1      46.189  24.844  29.464  1.00  0.00     0.002 A 
ATOM     98  C   UNL A   1      46.228  26.329  27.610  1.00  0.00     0.091 A 
ATOM     99  F   UNL A   1      47.253  28.370  27.947  1.00  0.00    -0.205 F 
ATOM    100  C   UNL A   1      46.031  25.048  28.105  1.00  0.00     0.022 A 
BRANCH  98 101
ATOM    101  S   UNL A   1      45.933  26.549  25.829  1.00  0.00     0.127 S 
ATOM    102  O   UNL A   1      47.298  26.574  25.301  1.00  0.00    -0.237 OA
ATOM    103  O   UNL A   1      45.193  25.321  25.532  1.00  0.00    -0.237 OA
ATOM    104  O   UNL A   1      45.207  27.798  25.655  1.00  0.00    -0.744 OA
ENDBRANCH  98 101
ENDBRANCH  70  94
BRANCH  82 105
ATOM    105  C   UNL A   1      43.322  34.464  30.469  1.00  0.00     0.023 A 
ATOM    106  C   UNL A   1      43.651  35.455  31.407  1.00  0.00     0.012 A 
ATOM    107  C   UNL A   1      43.437  34.849  29.090  1.00  0.00     0.148 A 
ATOM    108  C   UNL A   1      44.015  36.758  31.018  1.00  0.00     0.002 A 
ATOM    109  C   UNL A   1      43.868  36.123  28.706  1.00  0.00     0.091 A 
ATOM    110  F   UNL A   1      43.108  33.980  28.124  1.00  0.00    -0.205 F 
ATOM    111  C   UNL A   1      44.135  37.090  29.672  1.00  0.00     0.022 A 
BRANCH 109 112
ATOM    112  S   UNL A   1      44.183  36.553  26.978  1.00  0.00     0.127 S 
ATOM    113  O   UNL A   1      42.877  36.314  26.369  1.00  0.00    -0.237 OA
ATOM    114  O   UNL A   1      44.565  37.963  27.062  1.00  0.00    -0.237 OA
ATOM    115  O   UNL A   1      45.259  35.669  26.551  1.00  0.00    -0.744 OA
ENDBRANCH 109 112
ENDBRANCH  82 105
ENDBRANCH  56  57
ENDBRANCH  49  51
ENDBRANCH  48  49
ENDBRANCH  47  48
ENDBRANCH  46  47
ENDBRANCH  45  46
ENDBRANCH   1  45
TORSDOF 23
ENDMDL
MODEL 2
REMARK VINA RESULT:     -13.3      1.878      3.220
REMARK SMILES Cc1ccc(S(=O)(=O)n2cc(C(=O)C(=O)N[C@H](Cc3c[nH]c4ccccc34)C(=O)NCC(=O)OCCOC(=O)c3ccc(-c4c5nc(c(-c6cccc(S(=O)(=O)[O-])c6F)c6ccc([nH]6)c(-c6cccc(S(=O)(=O)[O-])c6F)c6nc(c(-c7cccc(S(=O)(=O)[O-])c7F)c7ccc4[nH]7)C=C6)C=C5)cc3)c3ccccc32)cc1
REMARK SMILES IDX 32 1 33 2 31 3 30 4 28 5 29 6 17 8 16 9 14 10 15 11 12 13
REMARK SMILES IDX 13 14 11 15 9 16 10 17 108 18 103 19 107 20 104 21 106 22
REMARK SMILES IDX 105 23 6 24 7 25 8 26 5 27 1 28 2 29 3 30 110 31 4 32 109 33
REMARK SMILES IDX 18 34 19 35 20 36 27 37 21 38 22 39 26 40 23 42 25 43 24 44
REMARK SMILES IDX 34 45 35 46 36 47 37 48 38 49 39 50 40 51 41 52 102 53 42 54
REMARK SMILES IDX 101 55 43 56 44 57 45 58 95 59 46 60 100 61 94 62 96 63
REMARK SMILES IDX 47 64 99 65 93 66 92 67 48 69 80 70 60 71 79 72 61 73 64 74
REMARK SMILES IDX 78 75 97 76 62 77 63 78 77 80 98 81 65 82 49 83 50 84 58 85
REMARK SMILES IDX 51 86 53 87 59 88 52 89 54 90 55 91 56 92 57 93 81 94 82 95
REMARK SMILES IDX 90 96 83 97 85 98 91 99 84 100 86 101 87 102 88 103 89 104
REMARK SMILES IDX 66 105 67 106 75 107 68 108 70 109 76 110 69 111 71 112
REMARK SMILES IDX 72 113 73 114 74 115
REMARK H PARENT 30 7 16 12 21 41 96 68 64 79
REMARK Flexibility Score: inf
ROOT
ATOM      1  C   UNL A   1      36.753  22.549  25.204  1.00  0.00     0.325 C 
ATOM      2  O   UNL A   1      36.960  23.675  24.779  1.00  0.00    -0.250 OA
ENDROOT
BRANCH   1   3
ATOM      3  C   UNL A   1      35.585  22.112  26.168  1.00  0.00     0.238 C 
BRANCH   3   4
ATOM      4  N   UNL A   1      34.741  22.804  27.131  1.00  0.00    -0.343 N 
ATOM      5  C   UNL A   1      33.355  22.724  27.195  1.00  0.00     0.243 C 
ATOM      6  O   UNL A   1      32.883  22.630  28.338  1.00  0.00    -0.273 OA
ATOM      7  H   UNL A   1      35.191  23.377  27.794  1.00  0.00     0.164 HD
BRANCH   5   8
ATOM      8  C   UNL A   1      32.358  22.989  25.981  1.00  0.00     0.176 C 
BRANCH   8   9
ATOM      9  N   UNL A   1      31.240  24.132  25.883  1.00  0.00    -0.337 N 
ATOM     10  C   UNL A   1      30.735  25.384  26.339  1.00  0.00     0.293 C 
ATOM     11  O   UNL A   1      29.508  25.504  26.206  1.00  0.00    -0.265 OA
ATOM     12  H   UNL A   1      30.612  23.830  25.188  1.00  0.00     0.164 HD
BRANCH  10  13
ATOM     13  C   UNL A   1      31.513  26.682  26.810  1.00  0.00     0.252 C 
ATOM     14  O   UNL A   1      32.037  26.563  27.917  1.00  0.00    -0.283 OA
BRANCH  13  15
ATOM     15  C   UNL A   1      31.649  27.940  25.964  1.00  0.00     0.054 A 
ATOM     16  N   UNL A   1      30.882  29.533  24.417  1.00  0.00    -0.240 N 
ATOM     17  C   UNL A   1      30.524  28.431  25.251  1.00  0.00     0.117 A 
ATOM     18  C   UNL A   1      31.649  30.294  25.404  1.00  0.00     0.065 A 
ATOM     19  C   UNL A   1      32.827  29.024  25.759  1.00  0.00     0.012 A 
ATOM     20  C   UNL A   1      31.624  31.876  26.423  1.00  0.00     0.028 A 
ATOM     21  C   UNL A   1      34.309  29.480  26.779  1.00  0.00     0.011 A 
ATOM     22  C   UNL A   1      32.987  32.262  27.663  1.00  0.00     0.002 A 
ATOM     23  C   UNL A   1      34.421  31.116  27.712  1.00  0.00     0.001 A 
BRANCH  16  24
ATOM     24  S   UNL A   1      31.626  28.629  22.783  1.00  0.00     0.268 S 
ATOM     25  O   UNL A   1      32.902  29.322  22.654  1.00  0.00    -0.201 OA
ATOM     26  O   UNL A   1      30.550  28.873  21.871  1.00  0.00    -0.201 OA
BRANCH  24  27
ATOM     27  C   UNL A   1      32.104  26.846  22.495  1.00  0.00     0.088 A 
ATOM     28  C   UNL A   1      33.335  22.725  21.674  1.00  0.00     0.044 C 
ATOM     29  C   UNL A   1      32.918  24.060  22.216  1.00  0.00    -0.051 A 
ATOM     30  C   UNL A   1      33.862  25.038  22.395  1.00  0.00     0.005 A 
ATOM     31  C   UNL A   1      31.587  24.437  22.449  1.00  0.00     0.005 A 
ATOM     32  C   UNL A   1      33.425  26.367  22.576  1.00  0.00     0.022 A 
ATOM     33  C   UNL A   1      31.191  25.805  22.620  1.00  0.00     0.022 A 
ENDBRANCH  24  27
ENDBRANCH  16  24
ENDBRANCH  13  15
ENDBRANCH  10  13
ENDBRANCH   8   9
BRANCH   8  34
ATOM     34  C   UNL A   1      32.023  21.830  25.042  1.00  0.00     0.072 C 
BRANCH  34  35
ATOM     35  C   UNL A   1      32.406  20.401  25.221  1.00  0.00    -0.020 A 
ATOM     36  C   UNL A   1      32.640  19.822  26.461  1.00  0.00     0.087 A 
ATOM     37  C   UNL A   1      32.556  19.366  24.265  1.00  0.00     0.003 A 
ATOM     38  N   UNL A   1      33.162  18.580  26.264  1.00  0.00    -0.361 N 
ATOM     39  C   UNL A   1      33.135  18.280  24.927  1.00  0.00     0.046 A 
ATOM     40  C   UNL A   1      32.291  19.262  22.891  1.00  0.00     0.010 A 
ATOM     41  H   UNL A   1      33.506  17.990  26.973  1.00  0.00     0.166 HD
ATOM     42  C   UNL A   1      33.561  17.130  24.262  1.00  0.00     0.026 A 
ATOM     43  C   UNL A   1      32.663  18.096  22.219  1.00  0.00     0.001 A 
ATOM     44  C   UNL A   1      33.313  17.061  22.890  1.00  0.00     0.002 A 
ENDBRANCH  34  35
ENDBRANCH   8  34
ENDBRANCH   5   8
ENDBRANCH   3   4
ENDBRANCH   1   3
BRANCH   1  45
ATOM     45  O   UNL A   1      37.671  21.539  25.117  1.00  0.00    -0.461 OA
BRANCH  45  46
ATOM     46  C   UNL A   1      38.997  21.565  25.719  1.00  0.00     0.274 C 
BRANCH  46  47
ATOM     47  C   UNL A   1      39.314  22.560  26.882  1.00  0.00     0.275 C 
BRANCH  47  48
ATOM     48  O   UNL A   1      39.912  23.858  26.644  1.00  0.00    -0.458 OA
BRANCH  48  49
ATOM     49  C   UNL A   1      40.687  24.440  27.590  1.00  0.00     0.338 C 
ATOM     50  O   UNL A   1      41.536  23.869  28.248  1.00  0.00    -0.246 OA
BRANCH  49  51
ATOM     51  C   UNL A   1      40.213  25.823  27.792  1.00  0.00     0.060 A 
ATOM     52  C   UNL A   1      40.296  26.796  26.832  1.00  0.00     0.016 A 
ATOM     53  C   UNL A   1      39.537  26.167  28.975  1.00  0.00     0.016 A 
ATOM     54  C   UNL A   1      39.866  28.069  27.230  1.00  0.00     0.010 A 
ATOM     55  C   UNL A   1      38.964  27.413  29.250  1.00  0.00     0.010 A 
ATOM     56  C   UNL A   1      39.542  28.450  28.559  1.00  0.00    -0.014 A 
BRANCH  56  57
ATOM     57  C   UNL A   1      40.556  29.517  29.621  1.00  0.00     0.031 A 
ATOM     58  C   UNL A   1      39.332  30.857  29.650  1.00  0.00     0.074 A 
ATOM     59  C   UNL A   1      42.211  29.314  30.507  1.00  0.00     0.049 A 
ATOM     60  N   UNL A   1      39.503  32.116  29.966  1.00  0.00    -0.248 NA
ATOM     61  C   UNL A   1      37.946  30.724  29.244  1.00  0.00     0.031 C 
ATOM     62  C   UNL A   1      42.717  29.730  32.167  1.00  0.00     0.029 A 
ATOM     63  N   UNL A   1      43.410  28.430  30.502  1.00  0.00    -0.354 N 
ATOM     64  C   UNL A   1      38.291  32.641  30.356  1.00  0.00     0.074 A 
ATOM     65  C   UNL A   1      37.350  31.855  29.636  1.00  0.00     0.031 C 
ATOM     66  C   UNL A   1      43.952  29.341  32.464  1.00  0.00     0.029 A 
ATOM     67  C   UNL A   1      44.489  28.870  31.252  1.00  0.00     0.049 A 
ATOM     68  H   UNL A   1      43.434  27.585  29.998  1.00  0.00     0.167 HD
ATOM     69  C   UNL A   1      38.229  33.538  31.382  1.00  0.00     0.034 A 
ATOM     70  C   UNL A   1      45.487  29.484  30.581  1.00  0.00     0.034 A 
ATOM     71  C   UNL A   1      39.572  33.754  31.981  1.00  0.00     0.049 A 
ATOM     72  C   UNL A   1      45.163  31.146  30.931  1.00  0.00     0.074 A 
ATOM     73  C   UNL A   1      40.099  33.460  33.232  1.00  0.00     0.029 A 
ATOM     74  N   UNL A   1      40.667  34.107  31.182  1.00  0.00    -0.354 N 
ATOM     75  N   UNL A   1      44.013  31.818  30.936  1.00  0.00    -0.248 NA
ATOM     76  C   UNL A   1      46.180  32.080  31.478  1.00  0.00     0.031 C 
ATOM     77  C   UNL A   1      41.519  33.540  33.149  1.00  0.00     0.029 A 
ATOM     78  C   UNL A   1      41.873  33.860  31.844  1.00  0.00     0.049 A 
ATOM     79  H   UNL A   1      40.596  34.482  30.275  1.00  0.00     0.167 HD
ATOM     80  C   UNL A   1      44.156  33.186  31.232  1.00  0.00     0.074 A 
ATOM     81  C   UNL A   1      45.580  33.293  31.457  1.00  0.00     0.031 C 
ATOM     82  C   UNL A   1      43.171  34.174  31.248  1.00  0.00     0.034 A 
BRANCH  69  83
ATOM     83  C   UNL A   1      36.955  34.043  32.075  1.00  0.00     0.023 A 
ATOM     84  C   UNL A   1      36.958  34.024  33.491  1.00  0.00     0.012 A 
ATOM     85  C   UNL A   1      35.755  34.515  31.482  1.00  0.00     0.148 A 
ATOM     86  C   UNL A   1      35.842  34.356  34.267  1.00  0.00     0.002 A 
ATOM     87  C   UNL A   1      34.641  34.874  32.258  1.00  0.00     0.091 A 
ATOM     88  F   UNL A   1      35.655  34.627  30.159  1.00  0.00    -0.205 F 
ATOM     89  C   UNL A   1      34.678  34.776  33.651  1.00  0.00     0.022 A 
BRANCH  87  90
ATOM     90  S   UNL A   1      33.097  35.485  31.549  1.00  0.00     0.127 S 
ATOM     91  O   UNL A   1      33.384  36.910  31.381  1.00  0.00    -0.237 OA
ATOM     92  O   UNL A   1      33.009  34.733  30.297  1.00  0.00    -0.237 OA
ATOM     93  O   UNL A   1      32.050  35.183  32.516  1.00  0.00    -0.744 OA
ENDBRANCH  87  90
ENDBRANCH  69  83
BRANCH  70  94
ATOM     94  C   UNL A   1      45.770  28.456  29.263  1.00  0.00     0.023 A 
ATOM     95  C   UNL A   1      45.516  29.060  27.982  1.00  0.00     0.012 A 
ATOM     96  C   UNL A   1      46.486  27.226  29.107  1.00  0.00     0.148 A 
ATOM     97  C   UNL A   1      46.221  28.710  26.803  1.00  0.00     0.002 A 
ATOM     98  C   UNL A   1      47.275  26.936  27.982  1.00  0.00     0.091 A 
ATOM     99  F   UNL A   1      46.182  26.157  29.861  1.00  0.00    -0.205 F 
ATOM    100  C   UNL A   1      47.174  27.708  26.833  1.00  0.00     0.022 A 
BRANCH  98 101
ATOM    101  S   UNL A   1      48.594  25.684  27.988  1.00  0.00     0.127 S 
ATOM    102  O   UNL A   1      49.563  26.267  27.058  1.00  0.00    -0.237 OA
ATOM    103  O   UNL A   1      48.999  25.739  29.394  1.00  0.00    -0.237 OA
ATOM    104  O   UNL A   1      48.012  24.432  27.532  1.00  0.00    -0.744 OA
ENDBRANCH  98 101
ENDBRANCH  70  94
BRANCH  82 105
ATOM    105  C   UNL A   1      43.350  35.663  30.848  1.00  0.00     0.023 A 
ATOM    106  C   UNL A   1      43.892  36.585  31.757  1.00  0.00     0.012 A 
ATOM    107  C   UNL A   1      43.221  36.126  29.494  1.00  0.00     0.148 A 
ATOM    108  C   UNL A   1      44.234  37.896  31.375  1.00  0.00     0.002 A 
ATOM    109  C   UNL A   1      43.628  37.406  29.103  1.00  0.00     0.091 A 
ATOM    110  F   UNL A   1      42.680  35.327  28.564  1.00  0.00    -0.205 F 
ATOM    111  C   UNL A   1      44.114  38.304  30.050  1.00  0.00     0.022 A 
BRANCH 109 112
ATOM    112  S   UNL A   1      43.633  37.927  27.371  1.00  0.00     0.127 S 
ATOM    113  O   UNL A   1      44.579  36.983  26.779  1.00  0.00    -0.237 OA
ATOM    114  O   UNL A   1      42.240  37.722  26.970  1.00  0.00    -0.237 OA
ATOM    115  O   UNL A   1      44.050  39.322  27.389  1.00  0.00    -0.744 OA
ENDBRANCH 109 112
ENDBRANCH  82 105
ENDBRANCH  56  57
ENDBRANCH  49  51
ENDBRANCH  48  49
ENDBRANCH  47  48
ENDBRANCH  46  47
ENDBRANCH  45  46
ENDBRANCH   1  45
TORSDOF 23
ENDMDL
MODEL 3
REMARK VINA RESULT:     -12.7      2.241      3.408
REMARK SMILES Cc1ccc(S(=O)(=O)n2cc(C(=O)C(=O)N[C@H](Cc3c[nH]c4ccccc34)C(=O)NCC(=O)OCCOC(=O)c3ccc(-c4c5nc(c(-c6cccc(S(=O)(=O)[O-])c6F)c6ccc([nH]6)c(-c6cccc(S(=O)(=O)[O-])c6F)c6nc(c(-c7cccc(S(=O)(=O)[O-])c7F)c7ccc4[nH]7)C=C6)C=C5)cc3)c3ccccc32)cc1
REMARK SMILES IDX 32 1 33 2 31 3 30 4 28 5 29 6 17 8 16 9 14 10 15 11 12 13
REMARK SMILES IDX 13 14 11 15 9 16 10 17 108 18 103 19 107 20 104 21 106 22
REMARK SMILES IDX 105 23 6 24 7 25 8 26 5 27 1 28 2 29 3 30 110 31 4 32 109 33
REMARK SMILES IDX 18 34 19 35 20 36 27 37 21 38 22 39 26 40 23 42 25 43 24 44
REMARK SMILES IDX 34 45 35 46 36 47 37 48 38 49 39 50 40 51 41 52 102 53 42 54
REMARK SMILES IDX 101 55 43 56 44 57 45 58 95 59 46 60 100 61 94 62 96 63
REMARK SMILES IDX 47 64 99 65 93 66 92 67 48 69 80 70 60 71 79 72 61 73 64 74
REMARK SMILES IDX 78 75 97 76 62 77 63 78 77 80 98 81 65 82 49 83 50 84 58 85
REMARK SMILES IDX 51 86 53 87 59 88 52 89 54 90 55 91 56 92 57 93 81 94 82 95
REMARK SMILES IDX 90 96 83 97 85 98 91 99 84 100 86 101 87 102 88 103 89 104
REMARK SMILES IDX 66 105 67 106 75 107 68 108 70 109 76 110 69 111 71 112
REMARK SMILES IDX 72 113 73 114 74 115
REMARK H PARENT 30 7 16 12 21 41 96 68 64 79
REMARK Flexibility Score: inf
ROOT
ATOM      1  C   UNL A   1      36.156  22.870  25.580  1.00  0.00     0.325 C 
ATOM      2  O   UNL A   1      36.304  24.037  25.254  1.00  0.00    -0.250 OA
ENDROOT
BRANCH   1   3
ATOM      3  C   UNL A   1      35.379  22.341  26.846  1.00  0.00     0.238 C 
BRANCH   3   4
ATOM      4  N   UNL A   1      34.271  22.839  27.646  1.00  0.00    -0.343 N 
ATOM      5  C   UNL A   1      32.923  22.627  27.381  1.00  0.00     0.243 C 
ATOM      6  O   UNL A   1      32.225  22.361  28.371  1.00  0.00    -0.273 OA
ATOM      7  H   UNL A   1      34.495  23.371  28.444  1.00  0.00     0.164 HD
BRANCH   5   8
ATOM      8  C   UNL A   1      32.194  22.938  25.999  1.00  0.00     0.176 C 
BRANCH   8   9
ATOM      9  N   UNL A   1      31.180  24.138  25.692  1.00  0.00    -0.337 N 
ATOM     10  C   UNL A   1      30.648  25.408  26.061  1.00  0.00     0.293 C 
ATOM     11  O   UNL A   1      29.487  25.593  25.669  1.00  0.00    -0.265 OA
ATOM     12  H   UNL A   1      30.704  23.880  24.870  1.00  0.00     0.164 HD
BRANCH  10  13
ATOM     13  C   UNL A   1      31.366  26.656  26.723  1.00  0.00     0.252 C 
ATOM     14  O   UNL A   1      31.601  26.506  27.921  1.00  0.00    -0.283 OA
BRANCH  13  15
ATOM     15  C   UNL A   1      31.776  27.903  25.952  1.00  0.00     0.054 A 
ATOM     16  N   UNL A   1      31.402  29.668  24.447  1.00  0.00    -0.240 N 
ATOM     17  C   UNL A   1      30.803  28.614  25.200  1.00  0.00     0.117 A 
ATOM     18  C   UNL A   1      32.222  30.241  25.515  1.00  0.00     0.065 A 
ATOM     19  C   UNL A   1      33.135  28.769  25.872  1.00  0.00     0.012 A 
ATOM     20  C   UNL A   1      32.405  31.760  26.610  1.00  0.00     0.028 A 
ATOM     21  C   UNL A   1      34.602  28.914  26.999  1.00  0.00     0.011 A 
ATOM     22  C   UNL A   1      33.729  31.849  27.946  1.00  0.00     0.002 A 
ATOM     23  C   UNL A   1      34.935  30.466  28.020  1.00  0.00     0.001 A 
BRANCH  16  24
ATOM     24  S   UNL A   1      32.084  28.714  22.815  1.00  0.00     0.268 S 
ATOM     25  O   UNL A   1      33.388  29.348  22.661  1.00  0.00    -0.201 OA
ATOM     26  O   UNL A   1      31.009  28.994  21.912  1.00  0.00    -0.201 OA
BRANCH  24  27
ATOM     27  C   UNL A   1      32.479  26.907  22.542  1.00  0.00     0.088 A 
ATOM     28  C   UNL A   1      33.217  22.644  21.875  1.00  0.00     0.044 C 
ATOM     29  C   UNL A   1      33.203  24.140  21.978  1.00  0.00    -0.051 A 
ATOM     30  C   UNL A   1      32.506  24.872  21.050  1.00  0.00     0.005 A 
ATOM     31  C   UNL A   1      33.762  24.863  23.042  1.00  0.00     0.005 A 
ATOM     32  C   UNL A   1      32.218  26.221  21.341  1.00  0.00     0.022 A 
ATOM     33  C   UNL A   1      33.431  26.235  23.300  1.00  0.00     0.022 A 
ENDBRANCH  24  27
ENDBRANCH  16  24
ENDBRANCH  13  15
ENDBRANCH  10  13
ENDBRANCH   8   9
BRANCH   8  34
ATOM     34  C   UNL A   1      31.984  21.792  25.009  1.00  0.00     0.072 C 
BRANCH  34  35
ATOM     35  C   UNL A   1      32.415  20.376  25.182  1.00  0.00    -0.020 A 
ATOM     36  C   UNL A   1      32.678  19.802  26.419  1.00  0.00     0.087 A 
ATOM     37  C   UNL A   1      32.591  19.348  24.223  1.00  0.00     0.003 A 
ATOM     38  N   UNL A   1      33.239  18.579  26.215  1.00  0.00    -0.361 N 
ATOM     39  C   UNL A   1      33.212  18.280  24.878  1.00  0.00     0.046 A 
ATOM     40  C   UNL A   1      32.319  19.237  22.851  1.00  0.00     0.010 A 
ATOM     41  H   UNL A   1      33.609  18.000  26.921  1.00  0.00     0.166 HD
ATOM     42  C   UNL A   1      33.670  17.146  24.207  1.00  0.00     0.026 A 
ATOM     43  C   UNL A   1      32.724  18.086  22.174  1.00  0.00     0.001 A 
ATOM     44  C   UNL A   1      33.413  17.072  22.837  1.00  0.00     0.002 A 
ENDBRANCH  34  35
ENDBRANCH   8  34
ENDBRANCH   5   8
ENDBRANCH   3   4
ENDBRANCH   1   3
BRANCH   1  45
ATOM     45  O   UNL A   1      36.878  21.846  25.031  1.00  0.00    -0.461 OA
BRANCH  45  46
ATOM     46  C   UNL A   1      38.320  21.681  25.161  1.00  0.00     0.274 C 
BRANCH  46  47
ATOM     47  C   UNL A   1      39.071  22.270  26.399  1.00  0.00     0.275 C 
BRANCH  47  48
ATOM     48  O   UNL A   1      39.843  23.493  26.320  1.00  0.00    -0.458 OA
BRANCH  48  49
ATOM     49  C   UNL A   1      40.551  23.927  27.391  1.00  0.00     0.338 C 
ATOM     50  O   UNL A   1      41.176  23.214  28.152  1.00  0.00    -0.246 OA
BRANCH  49  51
ATOM     51  C   UNL A   1      40.299  25.371  27.560  1.00  0.00     0.060 A 
ATOM     52  C   UNL A   1      40.720  26.320  26.667  1.00  0.00     0.016 A 
ATOM     53  C   UNL A   1      39.492  25.823  28.619  1.00  0.00     0.016 A 
ATOM     54  C   UNL A   1      40.456  27.647  27.033  1.00  0.00     0.010 A 
ATOM     55  C   UNL A   1      39.107  27.150  28.838  1.00  0.00     0.010 A 
ATOM     56  C   UNL A   1      39.972  28.071  28.299  1.00  0.00    -0.014 A 
BRANCH  56  57
ATOM     57  C   UNL A   1      40.951  28.931  29.562  1.00  0.00     0.031 A 
ATOM     58  C   UNL A   1      39.791  30.322  29.687  1.00  0.00     0.074 A 
ATOM     59  C   UNL A   1      42.523  28.523  30.524  1.00  0.00     0.049 A 
ATOM     60  N   UNL A   1      39.996  31.518  30.180  1.00  0.00    -0.248 NA
ATOM     61  C   UNL A   1      38.435  30.321  29.172  1.00  0.00     0.031 C 
ATOM     62  C   UNL A   1      42.920  28.689  32.257  1.00  0.00     0.029 A 
ATOM     63  N   UNL A   1      43.677  27.580  30.484  1.00  0.00    -0.354 N 
ATOM     64  C   UNL A   1      38.784  32.054  30.552  1.00  0.00     0.074 A 
ATOM     65  C   UNL A   1      37.864  31.423  29.671  1.00  0.00     0.031 C 
ATOM     66  C   UNL A   1      44.111  28.196  32.582  1.00  0.00     0.029 A 
ATOM     67  C   UNL A   1      44.715  27.858  31.358  1.00  0.00     0.049 A 
ATOM     68  H   UNL A   1      43.700  26.809  29.873  1.00  0.00     0.167 HD
ATOM     69  C   UNL A   1      38.686  32.812  31.683  1.00  0.00     0.034 A 
ATOM     70  C   UNL A   1      45.789  28.497  30.846  1.00  0.00     0.034 A 
ATOM     71  C   UNL A   1      39.988  32.872  32.397  1.00  0.00     0.049 A 
ATOM     72  C   UNL A   1      45.516  30.115  31.393  1.00  0.00     0.074 A 
ATOM     73  C   UNL A   1      40.405  32.388  33.630  1.00  0.00     0.029 A 
ATOM     74  N   UNL A   1      41.155  33.265  31.730  1.00  0.00    -0.354 N 
ATOM     75  N   UNL A   1      44.401  30.844  31.410  1.00  0.00    -0.248 NA
ATOM     76  C   UNL A   1      46.530  30.912  32.129  1.00  0.00     0.031 C 
ATOM     77  C   UNL A   1      41.829  32.399  33.657  1.00  0.00     0.029 A 
ATOM     78  C   UNL A   1      42.295  32.866  32.433  1.00  0.00     0.049 A 
ATOM     79  H   UNL A   1      41.171  33.759  30.878  1.00  0.00     0.167 HD
ATOM     80  C   UNL A   1      44.584  32.151  31.896  1.00  0.00     0.074 A 
ATOM     81  C   UNL A   1      45.990  32.148  32.230  1.00  0.00     0.031 C 
ATOM     82  C   UNL A   1      43.647  33.183  31.976  1.00  0.00     0.034 A 
BRANCH  69  83
ATOM     83  C   UNL A   1      37.388  33.292  32.348  1.00  0.00     0.023 A 
ATOM     84  C   UNL A   1      37.280  33.082  33.744  1.00  0.00     0.012 A 
ATOM     85  C   UNL A   1      36.261  33.908  31.744  1.00  0.00     0.148 A 
ATOM     86  C   UNL A   1      36.125  33.371  34.479  1.00  0.00     0.002 A 
ATOM     87  C   UNL A   1      35.109  34.225  32.482  1.00  0.00     0.091 A 
ATOM     88  F   UNL A   1      36.270  34.203  30.445  1.00  0.00    -0.205 F 
ATOM     89  C   UNL A   1      35.033  33.937  33.846  1.00  0.00     0.022 A 
BRANCH  87  90
ATOM     90  S   UNL A   1      33.656  35.014  31.757  1.00  0.00     0.127 S 
ATOM     91  O   UNL A   1      34.046  36.425  31.758  1.00  0.00    -0.237 OA
ATOM     92  O   UNL A   1      33.596  34.402  30.430  1.00  0.00    -0.237 OA
ATOM     93  O   UNL A   1      32.533  34.692  32.628  1.00  0.00    -0.744 OA
ENDBRANCH  87  90
ENDBRANCH  69  83
BRANCH  70  94
ATOM     94  C   UNL A   1      46.122  27.637  29.424  1.00  0.00     0.023 A 
ATOM     95  C   UNL A   1      46.333  26.228  29.626  1.00  0.00     0.012 A 
ATOM     96  C   UNL A   1      45.950  27.927  28.033  1.00  0.00     0.148 A 
ATOM     97  C   UNL A   1      46.005  25.246  28.658  1.00  0.00     0.002 A 
ATOM     98  C   UNL A   1      45.515  26.971  27.100  1.00  0.00     0.091 A 
ATOM     99  F   UNL A   1      46.506  29.020  27.488  1.00  0.00    -0.205 F 
ATOM    100  C   UNL A   1      45.502  25.622  27.426  1.00  0.00     0.022 A 
BRANCH  98 101
ATOM    101  S   UNL A   1      44.774  27.411  25.498  1.00  0.00     0.127 S 
ATOM    102  O   UNL A   1      44.301  26.110  25.021  1.00  0.00    -0.237 OA
ATOM    103  O   UNL A   1      43.711  28.314  25.941  1.00  0.00    -0.237 OA
ATOM    104  O   UNL A   1      45.821  27.999  24.678  1.00  0.00    -0.744 OA
ENDBRANCH  98 101
ENDBRANCH  70  94
BRANCH  82 105
ATOM    105  C   UNL A   1      43.925  34.698  31.793  1.00  0.00     0.023 A 
ATOM    106  C   UNL A   1      44.129  35.237  30.513  1.00  0.00     0.012 A 
ATOM    107  C   UNL A   1      43.745  35.655  32.850  1.00  0.00     0.148 A 
ATOM    108  C   UNL A   1      44.207  36.625  30.292  1.00  0.00     0.002 A 
ATOM    109  C   UNL A   1      43.751  37.034  32.614  1.00  0.00     0.091 A 
ATOM    110  F   UNL A   1      43.581  35.235  34.111  1.00  0.00    -0.205 F 
ATOM    111  C   UNL A   1      44.007  37.523  31.336  1.00  0.00     0.022 A 
BRANCH 109 112
ATOM    112  S   UNL A   1      43.348  38.233  33.907  1.00  0.00     0.127 S 
ATOM    113  O   UNL A   1      44.598  38.289  34.661  1.00  0.00    -0.237 OA
ATOM    114  O   UNL A   1      43.048  39.444  33.140  1.00  0.00    -0.237 OA
ATOM    115  O   UNL A   1      42.202  37.673  34.609  1.00  0.00    -0.744 OA
ENDBRANCH 109 112
ENDBRANCH  82 105
ENDBRANCH  56  57
ENDBRANCH  49  51
ENDBRANCH  48  49
ENDBRANCH  47  48
ENDBRANCH  46  47
ENDBRANCH  45  46
ENDBRANCH   1  45
TORSDOF 23
ENDMDL
