MODEL 1
REMARK VINA RESULT:     -13.0      0.000      0.000
REMARK SMILES Nc1nc(N2CCCCC2)nc2c1[C@H](C(=O)OCCOC(=O)c1ccc(-c3c4nc(c(-c5cccc(S(=O)(=O)[O-])c5F)c5ccc([nH]5)c(-c5cccc(S(=O)(=O)[O-])c5F)c5nc(c(-c6cccc(S(=O)(=O)[O-])c6F)c6ccc3[nH]6)C=C5)C=C4)cc1)CC(=O)N2
REMARK SMILES IDX 19 1 18 2 17 3 15 4 16 5 14 6 2 7 3 8 13 9 4 10 12 11 11 12
REMARK SMILES IDX 89 13 86 14 87 15 88 17 1 18 5 21 6 22 10 23 7 24 9 25 8 26
REMARK SMILES IDX 20 27 21 28 22 29 23 30 24 31 85 32 25 33 84 34 26 35 27 36
REMARK SMILES IDX 28 37 78 38 29 39 83 40 77 41 79 42 30 43 82 44 76 45 75 46
REMARK SMILES IDX 31 48 63 49 43 50 62 51 44 52 47 53 61 54 80 55 45 56 46 57
REMARK SMILES IDX 60 59 81 60 48 61 32 62 33 63 41 64 34 65 36 66 42 67 35 68
REMARK SMILES IDX 37 69 38 70 39 71 40 72 64 73 65 74 73 75 66 76 68 77 74 78
REMARK SMILES IDX 67 79 69 80 70 81 71 82 72 83 49 84 50 85 58 86 51 87 53 88
REMARK SMILES IDX 59 89 52 90 54 91 55 92 56 93 57 94
REMARK H PARENT 89 16 1 19 1 20 79 47 47 58
REMARK Flexibility Score: inf
ROOT
ATOM      1  C   UNL A   1      31.647  29.037  26.003  1.00  0.00     0.275 C 
ENDROOT
BRANCH   1   2
ATOM      2  C   UNL A   1      32.150  27.608  25.842  1.00  0.00     0.274 C 
BRANCH   2   3
ATOM      3  O   UNL A   1      31.050  26.700  25.619  1.00  0.00    -0.462 OA
BRANCH   3   4
ATOM      4  C   UNL A   1      31.320  25.569  24.913  1.00  0.00     0.314 C 
ATOM      5  O   UNL A   1      31.971  24.617  25.329  1.00  0.00    -0.252 OA
BRANCH   4   6
ATOM      6  C   UNL A   1      30.756  25.619  23.507  1.00  0.00     0.146 C 
ATOM      7  C   UNL A   1      28.873  27.324  23.480  1.00  0.00     0.135 A 
ATOM      8  N   UNL A   1      28.383  28.515  23.140  1.00  0.00    -0.196 NA
ATOM      9  C   UNL A   1      30.152  26.941  23.154  1.00  0.00     0.052 A 
ATOM     10  C   UNL A   1      29.170  29.371  22.476  1.00  0.00     0.229 A 
ATOM     11  C   UNL A   1      30.880  27.878  22.456  1.00  0.00     0.144 A 
ATOM     12  N   UNL A   1      30.428  29.093  22.118  1.00  0.00    -0.195 NA
ATOM     13  N   UNL A   1      32.162  27.556  22.023  1.00  0.00    -0.310 N 
ATOM     14  C   UNL A   1      31.810  25.179  22.502  1.00  0.00     0.120 C 
ATOM     15  C   UNL A   1      32.718  26.311  22.080  1.00  0.00     0.226 C 
ATOM     16  H   UNL A   1      32.713  28.281  21.648  1.00  0.00     0.171 HD
ATOM     17  O   UNL A   1      33.870  26.105  21.705  1.00  0.00    -0.275 OA
BRANCH   7  18
ATOM     18  N   UNL A   1      27.969  26.464  24.066  1.00  0.00    -0.383 N 
ATOM     19  H   UNL A   1      27.112  26.808  24.406  1.00  0.00     0.158 HD
ATOM     20  H   UNL A   1      28.181  25.505  24.146  1.00  0.00     0.158 HD
ENDBRANCH   7  18
BRANCH  10  21
ATOM     21  N   UNL A   1      28.581  30.530  22.057  1.00  0.00    -0.341 N 
ATOM     22  C   UNL A   1      27.853  30.547  20.807  1.00  0.00     0.119 C 
ATOM     23  C   UNL A   1      28.290  31.543  23.046  1.00  0.00     0.119 C 
ATOM     24  C   UNL A   1      28.074  31.907  20.140  1.00  0.00     0.022 C 
ATOM     25  C   UNL A   1      28.545  32.912  22.415  1.00  0.00     0.022 C 
ATOM     26  C   UNL A   1      27.784  33.069  21.097  1.00  0.00     0.004 C 
ENDBRANCH  10  21
ENDBRANCH   4   6
ENDBRANCH   3   4
ENDBRANCH   2   3
ENDBRANCH   1   2
BRANCH   1  27
ATOM     27  O   UNL A   1      32.737  29.937  25.761  1.00  0.00    -0.458 OA
BRANCH  27  28
ATOM     28  C   UNL A   1      32.980  30.856  26.721  1.00  0.00     0.338 C 
ATOM     29  O   UNL A   1      32.232  31.754  27.083  1.00  0.00    -0.246 OA
BRANCH  28  30
ATOM     30  C   UNL A   1      34.317  30.622  27.301  1.00  0.00     0.060 A 
ATOM     31  C   UNL A   1      34.806  29.325  27.463  1.00  0.00     0.016 A 
ATOM     32  C   UNL A   1      35.059  31.707  27.766  1.00  0.00     0.016 A 
ATOM     33  C   UNL A   1      35.985  29.107  28.176  1.00  0.00     0.010 A 
ATOM     34  C   UNL A   1      36.289  31.489  28.398  1.00  0.00     0.010 A 
ATOM     35  C   UNL A   1      36.746  30.184  28.652  1.00  0.00    -0.014 A 
BRANCH  35  36
ATOM     36  C   UNL A   1      37.981  29.956  29.460  1.00  0.00     0.031 A 
ATOM     37  C   UNL A   1      39.132  29.175  28.875  1.00  0.00     0.074 A 
ATOM     38  C   UNL A   1      38.091  30.447  30.713  1.00  0.00     0.049 A 
ATOM     39  N   UNL A   1      40.184  28.682  29.477  1.00  0.00    -0.248 NA
ATOM     40  C   UNL A   1      39.085  28.893  27.430  1.00  0.00     0.031 C 
ATOM     41  C   UNL A   1      37.079  31.250  31.399  1.00  0.00     0.029 A 
ATOM     42  N   UNL A   1      39.111  30.351  31.628  1.00  0.00    -0.354 N 
ATOM     43  C   UNL A   1      40.871  27.957  28.510  1.00  0.00     0.074 A 
ATOM     44  C   UNL A   1      40.127  28.087  27.276  1.00  0.00     0.031 C 
ATOM     45  C   UNL A   1      37.552  31.628  32.596  1.00  0.00     0.029 A 
ATOM     46  C   UNL A   1      38.859  31.013  32.808  1.00  0.00     0.049 A 
ATOM     47  H   UNL A   1      39.945  29.856  31.456  1.00  0.00     0.167 HD
ATOM     48  C   UNL A   1      42.025  27.260  28.636  1.00  0.00     0.034 A 
ATOM     49  C   UNL A   1      39.578  31.096  33.946  1.00  0.00     0.034 A 
ATOM     50  C   UNL A   1      42.824  27.226  29.833  1.00  0.00     0.049 A 
ATOM     51  C   UNL A   1      40.873  30.339  34.052  1.00  0.00     0.074 A 
ATOM     52  C   UNL A   1      44.013  26.552  30.054  1.00  0.00     0.029 A 
ATOM     53  N   UNL A   1      42.541  27.927  30.994  1.00  0.00    -0.354 N 
ATOM     54  N   UNL A   1      41.487  29.625  33.139  1.00  0.00    -0.248 NA
ATOM     55  C   UNL A   1      41.568  30.386  35.347  1.00  0.00     0.031 C 
ATOM     56  C   UNL A   1      44.456  26.856  31.345  1.00  0.00     0.029 A 
ATOM     57  C   UNL A   1      43.541  27.719  31.929  1.00  0.00     0.049 A 
ATOM     58  H   UNL A   1      41.745  28.490  31.135  1.00  0.00     0.167 HD
ATOM     59  C   UNL A   1      42.637  29.138  33.748  1.00  0.00     0.074 A 
ATOM     60  C   UNL A   1      42.658  29.672  35.094  1.00  0.00     0.031 C 
ATOM     61  C   UNL A   1      43.572  28.294  33.247  1.00  0.00     0.034 A 
BRANCH  48  62
ATOM     62  C   UNL A   1      42.530  26.503  27.436  1.00  0.00     0.023 A 
ATOM     63  C   UNL A   1      43.397  27.140  26.528  1.00  0.00     0.012 A 
ATOM     64  C   UNL A   1      42.221  25.139  27.259  1.00  0.00     0.148 A 
ATOM     65  C   UNL A   1      43.936  26.437  25.450  1.00  0.00     0.002 A 
ATOM     66  C   UNL A   1      42.793  24.435  26.206  1.00  0.00     0.091 A 
ATOM     67  F   UNL A   1      41.375  24.558  28.122  1.00  0.00    -0.205 F 
ATOM     68  C   UNL A   1      43.644  25.083  25.297  1.00  0.00     0.022 A 
BRANCH  66  69
ATOM     69  S   UNL A   1      42.540  22.670  25.973  1.00  0.00     0.127 S 
ATOM     70  O   UNL A   1      43.234  22.436  24.709  1.00  0.00    -0.237 OA
ATOM     71  O   UNL A   1      43.204  22.103  27.148  1.00  0.00    -0.237 OA
ATOM     72  O   UNL A   1      41.096  22.475  25.943  1.00  0.00    -0.744 OA
ENDBRANCH  66  69
ENDBRANCH  48  62
BRANCH  49  73
ATOM     73  C   UNL A   1      39.097  31.962  35.062  1.00  0.00     0.023 A 
ATOM     74  C   UNL A   1      38.221  31.418  36.020  1.00  0.00     0.012 A 
ATOM     75  C   UNL A   1      39.559  33.281  35.230  1.00  0.00     0.148 A 
ATOM     76  C   UNL A   1      37.817  32.168  37.125  1.00  0.00     0.002 A 
ATOM     77  C   UNL A   1      39.210  33.998  36.370  1.00  0.00     0.091 A 
ATOM     78  F   UNL A   1      40.361  33.802  34.290  1.00  0.00    -0.205 F 
ATOM     79  C   UNL A   1      38.328  33.451  37.311  1.00  0.00     0.022 A 
BRANCH  77  80
ATOM     80  S   UNL A   1      39.981  35.575  36.760  1.00  0.00     0.127 S 
ATOM     81  O   UNL A   1      39.425  35.864  38.079  1.00  0.00    -0.237 OA
ATOM     82  O   UNL A   1      41.405  35.236  36.752  1.00  0.00    -0.237 OA
ATOM     83  O   UNL A   1      39.581  36.470  35.683  1.00  0.00    -0.744 OA
ENDBRANCH  77  80
ENDBRANCH  49  73
BRANCH  61  84
ATOM     84  C   UNL A   1      44.696  27.877  34.157  1.00  0.00     0.023 A 
ATOM     85  C   UNL A   1      45.863  28.665  34.205  1.00  0.00     0.012 A 
ATOM     86  C   UNL A   1      44.565  26.779  35.027  1.00  0.00     0.148 A 
ATOM     87  C   UNL A   1      46.891  28.356  35.095  1.00  0.00     0.002 A 
ATOM     88  C   UNL A   1      45.578  26.497  35.937  1.00  0.00     0.091 A 
ATOM     89  F   UNL A   1      43.454  26.030  34.951  1.00  0.00    -0.205 F 
ATOM     90  C   UNL A   1      46.743  27.281  35.968  1.00  0.00     0.022 A 
BRANCH  88  91
ATOM     91  S   UNL A   1      45.438  25.181  37.152  1.00  0.00     0.127 S 
ATOM     92  O   UNL A   1      46.721  25.277  37.845  1.00  0.00    -0.237 OA
ATOM     93  O   UNL A   1      44.283  25.606  37.944  1.00  0.00    -0.237 OA
ATOM     94  O   UNL A   1      45.226  23.958  36.389  1.00  0.00    -0.744 OA
ENDBRANCH  88  91
ENDBRANCH  61  84
ENDBRANCH  35  36
ENDBRANCH  28  30
ENDBRANCH  27  28
ENDBRANCH   1  27
TORSDOF 16
ENDMDL
MODEL 2
REMARK VINA RESULT:     -12.6      4.743      9.510
REMARK SMILES Nc1nc(N2CCCCC2)nc2c1[C@H](C(=O)OCCOC(=O)c1ccc(-c3c4nc(c(-c5cccc(S(=O)(=O)[O-])c5F)c5ccc([nH]5)c(-c5cccc(S(=O)(=O)[O-])c5F)c5nc(c(-c6cccc(S(=O)(=O)[O-])c6F)c6ccc3[nH]6)C=C5)C=C4)cc1)CC(=O)N2
REMARK SMILES IDX 19 1 18 2 17 3 15 4 16 5 14 6 2 7 3 8 13 9 4 10 12 11 11 12
REMARK SMILES IDX 89 13 86 14 87 15 88 17 1 18 5 21 6 22 10 23 7 24 9 25 8 26
REMARK SMILES IDX 20 27 21 28 22 29 23 30 24 31 85 32 25 33 84 34 26 35 27 36
REMARK SMILES IDX 28 37 78 38 29 39 83 40 77 41 79 42 30 43 82 44 76 45 75 46
REMARK SMILES IDX 31 48 63 49 43 50 62 51 44 52 47 53 61 54 80 55 45 56 46 57
REMARK SMILES IDX 60 59 81 60 48 61 32 62 33 63 41 64 34 65 36 66 42 67 35 68
REMARK SMILES IDX 37 69 38 70 39 71 40 72 64 73 65 74 73 75 66 76 68 77 74 78
REMARK SMILES IDX 67 79 69 80 70 81 71 82 72 83 49 84 50 85 58 86 51 87 53 88
REMARK SMILES IDX 59 89 52 90 54 91 55 92 56 93 57 94
REMARK H PARENT 89 16 1 19 1 20 79 47 47 58
REMARK Flexibility Score: inf
ROOT
ATOM      1  C   UNL A   1      35.801  20.790  24.953  1.00  0.00     0.275 C 
ENDROOT
BRANCH   1   2
ATOM      2  C   UNL A   1      34.525  21.553  24.616  1.00  0.00     0.274 C 
BRANCH   2   3
ATOM      3  O   UNL A   1      34.234  22.536  25.634  1.00  0.00    -0.462 OA
BRANCH   3   4
ATOM      4  C   UNL A   1      33.888  23.780  25.204  1.00  0.00     0.314 C 
ATOM      5  O   UNL A   1      34.352  24.338  24.217  1.00  0.00    -0.252 OA
BRANCH   4   6
ATOM      6  C   UNL A   1      32.875  24.443  26.116  1.00  0.00     0.146 C 
ATOM      7  C   UNL A   1      32.427  26.777  25.221  1.00  0.00     0.135 A 
ATOM      8  N   UNL A   1      31.642  27.659  24.601  1.00  0.00    -0.196 NA
ATOM      9  C   UNL A   1      32.039  25.474  25.428  1.00  0.00     0.052 A 
ATOM     10  C   UNL A   1      30.448  27.254  24.152  1.00  0.00     0.229 A 
ATOM     11  C   UNL A   1      30.789  25.156  24.948  1.00  0.00     0.144 A 
ATOM     12  N   UNL A   1      29.984  26.009  24.301  1.00  0.00    -0.195 NA
ATOM     13  N   UNL A   1      30.283  23.879  25.169  1.00  0.00    -0.310 N 
ATOM     14  C   UNL A   1      32.029  23.389  26.816  1.00  0.00     0.120 C 
ATOM     15  C   UNL A   1      30.851  22.943  25.982  1.00  0.00     0.226 C 
ATOM     16  H   UNL A   1      29.451  23.632  24.704  1.00  0.00     0.171 HD
ATOM     17  O   UNL A   1      30.362  21.822  26.109  1.00  0.00    -0.275 OA
BRANCH   7  18
ATOM     18  N   UNL A   1      33.591  27.296  25.745  1.00  0.00    -0.383 N 
ATOM     19  H   UNL A   1      33.684  28.268  25.871  1.00  0.00     0.158 HD
ATOM     20  H   UNL A   1      34.331  26.695  25.993  1.00  0.00     0.158 HD
ENDBRANCH   7  18
BRANCH  10  21
ATOM     21  N   UNL A   1      29.643  28.224  23.626  1.00  0.00    -0.341 N 
ATOM     22  C   UNL A   1      30.226  29.477  23.196  1.00  0.00     0.119 C 
ATOM     23  C   UNL A   1      28.364  27.829  23.081  1.00  0.00     0.119 C 
ATOM     24  C   UNL A   1      29.234  30.601  23.506  1.00  0.00     0.022 C 
ATOM     25  C   UNL A   1      27.345  28.918  23.415  1.00  0.00     0.022 C 
ATOM     26  C   UNL A   1      27.834  30.297  22.962  1.00  0.00     0.004 C 
ENDBRANCH  10  21
ENDBRANCH   4   6
ENDBRANCH   3   4
ENDBRANCH   2   3
ENDBRANCH   1   2
BRANCH   1  27
ATOM     27  O   UNL A   1      36.619  21.614  25.794  1.00  0.00    -0.458 OA
BRANCH  27  28
ATOM     28  C   UNL A   1      37.954  21.430  25.699  1.00  0.00     0.338 C 
ATOM     29  O   UNL A   1      38.529  20.477  25.190  1.00  0.00    -0.246 OA
BRANCH  28  30
ATOM     30  C   UNL A   1      38.655  22.577  26.308  1.00  0.00     0.060 A 
ATOM     31  C   UNL A   1      38.140  23.869  26.194  1.00  0.00     0.016 A 
ATOM     32  C   UNL A   1      39.886  22.373  26.932  1.00  0.00     0.016 A 
ATOM     33  C   UNL A   1      38.899  24.963  26.612  1.00  0.00     0.010 A 
ATOM     34  C   UNL A   1      40.600  23.466  27.435  1.00  0.00     0.010 A 
ATOM     35  C   UNL A   1      40.138  24.779  27.241  1.00  0.00    -0.014 A 
BRANCH  35  36
ATOM     36  C   UNL A   1      40.977  25.947  27.643  1.00  0.00     0.031 A 
ATOM     37  C   UNL A   1      40.404  27.013  28.544  1.00  0.00     0.074 A 
ATOM     38  C   UNL A   1      42.253  26.063  27.219  1.00  0.00     0.049 A 
ATOM     39  N   UNL A   1      40.881  28.198  28.824  1.00  0.00    -0.248 NA
ATOM     40  C   UNL A   1      39.117  26.718  29.197  1.00  0.00     0.031 C 
ATOM     41  C   UNL A   1      42.957  25.097  26.376  1.00  0.00     0.029 A 
ATOM     42  N   UNL A   1      43.190  27.041  27.450  1.00  0.00    -0.354 N 
ATOM     43  C   UNL A   1      39.915  28.823  29.606  1.00  0.00     0.074 A 
ATOM     44  C   UNL A   1      38.831  27.880  29.771  1.00  0.00     0.031 C 
ATOM     45  C   UNL A   1      44.228  25.494  26.214  1.00  0.00     0.029 A 
ATOM     46  C   UNL A   1      44.407  26.793  26.856  1.00  0.00     0.049 A 
ATOM     47  H   UNL A   1      43.009  27.844  27.990  1.00  0.00     0.167 HD
ATOM     48  C   UNL A   1      39.938  30.063  30.149  1.00  0.00     0.034 A 
ATOM     49  C   UNL A   1      45.533  27.533  26.803  1.00  0.00     0.034 A 
ATOM     50  C   UNL A   1      41.065  30.956  30.082  1.00  0.00     0.049 A 
ATOM     51  C   UNL A   1      45.545  28.894  27.442  1.00  0.00     0.074 A 
ATOM     52  C   UNL A   1      41.184  32.230  30.609  1.00  0.00     0.029 A 
ATOM     53  N   UNL A   1      42.280  30.653  29.490  1.00  0.00    -0.354 N 
ATOM     54  N   UNL A   1      44.607  29.484  28.143  1.00  0.00    -0.248 NA
ATOM     55  C   UNL A   1      46.765  29.698  27.273  1.00  0.00     0.031 C 
ATOM     56  C   UNL A   1      42.477  32.695  30.345  1.00  0.00     0.029 A 
ATOM     57  C   UNL A   1      43.162  31.709  29.653  1.00  0.00     0.049 A 
ATOM     58  H   UNL A   1      42.486  29.813  29.020  1.00  0.00     0.167 HD
ATOM     59  C   UNL A   1      45.120  30.726  28.496  1.00  0.00     0.074 A 
ATOM     60  C   UNL A   1      46.468  30.789  27.969  1.00  0.00     0.031 C 
ATOM     61  C   UNL A   1      44.515  31.738  29.165  1.00  0.00     0.034 A 
BRANCH  48  62
ATOM     62  C   UNL A   1      38.723  30.525  30.910  1.00  0.00     0.023 A 
ATOM     63  C   UNL A   1      38.688  30.391  32.311  1.00  0.00     0.012 A 
ATOM     64  C   UNL A   1      37.661  31.174  30.249  1.00  0.00     0.148 A 
ATOM     65  C   UNL A   1      37.606  30.879  33.044  1.00  0.00     0.002 A 
ATOM     66  C   UNL A   1      36.604  31.693  30.989  1.00  0.00     0.091 A 
ATOM     67  F   UNL A   1      37.702  31.271  28.912  1.00  0.00    -0.205 F 
ATOM     68  C   UNL A   1      36.571  31.541  32.384  1.00  0.00     0.022 A 
BRANCH  66  69
ATOM     69  S   UNL A   1      35.267  32.630  30.238  1.00  0.00     0.127 S 
ATOM     70  O   UNL A   1      34.356  32.803  31.367  1.00  0.00    -0.237 OA
ATOM     71  O   UNL A   1      35.946  33.854  29.810  1.00  0.00    -0.237 OA
ATOM     72  O   UNL A   1      34.765  31.805  29.147  1.00  0.00    -0.744 OA
ENDBRANCH  66  69
ENDBRANCH  48  62
BRANCH  49  73
ATOM     73  C   UNL A   1      46.752  26.977  26.147  1.00  0.00     0.023 A 
ATOM     74  C   UNL A   1      46.947  27.197  24.771  1.00  0.00     0.012 A 
ATOM     75  C   UNL A   1      47.753  26.312  26.881  1.00  0.00     0.148 A 
ATOM     76  C   UNL A   1      48.115  26.768  24.138  1.00  0.00     0.002 A 
ATOM     77  C   UNL A   1      48.944  25.951  26.261  1.00  0.00     0.091 A 
ATOM     78  F   UNL A   1      47.538  26.073  28.183  1.00  0.00    -0.205 F 
ATOM     79  C   UNL A   1      49.122  26.165  24.887  1.00  0.00     0.022 A 
BRANCH  77  80
ATOM     80  S   UNL A   1      50.348  25.345  27.205  1.00  0.00     0.127 S 
ATOM     81  O   UNL A   1      50.643  26.482  28.072  1.00  0.00    -0.237 OA
ATOM     82  O   UNL A   1      49.785  24.179  27.888  1.00  0.00    -0.237 OA
ATOM     83  O   UNL A   1      51.361  25.015  26.210  1.00  0.00    -0.744 OA
ENDBRANCH  77  80
ENDBRANCH  49  73
BRANCH  61  84
ATOM     84  C   UNL A   1      45.293  33.011  29.359  1.00  0.00     0.023 A 
ATOM     85  C   UNL A   1      46.102  33.148  30.504  1.00  0.00     0.012 A 
ATOM     86  C   UNL A   1      45.305  34.019  28.377  1.00  0.00     0.148 A 
ATOM     87  C   UNL A   1      46.900  34.278  30.677  1.00  0.00     0.002 A 
ATOM     88  C   UNL A   1      46.129  35.128  28.538  1.00  0.00     0.091 A 
ATOM     89  F   UNL A   1      44.512  33.877  27.304  1.00  0.00    -0.205 F 
ATOM     90  C   UNL A   1      46.922  35.261  29.690  1.00  0.00     0.022 A 
BRANCH  88  91
ATOM     91  S   UNL A   1      46.281  36.402  27.281  1.00  0.00     0.127 S 
ATOM     92  O   UNL A   1      44.921  36.935  27.231  1.00  0.00    -0.237 OA
ATOM     93  O   UNL A   1      47.270  37.307  27.869  1.00  0.00    -0.237 OA
ATOM     94  O   UNL A   1      46.734  35.718  26.077  1.00  0.00    -0.744 OA
ENDBRANCH  88  91
ENDBRANCH  61  84
ENDBRANCH  35  36
ENDBRANCH  28  30
ENDBRANCH  27  28
ENDBRANCH   1  27
TORSDOF 16
ENDMDL
MODEL 3
REMARK VINA RESULT:     -12.5      2.424      4.417
REMARK SMILES Nc1nc(N2CCCCC2)nc2c1[C@H](C(=O)OCCOC(=O)c1ccc(-c3c4nc(c(-c5cccc(S(=O)(=O)[O-])c5F)c5ccc([nH]5)c(-c5cccc(S(=O)(=O)[O-])c5F)c5nc(c(-c6cccc(S(=O)(=O)[O-])c6F)c6ccc3[nH]6)C=C5)C=C4)cc1)CC(=O)N2
REMARK SMILES IDX 19 1 18 2 17 3 15 4 16 5 14 6 2 7 3 8 13 9 4 10 12 11 11 12
REMARK SMILES IDX 89 13 86 14 87 15 88 17 1 18 5 21 6 22 10 23 7 24 9 25 8 26
REMARK SMILES IDX 20 27 21 28 22 29 23 30 24 31 85 32 25 33 84 34 26 35 27 36
REMARK SMILES IDX 28 37 78 38 29 39 83 40 77 41 79 42 30 43 82 44 76 45 75 46
REMARK SMILES IDX 31 48 63 49 43 50 62 51 44 52 47 53 61 54 80 55 45 56 46 57
REMARK SMILES IDX 60 59 81 60 48 61 32 62 33 63 41 64 34 65 36 66 42 67 35 68
REMARK SMILES IDX 37 69 38 70 39 71 40 72 64 73 65 74 73 75 66 76 68 77 74 78
REMARK SMILES IDX 67 79 69 80 70 81 71 82 72 83 49 84 50 85 58 86 51 87 53 88
REMARK SMILES IDX 59 89 52 90 54 91 55 92 56 93 57 94
REMARK H PARENT 89 16 1 19 1 20 79 47 47 58
REMARK Flexibility Score: inf
ROOT
ATOM      1  C   UNL A   1      32.039  29.630  25.280  1.00  0.00     0.275 C 
ENDROOT
BRANCH   1   2
ATOM      2  C   UNL A   1      31.415  28.247  25.140  1.00  0.00     0.274 C 
BRANCH   2   3
ATOM      3  O   UNL A   1      32.227  27.402  24.295  1.00  0.00    -0.462 OA
BRANCH   3   4
ATOM      4  C   UNL A   1      32.667  26.234  24.835  1.00  0.00     0.314 C 
ATOM      5  O   UNL A   1      32.346  25.802  25.936  1.00  0.00    -0.252 OA
BRANCH   4   6
ATOM      6  C   UNL A   1      33.653  25.518  23.934  1.00  0.00     0.146 C 
ATOM      7  C   UNL A   1      34.122  23.235  24.943  1.00  0.00     0.135 A 
ATOM      8  N   UNL A   1      33.986  21.909  24.944  1.00  0.00    -0.196 NA
ATOM      9  C   UNL A   1      33.536  24.028  23.986  1.00  0.00     0.052 A 
ATOM     10  C   UNL A   1      33.240  21.338  23.991  1.00  0.00     0.229 A 
ATOM     11  C   UNL A   1      32.804  23.350  23.037  1.00  0.00     0.144 A 
ATOM     12  N   UNL A   1      32.628  22.023  23.020  1.00  0.00    -0.195 NA
ATOM     13  N   UNL A   1      32.229  24.062  21.989  1.00  0.00    -0.310 N 
ATOM     14  C   UNL A   1      33.553  26.055  22.513  1.00  0.00     0.120 C 
ATOM     15  C   UNL A   1      32.468  25.376  21.712  1.00  0.00     0.226 C 
ATOM     16  H   UNL A   1      31.602  23.581  21.402  1.00  0.00     0.171 HD
ATOM     17  O   UNL A   1      31.901  25.949  20.783  1.00  0.00    -0.275 OA
BRANCH   7  18
ATOM     18  N   UNL A   1      34.988  23.736  25.892  1.00  0.00    -0.383 N 
ATOM     19  H   UNL A   1      34.907  24.670  26.190  1.00  0.00     0.158 HD
ATOM     20  H   UNL A   1      35.691  23.158  26.271  1.00  0.00     0.158 HD
ENDBRANCH   7  18
BRANCH  10  21
ATOM     21  N   UNL A   1      33.228  19.972  23.975  1.00  0.00    -0.341 N 
ATOM     22  C   UNL A   1      33.998  19.242  24.958  1.00  0.00     0.119 C 
ATOM     23  C   UNL A   1      32.122  19.307  23.324  1.00  0.00     0.119 C 
ATOM     24  C   UNL A   1      34.556  17.981  24.293  1.00  0.00     0.022 C 
ATOM     25  C   UNL A   1      32.662  18.065  22.615  1.00  0.00     0.022 C 
ATOM     26  C   UNL A   1      33.464  17.180  23.574  1.00  0.00     0.004 C 
ENDBRANCH  10  21
ENDBRANCH   4   6
ENDBRANCH   3   4
ENDBRANCH   2   3
ENDBRANCH   1   2
BRANCH   1  27
ATOM     27  O   UNL A   1      32.104  29.965  26.673  1.00  0.00    -0.458 OA
BRANCH  27  28
ATOM     28  C   UNL A   1      32.702  31.136  26.981  1.00  0.00     0.338 C 
ATOM     29  O   UNL A   1      32.230  32.258  26.847  1.00  0.00    -0.246 OA
BRANCH  28  30
ATOM     30  C   UNL A   1      34.047  30.875  27.527  1.00  0.00     0.060 A 
ATOM     31  C   UNL A   1      34.510  29.568  27.687  1.00  0.00     0.016 A 
ATOM     32  C   UNL A   1      34.828  31.946  27.963  1.00  0.00     0.016 A 
ATOM     33  C   UNL A   1      35.703  29.328  28.370  1.00  0.00     0.010 A 
ATOM     34  C   UNL A   1      36.068  31.703  28.563  1.00  0.00     0.010 A 
ATOM     35  C   UNL A   1      36.501  30.390  28.816  1.00  0.00    -0.014 A 
BRANCH  35  36
ATOM     36  C   UNL A   1      37.752  30.139  29.593  1.00  0.00     0.031 A 
ATOM     37  C   UNL A   1      38.875  29.342  28.977  1.00  0.00     0.074 A 
ATOM     38  C   UNL A   1      37.900  30.624  30.843  1.00  0.00     0.049 A 
ATOM     39  N   UNL A   1      39.933  28.830  29.551  1.00  0.00    -0.248 NA
ATOM     40  C   UNL A   1      38.788  29.066  27.533  1.00  0.00     0.031 C 
ATOM     41  C   UNL A   1      36.920  31.441  31.557  1.00  0.00     0.029 A 
ATOM     42  N   UNL A   1      38.941  30.508  31.733  1.00  0.00    -0.354 N 
ATOM     43  C   UNL A   1      40.585  28.097  28.566  1.00  0.00     0.074 A 
ATOM     44  C   UNL A   1      39.813  28.244  27.351  1.00  0.00     0.031 C 
ATOM     45  C   UNL A   1      37.428  31.807  32.743  1.00  0.00     0.029 A 
ATOM     46  C   UNL A   1      38.730  31.171  32.921  1.00  0.00     0.049 A 
ATOM     47  H   UNL A   1      39.762  30.001  31.539  1.00  0.00     0.167 HD
ATOM     48  C   UNL A   1      41.729  27.380  28.661  1.00  0.00     0.034 A 
ATOM     49  C   UNL A   1      39.477  31.238  34.041  1.00  0.00     0.034 A 
ATOM     50  C   UNL A   1      42.557  27.330  29.838  1.00  0.00     0.049 A 
ATOM     51  C   UNL A   1      40.762  30.460  34.113  1.00  0.00     0.074 A 
ATOM     52  C   UNL A   1      43.740  26.636  30.027  1.00  0.00     0.029 A 
ATOM     53  N   UNL A   1      42.314  28.031  31.008  1.00  0.00    -0.354 N 
ATOM     54  N   UNL A   1      41.342  29.739  33.183  1.00  0.00    -0.248 NA
ATOM     55  C   UNL A   1      41.490  30.491  35.390  1.00  0.00     0.031 C 
ATOM     56  C   UNL A   1      44.219  26.928  31.308  1.00  0.00     0.029 A 
ATOM     57  C   UNL A   1      43.333  27.803  31.916  1.00  0.00     0.049 A 
ATOM     58  H   UNL A   1      41.531  28.606  31.169  1.00  0.00     0.167 HD
ATOM     59  C   UNL A   1      42.498  29.231  33.762  1.00  0.00     0.074 A 
ATOM     60  C   UNL A   1      42.561  29.760  35.109  1.00  0.00     0.031 C 
ATOM     61  C   UNL A   1      43.406  28.373  33.236  1.00  0.00     0.034 A 
BRANCH  48  62
ATOM     62  C   UNL A   1      42.192  26.620  27.447  1.00  0.00     0.023 A 
ATOM     63  C   UNL A   1      42.953  27.279  26.462  1.00  0.00     0.012 A 
ATOM     64  C   UNL A   1      41.954  25.236  27.327  1.00  0.00     0.148 A 
ATOM     65  C   UNL A   1      43.455  26.577  25.366  1.00  0.00     0.002 A 
ATOM     66  C   UNL A   1      42.490  24.535  26.253  1.00  0.00     0.091 A 
ATOM     67  F   UNL A   1      41.207  24.631  28.263  1.00  0.00    -0.205 F 
ATOM     68  C   UNL A   1      43.235  25.204  25.268  1.00  0.00     0.022 A 
BRANCH  66  69
ATOM     69  S   UNL A   1      42.328  22.753  26.083  1.00  0.00     0.127 S 
ATOM     70  O   UNL A   1      40.876  22.589  26.057  1.00  0.00    -0.237 OA
ATOM     71  O   UNL A   1      42.992  22.500  24.804  1.00  0.00    -0.237 OA
ATOM     72  O   UNL A   1      43.004  22.179  27.239  1.00  0.00    -0.744 OA
ENDBRANCH  66  69
ENDBRANCH  48  62
BRANCH  49  73
ATOM     73  C   UNL A   1      39.038  32.108  35.171  1.00  0.00     0.023 A 
ATOM     74  C   UNL A   1      38.187  31.571  36.155  1.00  0.00     0.012 A 
ATOM     75  C   UNL A   1      39.517  33.423  35.325  1.00  0.00     0.148 A 
ATOM     76  C   UNL A   1      37.824  32.325  37.272  1.00  0.00     0.002 A 
ATOM     77  C   UNL A   1      39.210  34.143  36.475  1.00  0.00     0.091 A 
ATOM     78  F   UNL A   1      40.294  33.937  34.361  1.00  0.00    -0.205 F 
ATOM     79  C   UNL A   1      38.352  33.603  37.443  1.00  0.00     0.022 A 
BRANCH  77  80
ATOM     80  S   UNL A   1      40.006  35.712  36.842  1.00  0.00     0.127 S 
ATOM     81  O   UNL A   1      41.418  35.339  36.852  1.00  0.00    -0.237 OA
ATOM     82  O   UNL A   1      39.596  36.542  35.707  1.00  0.00    -0.237 OA
ATOM     83  O   UNL A   1      39.443  36.135  38.117  1.00  0.00    -0.744 OA
ENDBRANCH  77  80
ENDBRANCH  49  73
BRANCH  61  84
ATOM     84  C   UNL A   1      44.546  27.935  34.116  1.00  0.00     0.023 A 
ATOM     85  C   UNL A   1      45.708  28.730  34.174  1.00  0.00     0.012 A 
ATOM     86  C   UNL A   1      44.433  26.809  34.952  1.00  0.00     0.148 A 
ATOM     87  C   UNL A   1      46.749  28.399  35.039  1.00  0.00     0.002 A 
ATOM     88  C   UNL A   1      45.461  26.504  35.838  1.00  0.00     0.091 A 
ATOM     89  F   UNL A   1      43.326  26.055  34.866  1.00  0.00    -0.205 F 
ATOM     90  C   UNL A   1      46.621  27.295  35.879  1.00  0.00     0.022 A 
BRANCH  88  91
ATOM     91  S   UNL A   1      45.347  25.149  37.011  1.00  0.00     0.127 S 
ATOM     92  O   UNL A   1      44.101  25.461  37.707  1.00  0.00    -0.237 OA
ATOM     93  O   UNL A   1      45.279  23.978  36.134  1.00  0.00    -0.237 OA
ATOM     94  O   UNL A   1      46.556  25.222  37.821  1.00  0.00    -0.744 OA
ENDBRANCH  88  91
ENDBRANCH  61  84
ENDBRANCH  35  36
ENDBRANCH  28  30
ENDBRANCH  27  28
ENDBRANCH   1  27
TORSDOF 16
ENDMDL
