MODEL 1
REMARK VINA RESULT:     -11.8      0.000      0.000
REMARK SMILES O=C(OCCOC(=O)[C@H]1CC[C@H](CN2C(=O)c3cccnc3C2=O)O1)c1ccc(-c2c3nc(c(-c4cccc(S(=O)(=O)[O-])c4F)c4ccc([nH]4)c(-c4cccc(S(=O)(=O)[O-])c4F)c4nc(c(-c5cccc(S(=O)(=O)[O-])c5F)c5ccc2[nH]5)C=C4)C=C3)cc1
REMARK SMILES IDX 4 1 3 2 2 3 1 4 26 5 27 6 88 7 28 8 87 9 29 10 30 11 31 12
REMARK SMILES IDX 81 13 32 14 86 15 80 16 82 17 33 18 85 19 79 20 78 21 34 23
REMARK SMILES IDX 66 24 46 25 65 26 47 27 50 28 64 29 83 30 48 31 49 32 63 34
REMARK SMILES IDX 84 35 51 36 35 37 36 38 44 39 37 40 39 41 45 42 38 43 40 44
REMARK SMILES IDX 41 45 42 46 43 47 67 48 68 49 76 50 69 51 71 52 77 53 70 54
REMARK SMILES IDX 72 55 73 56 74 57 75 58 52 59 53 60 61 61 54 62 56 63 62 64
REMARK SMILES IDX 55 65 57 66 58 67 59 68 60 69 5 70 6 71 7 72 8 73 9 74 10 75
REMARK SMILES IDX 25 76 11 77 12 78 13 79 14 80 15 81 23 82 16 83 17 84 22 85
REMARK SMILES IDX 24 86 18 87 21 88 19 89 20 90
REMARK H PARENT 82 22 50 33
REMARK Flexibility Score: inf
ROOT
ATOM      1  C   UNL A   1      31.411  30.591  25.994  1.00  0.00     0.275 C 
ENDROOT
BRANCH   1   2
ATOM      2  O   UNL A   1      32.797  30.918  26.178  1.00  0.00    -0.458 OA
BRANCH   2   3
ATOM      3  C   UNL A   1      33.403  31.623  27.164  1.00  0.00     0.338 C 
ATOM      4  O   UNL A   1      32.886  32.685  27.508  1.00  0.00    -0.246 OA
BRANCH   3   5
ATOM      5  C   UNL A   1      34.719  31.249  27.786  1.00  0.00     0.060 A 
ATOM      6  C   UNL A   1      35.808  32.098  27.993  1.00  0.00     0.016 A 
ATOM      7  C   UNL A   1      34.830  29.926  28.258  1.00  0.00     0.016 A 
ATOM      8  C   UNL A   1      36.912  31.696  28.740  1.00  0.00     0.010 A 
ATOM      9  C   UNL A   1      35.932  29.515  29.016  1.00  0.00     0.010 A 
ATOM     10  C   UNL A   1      36.973  30.410  29.271  1.00  0.00    -0.014 A 
BRANCH  10  11
ATOM     11  C   UNL A   1      38.226  29.988  29.923  1.00  0.00     0.031 A 
ATOM     12  C   UNL A   1      38.468  30.460  31.322  1.00  0.00     0.074 A 
ATOM     13  C   UNL A   1      39.062  29.123  29.317  1.00  0.00     0.049 A 
ATOM     14  N   UNL A   1      39.437  30.157  32.139  1.00  0.00    -0.248 NA
ATOM     15  C   UNL A   1      37.470  31.391  31.882  1.00  0.00     0.031 C 
ATOM     16  C   UNL A   1      38.886  28.578  27.969  1.00  0.00     0.029 A 
ATOM     17  N   UNL A   1      40.222  28.544  29.760  1.00  0.00    -0.354 N 
ATOM     18  C   UNL A   1      39.181  30.880  33.297  1.00  0.00     0.074 A 
ATOM     19  C   UNL A   1      37.978  31.648  33.074  1.00  0.00     0.031 C 
ATOM     20  C   UNL A   1      39.905  27.743  27.697  1.00  0.00     0.029 A 
ATOM     21  C   UNL A   1      40.818  27.715  28.837  1.00  0.00     0.049 A 
ATOM     22  H   UNL A   1      40.596  28.706  30.657  1.00  0.00     0.167 HD
ATOM     23  C   UNL A   1      39.882  30.890  34.452  1.00  0.00     0.034 A 
ATOM     24  C   UNL A   1      41.974  27.027  28.913  1.00  0.00     0.034 A 
ATOM     25  C   UNL A   1      41.077  30.128  34.656  1.00  0.00     0.049 A 
ATOM     26  C   UNL A   1      42.763  27.098  30.198  1.00  0.00     0.074 A 
ATOM     27  C   UNL A   1      41.879  30.068  35.779  1.00  0.00     0.029 A 
ATOM     28  N   UNL A   1      41.653  29.303  33.699  1.00  0.00    -0.354 N 
ATOM     29  N   UNL A   1      42.467  27.717  31.316  1.00  0.00    -0.248 NA
ATOM     30  C   UNL A   1      44.031  26.354  30.245  1.00  0.00     0.031 C 
ATOM     31  C   UNL A   1      42.962  29.232  35.488  1.00  0.00     0.029 A 
ATOM     32  C   UNL A   1      42.808  28.737  34.201  1.00  0.00     0.049 A 
ATOM     33  H   UNL A   1      41.291  29.145  32.798  1.00  0.00     0.167 HD
ATOM     34  C   UNL A   1      43.487  27.409  32.209  1.00  0.00     0.074 A 
ATOM     35  C   UNL A   1      44.400  26.530  31.507  1.00  0.00     0.031 C 
ATOM     36  C   UNL A   1      43.663  27.820  33.489  1.00  0.00     0.034 A 
BRANCH  23  37
ATOM     37  C   UNL A   1      39.368  31.776  35.551  1.00  0.00     0.023 A 
ATOM     38  C   UNL A   1      38.354  31.312  36.415  1.00  0.00     0.012 A 
ATOM     39  C   UNL A   1      39.872  33.079  35.710  1.00  0.00     0.148 A 
ATOM     40  C   UNL A   1      37.819  32.150  37.392  1.00  0.00     0.002 A 
ATOM     41  C   UNL A   1      39.368  33.891  36.716  1.00  0.00     0.091 A 
ATOM     42  F   UNL A   1      40.814  33.508  34.856  1.00  0.00    -0.205 F 
ATOM     43  C   UNL A   1      38.331  33.435  37.548  1.00  0.00     0.022 A 
BRANCH  41  44
ATOM     44  S   UNL A   1      40.006  35.536  37.042  1.00  0.00     0.127 S 
ATOM     45  O   UNL A   1      39.310  35.884  38.281  1.00  0.00    -0.237 OA
ATOM     46  O   UNL A   1      41.438  35.281  37.198  1.00  0.00    -0.237 OA
ATOM     47  O   UNL A   1      39.652  36.346  35.883  1.00  0.00    -0.744 OA
ENDBRANCH  41  44
ENDBRANCH  23  37
BRANCH  24  48
ATOM     48  C   UNL A   1      42.453  26.200  27.765  1.00  0.00     0.023 A 
ATOM     49  C   UNL A   1      43.344  26.754  26.824  1.00  0.00     0.012 A 
ATOM     50  C   UNL A   1      42.011  24.874  27.585  1.00  0.00     0.148 A 
ATOM     51  C   UNL A   1      43.751  26.019  25.706  1.00  0.00     0.002 A 
ATOM     52  C   UNL A   1      42.461  24.131  26.500  1.00  0.00     0.091 A 
ATOM     53  F   UNL A   1      41.152  24.366  28.480  1.00  0.00    -0.205 F 
ATOM     54  C   UNL A   1      43.315  24.707  25.548  1.00  0.00     0.022 A 
BRANCH  52  55
ATOM     55  S   UNL A   1      42.039  22.399  26.271  1.00  0.00     0.127 S 
ATOM     56  O   UNL A   1      42.698  22.095  25.004  1.00  0.00    -0.237 OA
ATOM     57  O   UNL A   1      42.653  21.784  27.448  1.00  0.00    -0.237 OA
ATOM     58  O   UNL A   1      40.584  22.348  26.255  1.00  0.00    -0.744 OA
ENDBRANCH  52  55
ENDBRANCH  24  48
BRANCH  36  59
ATOM     59  C   UNL A   1      44.855  27.289  34.237  1.00  0.00     0.023 A 
ATOM     60  C   UNL A   1      46.076  27.991  34.211  1.00  0.00     0.012 A 
ATOM     61  C   UNL A   1      44.726  26.149  35.056  1.00  0.00     0.148 A 
ATOM     62  C   UNL A   1      47.160  27.550  34.970  1.00  0.00     0.002 A 
ATOM     63  C   UNL A   1      45.791  25.751  35.852  1.00  0.00     0.091 A 
ATOM     64  F   UNL A   1      43.559  25.488  35.052  1.00  0.00    -0.205 F 
ATOM     65  C   UNL A   1      47.012  26.441  35.801  1.00  0.00     0.022 A 
BRANCH  63  66
ATOM     66  S   UNL A   1      45.653  24.406  37.036  1.00  0.00     0.127 S 
ATOM     67  O   UNL A   1      44.549  24.863  37.877  1.00  0.00    -0.237 OA
ATOM     68  O   UNL A   1      45.335  23.268  36.174  1.00  0.00    -0.237 OA
ATOM     69  O   UNL A   1      46.947  24.319  37.699  1.00  0.00    -0.744 OA
ENDBRANCH  63  66
ENDBRANCH  36  59
ENDBRANCH  10  11
ENDBRANCH   3   5
ENDBRANCH   2   3
ENDBRANCH   1   2
BRANCH   1  70
ATOM     70  C   UNL A   1      31.173  29.311  25.186  1.00  0.00     0.274 C 
BRANCH  70  71
ATOM     71  O   UNL A   1      31.981  28.197  25.604  1.00  0.00    -0.460 OA
BRANCH  71  72
ATOM     72  C   UNL A   1      31.437  27.402  26.575  1.00  0.00     0.335 C 
ATOM     73  O   UNL A   1      31.121  27.808  27.687  1.00  0.00    -0.249 OA
BRANCH  72  74
ATOM     74  C   UNL A   1      31.310  25.935  26.103  1.00  0.00     0.228 C 
ATOM     75  C   UNL A   1      29.857  25.571  25.859  1.00  0.00     0.047 C 
ATOM     76  O   UNL A   1      31.969  25.654  24.863  1.00  0.00    -0.361 OA
ATOM     77  C   UNL A   1      29.676  26.007  24.426  1.00  0.00     0.037 C 
ATOM     78  C   UNL A   1      30.998  25.602  23.791  1.00  0.00     0.139 C 
BRANCH  78  79
ATOM     79  C   UNL A   1      31.007  24.203  23.133  1.00  0.00     0.161 C 
BRANCH  79  80
ATOM     80  N   UNL A   1      32.255  23.491  23.366  1.00  0.00    -0.270 N 
ATOM     81  C   UNL A   1      33.423  23.786  22.724  1.00  0.00     0.263 C 
ATOM     82  C   UNL A   1      32.452  22.590  24.387  1.00  0.00     0.280 C 
ATOM     83  O   UNL A   1      33.647  24.613  21.856  1.00  0.00    -0.269 OA
ATOM     84  C   UNL A   1      34.470  23.015  23.368  1.00  0.00     0.071 A 
ATOM     85  C   UNL A   1      33.894  22.285  24.378  1.00  0.00     0.141 A 
ATOM     86  O   UNL A   1      31.640  22.180  25.187  1.00  0.00    -0.267 OA
ATOM     87  C   UNL A   1      35.839  23.021  23.206  1.00  0.00     0.018 A 
ATOM     88  N   UNL A   1      34.561  21.540  25.281  1.00  0.00    -0.250 NA
ATOM     89  C   UNL A   1      36.579  22.257  24.109  1.00  0.00     0.021 A 
ATOM     90  C   UNL A   1      35.908  21.545  25.113  1.00  0.00     0.112 A 
ENDBRANCH  79  80
ENDBRANCH  78  79
ENDBRANCH  72  74
ENDBRANCH  71  72
ENDBRANCH  70  71
ENDBRANCH   1  70
TORSDOF 16
ENDMDL
MODEL 2
REMARK VINA RESULT:     -11.8      5.175     10.257
REMARK SMILES O=C(OCCOC(=O)[C@H]1CC[C@H](CN2C(=O)c3cccnc3C2=O)O1)c1ccc(-c2c3nc(c(-c4cccc(S(=O)(=O)[O-])c4F)c4ccc([nH]4)c(-c4cccc(S(=O)(=O)[O-])c4F)c4nc(c(-c5cccc(S(=O)(=O)[O-])c5F)c5ccc2[nH]5)C=C4)C=C3)cc1
REMARK SMILES IDX 4 1 3 2 2 3 1 4 26 5 27 6 88 7 28 8 87 9 29 10 30 11 31 12
REMARK SMILES IDX 81 13 32 14 86 15 80 16 82 17 33 18 85 19 79 20 78 21 34 23
REMARK SMILES IDX 66 24 46 25 65 26 47 27 50 28 64 29 83 30 48 31 49 32 63 34
REMARK SMILES IDX 84 35 51 36 35 37 36 38 44 39 37 40 39 41 45 42 38 43 40 44
REMARK SMILES IDX 41 45 42 46 43 47 67 48 68 49 76 50 69 51 71 52 77 53 70 54
REMARK SMILES IDX 72 55 73 56 74 57 75 58 52 59 53 60 61 61 54 62 56 63 62 64
REMARK SMILES IDX 55 65 57 66 58 67 59 68 60 69 5 70 6 71 7 72 8 73 9 74 10 75
REMARK SMILES IDX 25 76 11 77 12 78 13 79 14 80 15 81 23 82 16 83 17 84 22 85
REMARK SMILES IDX 24 86 18 87 21 88 19 89 20 90
REMARK H PARENT 82 22 50 33
REMARK Flexibility Score: inf
ROOT
ATOM      1  C   UNL A   1      36.545  21.091  25.798  1.00  0.00     0.275 C 
ENDROOT
BRANCH   1   2
ATOM      2  O   UNL A   1      37.888  20.961  25.307  1.00  0.00    -0.458 OA
BRANCH   2   3
ATOM      3  C   UNL A   1      39.069  21.025  25.968  1.00  0.00     0.338 C 
ATOM      4  O   UNL A   1      39.637  19.965  26.227  1.00  0.00    -0.246 OA
BRANCH   3   5
ATOM      5  C   UNL A   1      39.674  22.294  26.499  1.00  0.00     0.060 A 
ATOM      6  C   UNL A   1      40.718  22.392  27.422  1.00  0.00     0.016 A 
ATOM      7  C   UNL A   1      39.171  23.496  25.961  1.00  0.00     0.016 A 
ATOM      8  C   UNL A   1      41.322  23.612  27.710  1.00  0.00     0.010 A 
ATOM      9  C   UNL A   1      39.777  24.726  26.239  1.00  0.00     0.010 A 
ATOM     10  C   UNL A   1      40.869  24.782  27.108  1.00  0.00    -0.014 A 
BRANCH  10  11
ATOM     11  C   UNL A   1      41.442  26.063  27.562  1.00  0.00     0.031 A 
ATOM     12  C   UNL A   1      42.837  26.385  27.128  1.00  0.00     0.074 A 
ATOM     13  C   UNL A   1      40.695  26.949  28.247  1.00  0.00     0.049 A 
ATOM     14  N   UNL A   1      43.529  27.474  27.312  1.00  0.00    -0.248 NA
ATOM     15  C   UNL A   1      43.545  25.338  26.366  1.00  0.00     0.031 C 
ATOM     16  C   UNL A   1      39.312  26.738  28.679  1.00  0.00     0.029 A 
ATOM     17  N   UNL A   1      40.993  28.210  28.694  1.00  0.00    -0.354 N 
ATOM     18  C   UNL A   1      44.759  27.234  26.716  1.00  0.00     0.074 A 
ATOM     19  C   UNL A   1      44.729  25.894  26.178  1.00  0.00     0.031 C 
ATOM     20  C   UNL A   1      38.882  27.834  29.330  1.00  0.00     0.029 A 
ATOM     21  C   UNL A   1      39.966  28.812  29.384  1.00  0.00     0.049 A 
ATOM     22  H   UNL A   1      41.862  28.646  28.535  1.00  0.00     0.167 HD
ATOM     23  C   UNL A   1      45.818  28.067  26.614  1.00  0.00     0.034 A 
ATOM     24  C   UNL A   1      39.922  30.013  29.994  1.00  0.00     0.034 A 
ATOM     25  C   UNL A   1      45.836  29.392  27.158  1.00  0.00     0.049 A 
ATOM     26  C   UNL A   1      41.139  30.902  29.907  1.00  0.00     0.074 A 
ATOM     27  C   UNL A   1      46.856  30.322  27.127  1.00  0.00     0.029 A 
ATOM     28  N   UNL A   1      44.781  29.967  27.853  1.00  0.00    -0.354 N 
ATOM     29  N   UNL A   1      42.267  30.699  29.267  1.00  0.00    -0.248 NA
ATOM     30  C   UNL A   1      41.071  32.197  30.600  1.00  0.00     0.031 C 
ATOM     31  C   UNL A   1      46.430  31.449  27.836  1.00  0.00     0.029 A 
ATOM     32  C   UNL A   1      45.128  31.238  28.268  1.00  0.00     0.049 A 
ATOM     33  H   UNL A   1      43.914  29.533  28.024  1.00  0.00     0.167 HD
ATOM     34  C   UNL A   1      43.025  31.850  29.447  1.00  0.00     0.074 A 
ATOM     35  C   UNL A   1      42.219  32.756  30.240  1.00  0.00     0.031 C 
ATOM     36  C   UNL A   1      44.276  32.133  29.008  1.00  0.00     0.034 A 
BRANCH  23  37
ATOM     37  C   UNL A   1      47.034  27.538  25.907  1.00  0.00     0.023 A 
ATOM     38  C   UNL A   1      48.014  26.823  26.629  1.00  0.00     0.012 A 
ATOM     39  C   UNL A   1      47.218  27.773  24.533  1.00  0.00     0.148 A 
ATOM     40  C   UNL A   1      49.180  26.390  25.999  1.00  0.00     0.002 A 
ATOM     41  C   UNL A   1      48.360  27.297  23.903  1.00  0.00     0.091 A 
ATOM     42  F   UNL A   1      46.287  28.481  23.877  1.00  0.00    -0.205 F 
ATOM     43  C   UNL A   1      49.349  26.620  24.636  1.00  0.00     0.022 A 
BRANCH  41  44
ATOM     44  S   UNL A   1      48.639  27.481  22.140  1.00  0.00     0.127 S 
ATOM     45  O   UNL A   1      49.930  28.168  22.115  1.00  0.00    -0.237 OA
ATOM     46  O   UNL A   1      48.679  26.089  21.692  1.00  0.00    -0.237 OA
ATOM     47  O   UNL A   1      47.514  28.255  21.630  1.00  0.00    -0.744 OA
ENDBRANCH  41  44
ENDBRANCH  23  37
BRANCH  24  48
ATOM     48  C   UNL A   1      38.697  30.462  30.721  1.00  0.00     0.023 A 
ATOM     49  C   UNL A   1      38.529  30.139  32.083  1.00  0.00     0.012 A 
ATOM     50  C   UNL A   1      37.682  31.187  30.064  1.00  0.00     0.148 A 
ATOM     51  C   UNL A   1      37.360  30.491  32.762  1.00  0.00     0.002 A 
ATOM     52  C   UNL A   1      36.545  31.580  30.760  1.00  0.00     0.091 A 
ATOM     53  F   UNL A   1      37.849  31.474  28.765  1.00  0.00    -0.205 F 
ATOM     54  C   UNL A   1      36.372  31.216  32.104  1.00  0.00     0.022 A 
BRANCH  52  55
ATOM     55  S   UNL A   1      35.268  32.610  30.025  1.00  0.00     0.127 S 
ATOM     56  O   UNL A   1      34.346  32.786  31.143  1.00  0.00    -0.237 OA
ATOM     57  O   UNL A   1      36.025  33.805  29.655  1.00  0.00    -0.237 OA
ATOM     58  O   UNL A   1      34.753  31.849  28.895  1.00  0.00    -0.744 OA
ENDBRANCH  52  55
ENDBRANCH  24  48
BRANCH  36  59
ATOM     59  C   UNL A   1      44.838  33.492  29.326  1.00  0.00     0.023 A 
ATOM     60  C   UNL A   1      45.486  33.719  30.556  1.00  0.00     0.012 A 
ATOM     61  C   UNL A   1      44.818  34.511  28.353  1.00  0.00     0.148 A 
ATOM     62  C   UNL A   1      46.084  34.950  30.822  1.00  0.00     0.002 A 
ATOM     63  C   UNL A   1      45.465  35.713  28.603  1.00  0.00     0.091 A 
ATOM     64  F   UNL A   1      44.181  34.277  27.197  1.00  0.00    -0.205 F 
ATOM     65  C   UNL A   1      46.087  35.940  29.841  1.00  0.00     0.022 A 
BRANCH  63  66
ATOM     66  S   UNL A   1      45.617  36.998  27.357  1.00  0.00     0.127 S 
ATOM     67  O   UNL A   1      44.264  37.547  27.330  1.00  0.00    -0.237 OA
ATOM     68  O   UNL A   1      46.624  37.881  27.945  1.00  0.00    -0.237 OA
ATOM     69  O   UNL A   1      46.042  36.327  26.136  1.00  0.00    -0.744 OA
ENDBRANCH  63  66
ENDBRANCH  36  59
ENDBRANCH  10  11
ENDBRANCH   3   5
ENDBRANCH   2   3
ENDBRANCH   1   2
BRANCH   1  70
ATOM     70  C   UNL A   1      35.506  21.376  24.709  1.00  0.00     0.274 C 
BRANCH  70  71
ATOM     71  O   UNL A   1      35.267  22.776  24.481  1.00  0.00    -0.460 OA
BRANCH  71  72
ATOM     72  C   UNL A   1      35.237  23.165  23.170  1.00  0.00     0.335 C 
ATOM     73  O   UNL A   1      36.149  22.957  22.378  1.00  0.00    -0.249 OA
BRANCH  72  74
ATOM     74  C   UNL A   1      33.935  23.928  22.833  1.00  0.00     0.228 C 
ATOM     75  C   UNL A   1      33.025  23.082  21.962  1.00  0.00     0.047 C 
ATOM     76  O   UNL A   1      33.137  24.267  23.972  1.00  0.00    -0.361 OA
ATOM     77  C   UNL A   1      32.254  22.305  23.001  1.00  0.00     0.037 C 
ATOM     78  C   UNL A   1      32.026  23.346  24.087  1.00  0.00     0.139 C 
BRANCH  78  79
ATOM     79  C   UNL A   1      30.687  24.113  23.987  1.00  0.00     0.161 C 
BRANCH  79  80
ATOM     80  N   UNL A   1      30.763  25.437  24.586  1.00  0.00    -0.270 N 
ATOM     81  C   UNL A   1      30.852  25.652  25.932  1.00  0.00     0.263 C 
ATOM     82  C   UNL A   1      30.955  26.598  23.874  1.00  0.00     0.280 C 
ATOM     83  O   UNL A   1      30.845  24.850  26.850  1.00  0.00    -0.269 OA
ATOM     84  C   UNL A   1      31.119  27.066  26.121  1.00  0.00     0.071 A 
ATOM     85  C   UNL A   1      31.183  27.651  24.881  1.00  0.00     0.141 A 
ATOM     86  O   UNL A   1      31.009  26.736  22.671  1.00  0.00    -0.267 OA
ATOM     87  C   UNL A   1      31.418  27.795  27.252  1.00  0.00     0.018 A 
ATOM     88  N   UNL A   1      31.534  28.929  24.638  1.00  0.00    -0.250 NA
ATOM     89  C   UNL A   1      31.778  29.128  27.059  1.00  0.00     0.021 A 
ATOM     90  C   UNL A   1      31.822  29.643  25.755  1.00  0.00     0.112 A 
ENDBRANCH  79  80
ENDBRANCH  78  79
ENDBRANCH  72  74
ENDBRANCH  71  72
ENDBRANCH  70  71
ENDBRANCH   1  70
TORSDOF 16
ENDMDL
MODEL 3
REMARK VINA RESULT:     -11.7      3.977      7.765
REMARK SMILES O=C(OCCOC(=O)[C@H]1CC[C@H](CN2C(=O)c3cccnc3C2=O)O1)c1ccc(-c2c3nc(c(-c4cccc(S(=O)(=O)[O-])c4F)c4ccc([nH]4)c(-c4cccc(S(=O)(=O)[O-])c4F)c4nc(c(-c5cccc(S(=O)(=O)[O-])c5F)c5ccc2[nH]5)C=C4)C=C3)cc1
REMARK SMILES IDX 4 1 3 2 2 3 1 4 26 5 27 6 88 7 28 8 87 9 29 10 30 11 31 12
REMARK SMILES IDX 81 13 32 14 86 15 80 16 82 17 33 18 85 19 79 20 78 21 34 23
REMARK SMILES IDX 66 24 46 25 65 26 47 27 50 28 64 29 83 30 48 31 49 32 63 34
REMARK SMILES IDX 84 35 51 36 35 37 36 38 44 39 37 40 39 41 45 42 38 43 40 44
REMARK SMILES IDX 41 45 42 46 43 47 67 48 68 49 76 50 69 51 71 52 77 53 70 54
REMARK SMILES IDX 72 55 73 56 74 57 75 58 52 59 53 60 61 61 54 62 56 63 62 64
REMARK SMILES IDX 55 65 57 66 58 67 59 68 60 69 5 70 6 71 7 72 8 73 9 74 10 75
REMARK SMILES IDX 25 76 11 77 12 78 13 79 14 80 15 81 23 82 16 83 17 84 22 85
REMARK SMILES IDX 24 86 18 87 21 88 19 89 20 90
REMARK H PARENT 82 22 50 33
REMARK Flexibility Score: inf
ROOT
ATOM      1  C   UNL A   1      34.017  33.500  28.168  1.00  0.00     0.275 C 
ENDROOT
BRANCH   1   2
ATOM      2  O   UNL A   1      33.918  32.105  28.492  1.00  0.00    -0.458 OA
BRANCH   2   3
ATOM      3  C   UNL A   1      34.565  31.038  27.962  1.00  0.00     0.338 C 
ATOM      4  O   UNL A   1      34.013  30.435  27.042  1.00  0.00    -0.246 OA
BRANCH   3   5
ATOM      5  C   UNL A   1      35.855  30.481  28.493  1.00  0.00     0.060 A 
ATOM      6  C   UNL A   1      36.007  29.684  29.630  1.00  0.00     0.016 A 
ATOM      7  C   UNL A   1      37.009  30.744  27.728  1.00  0.00     0.016 A 
ATOM      8  C   UNL A   1      37.220  29.072  29.933  1.00  0.00     0.010 A 
ATOM      9  C   UNL A   1      38.231  30.128  28.020  1.00  0.00     0.010 A 
ATOM     10  C   UNL A   1      38.333  29.275  29.121  1.00  0.00    -0.014 A 
BRANCH  10  11
ATOM     11  C   UNL A   1      39.627  28.729  29.570  1.00  0.00     0.031 A 
ATOM     12  C   UNL A   1      40.225  29.310  30.813  1.00  0.00     0.074 A 
ATOM     13  C   UNL A   1      40.186  27.676  28.944  1.00  0.00     0.049 A 
ATOM     14  N   UNL A   1      41.296  28.946  31.461  1.00  0.00    -0.248 NA
ATOM     15  C   UNL A   1      39.508  30.449  31.416  1.00  0.00     0.031 C 
ATOM     16  C   UNL A   1      39.653  27.018  27.750  1.00  0.00     0.029 A 
ATOM     17  N   UNL A   1      41.324  26.968  29.232  1.00  0.00    -0.354 N 
ATOM     18  C   UNL A   1      41.396  29.827  32.530  1.00  0.00     0.074 A 
ATOM     19  C   UNL A   1      40.290  30.751  32.436  1.00  0.00     0.031 C 
ATOM     20  C   UNL A   1      40.465  26.002  27.407  1.00  0.00     0.029 A 
ATOM     21  C   UNL A   1      41.588  25.954  28.340  1.00  0.00     0.049 A 
ATOM     22  H   UNL A   1      41.900  27.166  30.006  1.00  0.00     0.167 HD
ATOM     23  C   UNL A   1      42.323  29.852  33.512  1.00  0.00     0.034 A 
ATOM     24  C   UNL A   1      42.628  25.098  28.288  1.00  0.00     0.034 A 
ATOM     25  C   UNL A   1      43.418  28.932  33.588  1.00  0.00     0.049 A 
ATOM     26  C   UNL A   1      43.676  25.183  29.371  1.00  0.00     0.074 A 
ATOM     27  C   UNL A   1      44.425  28.868  34.529  1.00  0.00     0.029 A 
ATOM     28  N   UNL A   1      43.656  27.921  32.666  1.00  0.00    -0.354 N 
ATOM     29  N   UNL A   1      43.714  25.965  30.425  1.00  0.00    -0.248 NA
ATOM     30  C   UNL A   1      44.810  24.251  29.277  1.00  0.00     0.031 C 
ATOM     31  C   UNL A   1      45.296  27.839  34.157  1.00  0.00     0.029 A 
ATOM     32  C   UNL A   1      44.803  27.233  33.010  1.00  0.00     0.049 A 
ATOM     33  H   UNL A   1      43.091  27.724  31.885  1.00  0.00     0.167 HD
ATOM     34  C   UNL A   1      44.850  25.596  31.137  1.00  0.00     0.074 A 
ATOM     35  C   UNL A   1      45.462  24.505  30.405  1.00  0.00     0.031 C 
ATOM     36  C   UNL A   1      45.351  26.114  32.285  1.00  0.00     0.034 A 
BRANCH  23  37
ATOM     37  C   UNL A   1      42.184  30.928  34.550  1.00  0.00     0.023 A 
ATOM     38  C   UNL A   1      41.568  30.640  35.787  1.00  0.00     0.012 A 
ATOM     39  C   UNL A   1      42.638  32.233  34.290  1.00  0.00     0.148 A 
ATOM     40  C   UNL A   1      41.368  31.648  36.730  1.00  0.00     0.002 A 
ATOM     41  C   UNL A   1      42.479  33.220  35.253  1.00  0.00     0.091 A 
ATOM     42  F   UNL A   1      43.192  32.489  33.096  1.00  0.00    -0.205 F 
ATOM     43  C   UNL A   1      41.830  32.934  36.466  1.00  0.00     0.022 A 
BRANCH  41  44
ATOM     44  S   UNL A   1      43.100  34.890  35.038  1.00  0.00     0.127 S 
ATOM     45  O   UNL A   1      42.338  35.342  33.874  1.00  0.00    -0.237 OA
ATOM     46  O   UNL A   1      42.717  35.521  36.301  1.00  0.00    -0.237 OA
ATOM     47  O   UNL A   1      44.537  34.765  34.829  1.00  0.00    -0.744 OA
ENDBRANCH  41  44
ENDBRANCH  23  37
BRANCH  24  48
ATOM     48  C   UNL A   1      42.732  24.080  27.201  1.00  0.00     0.023 A 
ATOM     49  C   UNL A   1      43.426  24.387  26.013  1.00  0.00     0.012 A 
ATOM     50  C   UNL A   1      42.124  22.814  27.325  1.00  0.00     0.148 A 
ATOM     51  C   UNL A   1      43.477  23.474  24.957  1.00  0.00     0.002 A 
ATOM     52  C   UNL A   1      42.222  21.889  26.291  1.00  0.00     0.091 A 
ATOM     53  F   UNL A   1      41.453  22.541  28.453  1.00  0.00    -0.205 F 
ATOM     54  C   UNL A   1      42.882  22.224  25.098  1.00  0.00     0.022 A 
BRANCH  52  55
ATOM     55  S   UNL A   1      41.580  20.216  26.424  1.00  0.00     0.127 S 
ATOM     56  O   UNL A   1      42.099  19.800  27.724  1.00  0.00    -0.237 OA
ATOM     57  O   UNL A   1      40.136  20.446  26.380  1.00  0.00    -0.237 OA
ATOM     58  O   UNL A   1      42.110  19.500  25.273  1.00  0.00    -0.744 OA
ENDBRANCH  52  55
ENDBRANCH  24  48
BRANCH  36  59
ATOM     59  C   UNL A   1      46.592  25.482  32.855  1.00  0.00     0.023 A 
ATOM     60  C   UNL A   1      47.862  25.986  32.515  1.00  0.00     0.012 A 
ATOM     61  C   UNL A   1      46.485  24.457  33.817  1.00  0.00     0.148 A 
ATOM     62  C   UNL A   1      49.011  25.460  33.105  1.00  0.00     0.002 A 
ATOM     63  C   UNL A   1      47.629  23.980  34.442  1.00  0.00     0.091 A 
ATOM     64  F   UNL A   1      45.267  23.983  34.113  1.00  0.00    -0.205 F 
ATOM     65  C   UNL A   1      48.893  24.470  34.079  1.00  0.00     0.022 A 
BRANCH  63  66
ATOM     66  S   UNL A   1      47.562  22.790  35.786  1.00  0.00     0.127 S 
ATOM     67  O   UNL A   1      46.708  23.479  36.751  1.00  0.00    -0.237 OA
ATOM     68  O   UNL A   1      46.944  21.631  35.142  1.00  0.00    -0.237 OA
ATOM     69  O   UNL A   1      48.940  22.582  36.209  1.00  0.00    -0.744 OA
ENDBRANCH  63  66
ENDBRANCH  36  59
ENDBRANCH  10  11
ENDBRANCH   3   5
ENDBRANCH   2   3
ENDBRANCH   1   2
BRANCH   1  70
ATOM     70  C   UNL A   1      33.972  34.429  29.386  1.00  0.00     0.274 C 
BRANCH  70  71
ATOM     71  O   UNL A   1      34.019  33.740  30.647  1.00  0.00    -0.460 OA
BRANCH  71  72
ATOM     72  C   UNL A   1      34.532  34.456  31.693  1.00  0.00     0.335 C 
ATOM     73  O   UNL A   1      34.196  35.604  31.962  1.00  0.00    -0.249 OA
BRANCH  72  74
ATOM     74  C   UNL A   1      35.609  33.652  32.458  1.00  0.00     0.228 C 
ATOM     75  C   UNL A   1      36.480  32.867  31.495  1.00  0.00     0.047 C 
ATOM     76  O   UNL A   1      36.527  34.457  33.206  1.00  0.00    -0.361 OA
ATOM     77  C   UNL A   1      37.540  33.884  31.152  1.00  0.00     0.037 C 
ATOM     78  C   UNL A   1      37.779  34.572  32.487  1.00  0.00     0.139 C 
BRANCH  78  79
ATOM     79  C   UNL A   1      38.932  33.982  33.331  1.00  0.00     0.161 C 
BRANCH  79  80
ATOM     80  N   UNL A   1      38.599  33.906  34.746  1.00  0.00    -0.270 N 
ATOM     81  C   UNL A   1      38.103  32.784  35.345  1.00  0.00     0.263 C 
ATOM     82  C   UNL A   1      38.931  34.870  35.671  1.00  0.00     0.280 C 
ATOM     83  O   UNL A   1      37.813  31.705  34.858  1.00  0.00    -0.269 OA
ATOM     84  C   UNL A   1      38.101  33.030  36.776  1.00  0.00     0.071 A 
ATOM     85  C   UNL A   1      38.600  34.292  36.986  1.00  0.00     0.141 A 
ATOM     86  O   UNL A   1      39.457  35.944  35.474  1.00  0.00    -0.267 OA
ATOM     87  C   UNL A   1      37.822  32.204  37.843  1.00  0.00     0.018 A 
ATOM     88  N   UNL A   1      38.868  34.834  38.190  1.00  0.00    -0.250 NA
ATOM     89  C   UNL A   1      38.072  32.720  39.115  1.00  0.00     0.021 A 
ATOM     90  C   UNL A   1      38.586  34.019  39.237  1.00  0.00     0.112 A 
ENDBRANCH  79  80
ENDBRANCH  78  79
ENDBRANCH  72  74
ENDBRANCH  71  72
ENDBRANCH  70  71
ENDBRANCH   1  70
TORSDOF 16
ENDMDL
