MODEL 1
REMARK VINA RESULT:     -10.5      0.000      0.000
REMARK SMILES C[NH2+][C@@]1(C(=O)OCCOC(=O)c2ccc(-c3c4nc(c(-c5cccc(S(=O)(=O)[O-])c5F)c5ccc([nH]5)c(-c5cccc(S(=O)(=O)[O-])c5F)c5nc(c(-c6cccc(S(=O)(=O)[O-])c6F)c6ccc3[nH]6)C=C5)C=C4)cc2)CC[C@H](Oc2cccc(C)c2)C1
REMARK SMILES IDX 8 1 7 2 6 3 4 4 5 5 3 6 75 7 86 8 76 9 77 10 2 11 1 12 78 15
REMARK SMILES IDX 79 16 80 17 85 18 81 19 83 20 82 21 84 22 9 23 10 24 11 25
REMARK SMILES IDX 12 26 13 27 74 28 14 29 73 30 15 31 16 32 17 33 67 34 18 35
REMARK SMILES IDX 72 36 66 37 68 38 19 39 71 40 65 41 64 42 20 44 52 45 32 46
REMARK SMILES IDX 51 47 33 48 36 49 50 50 69 51 34 52 35 53 49 55 70 56 37 57
REMARK SMILES IDX 21 58 22 59 30 60 23 61 25 62 31 63 24 64 26 65 27 66 28 67
REMARK SMILES IDX 29 68 53 69 54 70 62 71 55 72 57 73 63 74 56 75 58 76 59 77
REMARK SMILES IDX 60 78 61 79 38 80 39 81 47 82 40 83 42 84 48 85 41 86 43 87
REMARK SMILES IDX 44 88 45 89 46 90
REMARK H PARENT 2 13 2 14 68 43 36 54
REMARK Flexibility Score: inf
ROOT
ATOM      1  C   UNL A   1      33.555  32.940  27.999  1.00  0.00     0.275 C 
ENDROOT
BRANCH   1   2
ATOM      2  C   UNL A   1      33.613  34.306  28.680  1.00  0.00     0.274 C 
BRANCH   2   3
ATOM      3  O   UNL A   1      33.646  34.107  30.099  1.00  0.00    -0.457 OA
BRANCH   3   4
ATOM      4  C   UNL A   1      33.601  35.216  30.875  1.00  0.00     0.368 C 
ATOM      5  O   UNL A   1      33.656  36.363  30.440  1.00  0.00    -0.245 OA
BRANCH   4   6
ATOM      6  C   UNL A   1      33.459  34.876  32.390  1.00  0.00     0.197 C 
ATOM      7  C   UNL A   1      34.407  35.776  33.185  1.00  0.00     0.085 C 
ATOM      8  C   UNL A   1      34.007  33.482  32.771  1.00  0.00     0.126 C 
ATOM      9  C   UNL A   1      35.772  35.158  32.911  1.00  0.00     0.052 C 
ATOM     10  C   UNL A   1      35.541  33.638  32.821  1.00  0.00     0.180 C 
BRANCH   6  11
ATOM     11  N   UNL A   1      32.062  34.984  32.876  1.00  0.00    -0.334 N 
ATOM     12  C   UNL A   1      31.479  36.321  32.880  1.00  0.00     0.331 C 
ATOM     13  H   UNL A   1      31.480  34.394  32.282  1.00  0.00     0.347 HD
ATOM     14  H   UNL A   1      32.092  34.699  33.855  1.00  0.00     0.347 HD
ENDBRANCH   6  11
BRANCH  10  15
ATOM     15  O   UNL A   1      36.071  33.032  31.641  1.00  0.00    -0.490 OA
BRANCH  15  16
ATOM     16  C   UNL A   1      37.160  33.564  31.018  1.00  0.00     0.119 A 
ATOM     17  C   UNL A   1      37.291  33.801  29.653  1.00  0.00     0.046 A 
ATOM     18  C   UNL A   1      38.239  33.838  31.866  1.00  0.00     0.049 A 
ATOM     19  C   UNL A   1      38.519  34.208  29.128  1.00  0.00     0.004 A 
ATOM     20  C   UNL A   1      39.464  34.284  31.355  1.00  0.00    -0.047 A 
ATOM     21  C   UNL A   1      39.605  34.435  29.972  1.00  0.00     0.003 A 
ATOM     22  C   UNL A   1      40.623  34.568  32.262  1.00  0.00     0.044 C 
ENDBRANCH  15  16
ENDBRANCH  10  15
ENDBRANCH   4   6
ENDBRANCH   3   4
ENDBRANCH   2   3
ENDBRANCH   1   2
BRANCH   1  23
ATOM     23  O   UNL A   1      34.568  32.063  28.528  1.00  0.00    -0.458 OA
BRANCH  23  24
ATOM     24  C   UNL A   1      34.708  30.879  27.879  1.00  0.00     0.338 C 
ATOM     25  O   UNL A   1      33.942  30.391  27.062  1.00  0.00    -0.246 OA
BRANCH  24  26
ATOM     26  C   UNL A   1      36.003  30.271  28.243  1.00  0.00     0.060 A 
ATOM     27  C   UNL A   1      36.138  29.694  29.509  1.00  0.00     0.016 A 
ATOM     28  C   UNL A   1      37.082  30.282  27.357  1.00  0.00     0.016 A 
ATOM     29  C   UNL A   1      37.332  29.072  29.873  1.00  0.00     0.010 A 
ATOM     30  C   UNL A   1      38.293  29.699  27.737  1.00  0.00     0.010 A 
ATOM     31  C   UNL A   1      38.420  29.085  28.994  1.00  0.00    -0.014 A 
BRANCH  31  32
ATOM     32  C   UNL A   1      39.732  28.571  29.446  1.00  0.00     0.031 A 
ATOM     33  C   UNL A   1      40.458  29.310  30.531  1.00  0.00     0.074 A 
ATOM     34  C   UNL A   1      40.270  27.471  28.890  1.00  0.00     0.049 A 
ATOM     35  N   UNL A   1      41.613  29.045  31.082  1.00  0.00    -0.248 NA
ATOM     36  C   UNL A   1      39.786  30.502  31.073  1.00  0.00     0.031 C 
ATOM     37  C   UNL A   1      39.647  26.663  27.843  1.00  0.00     0.029 A 
ATOM     38  N   UNL A   1      41.478  26.858  29.115  1.00  0.00    -0.354 N 
ATOM     39  C   UNL A   1      41.814  30.042  32.027  1.00  0.00     0.074 A 
ATOM     40  C   UNL A   1      40.664  30.918  31.973  1.00  0.00     0.031 C 
ATOM     41  C   UNL A   1      40.493  25.678  27.493  1.00  0.00     0.029 A 
ATOM     42  C   UNL A   1      41.723  25.800  28.272  1.00  0.00     0.049 A 
ATOM     43  H   UNL A   1      42.107  27.148  29.815  1.00  0.00     0.167 HD
ATOM     44  C   UNL A   1      42.863  30.211  32.866  1.00  0.00     0.034 A 
ATOM     45  C   UNL A   1      42.827  25.039  28.132  1.00  0.00     0.034 A 
ATOM     46  C   UNL A   1      44.021  29.360  32.887  1.00  0.00     0.049 A 
ATOM     47  C   UNL A   1      44.011  25.291  29.034  1.00  0.00     0.074 A 
ATOM     48  C   UNL A   1      45.133  29.442  33.705  1.00  0.00     0.029 A 
ATOM     49  N   UNL A   1      44.231  28.290  32.031  1.00  0.00    -0.354 N 
ATOM     50  N   UNL A   1      44.141  26.164  30.004  1.00  0.00    -0.248 NA
ATOM     51  C   UNL A   1      45.190  24.432  28.842  1.00  0.00     0.031 C 
ATOM     52  C   UNL A   1      46.036  28.450  33.311  1.00  0.00     0.029 A 
ATOM     53  C   UNL A   1      45.465  27.716  32.284  1.00  0.00     0.049 A 
ATOM     54  H   UNL A   1      43.596  27.984  31.343  1.00  0.00     0.167 HD
ATOM     55  C   UNL A   1      45.394  25.932  30.563  1.00  0.00     0.074 A 
ATOM     56  C   UNL A   1      45.977  24.826  29.834  1.00  0.00     0.031 C 
ATOM     57  C   UNL A   1      46.011  26.582  31.582  1.00  0.00     0.034 A 
BRANCH  44  58
ATOM     58  C   UNL A   1      42.805  31.375  33.817  1.00  0.00     0.023 A 
ATOM     59  C   UNL A   1      43.422  32.595  33.472  1.00  0.00     0.012 A 
ATOM     60  C   UNL A   1      42.117  31.269  35.041  1.00  0.00     0.148 A 
ATOM     61  C   UNL A   1      43.387  33.681  34.346  1.00  0.00     0.002 A 
ATOM     62  C   UNL A   1      42.047  32.369  35.887  1.00  0.00     0.091 A 
ATOM     63  F   UNL A   1      41.558  30.093  35.360  1.00  0.00    -0.205 F 
ATOM     64  C   UNL A   1      42.693  33.570  35.547  1.00  0.00     0.022 A 
BRANCH  62  65
ATOM     65  S   UNL A   1      41.118  32.351  37.423  1.00  0.00     0.127 S 
ATOM     66  O   UNL A   1      41.016  33.779  37.723  1.00  0.00    -0.237 OA
ATOM     67  O   UNL A   1      39.862  31.721  37.013  1.00  0.00    -0.237 OA
ATOM     68  O   UNL A   1      41.910  31.573  38.365  1.00  0.00    -0.744 OA
ENDBRANCH  62  65
ENDBRANCH  44  58
BRANCH  45  69
ATOM     69  C   UNL A   1      42.871  23.953  27.109  1.00  0.00     0.023 A 
ATOM     70  C   UNL A   1      43.551  24.164  25.893  1.00  0.00     0.012 A 
ATOM     71  C   UNL A   1      42.231  22.718  27.329  1.00  0.00     0.148 A 
ATOM     72  C   UNL A   1      43.558  23.182  24.901  1.00  0.00     0.002 A 
ATOM     73  C   UNL A   1      42.290  21.723  26.360  1.00  0.00     0.091 A 
ATOM     74  F   UNL A   1      41.576  22.540  28.485  1.00  0.00    -0.205 F 
ATOM     75  C   UNL A   1      42.936  21.960  25.137  1.00  0.00     0.022 A 
BRANCH  73  76
ATOM     76  S   UNL A   1      41.615  20.079  26.620  1.00  0.00     0.127 S 
ATOM     77  O   UNL A   1      42.403  19.609  27.757  1.00  0.00    -0.237 OA
ATOM     78  O   UNL A   1      40.214  20.375  26.922  1.00  0.00    -0.237 OA
ATOM     79  O   UNL A   1      41.823  19.363  25.369  1.00  0.00    -0.744 OA
ENDBRANCH  73  76
ENDBRANCH  45  69
BRANCH  57  80
ATOM     80  C   UNL A   1      47.369  26.089  32.013  1.00  0.00     0.023 A 
ATOM     81  C   UNL A   1      48.533  26.579  31.388  1.00  0.00     0.012 A 
ATOM     82  C   UNL A   1      47.490  25.201  33.101  1.00  0.00     0.148 A 
ATOM     83  C   UNL A   1      49.795  26.167  31.818  1.00  0.00     0.002 A 
ATOM     84  C   UNL A   1      48.751  24.838  33.560  1.00  0.00     0.091 A 
ATOM     85  F   UNL A   1      46.371  24.735  33.673  1.00  0.00    -0.205 F 
ATOM     86  C   UNL A   1      49.904  25.308  32.910  1.00  0.00     0.022 A 
BRANCH  84  87
ATOM     87  S   UNL A   1      48.991  23.823  35.022  1.00  0.00     0.127 S 
ATOM     88  O   UNL A   1      48.177  22.650  34.706  1.00  0.00    -0.237 OA
ATOM     89  O   UNL A   1      50.435  23.587  35.001  1.00  0.00    -0.237 OA
ATOM     90  O   UNL A   1      48.524  24.620  36.148  1.00  0.00    -0.744 OA
ENDBRANCH  84  87
ENDBRANCH  57  80
ENDBRANCH  31  32
ENDBRANCH  24  26
ENDBRANCH  23  24
ENDBRANCH   1  23
TORSDOF 17
ENDMDL
MODEL 2
REMARK VINA RESULT:     -10.4      3.857      6.267
REMARK SMILES C[NH2+][C@@]1(C(=O)OCCOC(=O)c2ccc(-c3c4nc(c(-c5cccc(S(=O)(=O)[O-])c5F)c5ccc([nH]5)c(-c5cccc(S(=O)(=O)[O-])c5F)c5nc(c(-c6cccc(S(=O)(=O)[O-])c6F)c6ccc3[nH]6)C=C5)C=C4)cc2)CC[C@H](Oc2cccc(C)c2)C1
REMARK SMILES IDX 8 1 7 2 6 3 4 4 5 5 3 6 75 7 86 8 76 9 77 10 2 11 1 12 78 15
REMARK SMILES IDX 79 16 80 17 85 18 81 19 83 20 82 21 84 22 9 23 10 24 11 25
REMARK SMILES IDX 12 26 13 27 74 28 14 29 73 30 15 31 16 32 17 33 67 34 18 35
REMARK SMILES IDX 72 36 66 37 68 38 19 39 71 40 65 41 64 42 20 44 52 45 32 46
REMARK SMILES IDX 51 47 33 48 36 49 50 50 69 51 34 52 35 53 49 55 70 56 37 57
REMARK SMILES IDX 21 58 22 59 30 60 23 61 25 62 31 63 24 64 26 65 27 66 28 67
REMARK SMILES IDX 29 68 53 69 54 70 62 71 55 72 57 73 63 74 56 75 58 76 59 77
REMARK SMILES IDX 60 78 61 79 38 80 39 81 47 82 40 83 42 84 48 85 41 86 43 87
REMARK SMILES IDX 44 88 45 89 46 90
REMARK H PARENT 2 13 2 14 68 43 36 54
REMARK Flexibility Score: inf
ROOT
ATOM      1  C   UNL A   1      31.931  32.036  26.510  1.00  0.00     0.275 C 
ENDROOT
BRANCH   1   2
ATOM      2  C   UNL A   1      31.825  30.514  26.438  1.00  0.00     0.274 C 
BRANCH   2   3
ATOM      3  O   UNL A   1      31.294  30.152  25.157  1.00  0.00    -0.457 OA
BRANCH   3   4
ATOM      4  C   UNL A   1      32.091  29.414  24.348  1.00  0.00     0.368 C 
ATOM      5  O   UNL A   1      33.288  29.226  24.547  1.00  0.00    -0.245 OA
BRANCH   4   6
ATOM      6  C   UNL A   1      31.317  28.819  23.133  1.00  0.00     0.197 C 
ATOM      7  C   UNL A   1      29.963  28.300  23.622  1.00  0.00     0.085 C 
ATOM      8  C   UNL A   1      31.934  27.514  22.578  1.00  0.00     0.126 C 
ATOM      9  C   UNL A   1      30.332  27.013  24.346  1.00  0.00     0.052 C 
ATOM     10  C   UNL A   1      31.506  26.402  23.557  1.00  0.00     0.180 C 
BRANCH   6  11
ATOM     11  N   UNL A   1      31.167  29.783  22.017  1.00  0.00    -0.334 N 
ATOM     12  C   UNL A   1      29.810  30.232  21.726  1.00  0.00     0.331 C 
ATOM     13  H   UNL A   1      31.724  30.607  22.240  1.00  0.00     0.347 HD
ATOM     14  H   UNL A   1      31.470  29.281  21.182  1.00  0.00     0.347 HD
ENDBRANCH   6  11
BRANCH  10  15
ATOM     15  O   UNL A   1      32.644  26.075  24.356  1.00  0.00    -0.490 OA
BRANCH  15  16
ATOM     16  C   UNL A   1      33.488  25.072  23.983  1.00  0.00     0.119 A 
ATOM     17  C   UNL A   1      33.297  24.190  22.924  1.00  0.00     0.046 A 
ATOM     18  C   UNL A   1      34.615  24.928  24.800  1.00  0.00     0.049 A 
ATOM     19  C   UNL A   1      34.166  23.111  22.747  1.00  0.00     0.004 A 
ATOM     20  C   UNL A   1      35.515  23.872  24.607  1.00  0.00    -0.047 A 
ATOM     21  C   UNL A   1      35.262  22.945  23.592  1.00  0.00     0.003 A 
ATOM     22  C   UNL A   1      36.718  23.711  25.488  1.00  0.00     0.044 C 
ENDBRANCH  15  16
ENDBRANCH  10  15
ENDBRANCH   4   6
ENDBRANCH   3   4
ENDBRANCH   2   3
ENDBRANCH   1   2
BRANCH   1  23
ATOM     23  O   UNL A   1      32.527  32.447  27.754  1.00  0.00    -0.458 OA
BRANCH  23  24
ATOM     24  C   UNL A   1      33.610  33.257  27.640  1.00  0.00     0.338 C 
ATOM     25  O   UNL A   1      33.633  34.398  27.203  1.00  0.00    -0.246 OA
BRANCH  24  26
ATOM     26  C   UNL A   1      34.790  32.583  28.215  1.00  0.00     0.060 A 
ATOM     27  C   UNL A   1      34.623  31.320  28.791  1.00  0.00     0.016 A 
ATOM     28  C   UNL A   1      36.047  33.191  28.206  1.00  0.00     0.016 A 
ATOM     29  C   UNL A   1      35.722  30.633  29.305  1.00  0.00     0.010 A 
ATOM     30  C   UNL A   1      37.141  32.522  28.762  1.00  0.00     0.010 A 
ATOM     31  C   UNL A   1      36.984  31.238  29.307  1.00  0.00    -0.014 A 
BRANCH  31  32
ATOM     32  C   UNL A   1      38.111  30.577  30.001  1.00  0.00     0.031 A 
ATOM     33  C   UNL A   1      38.399  30.952  31.424  1.00  0.00     0.074 A 
ATOM     34  C   UNL A   1      38.871  29.665  29.366  1.00  0.00     0.049 A 
ATOM     35  N   UNL A   1      39.329  30.506  32.225  1.00  0.00    -0.248 NA
ATOM     36  C   UNL A   1      37.511  31.959  32.027  1.00  0.00     0.031 C 
ATOM     37  C   UNL A   1      38.673  29.210  27.992  1.00  0.00     0.029 A 
ATOM     38  N   UNL A   1      39.980  28.977  29.794  1.00  0.00    -0.354 N 
ATOM     39  C   UNL A   1      39.149  31.184  33.423  1.00  0.00     0.074 A 
ATOM     40  C   UNL A   1      38.022  32.073  33.243  1.00  0.00     0.031 C 
ATOM     41  C   UNL A   1      39.649  28.341  27.676  1.00  0.00     0.029 A 
ATOM     42  C   UNL A   1      40.553  28.197  28.817  1.00  0.00     0.049 A 
ATOM     43  H   UNL A   1      40.330  29.036  30.712  1.00  0.00     0.167 HD
ATOM     44  C   UNL A   1      39.859  31.074  34.570  1.00  0.00     0.034 A 
ATOM     45  C   UNL A   1      41.690  27.475  28.838  1.00  0.00     0.034 A 
ATOM     46  C   UNL A   1      41.002  30.217  34.730  1.00  0.00     0.049 A 
ATOM     47  C   UNL A   1      42.502  27.422  30.110  1.00  0.00     0.074 A 
ATOM     48  C   UNL A   1      41.784  30.029  35.855  1.00  0.00     0.029 A 
ATOM     49  N   UNL A   1      41.547  29.431  33.727  1.00  0.00    -0.354 N 
ATOM     50  N   UNL A   1      42.255  27.977  31.272  1.00  0.00    -0.248 NA
ATOM     51  C   UNL A   1      43.734  26.619  30.082  1.00  0.00     0.031 C 
ATOM     52  C   UNL A   1      42.830  29.163  35.517  1.00  0.00     0.029 A 
ATOM     53  C   UNL A   1      42.669  28.771  34.198  1.00  0.00     0.049 A 
ATOM     54  H   UNL A   1      41.189  29.354  32.812  1.00  0.00     0.167 HD
ATOM     55  C   UNL A   1      43.273  27.558  32.122  1.00  0.00     0.074 A 
ATOM     56  C   UNL A   1      44.132  26.688  31.345  1.00  0.00     0.031 C 
ATOM     57  C   UNL A   1      43.485  27.869  33.425  1.00  0.00     0.034 A 
BRANCH  44  58
ATOM     58  C   UNL A   1      39.422  31.919  35.735  1.00  0.00     0.023 A 
ATOM     59  C   UNL A   1      39.870  33.251  35.844  1.00  0.00     0.012 A 
ATOM     60  C   UNL A   1      38.546  31.401  36.709  1.00  0.00     0.148 A 
ATOM     61  C   UNL A   1      39.482  34.044  36.924  1.00  0.00     0.002 A 
ATOM     62  C   UNL A   1      38.127  32.212  37.757  1.00  0.00     0.091 A 
ATOM     63  F   UNL A   1      38.151  30.125  36.599  1.00  0.00    -0.205 F 
ATOM     64  C   UNL A   1      38.605  33.528  37.873  1.00  0.00     0.022 A 
BRANCH  62  65
ATOM     65  S   UNL A   1      36.944  31.664  38.992  1.00  0.00     0.127 S 
ATOM     66  O   UNL A   1      35.931  32.715  38.916  1.00  0.00    -0.237 OA
ATOM     67  O   UNL A   1      36.522  30.369  38.456  1.00  0.00    -0.237 OA
ATOM     68  O   UNL A   1      37.675  31.594  40.248  1.00  0.00    -0.744 OA
ENDBRANCH  62  65
ENDBRANCH  44  58
BRANCH  45  69
ATOM     69  C   UNL A   1      42.134  26.726  27.625  1.00  0.00     0.023 A 
ATOM     70  C   UNL A   1      42.780  27.411  26.577  1.00  0.00     0.012 A 
ATOM     71  C   UNL A   1      41.905  25.342  27.500  1.00  0.00     0.148 A 
ATOM     72  C   UNL A   1      43.153  26.740  25.411  1.00  0.00     0.002 A 
ATOM     73  C   UNL A   1      42.330  24.669  26.360  1.00  0.00     0.091 A 
ATOM     74  F   UNL A   1      41.276  24.709  28.500  1.00  0.00    -0.205 F 
ATOM     75  C   UNL A   1      42.936  25.369  25.307  1.00  0.00     0.022 A 
BRANCH  73  76
ATOM     76  S   UNL A   1      42.195  22.887  26.184  1.00  0.00     0.127 S 
ATOM     77  O   UNL A   1      42.982  22.413  27.320  1.00  0.00    -0.237 OA
ATOM     78  O   UNL A   1      40.751  22.682  26.306  1.00  0.00    -0.237 OA
ATOM     79  O   UNL A   1      42.738  22.576  24.869  1.00  0.00    -0.744 OA
ENDBRANCH  73  76
ENDBRANCH  45  69
BRANCH  57  80
ATOM     80  C   UNL A   1      44.662  27.233  34.121  1.00  0.00     0.023 A 
ATOM     81  C   UNL A   1      45.902  27.900  34.173  1.00  0.00     0.012 A 
ATOM     82  C   UNL A   1      44.509  26.007  34.799  1.00  0.00     0.148 A 
ATOM     83  C   UNL A   1      46.980  27.341  34.860  1.00  0.00     0.002 A 
ATOM     84  C   UNL A   1      45.570  25.482  35.527  1.00  0.00     0.091 A 
ATOM     85  F   UNL A   1      43.326  25.379  34.725  1.00  0.00    -0.205 F 
ATOM     86  C   UNL A   1      46.810  26.140  35.547  1.00  0.00     0.022 A 
BRANCH  84  87
ATOM     87  S   UNL A   1      45.414  23.998  36.527  1.00  0.00     0.127 S 
ATOM     88  O   UNL A   1      44.886  24.537  37.779  1.00  0.00    -0.237 OA
ATOM     89  O   UNL A   1      44.458  23.204  35.754  1.00  0.00    -0.237 OA
ATOM     90  O   UNL A   1      46.750  23.425  36.610  1.00  0.00    -0.744 OA
ENDBRANCH  84  87
ENDBRANCH  57  80
ENDBRANCH  31  32
ENDBRANCH  24  26
ENDBRANCH  23  24
ENDBRANCH   1  23
TORSDOF 17
ENDMDL
MODEL 3
REMARK VINA RESULT:     -10.4      5.726     11.456
REMARK SMILES C[NH2+][C@@]1(C(=O)OCCOC(=O)c2ccc(-c3c4nc(c(-c5cccc(S(=O)(=O)[O-])c5F)c5ccc([nH]5)c(-c5cccc(S(=O)(=O)[O-])c5F)c5nc(c(-c6cccc(S(=O)(=O)[O-])c6F)c6ccc3[nH]6)C=C5)C=C4)cc2)CC[C@H](Oc2cccc(C)c2)C1
REMARK SMILES IDX 8 1 7 2 6 3 4 4 5 5 3 6 75 7 86 8 76 9 77 10 2 11 1 12 78 15
REMARK SMILES IDX 79 16 80 17 85 18 81 19 83 20 82 21 84 22 9 23 10 24 11 25
REMARK SMILES IDX 12 26 13 27 74 28 14 29 73 30 15 31 16 32 17 33 67 34 18 35
REMARK SMILES IDX 72 36 66 37 68 38 19 39 71 40 65 41 64 42 20 44 52 45 32 46
REMARK SMILES IDX 51 47 33 48 36 49 50 50 69 51 34 52 35 53 49 55 70 56 37 57
REMARK SMILES IDX 21 58 22 59 30 60 23 61 25 62 31 63 24 64 26 65 27 66 28 67
REMARK SMILES IDX 29 68 53 69 54 70 62 71 55 72 57 73 63 74 56 75 58 76 59 77
REMARK SMILES IDX 60 78 61 79 38 80 39 81 47 82 40 83 42 84 48 85 41 86 43 87
REMARK SMILES IDX 44 88 45 89 46 90
REMARK H PARENT 2 13 2 14 68 43 36 54
REMARK Flexibility Score: inf
ROOT
ATOM      1  C   UNL A   1      37.886  19.916  24.660  1.00  0.00     0.275 C 
ENDROOT
BRANCH   1   2
ATOM      2  C   UNL A   1      36.520  19.321  24.997  1.00  0.00     0.274 C 
BRANCH   2   3
ATOM      3  O   UNL A   1      35.507  20.262  24.621  1.00  0.00    -0.457 OA
BRANCH   3   4
ATOM      4  C   UNL A   1      34.768  20.800  25.621  1.00  0.00     0.368 C 
ATOM      5  O   UNL A   1      35.232  21.492  26.524  1.00  0.00    -0.245 OA
BRANCH   4   6
ATOM      6  C   UNL A   1      33.253  20.452  25.495  1.00  0.00     0.197 C 
ATOM      7  C   UNL A   1      32.863  20.495  24.017  1.00  0.00     0.085 C 
ATOM      8  C   UNL A   1      32.313  21.538  26.067  1.00  0.00     0.126 C 
ATOM      9  C   UNL A   1      32.807  21.988  23.722  1.00  0.00     0.052 C 
ATOM     10  C   UNL A   1      32.274  22.655  25.004  1.00  0.00     0.180 C 
BRANCH   6  11
ATOM     11  N   UNL A   1      32.908  19.152  26.118  1.00  0.00    -0.334 N 
ATOM     12  C   UNL A   1      32.527  18.078  25.207  1.00  0.00     0.331 C 
ATOM     13  H   UNL A   1      33.719  18.836  26.648  1.00  0.00     0.347 HD
ATOM     14  H   UNL A   1      32.078  19.334  26.683  1.00  0.00     0.347 HD
ENDBRANCH   6  11
BRANCH  10  15
ATOM     15  O   UNL A   1      33.081  23.732  25.485  1.00  0.00    -0.490 OA
BRANCH  15  16
ATOM     16  C   UNL A   1      32.527  24.950  25.747  1.00  0.00     0.119 A 
ATOM     17  C   UNL A   1      31.179  25.206  25.979  1.00  0.00     0.046 A 
ATOM     18  C   UNL A   1      33.433  26.016  25.724  1.00  0.00     0.049 A 
ATOM     19  C   UNL A   1      30.725  26.522  26.082  1.00  0.00     0.004 A 
ATOM     20  C   UNL A   1      32.994  27.338  25.865  1.00  0.00    -0.047 A 
ATOM     21  C   UNL A   1      31.626  27.584  26.012  1.00  0.00     0.003 A 
ATOM     22  C   UNL A   1      33.962  28.483  25.830  1.00  0.00     0.044 C 
ENDBRANCH  15  16
ENDBRANCH  10  15
ENDBRANCH   4   6
ENDBRANCH   3   4
ENDBRANCH   2   3
ENDBRANCH   1   2
BRANCH   1  23
ATOM     23  O   UNL A   1      38.254  20.923  25.622  1.00  0.00    -0.458 OA
BRANCH  23  24
ATOM     24  C   UNL A   1      39.491  20.783  26.163  1.00  0.00     0.338 C 
ATOM     25  O   UNL A   1      40.144  19.755  26.256  1.00  0.00    -0.246 OA
BRANCH  24  26
ATOM     26  C   UNL A   1      40.003  22.108  26.565  1.00  0.00     0.060 A 
ATOM     27  C   UNL A   1      39.235  23.239  26.268  1.00  0.00     0.016 A 
ATOM     28  C   UNL A   1      41.232  22.244  27.212  1.00  0.00     0.016 A 
ATOM     29  C   UNL A   1      39.663  24.503  26.671  1.00  0.00     0.010 A 
ATOM     30  C   UNL A   1      41.684  23.516  27.575  1.00  0.00     0.010 A 
ATOM     31  C   UNL A   1      40.898  24.649  27.312  1.00  0.00    -0.014 A 
BRANCH  31  32
ATOM     32  C   UNL A   1      41.424  26.004  27.588  1.00  0.00     0.031 A 
ATOM     33  C   UNL A   1      42.825  26.332  27.165  1.00  0.00     0.074 A 
ATOM     34  C   UNL A   1      40.665  26.923  28.215  1.00  0.00     0.049 A 
ATOM     35  N   UNL A   1      43.491  27.447  27.303  1.00  0.00    -0.248 NA
ATOM     36  C   UNL A   1      43.571  25.259  26.488  1.00  0.00     0.031 C 
ATOM     37  C   UNL A   1      39.286  26.722  28.654  1.00  0.00     0.029 A 
ATOM     38  N   UNL A   1      40.964  28.203  28.612  1.00  0.00    -0.354 N 
ATOM     39  C   UNL A   1      44.738  27.210  26.742  1.00  0.00     0.074 A 
ATOM     40  C   UNL A   1      44.738  25.844  26.264  1.00  0.00     0.031 C 
ATOM     41  C   UNL A   1      38.866  27.830  29.290  1.00  0.00     0.029 A 
ATOM     42  C   UNL A   1      39.954  28.807  29.323  1.00  0.00     0.049 A 
ATOM     43  H   UNL A   1      41.819  28.646  28.405  1.00  0.00     0.167 HD
ATOM     44  C   UNL A   1      45.789  28.055  26.633  1.00  0.00     0.034 A 
ATOM     45  C   UNL A   1      39.926  30.000  29.950  1.00  0.00     0.034 A 
ATOM     46  C   UNL A   1      45.798  29.398  27.144  1.00  0.00     0.049 A 
ATOM     47  C   UNL A   1      41.137  30.897  29.872  1.00  0.00     0.074 A 
ATOM     48  C   UNL A   1      46.812  30.338  27.078  1.00  0.00     0.029 A 
ATOM     49  N   UNL A   1      44.756  29.983  27.847  1.00  0.00    -0.354 N 
ATOM     50  N   UNL A   1      42.269  30.707  29.238  1.00  0.00    -0.248 NA
ATOM     51  C   UNL A   1      41.057  32.189  30.571  1.00  0.00     0.031 C 
ATOM     52  C   UNL A   1      46.398  31.474  27.780  1.00  0.00     0.029 A 
ATOM     53  C   UNL A   1      45.108  31.263  28.239  1.00  0.00     0.049 A 
ATOM     54  H   UNL A   1      43.892  29.551  28.039  1.00  0.00     0.167 HD
ATOM     55  C   UNL A   1      43.015  31.866  29.425  1.00  0.00     0.074 A 
ATOM     56  C   UNL A   1      42.200  32.761  30.220  1.00  0.00     0.031 C 
ATOM     57  C   UNL A   1      44.265  32.161  28.988  1.00  0.00     0.034 A 
BRANCH  44  58
ATOM     58  C   UNL A   1      47.023  27.537  25.946  1.00  0.00     0.023 A 
ATOM     59  C   UNL A   1      47.202  27.754  24.565  1.00  0.00     0.012 A 
ATOM     60  C   UNL A   1      48.019  26.858  26.675  1.00  0.00     0.148 A 
ATOM     61  C   UNL A   1      48.336  27.272  23.911  1.00  0.00     0.002 A 
ATOM     62  C   UNL A   1      49.167  26.419  26.026  1.00  0.00     0.091 A 
ATOM     63  F   UNL A   1      47.818  26.640  27.982  1.00  0.00    -0.205 F 
ATOM     64  C   UNL A   1      49.320  26.613  24.643  1.00  0.00     0.022 A 
BRANCH  62  65
ATOM     65  S   UNL A   1      50.525  25.624  26.891  1.00  0.00     0.127 S 
ATOM     66  O   UNL A   1      51.449  25.344  25.794  1.00  0.00    -0.237 OA
ATOM     67  O   UNL A   1      50.963  26.680  27.805  1.00  0.00    -0.237 OA
ATOM     68  O   UNL A   1      49.958  24.452  27.542  1.00  0.00    -0.744 OA
ENDBRANCH  62  65
ENDBRANCH  44  58
BRANCH  45  69
ATOM     69  C   UNL A   1      38.710  30.432  30.700  1.00  0.00     0.023 A 
ATOM     70  C   UNL A   1      38.565  30.087  32.058  1.00  0.00     0.012 A 
ATOM     71  C   UNL A   1      37.690  31.172  30.069  1.00  0.00     0.148 A 
ATOM     72  C   UNL A   1      37.410  30.434  32.761  1.00  0.00     0.002 A 
ATOM     73  C   UNL A   1      36.569  31.563  30.791  1.00  0.00     0.091 A 
ATOM     74  F   UNL A   1      37.839  31.479  28.773  1.00  0.00    -0.205 F 
ATOM     75  C   UNL A   1      36.418  31.179  32.131  1.00  0.00     0.022 A 
BRANCH  73  76
ATOM     76  S   UNL A   1      35.293  32.619  30.096  1.00  0.00     0.127 S 
ATOM     77  O   UNL A   1      34.768  31.784  29.018  1.00  0.00    -0.237 OA
ATOM     78  O   UNL A   1      34.393  32.790  31.237  1.00  0.00    -0.237 OA
ATOM     79  O   UNL A   1      35.971  33.837  29.676  1.00  0.00    -0.744 OA
ENDBRANCH  73  76
ENDBRANCH  45  69
BRANCH  57  80
ATOM     80  C   UNL A   1      44.821  33.526  29.309  1.00  0.00     0.023 A 
ATOM     81  C   UNL A   1      45.573  33.727  30.483  1.00  0.00     0.012 A 
ATOM     82  C   UNL A   1      44.667  34.589  28.396  1.00  0.00     0.148 A 
ATOM     83  C   UNL A   1      46.135  34.974  30.760  1.00  0.00     0.002 A 
ATOM     84  C   UNL A   1      45.276  35.812  28.651  1.00  0.00     0.091 A 
ATOM     85  F   UNL A   1      43.936  34.381  27.292  1.00  0.00    -0.205 F 
ATOM     86  C   UNL A   1      45.997  36.011  29.839  1.00  0.00     0.022 A 
BRANCH  84  87
ATOM     87  S   UNL A   1      45.242  37.169  27.476  1.00  0.00     0.127 S 
ATOM     88  O   UNL A   1      46.023  36.624  26.367  1.00  0.00    -0.237 OA
ATOM     89  O   UNL A   1      43.811  37.307  27.204  1.00  0.00    -0.237 OA
ATOM     90  O   UNL A   1      45.841  38.309  28.158  1.00  0.00    -0.744 OA
ENDBRANCH  84  87
ENDBRANCH  57  80
ENDBRANCH  31  32
ENDBRANCH  24  26
ENDBRANCH  23  24
ENDBRANCH   1  23
TORSDOF 17
ENDMDL
