MODEL 1
REMARK VINA RESULT:     -10.8      0.000      0.000
REMARK SMILES Cc1nc(CSCC(=O)N2CCCC[C@@H]2C(=O)OCCOC(=O)c2ccc(-c3c4nc(c(-c5cccc(S(=O)(=O)[O-])c5F)c5ccc([nH]5)c(-c5cccc(S(=O)(=O)[O-])c5F)c5nc(c(-c6cccc(S(=O)(=O)[O-])c6F)c6ccc3[nH]6)C=C5)C=C4)cc2)cs1
REMARK SMILES IDX 19 1 18 2 16 3 17 4 15 5 10 6 11 7 12 8 14 9 13 10 8 11 9 12
REMARK SMILES IDX 7 13 6 14 5 15 4 16 1 17 2 18 3 19 88 20 87 21 20 22 21 23
REMARK SMILES IDX 22 24 23 25 24 26 25 27 86 28 26 29 85 30 27 31 28 32 29 33
REMARK SMILES IDX 79 34 30 35 84 36 78 37 80 38 31 39 83 40 77 41 76 42 32 44
REMARK SMILES IDX 64 45 44 46 63 47 45 48 48 49 62 50 81 51 46 52 47 53 61 55
REMARK SMILES IDX 82 56 49 57 33 58 34 59 42 60 35 61 37 62 43 63 36 64 38 65
REMARK SMILES IDX 39 66 40 67 41 68 65 69 66 70 74 71 67 72 69 73 75 74 68 75
REMARK SMILES IDX 70 76 71 77 72 78 73 79 50 80 51 81 59 82 52 83 54 84 60 85
REMARK SMILES IDX 53 86 55 87 56 88 57 89 58 90
REMARK H PARENT 80 43 48 54
REMARK Flexibility Score: inf
ROOT
ATOM      1  C   UNL A   1      36.398  21.424  25.126  1.00  0.00     0.274 C 
ENDROOT
BRANCH   1   2
ATOM      2  O   UNL A   1      35.692  21.647  26.365  1.00  0.00    -0.461 OA
BRANCH   2   3
ATOM      3  C   UNL A   1      34.363  21.372  26.342  1.00  0.00     0.328 C 
ATOM      4  O   UNL A   1      33.668  21.228  27.347  1.00  0.00    -0.250 OA
BRANCH   3   5
ATOM      5  C   UNL A   1      33.777  21.217  24.933  1.00  0.00     0.195 C 
ATOM      6  N   UNL A   1      33.295  22.466  24.330  1.00  0.00    -0.328 N 
ATOM      7  C   UNL A   1      32.831  22.421  22.954  1.00  0.00     0.120 C 
ATOM      8  C   UNL A   1      31.916  21.222  22.692  1.00  0.00     0.022 C 
ATOM      9  C   UNL A   1      32.830  20.043  24.714  1.00  0.00     0.037 C 
ATOM     10  C   UNL A   1      32.515  19.919  23.221  1.00  0.00     0.005 C 
BRANCH   6  11
ATOM     11  C   UNL A   1      33.028  23.578  25.113  1.00  0.00     0.233 C 
ATOM     12  O   UNL A   1      31.991  23.671  25.760  1.00  0.00    -0.274 OA
BRANCH  11  13
ATOM     13  C   UNL A   1      34.177  24.592  25.091  1.00  0.00     0.170 C 
BRANCH  13  14
ATOM     14  S   UNL A   1      33.714  26.256  25.667  1.00  0.00    -0.146 SA
BRANCH  14  15
ATOM     15  C   UNL A   1      33.729  27.137  24.073  1.00  0.00     0.127 C 
BRANCH  15  16
ATOM     16  C   UNL A   1      32.358  27.502  23.610  1.00  0.00     0.061 A 
ATOM     17  C   UNL A   1      28.837  26.621  23.913  1.00  0.00     0.079 C 
ATOM     18  C   UNL A   1      30.157  27.235  23.621  1.00  0.00     0.090 A 
ATOM     19  N   UNL A   1      31.283  26.782  24.114  1.00  0.00    -0.246 NA
ATOM     20  S   UNL A   1      30.300  28.597  22.588  1.00  0.00    -0.127 S 
ATOM     21  C   UNL A   1      32.004  28.554  22.786  1.00  0.00     0.091 A 
ENDBRANCH  15  16
ENDBRANCH  14  15
ENDBRANCH  13  14
ENDBRANCH  11  13
ENDBRANCH   6  11
ENDBRANCH   3   5
ENDBRANCH   2   3
ENDBRANCH   1   2
BRANCH   1  22
ATOM     22  C   UNL A   1      37.590  20.469  25.270  1.00  0.00     0.275 C 
BRANCH  22  23
ATOM     23  O   UNL A   1      38.860  21.139  25.175  1.00  0.00    -0.458 OA
BRANCH  23  24
ATOM     24  C   UNL A   1      39.676  20.950  26.237  1.00  0.00     0.338 C 
ATOM     25  O   UNL A   1      40.207  19.895  26.571  1.00  0.00    -0.246 OA
BRANCH  24  26
ATOM     26  C   UNL A   1      40.016  22.229  26.881  1.00  0.00     0.060 A 
ATOM     27  C   UNL A   1      39.327  23.365  26.442  1.00  0.00     0.016 A 
ATOM     28  C   UNL A   1      41.056  22.347  27.803  1.00  0.00     0.016 A 
ATOM     29  C   UNL A   1      39.686  24.628  26.888  1.00  0.00     0.010 A 
ATOM     30  C   UNL A   1      41.434  23.622  28.238  1.00  0.00     0.010 A 
ATOM     31  C   UNL A   1      40.770  24.765  27.754  1.00  0.00    -0.014 A 
BRANCH  31  32
ATOM     32  C   UNL A   1      41.306  26.119  28.005  1.00  0.00     0.031 A 
ATOM     33  C   UNL A   1      42.672  26.461  27.484  1.00  0.00     0.074 A 
ATOM     34  C   UNL A   1      40.557  27.042  28.631  1.00  0.00     0.049 A 
ATOM     35  N   UNL A   1      43.360  27.562  27.625  1.00  0.00    -0.248 NA
ATOM     36  C   UNL A   1      43.351  25.422  26.692  1.00  0.00     0.031 C 
ATOM     37  C   UNL A   1      39.190  26.837  29.109  1.00  0.00     0.029 A 
ATOM     38  N   UNL A   1      40.846  28.338  28.974  1.00  0.00    -0.354 N 
ATOM     39  C   UNL A   1      44.569  27.335  26.979  1.00  0.00     0.074 A 
ATOM     40  C   UNL A   1      44.520  25.991  26.443  1.00  0.00     0.031 C 
ATOM     41  C   UNL A   1      38.763  27.965  29.700  1.00  0.00     0.029 A 
ATOM     42  C   UNL A   1      39.838  28.955  29.676  1.00  0.00     0.049 A 
ATOM     43  H   UNL A   1      41.693  28.781  28.742  1.00  0.00     0.167 HD
ATOM     44  C   UNL A   1      45.622  28.174  26.838  1.00  0.00     0.034 A 
ATOM     45  C   UNL A   1      39.804  30.171  30.252  1.00  0.00     0.034 A 
ATOM     46  C   UNL A   1      45.649  29.515  27.353  1.00  0.00     0.049 A 
ATOM     47  C   UNL A   1      41.011  31.064  30.135  1.00  0.00     0.074 A 
ATOM     48  C   UNL A   1      46.658  30.456  27.258  1.00  0.00     0.029 A 
ATOM     49  N   UNL A   1      44.615  30.105  28.066  1.00  0.00    -0.354 N 
ATOM     50  N   UNL A   1      42.128  30.859  29.478  1.00  0.00    -0.248 NA
ATOM     51  C   UNL A   1      40.946  32.359  30.824  1.00  0.00     0.031 C 
ATOM     52  C   UNL A   1      46.239  31.610  27.930  1.00  0.00     0.029 A 
ATOM     53  C   UNL A   1      44.963  31.394  28.427  1.00  0.00     0.049 A 
ATOM     54  H   UNL A   1      43.759  29.670  28.284  1.00  0.00     0.167 HD
ATOM     55  C   UNL A   1      42.888  32.011  29.649  1.00  0.00     0.074 A 
ATOM     56  C   UNL A   1      42.094  32.916  30.458  1.00  0.00     0.031 C 
ATOM     57  C   UNL A   1      44.134  32.292  29.192  1.00  0.00     0.034 A 
BRANCH  44  58
ATOM     58  C   UNL A   1      46.820  27.653  26.091  1.00  0.00     0.023 A 
ATOM     59  C   UNL A   1      46.903  27.825  24.694  1.00  0.00     0.012 A 
ATOM     60  C   UNL A   1      47.863  26.993  26.768  1.00  0.00     0.148 A 
ATOM     61  C   UNL A   1      47.984  27.312  23.978  1.00  0.00     0.002 A 
ATOM     62  C   UNL A   1      48.957  26.518  26.052  1.00  0.00     0.091 A 
ATOM     63  F   UNL A   1      47.754  26.807  28.091  1.00  0.00    -0.205 F 
ATOM     64  C   UNL A   1      49.015  26.666  24.657  1.00  0.00     0.022 A 
BRANCH  62  65
ATOM     65  S   UNL A   1      50.356  25.731  26.859  1.00  0.00     0.127 S 
ATOM     66  O   UNL A   1      49.756  24.492  27.348  1.00  0.00    -0.237 OA
ATOM     67  O   UNL A   1      51.299  25.556  25.753  1.00  0.00    -0.237 OA
ATOM     68  O   UNL A   1      50.797  26.670  27.881  1.00  0.00    -0.744 OA
ENDBRANCH  62  65
ENDBRANCH  44  58
BRANCH  45  69
ATOM     69  C   UNL A   1      38.573  30.624  30.956  1.00  0.00     0.023 A 
ATOM     70  C   UNL A   1      38.468  30.442  32.348  1.00  0.00     0.012 A 
ATOM     71  C   UNL A   1      37.528  31.272  30.268  1.00  0.00     0.148 A 
ATOM     72  C   UNL A   1      37.341  30.884  33.041  1.00  0.00     0.002 A 
ATOM     73  C   UNL A   1      36.430  31.755  30.971  1.00  0.00     0.091 A 
ATOM     74  F   UNL A   1      37.638  31.418  28.940  1.00  0.00    -0.205 F 
ATOM     75  C   UNL A   1      36.329  31.551  32.355  1.00  0.00     0.022 A 
BRANCH  73  76
ATOM     76  S   UNL A   1      35.137  32.730  30.193  1.00  0.00     0.127 S 
ATOM     77  O   UNL A   1      34.228  32.967  31.312  1.00  0.00    -0.237 OA
ATOM     78  O   UNL A   1      35.880  33.907  29.742  1.00  0.00    -0.237 OA
ATOM     79  O   UNL A   1      34.611  31.901  29.117  1.00  0.00    -0.744 OA
ENDBRANCH  73  76
ENDBRANCH  45  69
BRANCH  57  80
ATOM     80  C   UNL A   1      44.708  33.642  29.531  1.00  0.00     0.023 A 
ATOM     81  C   UNL A   1      45.436  33.810  30.725  1.00  0.00     0.012 A 
ATOM     82  C   UNL A   1      44.595  34.720  28.631  1.00  0.00     0.148 A 
ATOM     83  C   UNL A   1      46.020  35.039  31.031  1.00  0.00     0.002 A 
ATOM     84  C   UNL A   1      45.217  35.928  28.921  1.00  0.00     0.091 A 
ATOM     85  F   UNL A   1      43.879  34.545  27.509  1.00  0.00    -0.205 F 
ATOM     86  C   UNL A   1      45.921  36.093  30.125  1.00  0.00     0.022 A 
BRANCH  84  87
ATOM     87  S   UNL A   1      45.221  37.304  27.767  1.00  0.00     0.127 S 
ATOM     88  O   UNL A   1      45.927  38.332  28.531  1.00  0.00    -0.237 OA
ATOM     89  O   UNL A   1      45.972  36.762  26.635  1.00  0.00    -0.237 OA
ATOM     90  O   UNL A   1      43.821  37.586  27.479  1.00  0.00    -0.744 OA
ENDBRANCH  84  87
ENDBRANCH  57  80
ENDBRANCH  31  32
ENDBRANCH  24  26
ENDBRANCH  23  24
ENDBRANCH  22  23
ENDBRANCH   1  22
TORSDOF 19
ENDMDL
MODEL 2
REMARK VINA RESULT:     -10.6      1.612      2.077
REMARK SMILES Cc1nc(CSCC(=O)N2CCCC[C@@H]2C(=O)OCCOC(=O)c2ccc(-c3c4nc(c(-c5cccc(S(=O)(=O)[O-])c5F)c5ccc([nH]5)c(-c5cccc(S(=O)(=O)[O-])c5F)c5nc(c(-c6cccc(S(=O)(=O)[O-])c6F)c6ccc3[nH]6)C=C5)C=C4)cc2)cs1
REMARK SMILES IDX 19 1 18 2 16 3 17 4 15 5 10 6 11 7 12 8 14 9 13 10 8 11 9 12
REMARK SMILES IDX 7 13 6 14 5 15 4 16 1 17 2 18 3 19 88 20 87 21 20 22 21 23
REMARK SMILES IDX 22 24 23 25 24 26 25 27 86 28 26 29 85 30 27 31 28 32 29 33
REMARK SMILES IDX 79 34 30 35 84 36 78 37 80 38 31 39 83 40 77 41 76 42 32 44
REMARK SMILES IDX 64 45 44 46 63 47 45 48 48 49 62 50 81 51 46 52 47 53 61 55
REMARK SMILES IDX 82 56 49 57 33 58 34 59 42 60 35 61 37 62 43 63 36 64 38 65
REMARK SMILES IDX 39 66 40 67 41 68 65 69 66 70 74 71 67 72 69 73 75 74 68 75
REMARK SMILES IDX 70 76 71 77 72 78 73 79 50 80 51 81 59 82 52 83 54 84 60 85
REMARK SMILES IDX 53 86 55 87 56 88 57 89 58 90
REMARK H PARENT 80 43 48 54
REMARK Flexibility Score: inf
ROOT
ATOM      1  C   UNL A   1      36.412  19.541  24.930  1.00  0.00     0.274 C 
ENDROOT
BRANCH   1   2
ATOM      2  O   UNL A   1      35.329  20.490  24.841  1.00  0.00    -0.461 OA
BRANCH   2   3
ATOM      3  C   UNL A   1      34.093  20.001  25.117  1.00  0.00     0.328 C 
ATOM      4  O   UNL A   1      33.702  18.882  24.790  1.00  0.00    -0.250 OA
BRANCH   3   5
ATOM      5  C   UNL A   1      33.179  20.985  25.858  1.00  0.00     0.195 C 
ATOM      6  N   UNL A   1      32.153  21.617  25.019  1.00  0.00    -0.328 N 
ATOM      7  C   UNL A   1      31.177  22.475  25.670  1.00  0.00     0.120 C 
ATOM      8  C   UNL A   1      31.827  23.436  26.668  1.00  0.00     0.022 C 
ATOM      9  C   UNL A   1      33.858  21.964  26.808  1.00  0.00     0.037 C 
ATOM     10  C   UNL A   1      32.792  22.715  27.610  1.00  0.00     0.005 C 
BRANCH   6  11
ATOM     11  C   UNL A   1      32.270  21.627  23.638  1.00  0.00     0.233 C 
ATOM     12  O   UNL A   1      32.198  20.595  22.982  1.00  0.00    -0.274 OA
BRANCH  11  13
ATOM     13  C   UNL A   1      32.443  23.045  23.081  1.00  0.00     0.170 C 
BRANCH  13  14
ATOM     14  S   UNL A   1      34.000  23.852  23.571  1.00  0.00    -0.146 SA
BRANCH  14  15
ATOM     15  C   UNL A   1      33.739  25.486  22.810  1.00  0.00     0.127 C 
BRANCH  15  16
ATOM     16  C   UNL A   1      32.764  26.321  23.572  1.00  0.00     0.061 A 
ATOM     17  C   UNL A   1      31.818  27.389  26.923  1.00  0.00     0.079 C 
ATOM     18  C   UNL A   1      31.980  27.172  25.463  1.00  0.00     0.090 A 
ATOM     19  N   UNL A   1      32.900  26.392  24.951  1.00  0.00    -0.246 NA
ATOM     20  S   UNL A   1      30.945  27.933  24.327  1.00  0.00    -0.127 S 
ATOM     21  C   UNL A   1      31.767  27.127  23.055  1.00  0.00     0.091 A 
ENDBRANCH  15  16
ENDBRANCH  14  15
ENDBRANCH  13  14
ENDBRANCH  11  13
ENDBRANCH   6  11
ENDBRANCH   3   5
ENDBRANCH   2   3
ENDBRANCH   1   2
BRANCH   1  22
ATOM     22  C   UNL A   1      37.783  20.151  24.612  1.00  0.00     0.275 C 
BRANCH  22  23
ATOM     23  O   UNL A   1      38.133  21.234  25.493  1.00  0.00    -0.458 OA
BRANCH  23  24
ATOM     24  C   UNL A   1      39.330  21.096  26.106  1.00  0.00     0.338 C 
ATOM     25  O   UNL A   1      40.086  20.132  26.023  1.00  0.00    -0.246 OA
BRANCH  24  26
ATOM     26  C   UNL A   1      39.733  22.343  26.775  1.00  0.00     0.060 A 
ATOM     27  C   UNL A   1      39.074  23.515  26.386  1.00  0.00     0.016 A 
ATOM     28  C   UNL A   1      40.800  22.399  27.671  1.00  0.00     0.016 A 
ATOM     29  C   UNL A   1      39.489  24.751  26.856  1.00  0.00     0.010 A 
ATOM     30  C   UNL A   1      41.235  23.647  28.129  1.00  0.00     0.010 A 
ATOM     31  C   UNL A   1      40.600  24.826  27.695  1.00  0.00    -0.014 A 
BRANCH  31  32
ATOM     32  C   UNL A   1      41.191  26.153  27.968  1.00  0.00     0.031 A 
ATOM     33  C   UNL A   1      42.582  26.436  27.480  1.00  0.00     0.074 A 
ATOM     34  C   UNL A   1      40.470  27.105  28.584  1.00  0.00     0.049 A 
ATOM     35  N   UNL A   1      43.316  27.503  27.644  1.00  0.00    -0.248 NA
ATOM     36  C   UNL A   1      43.231  25.372  26.695  1.00  0.00     0.031 C 
ATOM     37  C   UNL A   1      39.085  26.959  29.030  1.00  0.00     0.029 A 
ATOM     38  N   UNL A   1      40.809  28.384  28.943  1.00  0.00    -0.354 N 
ATOM     39  C   UNL A   1      44.528  27.226  27.023  1.00  0.00     0.074 A 
ATOM     40  C   UNL A   1      44.430  25.890  26.477  1.00  0.00     0.031 C 
ATOM     41  C   UNL A   1      38.696  28.101  29.619  1.00  0.00     0.029 A 
ATOM     42  C   UNL A   1      39.815  29.041  29.626  1.00  0.00     0.049 A 
ATOM     43  H   UNL A   1      41.680  28.790  28.733  1.00  0.00     0.167 HD
ATOM     44  C   UNL A   1      45.620  28.017  26.911  1.00  0.00     0.034 A 
ATOM     45  C   UNL A   1      39.822  30.254  30.210  1.00  0.00     0.034 A 
ATOM     46  C   UNL A   1      45.696  29.352  27.437  1.00  0.00     0.049 A 
ATOM     47  C   UNL A   1      41.070  31.092  30.126  1.00  0.00     0.074 A 
ATOM     48  C   UNL A   1      46.748  30.248  27.372  1.00  0.00     0.029 A 
ATOM     49  N   UNL A   1      44.673  29.984  28.131  1.00  0.00    -0.354 N 
ATOM     50  N   UNL A   1      42.192  30.842  29.493  1.00  0.00    -0.248 NA
ATOM     51  C   UNL A   1      41.049  32.385  30.824  1.00  0.00     0.031 C 
ATOM     52  C   UNL A   1      46.366  31.416  28.042  1.00  0.00     0.029 A 
ATOM     53  C   UNL A   1      45.071  31.255  28.510  1.00  0.00     0.049 A 
ATOM     54  H   UNL A   1      43.794  29.587  28.326  1.00  0.00     0.167 HD
ATOM     55  C   UNL A   1      42.999  31.957  29.689  1.00  0.00     0.074 A 
ATOM     56  C   UNL A   1      42.228  32.891  30.487  1.00  0.00     0.031 C 
ATOM     57  C   UNL A   1      44.267  32.184  29.262  1.00  0.00     0.034 A 
BRANCH  44  58
ATOM     58  C   UNL A   1      46.810  27.447  26.188  1.00  0.00     0.023 A 
ATOM     59  C   UNL A   1      47.690  26.579  26.865  1.00  0.00     0.012 A 
ATOM     60  C   UNL A   1      47.060  27.769  24.840  1.00  0.00     0.148 A 
ATOM     61  C   UNL A   1      48.823  26.075  26.226  1.00  0.00     0.002 A 
ATOM     62  C   UNL A   1      48.170  27.231  24.198  1.00  0.00     0.091 A 
ATOM     63  F   UNL A   1      46.232  28.623  24.220  1.00  0.00    -0.205 F 
ATOM     64  C   UNL A   1      49.058  26.393  24.891  1.00  0.00     0.022 A 
BRANCH  62  65
ATOM     65  S   UNL A   1      48.509  27.542  22.461  1.00  0.00     0.127 S 
ATOM     66  O   UNL A   1      49.760  28.294  22.534  1.00  0.00    -0.237 OA
ATOM     67  O   UNL A   1      48.644  26.189  21.921  1.00  0.00    -0.237 OA
ATOM     68  O   UNL A   1      47.355  28.276  21.961  1.00  0.00    -0.744 OA
ENDBRANCH  62  65
ENDBRANCH  44  58
BRANCH  45  69
ATOM     69  C   UNL A   1      38.597  30.758  30.890  1.00  0.00     0.023 A 
ATOM     70  C   UNL A   1      38.493  30.652  32.290  1.00  0.00     0.012 A 
ATOM     71  C   UNL A   1      37.559  31.380  30.169  1.00  0.00     0.148 A 
ATOM     72  C   UNL A   1      37.371  31.143  32.959  1.00  0.00     0.002 A 
ATOM     73  C   UNL A   1      36.468  31.912  30.846  1.00  0.00     0.091 A 
ATOM     74  F   UNL A   1      37.669  31.454  28.835  1.00  0.00    -0.205 F 
ATOM     75  C   UNL A   1      36.366  31.783  32.239  1.00  0.00     0.022 A 
BRANCH  73  76
ATOM     76  S   UNL A   1      35.185  32.859  30.018  1.00  0.00     0.127 S 
ATOM     77  O   UNL A   1      34.686  31.896  29.040  1.00  0.00    -0.237 OA
ATOM     78  O   UNL A   1      34.268  33.151  31.121  1.00  0.00    -0.237 OA
ATOM     79  O   UNL A   1      35.853  34.030  29.466  1.00  0.00    -0.744 OA
ENDBRANCH  73  76
ENDBRANCH  45  69
BRANCH  57  80
ATOM     80  C   UNL A   1      44.893  33.504  29.623  1.00  0.00     0.023 A 
ATOM     81  C   UNL A   1      45.644  33.619  30.810  1.00  0.00     0.012 A 
ATOM     82  C   UNL A   1      44.805  34.607  28.750  1.00  0.00     0.148 A 
ATOM     83  C   UNL A   1      46.275  34.819  31.135  1.00  0.00     0.002 A 
ATOM     84  C   UNL A   1      45.475  35.785  29.059  1.00  0.00     0.091 A 
ATOM     85  F   UNL A   1      44.068  34.484  27.635  1.00  0.00    -0.205 F 
ATOM     86  C   UNL A   1      46.201  35.896  30.255  1.00  0.00     0.022 A 
BRANCH  84  87
ATOM     87  S   UNL A   1      45.511  37.187  27.937  1.00  0.00     0.127 S 
ATOM     88  O   UNL A   1      46.330  38.143  28.681  1.00  0.00    -0.237 OA
ATOM     89  O   UNL A   1      46.156  36.623  26.751  1.00  0.00    -0.237 OA
ATOM     90  O   UNL A   1      44.120  37.573  27.737  1.00  0.00    -0.744 OA
ENDBRANCH  84  87
ENDBRANCH  57  80
ENDBRANCH  31  32
ENDBRANCH  24  26
ENDBRANCH  23  24
ENDBRANCH  22  23
ENDBRANCH   1  22
TORSDOF 19
ENDMDL
MODEL 3
REMARK VINA RESULT:     -10.6      0.456      7.835
REMARK SMILES Cc1nc(CSCC(=O)N2CCCC[C@@H]2C(=O)OCCOC(=O)c2ccc(-c3c4nc(c(-c5cccc(S(=O)(=O)[O-])c5F)c5ccc([nH]5)c(-c5cccc(S(=O)(=O)[O-])c5F)c5nc(c(-c6cccc(S(=O)(=O)[O-])c6F)c6ccc3[nH]6)C=C5)C=C4)cc2)cs1
REMARK SMILES IDX 19 1 18 2 16 3 17 4 15 5 10 6 11 7 12 8 14 9 13 10 8 11 9 12
REMARK SMILES IDX 7 13 6 14 5 15 4 16 1 17 2 18 3 19 88 20 87 21 20 22 21 23
REMARK SMILES IDX 22 24 23 25 24 26 25 27 86 28 26 29 85 30 27 31 28 32 29 33
REMARK SMILES IDX 79 34 30 35 84 36 78 37 80 38 31 39 83 40 77 41 76 42 32 44
REMARK SMILES IDX 64 45 44 46 63 47 45 48 48 49 62 50 81 51 46 52 47 53 61 55
REMARK SMILES IDX 82 56 49 57 33 58 34 59 42 60 35 61 37 62 43 63 36 64 38 65
REMARK SMILES IDX 39 66 40 67 41 68 65 69 66 70 74 71 67 72 69 73 75 74 68 75
REMARK SMILES IDX 70 76 71 77 72 78 73 79 50 80 51 81 59 82 52 83 54 84 60 85
REMARK SMILES IDX 53 86 55 87 56 88 57 89 58 90
REMARK H PARENT 80 43 48 54
REMARK Flexibility Score: inf
ROOT
ATOM      1  C   UNL A   1      36.136  21.712  25.058  1.00  0.00     0.274 C 
ENDROOT
BRANCH   1   2
ATOM      2  O   UNL A   1      35.399  21.825  26.294  1.00  0.00    -0.461 OA
BRANCH   2   3
ATOM      3  C   UNL A   1      34.077  21.525  26.219  1.00  0.00     0.328 C 
ATOM      4  O   UNL A   1      33.350  21.351  27.195  1.00  0.00    -0.250 OA
BRANCH   3   5
ATOM      5  C   UNL A   1      33.545  21.383  24.788  1.00  0.00     0.195 C 
ATOM      6  N   UNL A   1      33.152  22.648  24.152  1.00  0.00    -0.328 N 
ATOM      7  C   UNL A   1      32.745  22.610  22.759  1.00  0.00     0.120 C 
ATOM      8  C   UNL A   1      31.782  21.456  22.469  1.00  0.00     0.022 C 
ATOM      9  C   UNL A   1      32.549  20.256  24.539  1.00  0.00     0.037 C 
ATOM     10  C   UNL A   1      32.292  20.131  23.035  1.00  0.00     0.005 C 
BRANCH   6  11
ATOM     11  C   UNL A   1      32.908  23.781  24.913  1.00  0.00     0.233 C 
ATOM     12  O   UNL A   1      31.914  23.873  25.623  1.00  0.00    -0.274 OA
BRANCH  11  13
ATOM     13  C   UNL A   1      34.028  24.820  24.781  1.00  0.00     0.170 C 
BRANCH  13  14
ATOM     14  S   UNL A   1      33.601  26.463  25.437  1.00  0.00    -0.146 SA
BRANCH  14  15
ATOM     15  C   UNL A   1      33.494  27.389  23.872  1.00  0.00     0.127 C 
BRANCH  15  16
ATOM     16  C   UNL A   1      32.087  27.713  23.496  1.00  0.00     0.061 A 
ATOM     17  C   UNL A   1      28.635  26.606  23.850  1.00  0.00     0.079 C 
ATOM     18  C   UNL A   1      29.906  27.319  23.565  1.00  0.00     0.090 A 
ATOM     19  N   UNL A   1      31.075  26.891  23.972  1.00  0.00    -0.246 NA
ATOM     20  S   UNL A   1      29.931  28.773  22.656  1.00  0.00    -0.127 S 
ATOM     21  C   UNL A   1      31.641  28.811  22.784  1.00  0.00     0.091 A 
ENDBRANCH  15  16
ENDBRANCH  14  15
ENDBRANCH  13  14
ENDBRANCH  11  13
ENDBRANCH   6  11
ENDBRANCH   3   5
ENDBRANCH   2   3
ENDBRANCH   1   2
BRANCH   1  22
ATOM     22  C   UNL A   1      37.227  20.634  25.098  1.00  0.00     0.275 C 
BRANCH  22  23
ATOM     23  O   UNL A   1      38.556  21.177  25.001  1.00  0.00    -0.458 OA
BRANCH  23  24
ATOM     24  C   UNL A   1      39.345  20.927  26.070  1.00  0.00     0.338 C 
ATOM     25  O   UNL A   1      39.775  19.831  26.420  1.00  0.00    -0.246 OA
BRANCH  24  26
ATOM     26  C   UNL A   1      39.799  22.176  26.702  1.00  0.00     0.060 A 
ATOM     27  C   UNL A   1      39.336  23.374  26.146  1.00  0.00     0.016 A 
ATOM     28  C   UNL A   1      40.739  22.193  27.732  1.00  0.00     0.016 A 
ATOM     29  C   UNL A   1      39.827  24.594  26.583  1.00  0.00     0.010 A 
ATOM     30  C   UNL A   1      41.252  23.422  28.160  1.00  0.00     0.010 A 
ATOM     31  C   UNL A   1      40.820  24.621  27.562  1.00  0.00    -0.014 A 
BRANCH  31  32
ATOM     32  C   UNL A   1      41.519  25.897  27.824  1.00  0.00     0.031 A 
ATOM     33  C   UNL A   1      40.800  26.968  28.590  1.00  0.00     0.074 A 
ATOM     34  C   UNL A   1      42.795  26.065  27.437  1.00  0.00     0.049 A 
ATOM     35  N   UNL A   1      41.194  28.176  28.893  1.00  0.00    -0.248 NA
ATOM     36  C   UNL A   1      39.456  26.629  29.088  1.00  0.00     0.031 C 
ATOM     37  C   UNL A   1      43.609  25.060  26.754  1.00  0.00     0.029 A 
ATOM     38  N   UNL A   1      43.627  27.147  27.563  1.00  0.00    -0.354 N 
ATOM     39  C   UNL A   1      40.133  28.757  29.577  1.00  0.00     0.074 A 
ATOM     40  C   UNL A   1      39.079  27.768  29.647  1.00  0.00     0.031 C 
ATOM     41  C   UNL A   1      44.823  25.580  26.506  1.00  0.00     0.029 A 
ATOM     42  C   UNL A   1      44.855  26.963  26.976  1.00  0.00     0.049 A 
ATOM     43  H   UNL A   1      43.367  27.975  28.026  1.00  0.00     0.167 HD
ATOM     44  C   UNL A   1      40.050  29.999  30.107  1.00  0.00     0.034 A 
ATOM     45  C   UNL A   1      45.877  27.826  26.818  1.00  0.00     0.034 A 
ATOM     46  C   UNL A   1      41.113  30.964  30.054  1.00  0.00     0.049 A 
ATOM     47  C   UNL A   1      45.737  29.224  27.361  1.00  0.00     0.074 A 
ATOM     48  C   UNL A   1      41.142  32.248  30.566  1.00  0.00     0.029 A 
ATOM     49  N   UNL A   1      42.341  30.748  29.444  1.00  0.00    -0.354 N 
ATOM     50  N   UNL A   1      44.751  29.747  28.051  1.00  0.00    -0.248 NA
ATOM     51  C   UNL A   1      46.855  30.144  27.118  1.00  0.00     0.031 C 
ATOM     52  C   UNL A   1      42.383  32.814  30.251  1.00  0.00     0.029 A 
ATOM     53  C   UNL A   1      43.133  31.877  29.558  1.00  0.00     0.049 A 
ATOM     54  H   UNL A   1      42.610  29.913  28.995  1.00  0.00     0.167 HD
ATOM     55  C   UNL A   1      45.141  31.047  28.351  1.00  0.00     0.074 A 
ATOM     56  C   UNL A   1      46.463  31.225  27.781  1.00  0.00     0.031 C 
ATOM     57  C   UNL A   1      44.465  32.012  29.024  1.00  0.00     0.034 A 
BRANCH  44  58
ATOM     58  C   UNL A   1      38.761  30.369  30.790  1.00  0.00     0.023 A 
ATOM     59  C   UNL A   1      38.536  29.968  32.123  1.00  0.00     0.012 A 
ATOM     60  C   UNL A   1      37.772  31.112  30.117  1.00  0.00     0.148 A 
ATOM     61  C   UNL A   1      37.331  30.264  32.760  1.00  0.00     0.002 A 
ATOM     62  C   UNL A   1      36.589  31.436  30.772  1.00  0.00     0.091 A 
ATOM     63  F   UNL A   1      37.987  31.456  28.839  1.00  0.00    -0.205 F 
ATOM     64  C   UNL A   1      36.361  31.005  32.088  1.00  0.00     0.022 A 
BRANCH  62  65
ATOM     65  S   UNL A   1      35.316  32.441  29.998  1.00  0.00     0.127 S 
ATOM     66  O   UNL A   1      34.845  31.555  28.936  1.00  0.00    -0.237 OA
ATOM     67  O   UNL A   1      34.364  32.639  31.092  1.00  0.00    -0.237 OA
ATOM     68  O   UNL A   1      35.989  33.656  29.560  1.00  0.00    -0.744 OA
ENDBRANCH  62  65
ENDBRANCH  44  58
BRANCH  45  69
ATOM     69  C   UNL A   1      47.129  27.379  26.149  1.00  0.00     0.023 A 
ATOM     70  C   UNL A   1      47.348  27.716  24.800  1.00  0.00     0.012 A 
ATOM     71  C   UNL A   1      48.122  26.664  26.848  1.00  0.00     0.148 A 
ATOM     72  C   UNL A   1      48.526  27.338  24.154  1.00  0.00     0.002 A 
ATOM     73  C   UNL A   1      49.314  26.335  26.214  1.00  0.00     0.091 A 
ATOM     74  F   UNL A   1      47.886  26.337  28.127  1.00  0.00    -0.205 F 
ATOM     75  C   UNL A   1      49.513  26.659  24.864  1.00  0.00     0.022 A 
BRANCH  73  76
ATOM     76  S   UNL A   1      50.690  25.569  27.080  1.00  0.00     0.127 S 
ATOM     77  O   UNL A   1      51.641  25.349  25.994  1.00  0.00    -0.237 OA
ATOM     78  O   UNL A   1      51.068  26.617  28.029  1.00  0.00    -0.237 OA
ATOM     79  O   UNL A   1      50.147  24.366  27.697  1.00  0.00    -0.744 OA
ENDBRANCH  73  76
ENDBRANCH  45  69
BRANCH  57  80
ATOM     80  C   UNL A   1      45.151  33.339  29.206  1.00  0.00     0.023 A 
ATOM     81  C   UNL A   1      46.090  33.503  30.242  1.00  0.00     0.012 A 
ATOM     82  C   UNL A   1      44.924  34.397  28.303  1.00  0.00     0.148 A 
ATOM     83  C   UNL A   1      46.774  34.709  30.394  1.00  0.00     0.002 A 
ATOM     84  C   UNL A   1      45.642  35.580  28.433  1.00  0.00     0.091 A 
ATOM     85  F   UNL A   1      44.009  34.228  27.336  1.00  0.00    -0.205 F 
ATOM     86  C   UNL A   1      46.559  35.741  29.484  1.00  0.00     0.022 A 
BRANCH  84  87
ATOM     87  S   UNL A   1      45.497  36.922  27.249  1.00  0.00     0.127 S 
ATOM     88  O   UNL A   1      46.346  36.449  26.157  1.00  0.00    -0.237 OA
ATOM     89  O   UNL A   1      44.064  36.924  26.952  1.00  0.00    -0.237 OA
ATOM     90  O   UNL A   1      45.968  38.115  27.940  1.00  0.00    -0.744 OA
ENDBRANCH  84  87
ENDBRANCH  57  80
ENDBRANCH  31  32
ENDBRANCH  24  26
ENDBRANCH  23  24
ENDBRANCH  22  23
ENDBRANCH   1  22
TORSDOF 19
ENDMDL
