MODEL 1
REMARK VINA RESULT:     -10.2      0.000      0.000
REMARK SMILES O=C(Cc1cc(=O)nc(SCc2cccc(Cl)c2)[nH]1)OCCOC(=O)c1ccc(-c2c3nc(c(-c4cccc(S(=O)(=O)[O-])c4F)c4ccc([nH]4)c(-c4cccc(S(=O)(=O)[O-])c4F)c4nc(c(-c5cccc(S(=O)(=O)[O-])c5F)c5ccc2[nH]5)C=C4)C=C3)cc1
REMARK SMILES IDX 21 1 20 2 2 3 1 4 3 5 4 6 5 7 19 8 6 9 9 10 7 12 8 13 10 14
REMARK SMILES IDX 11 15 12 16 13 17 18 18 14 19 16 20 15 21 17 22 22 23 23 24
REMARK SMILES IDX 24 25 25 26 26 27 27 28 88 29 28 30 87 31 29 32 30 33 31 34
REMARK SMILES IDX 81 35 32 36 86 37 80 38 82 39 33 40 85 41 79 42 78 43 34 45
REMARK SMILES IDX 66 46 46 47 65 48 47 49 50 50 64 51 83 52 48 53 49 54 63 56
REMARK SMILES IDX 84 57 51 58 35 59 36 60 44 61 37 62 39 63 45 64 38 65 40 66
REMARK SMILES IDX 41 67 42 68 43 69 67 70 68 71 76 72 69 73 71 74 77 75 70 76
REMARK SMILES IDX 72 77 73 78 74 79 75 80 52 81 53 82 61 83 54 84 56 85 62 86
REMARK SMILES IDX 55 87 57 88 58 89 59 90 60 91
REMARK H PARENT 19 11 82 44 50 55
REMARK Flexibility Score: inf
ROOT
ATOM      1  C   UNL A   1      32.950  33.813  27.794  1.00  0.00     0.274 C 
ENDROOT
BRANCH   1   2
ATOM      2  O   UNL A   1      32.549  35.040  28.431  1.00  0.00    -0.462 OA
BRANCH   2   3
ATOM      3  C   UNL A   1      33.398  36.087  28.592  1.00  0.00     0.311 C 
ATOM      4  O   UNL A   1      34.450  36.137  27.959  1.00  0.00    -0.252 OA
BRANCH   3   5
ATOM      5  C   UNL A   1      33.056  37.127  29.647  1.00  0.00     0.176 C 
BRANCH   5   6
ATOM      6  C   UNL A   1      33.447  36.719  31.038  1.00  0.00     0.034 A 
ATOM      7  C   UNL A   1      33.483  37.587  32.059  1.00  0.00     0.095 A 
ATOM      8  N   UNL A   1      33.860  35.424  31.264  1.00  0.00    -0.337 N 
ATOM      9  C   UNL A   1      33.932  37.113  33.397  1.00  0.00     0.273 A 
ATOM     10  C   UNL A   1      34.201  35.006  32.516  1.00  0.00     0.169 A 
ATOM     11  H   UNL A   1      33.911  34.792  30.511  1.00  0.00     0.168 HD
ATOM     12  O   UNL A   1      34.004  37.925  34.311  1.00  0.00    -0.267 OA
ATOM     13  N   UNL A   1      34.232  35.777  33.551  1.00  0.00    -0.185 NA
BRANCH  10  14
ATOM     14  S   UNL A   1      34.623  33.332  32.810  1.00  0.00    -0.083 SA
BRANCH  14  15
ATOM     15  C   UNL A   1      36.382  33.309  33.157  1.00  0.00     0.113 C 
BRANCH  15  16
ATOM     16  C   UNL A   1      37.372  33.413  32.015  1.00  0.00    -0.036 A 
ATOM     17  C   UNL A   1      36.921  33.037  30.734  1.00  0.00     0.005 A 
ATOM     18  C   UNL A   1      38.696  33.864  32.138  1.00  0.00     0.025 A 
ATOM     19  C   UNL A   1      37.760  33.101  29.618  1.00  0.00     0.002 A 
ATOM     20  C   UNL A   1      39.535  33.917  31.021  1.00  0.00     0.041 A 
ATOM     21  C   UNL A   1      39.073  33.539  29.762  1.00  0.00     0.020 A 
ATOM     22  Cl  UNL A   1      41.166  34.433  31.202  1.00  0.00    -0.084 Cl
ENDBRANCH  15  16
ENDBRANCH  14  15
ENDBRANCH  10  14
ENDBRANCH   5   6
ENDBRANCH   3   5
ENDBRANCH   2   3
ENDBRANCH   1   2
BRANCH   1  23
ATOM     23  C   UNL A   1      33.944  33.021  28.643  1.00  0.00     0.275 C 
BRANCH  23  24
ATOM     24  O   UNL A   1      34.853  32.310  27.789  1.00  0.00    -0.458 OA
BRANCH  24  25
ATOM     25  C   UNL A   1      34.676  30.962  27.770  1.00  0.00     0.338 C 
ATOM     26  O   UNL A   1      33.716  30.362  27.317  1.00  0.00    -0.246 OA
BRANCH  25  27
ATOM     27  C   UNL A   1      35.950  30.320  28.162  1.00  0.00     0.060 A 
ATOM     28  C   UNL A   1      37.045  30.266  27.293  1.00  0.00     0.016 A 
ATOM     29  C   UNL A   1      36.007  29.696  29.413  1.00  0.00     0.016 A 
ATOM     30  C   UNL A   1      38.206  29.596  27.688  1.00  0.00     0.010 A 
ATOM     31  C   UNL A   1      37.165  29.021  29.801  1.00  0.00     0.010 A 
ATOM     32  C   UNL A   1      38.276  28.979  28.948  1.00  0.00    -0.014 A 
BRANCH  32  33
ATOM     33  C   UNL A   1      39.568  28.457  29.454  1.00  0.00     0.031 A 
ATOM     34  C   UNL A   1      40.260  27.289  28.821  1.00  0.00     0.074 A 
ATOM     35  C   UNL A   1      40.090  29.050  30.544  1.00  0.00     0.049 A 
ATOM     36  N   UNL A   1      41.397  26.739  29.157  1.00  0.00    -0.248 NA
ATOM     37  C   UNL A   1      39.606  26.661  27.662  1.00  0.00     0.031 C 
ATOM     38  C   UNL A   1      39.487  30.182  31.254  1.00  0.00     0.029 A 
ATOM     39  N   UNL A   1      41.231  28.780  31.254  1.00  0.00    -0.354 N 
ATOM     40  C   UNL A   1      41.600  25.697  28.261  1.00  0.00     0.074 A 
ATOM     41  C   UNL A   1      40.462  25.688  27.365  1.00  0.00     0.031 C 
ATOM     42  C   UNL A   1      40.264  30.509  32.297  1.00  0.00     0.029 A 
ATOM     43  C   UNL A   1      41.406  29.603  32.340  1.00  0.00     0.049 A 
ATOM     44  H   UNL A   1      41.863  28.067  31.008  1.00  0.00     0.167 HD
ATOM     45  C   UNL A   1      42.650  24.844  28.187  1.00  0.00     0.034 A 
ATOM     46  C   UNL A   1      42.379  29.628  33.271  1.00  0.00     0.034 A 
ATOM     47  C   UNL A   1      43.779  24.860  29.083  1.00  0.00     0.049 A 
ATOM     48  C   UNL A   1      43.514  28.654  33.173  1.00  0.00     0.074 A 
ATOM     49  C   UNL A   1      44.898  24.045  29.062  1.00  0.00     0.029 A 
ATOM     50  N   UNL A   1      43.933  25.720  30.157  1.00  0.00    -0.354 N 
ATOM     51  N   UNL A   1      43.737  27.744  32.257  1.00  0.00    -0.248 NA
ATOM     52  C   UNL A   1      44.547  28.727  34.217  1.00  0.00     0.031 C 
ATOM     53  C   UNL A   1      45.729  24.411  30.126  1.00  0.00     0.029 A 
ATOM     54  C   UNL A   1      45.129  25.458  30.803  1.00  0.00     0.049 A 
ATOM     55  H   UNL A   1      43.287  26.414  30.422  1.00  0.00     0.167 HD
ATOM     56  C   UNL A   1      44.952  27.160  32.593  1.00  0.00     0.074 A 
ATOM     57  C   UNL A   1      45.420  27.822  33.794  1.00  0.00     0.031 C 
ATOM     58  C   UNL A   1      45.612  26.158  31.965  1.00  0.00     0.034 A 
BRANCH  45  59
ATOM     59  C   UNL A   1      42.686  23.845  27.065  1.00  0.00     0.023 A 
ATOM     60  C   UNL A   1      43.468  24.134  25.929  1.00  0.00     0.012 A 
ATOM     61  C   UNL A   1      42.099  22.572  27.201  1.00  0.00     0.148 A 
ATOM     62  C   UNL A   1      43.670  23.168  24.944  1.00  0.00     0.002 A 
ATOM     63  C   UNL A   1      42.327  21.605  26.228  1.00  0.00     0.091 A 
ATOM     64  F   UNL A   1      41.359  22.326  28.291  1.00  0.00    -0.205 F 
ATOM     65  C   UNL A   1      43.110  21.901  25.099  1.00  0.00     0.022 A 
BRANCH  63  66
ATOM     66  S   UNL A   1      41.718  19.921  26.365  1.00  0.00     0.127 S 
ATOM     67  O   UNL A   1      40.277  20.112  26.206  1.00  0.00    -0.237 OA
ATOM     68  O   UNL A   1      42.375  19.264  25.234  1.00  0.00    -0.237 OA
ATOM     69  O   UNL A   1      42.133  19.446  27.678  1.00  0.00    -0.744 OA
ENDBRANCH  63  66
ENDBRANCH  45  59
BRANCH  46  70
ATOM     70  C   UNL A   1      42.355  30.680  34.320  1.00  0.00     0.023 A 
ATOM     71  C   UNL A   1      41.789  30.377  35.572  1.00  0.00     0.012 A 
ATOM     72  C   UNL A   1      42.947  31.939  34.111  1.00  0.00     0.148 A 
ATOM     73  C   UNL A   1      41.801  31.318  36.600  1.00  0.00     0.002 A 
ATOM     74  C   UNL A   1      42.992  32.858  35.151  1.00  0.00     0.091 A 
ATOM     75  F   UNL A   1      43.475  32.199  32.907  1.00  0.00    -0.205 F 
ATOM     76  C   UNL A   1      42.410  32.552  36.394  1.00  0.00     0.022 A 
BRANCH  74  77
ATOM     77  S   UNL A   1      43.848  34.430  35.019  1.00  0.00     0.127 S 
ATOM     78  O   UNL A   1      42.944  35.189  34.158  1.00  0.00    -0.237 OA
ATOM     79  O   UNL A   1      43.887  34.869  36.414  1.00  0.00    -0.237 OA
ATOM     80  O   UNL A   1      45.152  34.122  34.446  1.00  0.00    -0.744 OA
ENDBRANCH  74  77
ENDBRANCH  46  70
BRANCH  58  81
ATOM     81  C   UNL A   1      46.931  25.724  32.538  1.00  0.00     0.023 A 
ATOM     82  C   UNL A   1      48.114  26.355  32.110  1.00  0.00     0.012 A 
ATOM     83  C   UNL A   1      46.987  24.757  33.561  1.00  0.00     0.148 A 
ATOM     84  C   UNL A   1      49.340  26.019  32.684  1.00  0.00     0.002 A 
ATOM     85  C   UNL A   1      48.208  24.451  34.150  1.00  0.00     0.091 A 
ATOM     86  F   UNL A   1      45.848  24.158  33.938  1.00  0.00    -0.205 F 
ATOM     87  C   UNL A   1      49.385  25.078  33.709  1.00  0.00     0.022 A 
BRANCH  85  88
ATOM     88  S   UNL A   1      48.353  23.301  35.522  1.00  0.00     0.127 S 
ATOM     89  O   UNL A   1      47.628  24.005  36.579  1.00  0.00    -0.237 OA
ATOM     90  O   UNL A   1      47.675  22.112  35.004  1.00  0.00    -0.237 OA
ATOM     91  O   UNL A   1      49.781  23.130  35.754  1.00  0.00    -0.744 OA
ENDBRANCH  85  88
ENDBRANCH  58  81
ENDBRANCH  32  33
ENDBRANCH  25  27
ENDBRANCH  24  25
ENDBRANCH  23  24
ENDBRANCH   1  23
TORSDOF 18
ENDMDL
MODEL 2
REMARK VINA RESULT:     -10.2      5.595     11.018
REMARK SMILES O=C(Cc1cc(=O)nc(SCc2cccc(Cl)c2)[nH]1)OCCOC(=O)c1ccc(-c2c3nc(c(-c4cccc(S(=O)(=O)[O-])c4F)c4ccc([nH]4)c(-c4cccc(S(=O)(=O)[O-])c4F)c4nc(c(-c5cccc(S(=O)(=O)[O-])c5F)c5ccc2[nH]5)C=C4)C=C3)cc1
REMARK SMILES IDX 21 1 20 2 2 3 1 4 3 5 4 6 5 7 19 8 6 9 9 10 7 12 8 13 10 14
REMARK SMILES IDX 11 15 12 16 13 17 18 18 14 19 16 20 15 21 17 22 22 23 23 24
REMARK SMILES IDX 24 25 25 26 26 27 27 28 88 29 28 30 87 31 29 32 30 33 31 34
REMARK SMILES IDX 81 35 32 36 86 37 80 38 82 39 33 40 85 41 79 42 78 43 34 45
REMARK SMILES IDX 66 46 46 47 65 48 47 49 50 50 64 51 83 52 48 53 49 54 63 56
REMARK SMILES IDX 84 57 51 58 35 59 36 60 44 61 37 62 39 63 45 64 38 65 40 66
REMARK SMILES IDX 41 67 42 68 43 69 67 70 68 71 76 72 69 73 71 74 77 75 70 76
REMARK SMILES IDX 72 77 73 78 74 79 75 80 52 81 53 82 61 83 54 84 56 85 62 86
REMARK SMILES IDX 55 87 57 88 58 89 59 90 60 91
REMARK H PARENT 19 11 82 44 50 55
REMARK Flexibility Score: inf
ROOT
ATOM      1  C   UNL A   1      35.300  21.060  24.933  1.00  0.00     0.274 C 
ENDROOT
BRANCH   1   2
ATOM      2  O   UNL A   1      35.227  22.089  23.928  1.00  0.00    -0.462 OA
BRANCH   2   3
ATOM      3  C   UNL A   1      34.047  22.594  23.489  1.00  0.00     0.311 C 
ATOM      4  O   UNL A   1      34.025  23.605  22.792  1.00  0.00    -0.252 OA
BRANCH   3   5
ATOM      5  C   UNL A   1      32.765  21.936  23.974  1.00  0.00     0.176 C 
BRANCH   5   6
ATOM      6  C   UNL A   1      31.891  22.851  24.781  1.00  0.00     0.034 A 
ATOM      7  C   UNL A   1      31.284  22.457  25.909  1.00  0.00     0.095 A 
ATOM      8  N   UNL A   1      31.634  24.120  24.308  1.00  0.00    -0.337 N 
ATOM      9  C   UNL A   1      30.390  23.411  26.623  1.00  0.00     0.273 A 
ATOM     10  C   UNL A   1      30.866  24.991  25.021  1.00  0.00     0.169 A 
ATOM     11  H   UNL A   1      32.011  24.402  23.444  1.00  0.00     0.168 HD
ATOM     12  O   UNL A   1      29.807  23.025  27.628  1.00  0.00    -0.267 OA
ATOM     13  N   UNL A   1      30.273  24.692  26.128  1.00  0.00    -0.185 NA
BRANCH  10  14
ATOM     14  S   UNL A   1      30.634  26.635  24.463  1.00  0.00    -0.083 SA
BRANCH  14  15
ATOM     15  C   UNL A   1      32.267  27.369  24.365  1.00  0.00     0.113 C 
BRANCH  15  16
ATOM     16  C   UNL A   1      32.679  28.417  25.380  1.00  0.00    -0.036 A 
ATOM     17  C   UNL A   1      31.795  29.494  25.591  1.00  0.00     0.005 A 
ATOM     18  C   UNL A   1      33.867  28.387  26.127  1.00  0.00     0.025 A 
ATOM     19  C   UNL A   1      32.087  30.508  26.508  1.00  0.00     0.002 A 
ATOM     20  C   UNL A   1      34.160  29.408  27.037  1.00  0.00     0.041 A 
ATOM     21  C   UNL A   1      33.275  30.467  27.231  1.00  0.00     0.020 A 
ATOM     22  Cl  UNL A   1      35.641  29.373  27.912  1.00  0.00    -0.084 Cl
ENDBRANCH  15  16
ENDBRANCH  14  15
ENDBRANCH  10  14
ENDBRANCH   5   6
ENDBRANCH   3   5
ENDBRANCH   2   3
ENDBRANCH   1   2
BRANCH   1  23
ATOM     23  C   UNL A   1      36.685  20.416  25.000  1.00  0.00     0.275 C 
BRANCH  23  24
ATOM     24  O   UNL A   1      37.690  21.438  25.081  1.00  0.00    -0.458 OA
BRANCH  24  25
ATOM     25  C   UNL A   1      38.759  21.121  25.862  1.00  0.00     0.338 C 
ATOM     26  O   UNL A   1      39.271  20.021  25.980  1.00  0.00    -0.246 OA
BRANCH  25  27
ATOM     27  C   UNL A   1      39.359  22.378  26.359  1.00  0.00     0.060 A 
ATOM     28  C   UNL A   1      40.463  22.377  27.220  1.00  0.00     0.016 A 
ATOM     29  C   UNL A   1      38.742  23.582  26.000  1.00  0.00     0.016 A 
ATOM     30  C   UNL A   1      40.956  23.589  27.709  1.00  0.00     0.010 A 
ATOM     31  C   UNL A   1      39.232  24.790  26.497  1.00  0.00     0.010 A 
ATOM     32  C   UNL A   1      40.351  24.803  27.342  1.00  0.00    -0.014 A 
BRANCH  32  33
ATOM     33  C   UNL A   1      40.995  26.093  27.683  1.00  0.00     0.031 A 
ATOM     34  C   UNL A   1      40.305  27.138  28.504  1.00  0.00     0.074 A 
ATOM     35  C   UNL A   1      42.227  26.319  27.188  1.00  0.00     0.049 A 
ATOM     36  N   UNL A   1      40.759  28.305  28.883  1.00  0.00    -0.248 NA
ATOM     37  C   UNL A   1      38.941  26.843  28.970  1.00  0.00     0.031 C 
ATOM     38  C   UNL A   1      42.983  25.377  26.357  1.00  0.00     0.029 A 
ATOM     39  N   UNL A   1      43.054  27.406  27.298  1.00  0.00    -0.354 N 
ATOM     40  C   UNL A   1      39.741  28.890  29.626  1.00  0.00     0.074 A 
ATOM     41  C   UNL A   1      38.640  27.949  29.642  1.00  0.00     0.031 C 
ATOM     42  C   UNL A   1      44.161  25.928  26.033  1.00  0.00     0.029 A 
ATOM     43  C   UNL A   1      44.238  27.263  26.615  1.00  0.00     0.049 A 
ATOM     44  H   UNL A   1      42.822  28.210  27.816  1.00  0.00     0.167 HD
ATOM     45  C   UNL A   1      39.741  30.092  30.250  1.00  0.00     0.034 A 
ATOM     46  C   UNL A   1      45.274  28.112  26.473  1.00  0.00     0.034 A 
ATOM     47  C   UNL A   1      40.841  31.023  30.229  1.00  0.00     0.049 A 
ATOM     48  C   UNL A   1      45.230  29.445  27.158  1.00  0.00     0.074 A 
ATOM     49  C   UNL A   1      40.931  32.254  30.857  1.00  0.00     0.029 A 
ATOM     50  N   UNL A   1      42.032  30.836  29.547  1.00  0.00    -0.354 N 
ATOM     51  N   UNL A   1      44.301  29.935  27.940  1.00  0.00    -0.248 NA
ATOM     52  C   UNL A   1      46.389  30.330  26.966  1.00  0.00     0.031 C 
ATOM     53  C   UNL A   1      42.176  32.813  30.552  1.00  0.00     0.029 A 
ATOM     54  C   UNL A   1      42.863  31.926  29.741  1.00  0.00     0.049 A 
ATOM     55  H   UNL A   1      42.253  30.046  29.004  1.00  0.00     0.167 HD
ATOM     56  C   UNL A   1      44.776  31.170  28.362  1.00  0.00     0.074 A 
ATOM     57  C   UNL A   1      46.078  31.351  27.754  1.00  0.00     0.031 C 
ATOM     58  C   UNL A   1      44.178  32.074  29.175  1.00  0.00     0.034 A 
BRANCH  45  59
ATOM     59  C   UNL A   1      38.543  30.473  31.075  1.00  0.00     0.023 A 
ATOM     60  C   UNL A   1      38.557  30.194  32.456  1.00  0.00     0.012 A 
ATOM     61  C   UNL A   1      37.498  31.246  30.531  1.00  0.00     0.148 A 
ATOM     62  C   UNL A   1      37.550  30.680  33.287  1.00  0.00     0.002 A 
ATOM     63  C   UNL A   1      36.512  31.751  31.371  1.00  0.00     0.091 A 
ATOM     64  F   UNL A   1      37.510  31.495  29.214  1.00  0.00    -0.205 F 
ATOM     65  C   UNL A   1      36.535  31.469  32.747  1.00  0.00     0.022 A 
BRANCH  63  66
ATOM     66  S   UNL A   1      35.203  32.838  30.795  1.00  0.00     0.127 S 
ATOM     67  O   UNL A   1      34.220  32.715  31.871  1.00  0.00    -0.237 OA
ATOM     68  O   UNL A   1      35.883  34.132  30.734  1.00  0.00    -0.237 OA
ATOM     69  O   UNL A   1      34.774  32.308  29.508  1.00  0.00    -0.744 OA
ENDBRANCH  63  66
ENDBRANCH  45  59
BRANCH  46  70
ATOM     70  C   UNL A   1      46.475  27.672  25.719  1.00  0.00     0.023 A 
ATOM     71  C   UNL A   1      46.549  27.945  24.340  1.00  0.00     0.012 A 
ATOM     72  C   UNL A   1      47.564  27.057  26.364  1.00  0.00     0.148 A 
ATOM     73  C   UNL A   1      47.686  27.601  23.611  1.00  0.00     0.002 A 
ATOM     74  C   UNL A   1      48.709  26.754  25.641  1.00  0.00     0.091 A 
ATOM     75  F   UNL A   1      47.464  26.807  27.677  1.00  0.00    -0.205 F 
ATOM     76  C   UNL A   1      48.768  27.016  24.261  1.00  0.00     0.022 A 
BRANCH  74  77
ATOM     77  S   UNL A   1      50.195  26.098  26.408  1.00  0.00     0.127 S 
ATOM     78  O   UNL A   1      49.710  24.839  26.967  1.00  0.00    -0.237 OA
ATOM     79  O   UNL A   1      51.090  25.960  25.258  1.00  0.00    -0.237 OA
ATOM     80  O   UNL A   1      50.612  27.101  27.380  1.00  0.00    -0.744 OA
ENDBRANCH  74  77
ENDBRANCH  46  70
BRANCH  58  81
ATOM     81  C   UNL A   1      44.930  33.336  29.487  1.00  0.00     0.023 A 
ATOM     82  C   UNL A   1      45.794  33.373  30.597  1.00  0.00     0.012 A 
ATOM     83  C   UNL A   1      44.847  34.452  28.631  1.00  0.00     0.148 A 
ATOM     84  C   UNL A   1      46.557  34.511  30.861  1.00  0.00     0.002 A 
ATOM     85  C   UNL A   1      45.635  35.569  28.880  1.00  0.00     0.091 A 
ATOM     86  F   UNL A   1      44.003  34.398  27.589  1.00  0.00    -0.205 F 
ATOM     87  C   UNL A   1      46.486  35.602  29.997  1.00  0.00     0.022 A 
BRANCH  85  88
ATOM     88  S   UNL A   1      45.660  36.994  27.787  1.00  0.00     0.127 S 
ATOM     89  O   UNL A   1      44.293  37.494  27.918  1.00  0.00    -0.237 OA
ATOM     90  O   UNL A   1      46.682  37.842  28.404  1.00  0.00    -0.237 OA
ATOM     91  O   UNL A   1      46.014  36.484  26.470  1.00  0.00    -0.744 OA
ENDBRANCH  85  88
ENDBRANCH  58  81
ENDBRANCH  32  33
ENDBRANCH  25  27
ENDBRANCH  24  25
ENDBRANCH  23  24
ENDBRANCH   1  23
TORSDOF 18
ENDMDL
MODEL 3
REMARK VINA RESULT:     -10.2      4.550     10.185
REMARK SMILES O=C(Cc1cc(=O)nc(SCc2cccc(Cl)c2)[nH]1)OCCOC(=O)c1ccc(-c2c3nc(c(-c4cccc(S(=O)(=O)[O-])c4F)c4ccc([nH]4)c(-c4cccc(S(=O)(=O)[O-])c4F)c4nc(c(-c5cccc(S(=O)(=O)[O-])c5F)c5ccc2[nH]5)C=C4)C=C3)cc1
REMARK SMILES IDX 21 1 20 2 2 3 1 4 3 5 4 6 5 7 19 8 6 9 9 10 7 12 8 13 10 14
REMARK SMILES IDX 11 15 12 16 13 17 18 18 14 19 16 20 15 21 17 22 22 23 23 24
REMARK SMILES IDX 24 25 25 26 26 27 27 28 88 29 28 30 87 31 29 32 30 33 31 34
REMARK SMILES IDX 81 35 32 36 86 37 80 38 82 39 33 40 85 41 79 42 78 43 34 45
REMARK SMILES IDX 66 46 46 47 65 48 47 49 50 50 64 51 83 52 48 53 49 54 63 56
REMARK SMILES IDX 84 57 51 58 35 59 36 60 44 61 37 62 39 63 45 64 38 65 40 66
REMARK SMILES IDX 41 67 42 68 43 69 67 70 68 71 76 72 69 73 71 74 77 75 70 76
REMARK SMILES IDX 72 77 73 78 74 79 75 80 52 81 53 82 61 83 54 84 56 85 62 86
REMARK SMILES IDX 55 87 57 88 58 89 59 90 60 91
REMARK H PARENT 19 11 82 44 50 55
REMARK Flexibility Score: inf
ROOT
ATOM      1  C   UNL A   1      31.537  31.257  26.387  1.00  0.00     0.274 C 
ENDROOT
BRANCH   1   2
ATOM      2  O   UNL A   1      32.214  30.282  27.202  1.00  0.00    -0.462 OA
BRANCH   2   3
ATOM      3  C   UNL A   1      33.142  29.431  26.697  1.00  0.00     0.311 C 
ATOM      4  O   UNL A   1      33.852  28.767  27.449  1.00  0.00    -0.252 OA
BRANCH   3   5
ATOM      5  C   UNL A   1      33.344  29.408  25.190  1.00  0.00     0.176 C 
BRANCH   5   6
ATOM      6  C   UNL A   1      33.360  28.024  24.610  1.00  0.00     0.034 A 
ATOM      7  C   UNL A   1      33.623  27.789  23.316  1.00  0.00     0.095 A 
ATOM      8  N   UNL A   1      33.017  26.957  25.412  1.00  0.00    -0.337 N 
ATOM      9  C   UNL A   1      33.568  26.390  22.808  1.00  0.00     0.273 A 
ATOM     10  C   UNL A   1      33.042  25.682  24.932  1.00  0.00     0.169 A 
ATOM     11  H   UNL A   1      32.749  27.118  26.346  1.00  0.00     0.168 HD
ATOM     12  O   UNL A   1      33.766  26.193  21.615  1.00  0.00    -0.267 OA
ATOM     13  N   UNL A   1      33.313  25.377  23.707  1.00  0.00    -0.185 NA
BRANCH  10  14
ATOM     14  S   UNL A   1      32.707  24.326  25.989  1.00  0.00    -0.083 SA
BRANCH  14  15
ATOM     15  C   UNL A   1      32.113  23.001  24.937  1.00  0.00     0.113 C 
BRANCH  15  16
ATOM     16  C   UNL A   1      32.904  21.713  24.835  1.00  0.00    -0.036 A 
ATOM     17  C   UNL A   1      32.180  20.528  24.591  1.00  0.00     0.005 A 
ATOM     18  C   UNL A   1      34.299  21.616  24.957  1.00  0.00     0.025 A 
ATOM     19  C   UNL A   1      32.823  19.292  24.480  1.00  0.00     0.002 A 
ATOM     20  C   UNL A   1      34.937  20.376  24.854  1.00  0.00     0.041 A 
ATOM     21  C   UNL A   1      34.205  19.215  24.615  1.00  0.00     0.020 A 
ATOM     22  Cl  UNL A   1      36.643  20.275  25.048  1.00  0.00    -0.084 Cl
ENDBRANCH  15  16
ENDBRANCH  14  15
ENDBRANCH  10  14
ENDBRANCH   5   6
ENDBRANCH   3   5
ENDBRANCH   2   3
ENDBRANCH   1   2
BRANCH   1  23
ATOM     23  C   UNL A   1      31.739  32.681  26.905  1.00  0.00     0.275 C 
BRANCH  23  24
ATOM     24  O   UNL A   1      33.138  32.998  26.917  1.00  0.00    -0.458 OA
BRANCH  24  25
ATOM     25  C   UNL A   1      33.551  33.697  28.009  1.00  0.00     0.338 C 
ATOM     26  O   UNL A   1      32.939  34.585  28.577  1.00  0.00    -0.246 OA
BRANCH  25  27
ATOM     27  C   UNL A   1      34.758  33.037  28.553  1.00  0.00     0.060 A 
ATOM     28  C   UNL A   1      36.033  33.596  28.406  1.00  0.00     0.016 A 
ATOM     29  C   UNL A   1      34.599  31.786  29.161  1.00  0.00     0.016 A 
ATOM     30  C   UNL A   1      37.148  32.904  28.885  1.00  0.00     0.010 A 
ATOM     31  C   UNL A   1      35.716  31.095  29.632  1.00  0.00     0.010 A 
ATOM     32  C   UNL A   1      36.995  31.655  29.510  1.00  0.00    -0.014 A 
BRANCH  32  33
ATOM     33  C   UNL A   1      38.140  31.021  30.205  1.00  0.00     0.031 A 
ATOM     34  C   UNL A   1      38.560  31.427  31.585  1.00  0.00     0.074 A 
ATOM     35  C   UNL A   1      38.829  30.080  29.533  1.00  0.00     0.049 A 
ATOM     36  N   UNL A   1      39.536  30.948  32.312  1.00  0.00    -0.248 NA
ATOM     37  C   UNL A   1      37.790  32.496  32.241  1.00  0.00     0.031 C 
ATOM     38  C   UNL A   1      38.520  29.624  28.174  1.00  0.00     0.029 A 
ATOM     39  N   UNL A   1      39.933  29.350  29.887  1.00  0.00    -0.354 N 
ATOM     40  C   UNL A   1      39.507  31.654  33.508  1.00  0.00     0.074 A 
ATOM     41  C   UNL A   1      38.416  32.602  33.409  1.00  0.00     0.031 C 
ATOM     42  C   UNL A   1      39.412  28.693  27.811  1.00  0.00     0.029 A 
ATOM     43  C   UNL A   1      40.364  28.497  28.899  1.00  0.00     0.049 A 
ATOM     44  H   UNL A   1      40.372  29.428  30.764  1.00  0.00     0.167 HD
ATOM     45  C   UNL A   1      40.307  31.505  34.590  1.00  0.00     0.034 A 
ATOM     46  C   UNL A   1      41.411  27.650  28.870  1.00  0.00     0.034 A 
ATOM     47  C   UNL A   1      41.391  30.559  34.681  1.00  0.00     0.049 A 
ATOM     48  C   UNL A   1      42.291  27.529  30.077  1.00  0.00     0.074 A 
ATOM     49  C   UNL A   1      42.236  30.328  35.754  1.00  0.00     0.029 A 
ATOM     50  N   UNL A   1      41.785  29.698  33.671  1.00  0.00    -0.354 N 
ATOM     51  N   UNL A   1      42.183  28.132  31.235  1.00  0.00    -0.248 NA
ATOM     52  C   UNL A   1      43.419  26.589  29.987  1.00  0.00     0.031 C 
ATOM     53  C   UNL A   1      43.143  29.328  35.391  1.00  0.00     0.029 A 
ATOM     54  C   UNL A   1      42.857  28.932  34.095  1.00  0.00     0.049 A 
ATOM     55  H   UNL A   1      41.365  29.640  32.783  1.00  0.00     0.167 HD
ATOM     56  C   UNL A   1      43.206  27.622  32.024  1.00  0.00     0.074 A 
ATOM     57  C   UNL A   1      43.919  26.655  31.214  1.00  0.00     0.031 C 
ATOM     58  C   UNL A   1      43.527  27.935  33.302  1.00  0.00     0.034 A 
BRANCH  45  59
ATOM     59  C   UNL A   1      40.023  32.334  35.812  1.00  0.00     0.023 A 
ATOM     60  C   UNL A   1      40.660  33.584  35.943  1.00  0.00     0.012 A 
ATOM     61  C   UNL A   1      39.018  31.965  36.728  1.00  0.00     0.148 A 
ATOM     62  C   UNL A   1      40.299  34.458  36.967  1.00  0.00     0.002 A 
ATOM     63  C   UNL A   1      38.644  32.853  37.729  1.00  0.00     0.091 A 
ATOM     64  F   UNL A   1      38.431  30.769  36.579  1.00  0.00    -0.205 F 
ATOM     65  C   UNL A   1      39.284  34.098  37.852  1.00  0.00     0.022 A 
BRANCH  63  66
ATOM     66  S   UNL A   1      37.299  32.524  38.874  1.00  0.00     0.127 S 
ATOM     67  O   UNL A   1      37.579  33.481  39.944  1.00  0.00    -0.237 OA
ATOM     68  O   UNL A   1      36.123  32.841  38.064  1.00  0.00    -0.237 OA
ATOM     69  O   UNL A   1      37.426  31.124  39.254  1.00  0.00    -0.744 OA
ENDBRANCH  63  66
ENDBRANCH  45  59
BRANCH  46  70
ATOM     70  C   UNL A   1      41.615  26.788  27.678  1.00  0.00     0.023 A 
ATOM     71  C   UNL A   1      42.251  27.333  26.547  1.00  0.00     0.012 A 
ATOM     72  C   UNL A   1      41.253  25.428  27.683  1.00  0.00     0.148 A 
ATOM     73  C   UNL A   1      42.512  26.539  25.431  1.00  0.00     0.002 A 
ATOM     74  C   UNL A   1      41.553  24.633  26.586  1.00  0.00     0.091 A 
ATOM     75  F   UNL A   1      40.647  24.939  28.774  1.00  0.00    -0.205 F 
ATOM     76  C   UNL A   1      42.174  25.189  25.455  1.00  0.00     0.022 A 
BRANCH  74  77
ATOM     77  S   UNL A   1      41.256  22.862  26.562  1.00  0.00     0.127 S 
ATOM     78  O   UNL A   1      39.806  22.807  26.393  1.00  0.00    -0.237 OA
ATOM     79  O   UNL A   1      42.031  22.444  25.394  1.00  0.00    -0.237 OA
ATOM     80  O   UNL A   1      41.761  22.360  27.834  1.00  0.00    -0.744 OA
ENDBRANCH  74  77
ENDBRANCH  46  70
BRANCH  58  81
ATOM     81  C   UNL A   1      44.684  27.211  33.929  1.00  0.00     0.023 A 
ATOM     82  C   UNL A   1      45.977  27.761  33.841  1.00  0.00     0.012 A 
ATOM     83  C   UNL A   1      44.475  26.037  34.679  1.00  0.00     0.148 A 
ATOM     84  C   UNL A   1      47.051  27.143  34.479  1.00  0.00     0.002 A 
ATOM     85  C   UNL A   1      45.545  25.445  35.340  1.00  0.00     0.091 A 
ATOM     86  F   UNL A   1      43.237  25.524  34.733  1.00  0.00    -0.205 F 
ATOM     87  C   UNL A   1      46.834  25.994  35.237  1.00  0.00     0.022 A 
BRANCH  85  88
ATOM     88  S   UNL A   1      45.348  24.003  36.392  1.00  0.00     0.127 S 
ATOM     89  O   UNL A   1      44.529  23.131  35.552  1.00  0.00    -0.237 OA
ATOM     90  O   UNL A   1      46.731  23.557  36.569  1.00  0.00    -0.237 OA
ATOM     91  O   UNL A   1      44.706  24.478  37.610  1.00  0.00    -0.744 OA
ENDBRANCH  85  88
ENDBRANCH  58  81
ENDBRANCH  32  33
ENDBRANCH  25  27
ENDBRANCH  24  25
ENDBRANCH  23  24
ENDBRANCH   1  23
TORSDOF 18
ENDMDL
