MODEL 1
REMARK VINA RESULT:     -11.6      0.000      0.000
REMARK SMILES O=C(OCCOC(=O)C1(CCc2ccccn2)CCCCC1)c1ccc(-c2c3nc(c(-c4cccc(S(=O)(=O)[O-])c4F)c4ccc([nH]4)c(-c4cccc(S(=O)(=O)[O-])c4F)c4nc(c(-c5cccc(S(=O)(=O)[O-])c5F)c5ccc2[nH]5)C=C4)C=C3)cc1
REMARK SMILES IDX 4 1 3 2 2 3 1 4 23 5 24 6 85 7 25 8 84 9 26 10 27 11 28 12
REMARK SMILES IDX 78 13 29 14 83 15 77 16 79 17 30 18 82 19 76 20 75 21 31 23
REMARK SMILES IDX 63 24 43 25 62 26 44 27 47 28 61 29 80 30 45 31 46 32 60 34
REMARK SMILES IDX 81 35 48 36 32 37 33 38 41 39 34 40 36 41 42 42 35 43 37 44
REMARK SMILES IDX 38 45 39 46 40 47 64 48 65 49 73 50 66 51 68 52 74 53 67 54
REMARK SMILES IDX 69 55 70 56 71 57 72 58 49 59 50 60 58 61 51 62 53 63 59 64
REMARK SMILES IDX 52 65 54 66 55 67 56 68 57 69 5 70 6 71 7 72 8 73 9 74 18 75
REMARK SMILES IDX 22 76 19 77 21 78 20 79 10 80 11 81 12 82 13 83 17 84 14 85
REMARK SMILES IDX 16 86 15 87
REMARK H PARENT 79 22 47 33
REMARK Flexibility Score: inf
ROOT
ATOM      1  C   UNL A   1      37.540  20.274  25.146  1.00  0.00     0.275 C 
ENDROOT
BRANCH   1   2
ATOM      2  O   UNL A   1      38.148  21.410  25.768  1.00  0.00    -0.458 OA
BRANCH   2   3
ATOM      3  C   UNL A   1      39.352  21.481  26.384  1.00  0.00     0.338 C 
ATOM      4  O   UNL A   1      39.952  20.449  26.671  1.00  0.00    -0.246 OA
BRANCH   3   5
ATOM      5  C   UNL A   1      39.907  22.783  26.849  1.00  0.00     0.060 A 
ATOM      6  C   UNL A   1      40.876  22.942  27.845  1.00  0.00     0.016 A 
ATOM      7  C   UNL A   1      39.417  23.928  26.208  1.00  0.00     0.016 A 
ATOM      8  C   UNL A   1      41.469  24.179  28.091  1.00  0.00     0.010 A 
ATOM      9  C   UNL A   1      39.998  25.173  26.457  1.00  0.00     0.010 A 
ATOM     10  C   UNL A   1      41.047  25.300  27.389  1.00  0.00    -0.014 A 
BRANCH  10  11
ATOM     11  C   UNL A   1      41.497  26.644  27.806  1.00  0.00     0.031 A 
ATOM     12  C   UNL A   1      42.946  26.942  27.579  1.00  0.00     0.074 A 
ATOM     13  C   UNL A   1      40.676  27.554  28.365  1.00  0.00     0.049 A 
ATOM     14  N   UNL A   1      43.635  27.995  27.911  1.00  0.00    -0.248 NA
ATOM     15  C   UNL A   1      43.730  25.896  26.893  1.00  0.00     0.031 C 
ATOM     16  C   UNL A   1      39.237  27.399  28.570  1.00  0.00     0.029 A 
ATOM     17  N   UNL A   1      40.945  28.784  28.909  1.00  0.00    -0.354 N 
ATOM     18  C   UNL A   1      44.924  27.726  27.480  1.00  0.00     0.074 A 
ATOM     19  C   UNL A   1      44.956  26.367  27.003  1.00  0.00     0.031 C 
ATOM     20  C   UNL A   1      38.770  28.433  29.294  1.00  0.00     0.029 A 
ATOM     21  C   UNL A   1      39.868  29.351  29.558  1.00  0.00     0.049 A 
ATOM     22  H   UNL A   1      41.824  29.220  28.844  1.00  0.00     0.167 HD
ATOM     23  C   UNL A   1      45.969  28.573  27.387  1.00  0.00     0.034 A 
ATOM     24  C   UNL A   1      39.791  30.494  30.268  1.00  0.00     0.034 A 
ATOM     25  C   UNL A   1      45.903  29.932  27.820  1.00  0.00     0.049 A 
ATOM     26  C   UNL A   1      41.001  31.394  30.263  1.00  0.00     0.074 A 
ATOM     27  C   UNL A   1      46.864  30.916  27.738  1.00  0.00     0.029 A 
ATOM     28  N   UNL A   1      44.792  30.491  28.438  1.00  0.00    -0.354 N 
ATOM     29  N   UNL A   1      42.177  31.188  29.717  1.00  0.00    -0.248 NA
ATOM     30  C   UNL A   1      40.850  32.719  30.881  1.00  0.00     0.031 C 
ATOM     31  C   UNL A   1      46.345  32.067  28.342  1.00  0.00     0.029 A 
ATOM     32  C   UNL A   1      45.046  31.807  28.760  1.00  0.00     0.049 A 
ATOM     33  H   UNL A   1      43.948  30.018  28.620  1.00  0.00     0.167 HD
ATOM     34  C   UNL A   1      42.873  32.382  29.844  1.00  0.00     0.074 A 
ATOM     35  C   UNL A   1      41.994  33.300  30.544  1.00  0.00     0.031 C 
ATOM     36  C   UNL A   1      44.117  32.702  29.406  1.00  0.00     0.034 A 
BRANCH  23  37
ATOM     37  C   UNL A   1      47.214  28.014  26.759  1.00  0.00     0.023 A 
ATOM     38  C   UNL A   1      48.339  27.727  27.567  1.00  0.00     0.012 A 
ATOM     39  C   UNL A   1      47.315  27.898  25.364  1.00  0.00     0.148 A 
ATOM     40  C   UNL A   1      49.568  27.421  26.987  1.00  0.00     0.002 A 
ATOM     41  C   UNL A   1      48.529  27.534  24.797  1.00  0.00     0.091 A 
ATOM     42  F   UNL A   1      46.245  28.201  24.617  1.00  0.00    -0.205 F 
ATOM     43  C   UNL A   1      49.662  27.322  25.603  1.00  0.00     0.022 A 
BRANCH  41  44
ATOM     44  S   UNL A   1      48.739  27.317  23.029  1.00  0.00     0.127 S 
ATOM     45  O   UNL A   1      47.898  28.389  22.498  1.00  0.00    -0.237 OA
ATOM     46  O   UNL A   1      50.177  27.533  22.869  1.00  0.00    -0.237 OA
ATOM     47  O   UNL A   1      48.289  25.965  22.733  1.00  0.00    -0.744 OA
ENDBRANCH  41  44
ENDBRANCH  23  37
BRANCH  24  48
ATOM     48  C   UNL A   1      38.513  30.919  30.912  1.00  0.00     0.023 A 
ATOM     49  C   UNL A   1      38.280  30.593  32.263  1.00  0.00     0.012 A 
ATOM     50  C   UNL A   1      37.524  31.631  30.202  1.00  0.00     0.148 A 
ATOM     51  C   UNL A   1      37.075  30.926  32.884  1.00  0.00     0.002 A 
ATOM     52  C   UNL A   1      36.335  31.987  30.836  1.00  0.00     0.091 A 
ATOM     53  F   UNL A   1      37.763  31.943  28.921  1.00  0.00    -0.205 F 
ATOM     54  C   UNL A   1      36.103  31.622  32.172  1.00  0.00     0.022 A 
BRANCH  52  55
ATOM     55  S   UNL A   1      35.041  32.945  30.032  1.00  0.00     0.127 S 
ATOM     56  O   UNL A   1      35.793  34.091  29.520  1.00  0.00    -0.237 OA
ATOM     57  O   UNL A   1      34.576  32.010  29.005  1.00  0.00    -0.237 OA
ATOM     58  O   UNL A   1      34.068  33.246  31.066  1.00  0.00    -0.744 OA
ENDBRANCH  52  55
ENDBRANCH  24  48
BRANCH  36  59
ATOM     59  C   UNL A   1      44.579  34.118  29.594  1.00  0.00     0.023 A 
ATOM     60  C   UNL A   1      45.238  34.497  30.777  1.00  0.00     0.012 A 
ATOM     61  C   UNL A   1      44.471  35.033  28.529  1.00  0.00     0.148 A 
ATOM     62  C   UNL A   1      45.766  35.780  30.905  1.00  0.00     0.002 A 
ATOM     63  C   UNL A   1      45.054  36.286  28.638  1.00  0.00     0.091 A 
ATOM     64  F   UNL A   1      43.818  34.651  27.420  1.00  0.00    -0.205 F 
ATOM     65  C   UNL A   1      45.692  36.666  29.832  1.00  0.00     0.022 A 
BRANCH  63  66
ATOM     66  S   UNL A   1      45.120  37.435  27.260  1.00  0.00     0.127 S 
ATOM     67  O   UNL A   1      45.775  38.590  27.870  1.00  0.00    -0.237 OA
ATOM     68  O   UNL A   1      45.940  36.707  26.291  1.00  0.00    -0.237 OA
ATOM     69  O   UNL A   1      43.740  37.645  26.845  1.00  0.00    -0.744 OA
ENDBRANCH  63  66
ENDBRANCH  36  59
ENDBRANCH  10  11
ENDBRANCH   3   5
ENDBRANCH   2   3
ENDBRANCH   1   2
BRANCH   1  70
ATOM     70  C   UNL A   1      36.015  20.272  24.951  1.00  0.00     0.274 C 
BRANCH  70  71
ATOM     71  O   UNL A   1      35.187  21.303  25.521  1.00  0.00    -0.462 OA
BRANCH  71  72
ATOM     72  C   UNL A   1      34.556  22.113  24.620  1.00  0.00     0.312 C 
ATOM     73  O   UNL A   1      35.148  22.619  23.674  1.00  0.00    -0.252 OA
BRANCH  72  74
ATOM     74  C   UNL A   1      33.022  22.259  24.846  1.00  0.00     0.068 C 
ATOM     75  C   UNL A   1      32.921  22.983  26.198  1.00  0.00     0.019 C 
ATOM     76  C   UNL A   1      32.288  23.134  23.803  1.00  0.00     0.019 C 
ATOM     77  C   UNL A   1      31.530  23.381  26.667  1.00  0.00     0.001 C 
ATOM     78  C   UNL A   1      30.865  23.533  24.229  1.00  0.00     0.001 C 
ATOM     79  C   UNL A   1      30.808  24.193  25.605  1.00  0.00     0.000 C 
BRANCH  74  80
ATOM     80  C   UNL A   1      32.374  20.850  24.977  1.00  0.00     0.025 C 
BRANCH  80  81
ATOM     81  C   UNL A   1      32.397  19.942  23.735  1.00  0.00     0.057 C 
BRANCH  81  82
ATOM     82  C   UNL A   1      32.677  18.498  24.049  1.00  0.00     0.040 A 
ATOM     83  C   UNL A   1      33.428  17.711  23.178  1.00  0.00     0.024 A 
ATOM     84  N   UNL A   1      32.271  18.055  25.261  1.00  0.00    -0.261 NA
ATOM     85  C   UNL A   1      33.820  16.442  23.594  1.00  0.00     0.003 A 
ATOM     86  C   UNL A   1      32.707  16.843  25.659  1.00  0.00     0.111 A 
ATOM     87  C   UNL A   1      33.475  16.005  24.869  1.00  0.00     0.020 A 
ENDBRANCH  81  82
ENDBRANCH  80  81
ENDBRANCH  74  80
ENDBRANCH  72  74
ENDBRANCH  71  72
ENDBRANCH  70  71
ENDBRANCH   1  70
TORSDOF 17
ENDMDL
MODEL 2
REMARK VINA RESULT:     -11.5      5.860     11.095
REMARK SMILES O=C(OCCOC(=O)C1(CCc2ccccn2)CCCCC1)c1ccc(-c2c3nc(c(-c4cccc(S(=O)(=O)[O-])c4F)c4ccc([nH]4)c(-c4cccc(S(=O)(=O)[O-])c4F)c4nc(c(-c5cccc(S(=O)(=O)[O-])c5F)c5ccc2[nH]5)C=C4)C=C3)cc1
REMARK SMILES IDX 4 1 3 2 2 3 1 4 23 5 24 6 85 7 25 8 84 9 26 10 27 11 28 12
REMARK SMILES IDX 78 13 29 14 83 15 77 16 79 17 30 18 82 19 76 20 75 21 31 23
REMARK SMILES IDX 63 24 43 25 62 26 44 27 47 28 61 29 80 30 45 31 46 32 60 34
REMARK SMILES IDX 81 35 48 36 32 37 33 38 41 39 34 40 36 41 42 42 35 43 37 44
REMARK SMILES IDX 38 45 39 46 40 47 64 48 65 49 73 50 66 51 68 52 74 53 67 54
REMARK SMILES IDX 69 55 70 56 71 57 72 58 49 59 50 60 58 61 51 62 53 63 59 64
REMARK SMILES IDX 52 65 54 66 55 67 56 68 57 69 5 70 6 71 7 72 8 73 9 74 18 75
REMARK SMILES IDX 22 76 19 77 21 78 20 79 10 80 11 81 12 82 13 83 17 84 14 85
REMARK SMILES IDX 16 86 15 87
REMARK H PARENT 79 22 47 33
REMARK Flexibility Score: inf
ROOT
ATOM      1  C   UNL A   1      32.511  30.336  27.295  1.00  0.00     0.275 C 
ENDROOT
BRANCH   1   2
ATOM      2  O   UNL A   1      33.325  31.472  26.989  1.00  0.00    -0.458 OA
BRANCH   2   3
ATOM      3  C   UNL A   1      34.194  32.120  27.799  1.00  0.00     0.338 C 
ATOM      4  O   UNL A   1      34.094  33.334  27.954  1.00  0.00    -0.246 OA
BRANCH   3   5
ATOM      5  C   UNL A   1      35.360  31.417  28.403  1.00  0.00     0.060 A 
ATOM      6  C   UNL A   1      35.348  30.115  28.915  1.00  0.00     0.016 A 
ATOM      7  C   UNL A   1      36.565  32.132  28.432  1.00  0.00     0.016 A 
ATOM      8  C   UNL A   1      36.523  29.472  29.296  1.00  0.00     0.010 A 
ATOM      9  C   UNL A   1      37.746  31.497  28.823  1.00  0.00     0.010 A 
ATOM     10  C   UNL A   1      37.733  30.152  29.237  1.00  0.00    -0.014 A 
BRANCH  10  11
ATOM     11  C   UNL A   1      38.939  29.564  29.856  1.00  0.00     0.031 A 
ATOM     12  C   UNL A   1      39.351  30.157  31.166  1.00  0.00     0.074 A 
ATOM     13  C   UNL A   1      39.642  28.562  29.291  1.00  0.00     0.049 A 
ATOM     14  N   UNL A   1      40.397  29.902  31.897  1.00  0.00    -0.248 NA
ATOM     15  C   UNL A   1      38.462  31.197  31.722  1.00  0.00     0.031 C 
ATOM     16  C   UNL A   1      39.295  27.863  28.055  1.00  0.00     0.029 A 
ATOM     17  N   UNL A   1      40.829  27.986  29.662  1.00  0.00    -0.354 N 
ATOM     18  C   UNL A   1      40.288  30.755  32.983  1.00  0.00     0.074 A 
ATOM     19  C   UNL A   1      39.168  31.631  32.748  1.00  0.00     0.031 C 
ATOM     20  C   UNL A   1      40.298  27.036  27.708  1.00  0.00     0.029 A 
ATOM     21  C   UNL A   1      41.336  27.108  28.727  1.00  0.00     0.049 A 
ATOM     22  H   UNL A   1      41.278  28.180  30.516  1.00  0.00     0.167 HD
ATOM     23  C   UNL A   1      40.993  30.741  34.133  1.00  0.00     0.034 A 
ATOM     24  C   UNL A   1      42.503  26.434  28.717  1.00  0.00     0.034 A 
ATOM     25  C   UNL A   1      42.069  29.831  34.367  1.00  0.00     0.049 A 
ATOM     26  C   UNL A   1      43.354  26.507  29.959  1.00  0.00     0.074 A 
ATOM     27  C   UNL A   1      42.834  29.668  35.502  1.00  0.00     0.029 A 
ATOM     28  N   UNL A   1      42.537  28.930  33.421  1.00  0.00    -0.354 N 
ATOM     29  N   UNL A   1      43.158  27.210  31.050  1.00  0.00    -0.248 NA
ATOM     30  C   UNL A   1      44.530  25.627  30.016  1.00  0.00     0.031 C 
ATOM     31  C   UNL A   1      43.795  28.688  35.228  1.00  0.00     0.029 A 
ATOM     32  C   UNL A   1      43.596  28.213  33.937  1.00  0.00     0.049 A 
ATOM     33  H   UNL A   1      42.168  28.818  32.515  1.00  0.00     0.167 HD
ATOM     34  C   UNL A   1      44.126  26.794  31.954  1.00  0.00     0.074 A 
ATOM     35  C   UNL A   1      44.925  25.795  31.272  1.00  0.00     0.031 C 
ATOM     36  C   UNL A   1      44.326  27.184  33.239  1.00  0.00     0.034 A 
BRANCH  23  37
ATOM     37  C   UNL A   1      40.556  31.720  35.185  1.00  0.00     0.023 A 
ATOM     38  C   UNL A   1      41.344  32.865  35.448  1.00  0.00     0.012 A 
ATOM     39  C   UNL A   1      39.445  31.442  35.997  1.00  0.00     0.148 A 
ATOM     40  C   UNL A   1      41.083  33.665  36.557  1.00  0.00     0.002 A 
ATOM     41  C   UNL A   1      39.157  32.279  37.066  1.00  0.00     0.091 A 
ATOM     42  F   UNL A   1      38.730  30.337  35.746  1.00  0.00    -0.205 F 
ATOM     43  C   UNL A   1      39.988  33.374  37.364  1.00  0.00     0.022 A 
BRANCH  41  44
ATOM     44  S   UNL A   1      37.734  32.028  38.128  1.00  0.00     0.127 S 
ATOM     45  O   UNL A   1      37.434  30.616  37.891  1.00  0.00    -0.237 OA
ATOM     46  O   UNL A   1      38.290  32.320  39.449  1.00  0.00    -0.237 OA
ATOM     47  O   UNL A   1      36.720  32.967  37.672  1.00  0.00    -0.744 OA
ENDBRANCH  41  44
ENDBRANCH  23  37
BRANCH  24  48
ATOM     48  C   UNL A   1      42.869  25.538  27.580  1.00  0.00     0.023 A 
ATOM     49  C   UNL A   1      43.702  26.028  26.555  1.00  0.00     0.012 A 
ATOM     50  C   UNL A   1      42.393  24.212  27.497  1.00  0.00     0.148 A 
ATOM     51  C   UNL A   1      44.021  25.238  25.450  1.00  0.00     0.002 A 
ATOM     52  C   UNL A   1      42.740  23.418  26.405  1.00  0.00     0.091 A 
ATOM     53  F   UNL A   1      41.610  23.756  28.484  1.00  0.00    -0.205 F 
ATOM     54  C   UNL A   1      43.541  23.934  25.374  1.00  0.00     0.022 A 
BRANCH  52  55
ATOM     55  S   UNL A   1      42.232  21.700  26.240  1.00  0.00     0.127 S 
ATOM     56  O   UNL A   1      42.497  21.179  27.582  1.00  0.00    -0.237 OA
ATOM     57  O   UNL A   1      40.812  21.842  25.909  1.00  0.00    -0.237 OA
ATOM     58  O   UNL A   1      43.050  21.143  25.179  1.00  0.00    -0.744 OA
ENDBRANCH  52  55
ENDBRANCH  24  48
BRANCH  36  59
ATOM     59  C   UNL A   1      45.397  26.481  34.021  1.00  0.00     0.023 A 
ATOM     60  C   UNL A   1      46.725  26.944  33.979  1.00  0.00     0.012 A 
ATOM     61  C   UNL A   1      45.046  25.439  34.901  1.00  0.00     0.148 A 
ATOM     62  C   UNL A   1      47.696  26.362  34.792  1.00  0.00     0.002 A 
ATOM     63  C   UNL A   1      46.003  24.909  35.752  1.00  0.00     0.091 A 
ATOM     64  F   UNL A   1      43.777  25.004  34.904  1.00  0.00    -0.205 F 
ATOM     65  C   UNL A   1      47.332  25.360  35.690  1.00  0.00     0.022 A 
BRANCH  63  66
ATOM     66  S   UNL A   1      45.592  23.714  37.028  1.00  0.00     0.127 S 
ATOM     67  O   UNL A   1      46.885  23.523  37.682  1.00  0.00    -0.237 OA
ATOM     68  O   UNL A   1      44.604  24.442  37.825  1.00  0.00    -0.237 OA
ATOM     69  O   UNL A   1      45.065  22.548  36.333  1.00  0.00    -0.744 OA
ENDBRANCH  63  66
ENDBRANCH  36  59
ENDBRANCH  10  11
ENDBRANCH   3   5
ENDBRANCH   2   3
ENDBRANCH   1   2
BRANCH   1  70
ATOM     70  C   UNL A   1      32.458  29.176  26.287  1.00  0.00     0.274 C 
BRANCH  70  71
ATOM     71  O   UNL A   1      31.573  29.211  25.152  1.00  0.00    -0.462 OA
BRANCH  71  72
ATOM     72  C   UNL A   1      32.096  28.732  23.985  1.00  0.00     0.312 C 
ATOM     73  O   UNL A   1      33.118  29.195  23.492  1.00  0.00    -0.252 OA
BRANCH  72  74
ATOM     74  C   UNL A   1      31.343  27.503  23.396  1.00  0.00     0.068 C 
ATOM     75  C   UNL A   1      32.433  26.748  22.618  1.00  0.00     0.019 C 
ATOM     76  C   UNL A   1      30.771  26.522  24.446  1.00  0.00     0.019 C 
ATOM     77  C   UNL A   1      32.042  25.415  21.998  1.00  0.00     0.001 C 
ATOM     78  C   UNL A   1      30.336  25.171  23.852  1.00  0.00     0.001 C 
ATOM     79  C   UNL A   1      31.432  24.489  23.036  1.00  0.00     0.000 C 
BRANCH  74  80
ATOM     80  C   UNL A   1      30.251  27.985  22.398  1.00  0.00     0.025 C 
BRANCH  80  81
ATOM     81  C   UNL A   1      28.908  28.449  22.989  1.00  0.00     0.057 C 
BRANCH  81  82
ATOM     82  C   UNL A   1      28.533  29.853  22.601  1.00  0.00     0.040 A 
ATOM     83  C   UNL A   1      28.597  30.891  23.528  1.00  0.00     0.024 A 
ATOM     84  N   UNL A   1      28.255  30.064  21.294  1.00  0.00    -0.261 NA
ATOM     85  C   UNL A   1      28.423  32.198  23.082  1.00  0.00     0.003 A 
ATOM     86  C   UNL A   1      28.140  31.342  20.880  1.00  0.00     0.111 A 
ATOM     87  C   UNL A   1      28.215  32.434  21.727  1.00  0.00     0.020 A 
ENDBRANCH  81  82
ENDBRANCH  80  81
ENDBRANCH  74  80
ENDBRANCH  72  74
ENDBRANCH  71  72
ENDBRANCH  70  71
ENDBRANCH   1  70
TORSDOF 17
ENDMDL
MODEL 3
REMARK VINA RESULT:     -11.5      5.802     11.024
REMARK SMILES O=C(OCCOC(=O)C1(CCc2ccccn2)CCCCC1)c1ccc(-c2c3nc(c(-c4cccc(S(=O)(=O)[O-])c4F)c4ccc([nH]4)c(-c4cccc(S(=O)(=O)[O-])c4F)c4nc(c(-c5cccc(S(=O)(=O)[O-])c5F)c5ccc2[nH]5)C=C4)C=C3)cc1
REMARK SMILES IDX 4 1 3 2 2 3 1 4 23 5 24 6 85 7 25 8 84 9 26 10 27 11 28 12
REMARK SMILES IDX 78 13 29 14 83 15 77 16 79 17 30 18 82 19 76 20 75 21 31 23
REMARK SMILES IDX 63 24 43 25 62 26 44 27 47 28 61 29 80 30 45 31 46 32 60 34
REMARK SMILES IDX 81 35 48 36 32 37 33 38 41 39 34 40 36 41 42 42 35 43 37 44
REMARK SMILES IDX 38 45 39 46 40 47 64 48 65 49 73 50 66 51 68 52 74 53 67 54
REMARK SMILES IDX 69 55 70 56 71 57 72 58 49 59 50 60 58 61 51 62 53 63 59 64
REMARK SMILES IDX 52 65 54 66 55 67 56 68 57 69 5 70 6 71 7 72 8 73 9 74 18 75
REMARK SMILES IDX 22 76 19 77 21 78 20 79 10 80 11 81 12 82 13 83 17 84 14 85
REMARK SMILES IDX 16 86 15 87
REMARK H PARENT 79 22 47 33
REMARK Flexibility Score: inf
ROOT
ATOM      1  C   UNL A   1      32.540  30.770  27.049  1.00  0.00     0.275 C 
ENDROOT
BRANCH   1   2
ATOM      2  O   UNL A   1      32.836  32.170  27.043  1.00  0.00    -0.458 OA
BRANCH   2   3
ATOM      3  C   UNL A   1      33.728  32.840  27.809  1.00  0.00     0.338 C 
ATOM      4  O   UNL A   1      33.651  34.062  27.908  1.00  0.00    -0.246 OA
BRANCH   3   5
ATOM      5  C   UNL A   1      34.890  32.145  28.429  1.00  0.00     0.060 A 
ATOM      6  C   UNL A   1      34.850  30.895  29.054  1.00  0.00     0.016 A 
ATOM      7  C   UNL A   1      36.121  32.810  28.350  1.00  0.00     0.016 A 
ATOM      8  C   UNL A   1      36.014  30.239  29.447  1.00  0.00     0.010 A 
ATOM      9  C   UNL A   1      37.292  32.164  28.751  1.00  0.00     0.010 A 
ATOM     10  C   UNL A   1      37.246  30.861  29.283  1.00  0.00    -0.014 A 
BRANCH  10  11
ATOM     11  C   UNL A   1      38.453  30.280  29.907  1.00  0.00     0.031 A 
ATOM     12  C   UNL A   1      38.790  30.794  31.271  1.00  0.00     0.074 A 
ATOM     13  C   UNL A   1      39.220  29.353  29.301  1.00  0.00     0.049 A 
ATOM     14  N   UNL A   1      39.819  30.531  32.022  1.00  0.00    -0.248 NA
ATOM     15  C   UNL A   1      37.836  31.754  31.863  1.00  0.00     0.031 C 
ATOM     16  C   UNL A   1      38.950  28.731  28.006  1.00  0.00     0.029 A 
ATOM     17  N   UNL A   1      40.417  28.800  29.677  1.00  0.00    -0.354 N 
ATOM     18  C   UNL A   1      39.632  31.297  33.161  1.00  0.00     0.074 A 
ATOM     19  C   UNL A   1      38.484  32.141  32.944  1.00  0.00     0.031 C 
ATOM     20  C   UNL A   1      40.001  27.973  27.641  1.00  0.00     0.029 A 
ATOM     21  C   UNL A   1      40.997  28.015  28.703  1.00  0.00     0.049 A 
ATOM     22  H   UNL A   1      40.825  28.951  30.559  1.00  0.00     0.167 HD
ATOM     23  C   UNL A   1      40.295  31.229  34.334  1.00  0.00     0.034 A 
ATOM     24  C   UNL A   1      42.191  27.392  28.692  1.00  0.00     0.034 A 
ATOM     25  C   UNL A   1      41.400  30.351  34.546  1.00  0.00     0.049 A 
ATOM     26  C   UNL A   1      42.992  27.410  29.969  1.00  0.00     0.074 A 
ATOM     27  C   UNL A   1      42.130  30.138  35.696  1.00  0.00     0.029 A 
ATOM     28  N   UNL A   1      41.942  29.540  33.558  1.00  0.00    -0.354 N 
ATOM     29  N   UNL A   1      42.725  28.024  31.098  1.00  0.00    -0.248 NA
ATOM     30  C   UNL A   1      44.203  26.578  30.010  1.00  0.00     0.031 C 
ATOM     31  C   UNL A   1      43.142  29.221  35.392  1.00  0.00     0.029 A 
ATOM     32  C   UNL A   1      43.012  28.833  34.064  1.00  0.00     0.049 A 
ATOM     33  H   UNL A   1      41.612  29.479  32.632  1.00  0.00     0.167 HD
ATOM     34  C   UNL A   1      43.677  27.584  32.008  1.00  0.00     0.074 A 
ATOM     35  C   UNL A   1      44.544  26.671  31.289  1.00  0.00     0.031 C 
ATOM     36  C   UNL A   1      43.813  27.888  33.324  1.00  0.00     0.034 A 
BRANCH  23  37
ATOM     37  C   UNL A   1      39.776  32.111  35.434  1.00  0.00     0.023 A 
ATOM     38  C   UNL A   1      38.729  31.651  36.267  1.00  0.00     0.012 A 
ATOM     39  C   UNL A   1      40.229  33.434  35.559  1.00  0.00     0.148 A 
ATOM     40  C   UNL A   1      38.085  32.522  37.142  1.00  0.00     0.002 A 
ATOM     41  C   UNL A   1      39.621  34.279  36.476  1.00  0.00     0.091 A 
ATOM     42  F   UNL A   1      41.203  33.856  34.740  1.00  0.00    -0.205 F 
ATOM     43  C   UNL A   1      38.532  33.834  37.248  1.00  0.00     0.022 A 
BRANCH  41  44
ATOM     44  S   UNL A   1      40.163  35.968  36.735  1.00  0.00     0.127 S 
ATOM     45  O   UNL A   1      41.579  35.780  37.047  1.00  0.00    -0.237 OA
ATOM     46  O   UNL A   1      39.900  36.571  35.429  1.00  0.00    -0.237 OA
ATOM     47  O   UNL A   1      39.349  36.490  37.822  1.00  0.00    -0.744 OA
ENDBRANCH  41  44
ENDBRANCH  23  37
BRANCH  24  48
ATOM     48  C   UNL A   1      42.638  26.596  27.510  1.00  0.00     0.023 A 
ATOM     49  C   UNL A   1      43.361  27.233  26.482  1.00  0.00     0.012 A 
ATOM     50  C   UNL A   1      42.346  25.222  27.387  1.00  0.00     0.148 A 
ATOM     51  C   UNL A   1      43.748  26.535  25.338  1.00  0.00     0.002 A 
ATOM     52  C   UNL A   1      42.760  24.522  26.255  1.00  0.00     0.091 A 
ATOM     53  F   UNL A   1      41.665  24.627  28.376  1.00  0.00    -0.205 F 
ATOM     54  C   UNL A   1      43.449  25.181  25.223  1.00  0.00     0.022 A 
BRANCH  52  55
ATOM     55  S   UNL A   1      42.487  22.757  26.035  1.00  0.00     0.127 S 
ATOM     56  O   UNL A   1      43.018  22.539  24.689  1.00  0.00    -0.237 OA
ATOM     57  O   UNL A   1      43.303  22.196  27.113  1.00  0.00    -0.237 OA
ATOM     58  O   UNL A   1      41.058  22.555  26.185  1.00  0.00    -0.744 OA
ENDBRANCH  52  55
ENDBRANCH  24  48
BRANCH  36  59
ATOM     59  C   UNL A   1      44.884  27.175  34.097  1.00  0.00     0.023 A 
ATOM     60  C   UNL A   1      46.137  27.783  34.297  1.00  0.00     0.012 A 
ATOM     61  C   UNL A   1      44.588  25.955  34.734  1.00  0.00     0.148 A 
ATOM     62  C   UNL A   1      47.090  27.172  35.108  1.00  0.00     0.002 A 
ATOM     63  C   UNL A   1      45.517  25.385  35.590  1.00  0.00     0.091 A 
ATOM     64  F   UNL A   1      43.393  25.388  34.508  1.00  0.00    -0.205 F 
ATOM     65  C   UNL A   1      46.775  25.986  35.769  1.00  0.00     0.022 A 
BRANCH  63  66
ATOM     66  S   UNL A   1      45.143  23.935  36.580  1.00  0.00     0.127 S 
ATOM     67  O   UNL A   1      46.470  23.350  36.762  1.00  0.00    -0.237 OA
ATOM     68  O   UNL A   1      44.564  24.526  37.787  1.00  0.00    -0.237 OA
ATOM     69  O   UNL A   1      44.213  23.139  35.792  1.00  0.00    -0.744 OA
ENDBRANCH  63  66
ENDBRANCH  36  59
ENDBRANCH  10  11
ENDBRANCH   3   5
ENDBRANCH   2   3
ENDBRANCH   1   2
BRANCH   1  70
ATOM     70  C   UNL A   1      32.866  29.944  25.794  1.00  0.00     0.274 C 
BRANCH  70  71
ATOM     71  O   UNL A   1      31.859  29.657  24.806  1.00  0.00    -0.462 OA
BRANCH  71  72
ATOM     72  C   UNL A   1      32.275  28.904  23.746  1.00  0.00     0.312 C 
ATOM     73  O   UNL A   1      33.314  29.149  23.142  1.00  0.00    -0.252 OA
BRANCH  72  74
ATOM     74  C   UNL A   1      31.376  27.671  23.435  1.00  0.00     0.068 C 
ATOM     75  C   UNL A   1      32.337  26.684  22.753  1.00  0.00     0.019 C 
ATOM     76  C   UNL A   1      30.796  26.956  24.678  1.00  0.00     0.019 C 
ATOM     77  C   UNL A   1      31.786  25.308  22.412  1.00  0.00     0.001 C 
ATOM     78  C   UNL A   1      30.202  25.571  24.368  1.00  0.00     0.001 C 
ATOM     79  C   UNL A   1      31.172  24.648  23.635  1.00  0.00     0.000 C 
BRANCH  74  80
ATOM     80  C   UNL A   1      30.262  28.073  22.426  1.00  0.00     0.025 C 
BRANCH  80  81
ATOM     81  C   UNL A   1      28.919  28.549  23.008  1.00  0.00     0.057 C 
BRANCH  81  82
ATOM     82  C   UNL A   1      28.542  29.943  22.590  1.00  0.00     0.040 A 
ATOM     83  C   UNL A   1      28.653  31.010  23.478  1.00  0.00     0.024 A 
ATOM     84  N   UNL A   1      28.213  30.114  21.288  1.00  0.00    -0.261 NA
ATOM     85  C   UNL A   1      28.474  32.304  22.996  1.00  0.00     0.003 A 
ATOM     86  C   UNL A   1      28.093  31.379  20.837  1.00  0.00     0.111 A 
ATOM     87  C   UNL A   1      28.212  32.497  21.644  1.00  0.00     0.020 A 
ENDBRANCH  81  82
ENDBRANCH  80  81
ENDBRANCH  74  80
ENDBRANCH  72  74
ENDBRANCH  71  72
ENDBRANCH  70  71
ENDBRANCH   1  70
TORSDOF 17
ENDMDL
