MODEL 1
REMARK VINA RESULT:     -11.8      0.000      0.000
REMARK SMILES O=C(OCCOC(=O)[C@H]1CCCCN1C(=O)c1cn2ccccc2n1)c1ccc(-c2c3nc(c(-c4cccc(S(=O)(=O)[O-])c4F)c4ccc([nH]4)c(-c4cccc(S(=O)(=O)[O-])c4F)c4nc(c(-c5cccc(S(=O)(=O)[O-])c5F)c5ccc2[nH]5)C=C4)C=C3)cc1
REMARK SMILES IDX 4 1 3 2 2 3 1 4 26 5 27 6 88 7 28 8 87 9 29 10 30 11 31 12
REMARK SMILES IDX 81 13 32 14 86 15 80 16 82 17 33 18 85 19 79 20 78 21 34 23
REMARK SMILES IDX 66 24 46 25 65 26 47 27 50 28 64 29 83 30 48 31 49 32 63 34
REMARK SMILES IDX 84 35 51 36 35 37 36 38 44 39 37 40 39 41 45 42 38 43 40 44
REMARK SMILES IDX 41 45 42 46 43 47 67 48 68 49 76 50 69 51 71 52 77 53 70 54
REMARK SMILES IDX 72 55 73 56 74 57 75 58 52 59 53 60 61 61 54 62 56 63 62 64
REMARK SMILES IDX 55 65 57 66 58 67 59 68 60 69 5 70 6 71 7 72 8 73 9 74 10 75
REMARK SMILES IDX 14 76 11 77 13 78 12 79 15 80 16 81 17 82 18 83 25 84 19 85
REMARK SMILES IDX 24 86 20 87 23 88 21 89 22 90
REMARK H PARENT 82 22 50 33
REMARK Flexibility Score: inf
ROOT
ATOM      1  C   UNL A   1      36.872  21.713  24.192  1.00  0.00     0.275 C 
ENDROOT
BRANCH   1   2
ATOM      2  O   UNL A   1      37.421  21.821  25.513  1.00  0.00    -0.458 OA
BRANCH   2   3
ATOM      3  C   UNL A   1      38.702  21.674  25.916  1.00  0.00     0.338 C 
ATOM      4  O   UNL A   1      39.202  20.549  25.923  1.00  0.00    -0.246 OA
BRANCH   3   5
ATOM      5  C   UNL A   1      39.510  22.798  26.475  1.00  0.00     0.060 A 
ATOM      6  C   UNL A   1      40.526  22.711  27.431  1.00  0.00     0.016 A 
ATOM      7  C   UNL A   1      39.160  24.067  26.012  1.00  0.00     0.016 A 
ATOM      8  C   UNL A   1      41.221  23.856  27.860  1.00  0.00     0.010 A 
ATOM      9  C   UNL A   1      39.855  25.200  26.433  1.00  0.00     0.010 A 
ATOM     10  C   UNL A   1      40.888  25.119  27.367  1.00  0.00    -0.014 A 
BRANCH  10  11
ATOM     11  C   UNL A   1      41.497  26.374  27.891  1.00  0.00     0.031 A 
ATOM     12  C   UNL A   1      42.938  26.689  27.554  1.00  0.00     0.074 A 
ATOM     13  C   UNL A   1      40.823  27.176  28.738  1.00  0.00     0.049 A 
ATOM     14  N   UNL A   1      43.681  27.696  27.933  1.00  0.00    -0.248 NA
ATOM     15  C   UNL A   1      43.661  25.700  26.735  1.00  0.00     0.031 C 
ATOM     16  C   UNL A   1      39.493  26.912  29.290  1.00  0.00     0.029 A 
ATOM     17  N   UNL A   1      41.178  28.378  29.302  1.00  0.00    -0.354 N 
ATOM     18  C   UNL A   1      44.962  27.411  27.476  1.00  0.00     0.074 A 
ATOM     19  C   UNL A   1      44.915  26.103  26.868  1.00  0.00     0.031 C 
ATOM     20  C   UNL A   1      39.134  27.934  30.088  1.00  0.00     0.029 A 
ATOM     21  C   UNL A   1      40.202  28.928  30.102  1.00  0.00     0.049 A 
ATOM     22  H   UNL A   1      42.051  28.807  29.148  1.00  0.00     0.167 HD
ATOM     23  C   UNL A   1      46.066  28.195  27.476  1.00  0.00     0.034 A 
ATOM     24  C   UNL A   1      40.168  30.119  30.736  1.00  0.00     0.034 A 
ATOM     25  C   UNL A   1      46.058  29.554  27.934  1.00  0.00     0.049 A 
ATOM     26  C   UNL A   1      41.332  31.064  30.554  1.00  0.00     0.074 A 
ATOM     27  C   UNL A   1      47.044  30.515  27.818  1.00  0.00     0.029 A 
ATOM     28  N   UNL A   1      44.981  30.153  28.568  1.00  0.00    -0.354 N 
ATOM     29  N   UNL A   1      42.462  30.873  29.916  1.00  0.00    -0.248 NA
ATOM     30  C   UNL A   1      41.186  32.417  31.115  1.00  0.00     0.031 C 
ATOM     31  C   UNL A   1      46.548  31.708  28.359  1.00  0.00     0.029 A 
ATOM     32  C   UNL A   1      45.257  31.483  28.814  1.00  0.00     0.049 A 
ATOM     33  H   UNL A   1      44.141  29.696  28.807  1.00  0.00     0.167 HD
ATOM     34  C   UNL A   1      43.133  32.092  29.945  1.00  0.00     0.074 A 
ATOM     35  C   UNL A   1      42.279  33.018  30.659  1.00  0.00     0.031 C 
ATOM     36  C   UNL A   1      44.347  32.412  29.434  1.00  0.00     0.034 A 
BRANCH  23  37
ATOM     37  C   UNL A   1      47.311  27.630  26.840  1.00  0.00     0.023 A 
ATOM     38  C   UNL A   1      47.537  27.844  25.462  1.00  0.00     0.012 A 
ATOM     39  C   UNL A   1      48.232  26.860  27.574  1.00  0.00     0.148 A 
ATOM     40  C   UNL A   1      48.606  27.236  24.809  1.00  0.00     0.002 A 
ATOM     41  C   UNL A   1      49.328  26.298  26.924  1.00  0.00     0.091 A 
ATOM     42  F   UNL A   1      48.004  26.650  28.878  1.00  0.00    -0.205 F 
ATOM     43  C   UNL A   1      49.504  26.467  25.541  1.00  0.00     0.022 A 
BRANCH  41  44
ATOM     44  S   UNL A   1      50.575  25.346  27.797  1.00  0.00     0.127 S 
ATOM     45  O   UNL A   1      49.798  24.195  28.257  1.00  0.00    -0.237 OA
ATOM     46  O   UNL A   1      51.539  25.046  26.736  1.00  0.00    -0.237 OA
ATOM     47  O   UNL A   1      51.083  26.224  28.840  1.00  0.00    -0.744 OA
ENDBRANCH  41  44
ENDBRANCH  23  37
BRANCH  24  48
ATOM     48  C   UNL A   1      38.924  30.572  31.425  1.00  0.00     0.023 A 
ATOM     49  C   UNL A   1      38.799  30.321  32.809  1.00  0.00     0.012 A 
ATOM     50  C   UNL A   1      37.881  31.239  30.755  1.00  0.00     0.148 A 
ATOM     51  C   UNL A   1      37.644  30.684  33.503  1.00  0.00     0.002 A 
ATOM     52  C   UNL A   1      36.747  31.634  31.462  1.00  0.00     0.091 A 
ATOM     53  F   UNL A   1      38.015  31.473  29.442  1.00  0.00    -0.205 F 
ATOM     54  C   UNL A   1      36.621  31.342  32.831  1.00  0.00     0.022 A 
BRANCH  52  55
ATOM     55  S   UNL A   1      35.401  32.567  30.720  1.00  0.00     0.127 S 
ATOM     56  O   UNL A   1      34.407  32.562  31.792  1.00  0.00    -0.237 OA
ATOM     57  O   UNL A   1      36.033  33.865  30.477  1.00  0.00    -0.237 OA
ATOM     58  O   UNL A   1      35.029  31.840  29.515  1.00  0.00    -0.744 OA
ENDBRANCH  52  55
ENDBRANCH  24  48
BRANCH  36  59
ATOM     59  C   UNL A   1      44.808  33.839  29.545  1.00  0.00     0.023 A 
ATOM     60  C   UNL A   1      45.545  34.252  30.670  1.00  0.00     0.012 A 
ATOM     61  C   UNL A   1      44.615  34.733  28.473  1.00  0.00     0.148 A 
ATOM     62  C   UNL A   1      46.071  35.542  30.735  1.00  0.00     0.002 A 
ATOM     63  C   UNL A   1      45.183  36.000  28.523  1.00  0.00     0.091 A 
ATOM     64  F   UNL A   1      43.889  34.328  27.421  1.00  0.00    -0.205 F 
ATOM     65  C   UNL A   1      45.904  36.409  29.656  1.00  0.00     0.022 A 
BRANCH  63  66
ATOM     66  S   UNL A   1      45.111  37.132  27.129  1.00  0.00     0.127 S 
ATOM     67  O   UNL A   1      45.775  36.360  26.081  1.00  0.00    -0.237 OA
ATOM     68  O   UNL A   1      43.671  37.306  26.938  1.00  0.00    -0.237 OA
ATOM     69  O   UNL A   1      45.808  38.336  27.562  1.00  0.00    -0.744 OA
ENDBRANCH  63  66
ENDBRANCH  36  59
ENDBRANCH  10  11
ENDBRANCH   3   5
ENDBRANCH   2   3
ENDBRANCH   1   2
BRANCH   1  70
ATOM     70  C   UNL A   1      36.532  23.039  23.510  1.00  0.00     0.274 C 
BRANCH  70  71
ATOM     71  O   UNL A   1      35.276  23.064  22.813  1.00  0.00    -0.461 OA
BRANCH  71  72
ATOM     72  C   UNL A   1      34.390  24.019  23.236  1.00  0.00     0.328 C 
ATOM     73  O   UNL A   1      34.315  25.135  22.736  1.00  0.00    -0.250 OA
BRANCH  72  74
ATOM     74  C   UNL A   1      33.569  23.534  24.455  1.00  0.00     0.195 C 
ATOM     75  C   UNL A   1      33.088  24.766  25.239  1.00  0.00     0.037 C 
ATOM     76  N   UNL A   1      32.391  22.685  24.152  1.00  0.00    -0.323 N 
ATOM     77  C   UNL A   1      31.943  25.492  24.516  1.00  0.00     0.005 C 
ATOM     78  C   UNL A   1      31.365  23.310  23.330  1.00  0.00     0.121 C 
ATOM     79  C   UNL A   1      30.831  24.543  24.058  1.00  0.00     0.022 C 
BRANCH  76  80
ATOM     80  C   UNL A   1      32.058  21.702  25.107  1.00  0.00     0.274 C 
ATOM     81  O   UNL A   1      31.731  22.044  26.243  1.00  0.00    -0.267 OA
BRANCH  80  82
ATOM     82  C   UNL A   1      32.213  20.266  24.773  1.00  0.00     0.147 A 
ATOM     83  C   UNL A   1      32.528  19.688  23.551  1.00  0.00     0.127 A 
ATOM     84  N   UNL A   1      32.280  19.294  25.761  1.00  0.00    -0.223 NA
ATOM     85  N   UNL A   1      32.955  18.411  23.832  1.00  0.00    -0.306 N 
ATOM     86  C   UNL A   1      32.754  18.209  25.189  1.00  0.00     0.137 A 
ATOM     87  C   UNL A   1      33.551  17.473  22.990  1.00  0.00     0.093 A 
ATOM     88  C   UNL A   1      33.148  16.949  25.722  1.00  0.00     0.048 A 
ATOM     89  C   UNL A   1      33.947  16.295  23.502  1.00  0.00     0.018 A 
ATOM     90  C   UNL A   1      33.723  16.033  24.917  1.00  0.00     0.005 A 
ENDBRANCH  80  82
ENDBRANCH  76  80
ENDBRANCH  72  74
ENDBRANCH  71  72
ENDBRANCH  70  71
ENDBRANCH   1  70
TORSDOF 16
ENDMDL
MODEL 2
REMARK VINA RESULT:     -11.8      4.903      9.594
REMARK SMILES O=C(OCCOC(=O)[C@H]1CCCCN1C(=O)c1cn2ccccc2n1)c1ccc(-c2c3nc(c(-c4cccc(S(=O)(=O)[O-])c4F)c4ccc([nH]4)c(-c4cccc(S(=O)(=O)[O-])c4F)c4nc(c(-c5cccc(S(=O)(=O)[O-])c5F)c5ccc2[nH]5)C=C4)C=C3)cc1
REMARK SMILES IDX 4 1 3 2 2 3 1 4 26 5 27 6 88 7 28 8 87 9 29 10 30 11 31 12
REMARK SMILES IDX 81 13 32 14 86 15 80 16 82 17 33 18 85 19 79 20 78 21 34 23
REMARK SMILES IDX 66 24 46 25 65 26 47 27 50 28 64 29 83 30 48 31 49 32 63 34
REMARK SMILES IDX 84 35 51 36 35 37 36 38 44 39 37 40 39 41 45 42 38 43 40 44
REMARK SMILES IDX 41 45 42 46 43 47 67 48 68 49 76 50 69 51 71 52 77 53 70 54
REMARK SMILES IDX 72 55 73 56 74 57 75 58 52 59 53 60 61 61 54 62 56 63 62 64
REMARK SMILES IDX 55 65 57 66 58 67 59 68 60 69 5 70 6 71 7 72 8 73 9 74 10 75
REMARK SMILES IDX 14 76 11 77 13 78 12 79 15 80 16 81 17 82 18 83 25 84 19 85
REMARK SMILES IDX 24 86 20 87 23 88 21 89 22 90
REMARK H PARENT 82 22 50 33
REMARK Flexibility Score: inf
ROOT
ATOM      1  C   UNL A   1      32.288  30.154  26.902  1.00  0.00     0.275 C 
ENDROOT
BRANCH   1   2
ATOM      2  O   UNL A   1      33.711  30.305  26.793  1.00  0.00    -0.458 OA
BRANCH   2   3
ATOM      3  C   UNL A   1      34.565  30.944  27.623  1.00  0.00     0.338 C 
ATOM      4  O   UNL A   1      34.407  32.147  27.833  1.00  0.00    -0.246 OA
BRANCH   3   5
ATOM      5  C   UNL A   1      35.774  30.289  28.203  1.00  0.00     0.060 A 
ATOM      6  C   UNL A   1      35.898  29.728  29.478  1.00  0.00     0.016 A 
ATOM      7  C   UNL A   1      36.902  30.292  27.381  1.00  0.00     0.016 A 
ATOM      8  C   UNL A   1      37.099  29.124  29.893  1.00  0.00     0.010 A 
ATOM      9  C   UNL A   1      38.089  29.687  27.792  1.00  0.00     0.010 A 
ATOM     10  C   UNL A   1      38.214  29.102  29.052  1.00  0.00    -0.014 A 
BRANCH  10  11
ATOM     11  C   UNL A   1      39.545  28.600  29.494  1.00  0.00     0.031 A 
ATOM     12  C   UNL A   1      40.243  29.283  30.649  1.00  0.00     0.074 A 
ATOM     13  C   UNL A   1      40.180  27.620  28.821  1.00  0.00     0.049 A 
ATOM     14  N   UNL A   1      41.418  29.043  31.172  1.00  0.00    -0.248 NA
ATOM     15  C   UNL A   1      39.555  30.437  31.255  1.00  0.00     0.031 C 
ATOM     16  C   UNL A   1      39.711  26.989  27.586  1.00  0.00     0.029 A 
ATOM     17  N   UNL A   1      41.376  26.995  29.073  1.00  0.00    -0.354 N 
ATOM     18  C   UNL A   1      41.635  30.063  32.091  1.00  0.00     0.074 A 
ATOM     19  C   UNL A   1      40.515  30.967  31.996  1.00  0.00     0.031 C 
ATOM     20  C   UNL A   1      40.594  26.047  27.207  1.00  0.00     0.029 A 
ATOM     21  C   UNL A   1      41.688  26.002  28.172  1.00  0.00     0.049 A 
ATOM     22  H   UNL A   1      41.959  27.234  29.831  1.00  0.00     0.167 HD
ATOM     23  C   UNL A   1      42.629  30.198  33.001  1.00  0.00     0.034 A 
ATOM     24  C   UNL A   1      42.722  25.135  28.157  1.00  0.00     0.034 A 
ATOM     25  C   UNL A   1      43.647  29.208  33.199  1.00  0.00     0.049 A 
ATOM     26  C   UNL A   1      43.710  25.175  29.299  1.00  0.00     0.074 A 
ATOM     27  C   UNL A   1      44.595  29.124  34.201  1.00  0.00     0.029 A 
ATOM     28  N   UNL A   1      43.820  28.100  32.384  1.00  0.00    -0.354 N 
ATOM     29  N   UNL A   1      43.777  26.010  30.308  1.00  0.00    -0.248 NA
ATOM     30  C   UNL A   1      44.721  24.106  29.342  1.00  0.00     0.031 C 
ATOM     31  C   UNL A   1      45.324  27.945  34.006  1.00  0.00     0.029 A 
ATOM     32  C   UNL A   1      44.831  27.301  32.880  1.00  0.00     0.049 A 
ATOM     33  H   UNL A   1      43.298  27.911  31.570  1.00  0.00     0.167 HD
ATOM     34  C   UNL A   1      44.791  25.538  31.134  1.00  0.00     0.074 A 
ATOM     35  C   UNL A   1      45.308  24.337  30.511  1.00  0.00     0.031 C 
ATOM     36  C   UNL A   1      45.257  26.054  32.298  1.00  0.00     0.034 A 
BRANCH  23  37
ATOM     37  C   UNL A   1      42.560  31.390  33.922  1.00  0.00     0.023 A 
ATOM     38  C   UNL A   1      43.204  32.590  33.544  1.00  0.00     0.012 A 
ATOM     39  C   UNL A   1      41.906  31.327  35.166  1.00  0.00     0.148 A 
ATOM     40  C   UNL A   1      43.272  33.672  34.418  1.00  0.00     0.002 A 
ATOM     41  C   UNL A   1      41.934  32.432  36.013  1.00  0.00     0.091 A 
ATOM     42  F   UNL A   1      41.308  30.182  35.524  1.00  0.00    -0.205 F 
ATOM     43  C   UNL A   1      42.633  33.595  35.650  1.00  0.00     0.022 A 
BRANCH  41  44
ATOM     44  S   UNL A   1      41.083  32.450  37.594  1.00  0.00     0.127 S 
ATOM     45  O   UNL A   1      41.944  31.587  38.401  1.00  0.00    -0.237 OA
ATOM     46  O   UNL A   1      41.128  33.868  37.957  1.00  0.00    -0.237 OA
ATOM     47  O   UNL A   1      39.746  31.940  37.328  1.00  0.00    -0.744 OA
ENDBRANCH  41  44
ENDBRANCH  23  37
BRANCH  24  48
ATOM     48  C   UNL A   1      42.767  24.032  27.152  1.00  0.00     0.023 A 
ATOM     49  C   UNL A   1      43.537  24.223  25.985  1.00  0.00     0.012 A 
ATOM     50  C   UNL A   1      42.081  22.814  27.326  1.00  0.00     0.148 A 
ATOM     51  C   UNL A   1      43.589  23.246  24.991  1.00  0.00     0.002 A 
ATOM     52  C   UNL A   1      42.168  21.827  26.346  1.00  0.00     0.091 A 
ATOM     53  F   UNL A   1      41.356  22.645  28.440  1.00  0.00    -0.205 F 
ATOM     54  C   UNL A   1      42.907  22.049  25.172  1.00  0.00     0.022 A 
BRANCH  52  55
ATOM     55  S   UNL A   1      41.404  20.208  26.511  1.00  0.00     0.127 S 
ATOM     56  O   UNL A   1      41.978  19.489  25.375  1.00  0.00    -0.237 OA
ATOM     57  O   UNL A   1      41.895  19.776  27.821  1.00  0.00    -0.237 OA
ATOM     58  O   UNL A   1      39.968  20.437  26.449  1.00  0.00    -0.744 OA
ENDBRANCH  52  55
ENDBRANCH  24  48
BRANCH  36  59
ATOM     59  C   UNL A   1      46.326  25.294  33.033  1.00  0.00     0.023 A 
ATOM     60  C   UNL A   1      47.676  25.657  32.879  1.00  0.00     0.012 A 
ATOM     61  C   UNL A   1      45.975  24.303  33.970  1.00  0.00     0.148 A 
ATOM     62  C   UNL A   1      48.666  25.032  33.637  1.00  0.00     0.002 A 
ATOM     63  C   UNL A   1      46.959  23.719  34.757  1.00  0.00     0.091 A 
ATOM     64  F   UNL A   1      44.684  23.954  34.084  1.00  0.00    -0.205 F 
ATOM     65  C   UNL A   1      48.306  24.077  34.586  1.00  0.00     0.022 A 
BRANCH  63  66
ATOM     66  S   UNL A   1      46.566  22.567  36.078  1.00  0.00     0.127 S 
ATOM     67  O   UNL A   1      47.892  22.250  36.606  1.00  0.00    -0.237 OA
ATOM     68  O   UNL A   1      45.734  23.378  36.967  1.00  0.00    -0.237 OA
ATOM     69  O   UNL A   1      45.861  21.462  35.442  1.00  0.00    -0.744 OA
ENDBRANCH  63  66
ENDBRANCH  36  59
ENDBRANCH  10  11
ENDBRANCH   3   5
ENDBRANCH   2   3
ENDBRANCH   1   2
BRANCH   1  70
ATOM     70  C   UNL A   1      31.796  28.728  27.152  1.00  0.00     0.274 C 
BRANCH  70  71
ATOM     71  O   UNL A   1      32.260  27.747  26.210  1.00  0.00    -0.461 OA
BRANCH  71  72
ATOM     72  C   UNL A   1      31.339  26.799  25.850  1.00  0.00     0.328 C 
ATOM     73  O   UNL A   1      30.491  26.359  26.618  1.00  0.00    -0.250 OA
BRANCH  72  74
ATOM     74  C   UNL A   1      31.560  26.313  24.397  1.00  0.00     0.195 C 
ATOM     75  C   UNL A   1      30.219  26.386  23.650  1.00  0.00     0.037 C 
ATOM     76  N   UNL A   1      32.574  27.056  23.608  1.00  0.00    -0.323 N 
ATOM     77  C   UNL A   1      29.833  27.834  23.309  1.00  0.00     0.005 C 
ATOM     78  C   UNL A   1      32.299  28.471  23.411  1.00  0.00     0.121 C 
ATOM     79  C   UNL A   1      30.977  28.618  22.659  1.00  0.00     0.022 C 
BRANCH  76  80
ATOM     80  C   UNL A   1      33.294  26.314  22.648  1.00  0.00     0.274 C 
ATOM     81  O   UNL A   1      33.677  26.865  21.617  1.00  0.00    -0.267 OA
BRANCH  80  82
ATOM     82  C   UNL A   1      33.486  24.856  22.834  1.00  0.00     0.147 A 
ATOM     83  C   UNL A   1      34.338  24.197  23.709  1.00  0.00     0.127 A 
ATOM     84  N   UNL A   1      32.618  23.933  22.270  1.00  0.00    -0.223 NA
ATOM     85  N   UNL A   1      33.866  22.909  23.803  1.00  0.00    -0.306 N 
ATOM     86  C   UNL A   1      32.837  22.789  22.882  1.00  0.00     0.137 A 
ATOM     87  C   UNL A   1      34.245  21.890  24.676  1.00  0.00     0.093 A 
ATOM     88  C   UNL A   1      32.171  21.532  22.813  1.00  0.00     0.048 A 
ATOM     89  C   UNL A   1      33.597  20.713  24.626  1.00  0.00     0.018 A 
ATOM     90  C   UNL A   1      32.530  20.539  23.650  1.00  0.00     0.005 A 
ENDBRANCH  80  82
ENDBRANCH  76  80
ENDBRANCH  72  74
ENDBRANCH  71  72
ENDBRANCH  70  71
ENDBRANCH   1  70
TORSDOF 16
ENDMDL
MODEL 3
REMARK VINA RESULT:     -11.8      5.504     10.622
REMARK SMILES O=C(OCCOC(=O)[C@H]1CCCCN1C(=O)c1cn2ccccc2n1)c1ccc(-c2c3nc(c(-c4cccc(S(=O)(=O)[O-])c4F)c4ccc([nH]4)c(-c4cccc(S(=O)(=O)[O-])c4F)c4nc(c(-c5cccc(S(=O)(=O)[O-])c5F)c5ccc2[nH]5)C=C4)C=C3)cc1
REMARK SMILES IDX 4 1 3 2 2 3 1 4 26 5 27 6 88 7 28 8 87 9 29 10 30 11 31 12
REMARK SMILES IDX 81 13 32 14 86 15 80 16 82 17 33 18 85 19 79 20 78 21 34 23
REMARK SMILES IDX 66 24 46 25 65 26 47 27 50 28 64 29 83 30 48 31 49 32 63 34
REMARK SMILES IDX 84 35 51 36 35 37 36 38 44 39 37 40 39 41 45 42 38 43 40 44
REMARK SMILES IDX 41 45 42 46 43 47 67 48 68 49 76 50 69 51 71 52 77 53 70 54
REMARK SMILES IDX 72 55 73 56 74 57 75 58 52 59 53 60 61 61 54 62 56 63 62 64
REMARK SMILES IDX 55 65 57 66 58 67 59 68 60 69 5 70 6 71 7 72 8 73 9 74 10 75
REMARK SMILES IDX 14 76 11 77 13 78 12 79 15 80 16 81 17 82 18 83 25 84 19 85
REMARK SMILES IDX 24 86 20 87 23 88 21 89 22 90
REMARK H PARENT 82 22 50 33
REMARK Flexibility Score: inf
ROOT
ATOM      1  C   UNL A   1      31.787  29.322  26.837  1.00  0.00     0.275 C 
ENDROOT
BRANCH   1   2
ATOM      2  O   UNL A   1      32.878  30.177  26.466  1.00  0.00    -0.458 OA
BRANCH   2   3
ATOM      3  C   UNL A   1      33.468  31.161  27.180  1.00  0.00     0.338 C 
ATOM      4  O   UNL A   1      32.957  32.281  27.191  1.00  0.00    -0.246 OA
BRANCH   3   5
ATOM      5  C   UNL A   1      34.786  30.991  27.860  1.00  0.00     0.060 A 
ATOM      6  C   UNL A   1      35.797  31.948  27.989  1.00  0.00     0.016 A 
ATOM      7  C   UNL A   1      35.028  29.716  28.373  1.00  0.00     0.016 A 
ATOM      8  C   UNL A   1      36.991  31.657  28.674  1.00  0.00     0.010 A 
ATOM      9  C   UNL A   1      36.209  29.432  29.057  1.00  0.00     0.010 A 
ATOM     10  C   UNL A   1      37.213  30.388  29.213  1.00  0.00    -0.014 A 
BRANCH  10  11
ATOM     11  C   UNL A   1      38.511  29.989  29.823  1.00  0.00     0.031 A 
ATOM     12  C   UNL A   1      38.846  30.466  31.219  1.00  0.00     0.074 A 
ATOM     13  C   UNL A   1      39.432  29.301  29.119  1.00  0.00     0.049 A 
ATOM     14  N   UNL A   1      39.929  30.277  31.927  1.00  0.00    -0.248 NA
ATOM     15  C   UNL A   1      37.854  31.330  31.884  1.00  0.00     0.031 C 
ATOM     16  C   UNL A   1      39.323  28.925  27.708  1.00  0.00     0.029 A 
ATOM     17  N   UNL A   1      40.659  28.810  29.494  1.00  0.00    -0.354 N 
ATOM     18  C   UNL A   1      39.780  31.065  33.062  1.00  0.00     0.074 A 
ATOM     19  C   UNL A   1      38.545  31.797  32.911  1.00  0.00     0.031 C 
ATOM     20  C   UNL A   1      40.422  28.238  27.346  1.00  0.00     0.029 A 
ATOM     21  C   UNL A   1      41.311  28.119  28.498  1.00  0.00     0.049 A 
ATOM     22  H   UNL A   1      41.037  28.939  30.394  1.00  0.00     0.167 HD
ATOM     23  C   UNL A   1      40.548  31.117  34.176  1.00  0.00     0.034 A 
ATOM     24  C   UNL A   1      42.474  27.437  28.532  1.00  0.00     0.034 A 
ATOM     25  C   UNL A   1      41.681  30.264  34.384  1.00  0.00     0.049 A 
ATOM     26  C   UNL A   1      43.213  27.340  29.847  1.00  0.00     0.074 A 
ATOM     27  C   UNL A   1      42.429  30.077  35.531  1.00  0.00     0.029 A 
ATOM     28  N   UNL A   1      42.205  29.421  33.416  1.00  0.00    -0.354 N 
ATOM     29  N   UNL A   1      42.936  27.909  30.996  1.00  0.00    -0.248 NA
ATOM     30  C   UNL A   1      44.382  26.448  29.890  1.00  0.00     0.031 C 
ATOM     31  C   UNL A   1      43.391  29.095  35.262  1.00  0.00     0.029 A 
ATOM     32  C   UNL A   1      43.241  28.678  33.947  1.00  0.00     0.049 A 
ATOM     33  H   UNL A   1      41.885  29.361  32.487  1.00  0.00     0.167 HD
ATOM     34  C   UNL A   1      43.853  27.401  31.909  1.00  0.00     0.074 A 
ATOM     35  C   UNL A   1      44.693  26.471  31.181  1.00  0.00     0.031 C 
ATOM     36  C   UNL A   1      43.994  27.683  33.228  1.00  0.00     0.034 A 
BRANCH  23  37
ATOM     37  C   UNL A   1      40.089  32.030  35.285  1.00  0.00     0.023 A 
ATOM     38  C   UNL A   1      40.672  33.311  35.408  1.00  0.00     0.012 A 
ATOM     39  C   UNL A   1      39.124  31.624  36.225  1.00  0.00     0.148 A 
ATOM     40  C   UNL A   1      40.370  34.135  36.489  1.00  0.00     0.002 A 
ATOM     41  C   UNL A   1      38.788  32.476  37.274  1.00  0.00     0.091 A 
ATOM     42  F   UNL A   1      38.584  30.403  36.110  1.00  0.00    -0.205 F 
ATOM     43  C   UNL A   1      39.424  33.720  37.419  1.00  0.00     0.022 A 
BRANCH  41  44
ATOM     44  S   UNL A   1      37.531  32.055  38.486  1.00  0.00     0.127 S 
ATOM     45  O   UNL A   1      36.486  33.029  38.177  1.00  0.00    -0.237 OA
ATOM     46  O   UNL A   1      37.202  30.673  38.129  1.00  0.00    -0.237 OA
ATOM     47  O   UNL A   1      38.171  32.203  39.785  1.00  0.00    -0.744 OA
ENDBRANCH  41  44
ENDBRANCH  23  37
BRANCH  24  48
ATOM     48  C   UNL A   1      42.909  26.626  27.357  1.00  0.00     0.023 A 
ATOM     49  C   UNL A   1      43.697  27.253  26.368  1.00  0.00     0.012 A 
ATOM     50  C   UNL A   1      42.571  25.268  27.200  1.00  0.00     0.148 A 
ATOM     51  C   UNL A   1      44.103  26.561  25.227  1.00  0.00     0.002 A 
ATOM     52  C   UNL A   1      43.012  24.571  26.077  1.00  0.00     0.091 A 
ATOM     53  F   UNL A   1      41.825  24.684  28.148  1.00  0.00    -0.205 F 
ATOM     54  C   UNL A   1      43.763  25.221  25.082  1.00  0.00     0.022 A 
BRANCH  52  55
ATOM     55  S   UNL A   1      42.709  22.817  25.826  1.00  0.00     0.127 S 
ATOM     56  O   UNL A   1      43.476  22.222  26.919  1.00  0.00    -0.237 OA
ATOM     57  O   UNL A   1      41.256  22.738  25.983  1.00  0.00    -0.237 OA
ATOM     58  O   UNL A   1      43.190  22.518  24.485  1.00  0.00    -0.744 OA
ENDBRANCH  52  55
ENDBRANCH  24  48
BRANCH  36  59
ATOM     59  C   UNL A   1      45.035  26.927  34.007  1.00  0.00     0.023 A 
ATOM     60  C   UNL A   1      46.344  27.435  34.102  1.00  0.00     0.012 A 
ATOM     61  C   UNL A   1      44.677  25.782  34.746  1.00  0.00     0.148 A 
ATOM     62  C   UNL A   1      47.289  26.803  34.910  1.00  0.00     0.002 A 
ATOM     63  C   UNL A   1      45.609  25.186  35.586  1.00  0.00     0.091 A 
ATOM     64  F   UNL A   1      43.431  25.301  34.622  1.00  0.00    -0.205 F 
ATOM     65  C   UNL A   1      46.917  25.690  35.663  1.00  0.00     0.022 A 
BRANCH  63  66
ATOM     66  S   UNL A   1      45.177  23.822  36.673  1.00  0.00     0.127 S 
ATOM     67  O   UNL A   1      46.474  23.477  37.252  1.00  0.00    -0.237 OA
ATOM     68  O   UNL A   1      44.241  24.448  37.607  1.00  0.00    -0.237 OA
ATOM     69  O   UNL A   1      44.579  22.807  35.816  1.00  0.00    -0.744 OA
ENDBRANCH  63  66
ENDBRANCH  36  59
ENDBRANCH  10  11
ENDBRANCH   3   5
ENDBRANCH   2   3
ENDBRANCH   1   2
BRANCH   1  70
ATOM     70  C   UNL A   1      32.173  27.896  27.229  1.00  0.00     0.274 C 
BRANCH  70  71
ATOM     71  O   UNL A   1      31.089  26.954  27.256  1.00  0.00    -0.461 OA
BRANCH  71  72
ATOM     72  C   UNL A   1      31.272  25.828  26.498  1.00  0.00     0.328 C 
ATOM     73  O   UNL A   1      30.977  24.702  26.884  1.00  0.00    -0.250 OA
BRANCH  72  74
ATOM     74  C   UNL A   1      31.959  26.153  25.150  1.00  0.00     0.195 C 
ATOM     75  C   UNL A   1      32.772  24.925  24.708  1.00  0.00     0.037 C 
ATOM     76  N   UNL A   1      31.059  26.541  24.036  1.00  0.00    -0.323 N 
ATOM     77  C   UNL A   1      31.866  23.796  24.192  1.00  0.00     0.005 C 
ATOM     78  C   UNL A   1      30.085  25.535  23.640  1.00  0.00     0.121 C 
ATOM     79  C   UNL A   1      30.828  24.283  23.176  1.00  0.00     0.022 C 
BRANCH  76  80
ATOM     80  C   UNL A   1      31.573  27.464  23.100  1.00  0.00     0.274 C 
ATOM     81  O   UNL A   1      32.632  27.219  22.526  1.00  0.00    -0.267 OA
BRANCH  80  82
ATOM     82  C   UNL A   1      30.895  28.767  22.901  1.00  0.00     0.147 A 
ATOM     83  C   UNL A   1      30.572  29.404  21.711  1.00  0.00     0.127 A 
ATOM     84  N   UNL A   1      30.275  29.429  23.950  1.00  0.00    -0.223 NA
ATOM     85  N   UNL A   1      29.616  30.341  22.029  1.00  0.00    -0.306 N 
ATOM     86  C   UNL A   1      29.494  30.339  23.410  1.00  0.00     0.137 A 
ATOM     87  C   UNL A   1      28.830  31.123  21.183  1.00  0.00     0.093 A 
ATOM     88  C   UNL A   1      28.534  31.225  23.977  1.00  0.00     0.048 A 
ATOM     89  C   UNL A   1      27.906  31.939  21.721  1.00  0.00     0.018 A 
ATOM     90  C   UNL A   1      27.770  31.988  23.170  1.00  0.00     0.005 A 
ENDBRANCH  80  82
ENDBRANCH  76  80
ENDBRANCH  72  74
ENDBRANCH  71  72
ENDBRANCH  70  71
ENDBRANCH   1  70
TORSDOF 16
ENDMDL
