MODEL 1
REMARK VINA RESULT:     -13.1      0.000      0.000
REMARK SMILES O=C(OCCOC(=O)[C@H](c1c[nH]c2ccc(Br)cc12)[N@H+]1CCC[C@H](c2nc3ccccc3s2)C1)c1ccc(-c2c3nc(c(-c4cccc(S(=O)(=O)[O-])c4F)c4ccc([nH]4)c(-c4cccc(S(=O)(=O)[O-])c4F)c4nc(c(-c5cccc(S(=O)(=O)[O-])c5F)c5ccc2[nH]5)C=C4)C=C3)cc1
REMARK SMILES IDX 4 1 3 2 2 3 1 4 35 5 36 6 97 7 37 8 96 9 38 10 39 11 40 12
REMARK SMILES IDX 90 13 41 14 95 15 89 16 91 17 42 18 94 19 88 20 87 21 43 23
REMARK SMILES IDX 75 24 55 25 74 26 56 27 59 28 73 29 92 30 57 31 58 32 72 34
REMARK SMILES IDX 93 35 60 36 44 37 45 38 53 39 46 40 48 41 54 42 47 43 49 44
REMARK SMILES IDX 50 45 51 46 52 47 76 48 77 49 85 50 78 51 80 52 86 53 79 54
REMARK SMILES IDX 81 55 82 56 83 57 84 58 61 59 62 60 70 61 63 62 65 63 71 64
REMARK SMILES IDX 64 65 66 66 67 67 68 68 69 69 5 70 6 71 7 72 8 73 9 74 20 75
REMARK SMILES IDX 21 76 34 77 22 79 24 80 23 81 25 82 26 83 33 84 27 85 32 86
REMARK SMILES IDX 28 87 31 88 29 89 30 90 10 91 11 92 19 93 12 94 13 95 18 96
REMARK SMILES IDX 14 98 16 99 15 100 17 101
REMARK H PARENT 91 22 59 33 20 78 12 97
REMARK Flexibility Score: inf
ROOT
ATOM      1  C   UNL A   1      37.322  21.200  25.653  1.00  0.00     0.275 C 
ENDROOT
BRANCH   1   2
ATOM      2  O   UNL A   1      38.708  20.842  25.666  1.00  0.00    -0.458 OA
BRANCH   2   3
ATOM      3  C   UNL A   1      39.691  21.253  26.499  1.00  0.00     0.338 C 
ATOM      4  O   UNL A   1      40.345  20.391  27.086  1.00  0.00    -0.246 OA
BRANCH   3   5
ATOM      5  C   UNL A   1      39.983  22.697  26.808  1.00  0.00     0.060 A 
ATOM      6  C   UNL A   1      39.346  23.837  26.297  1.00  0.00     0.016 A 
ATOM      7  C   UNL A   1      40.999  22.908  27.743  1.00  0.00     0.016 A 
ATOM      8  C   UNL A   1      39.644  25.128  26.754  1.00  0.00     0.010 A 
ATOM      9  C   UNL A   1      41.298  24.191  28.201  1.00  0.00     0.010 A 
ATOM     10  C   UNL A   1      40.623  25.317  27.719  1.00  0.00    -0.014 A 
BRANCH  10  11
ATOM     11  C   UNL A   1      41.111  26.674  28.067  1.00  0.00     0.031 A 
ATOM     12  C   UNL A   1      42.503  27.029  27.624  1.00  0.00     0.074 A 
ATOM     13  C   UNL A   1      40.381  27.551  28.784  1.00  0.00     0.049 A 
ATOM     14  N   UNL A   1      43.248  28.048  27.951  1.00  0.00    -0.248 NA
ATOM     15  C   UNL A   1      43.177  26.048  26.753  1.00  0.00     0.031 C 
ATOM     16  C   UNL A   1      39.035  27.319  29.309  1.00  0.00     0.029 A 
ATOM     17  N   UNL A   1      40.689  28.819  29.214  1.00  0.00    -0.354 N 
ATOM     18  C   UNL A   1      44.501  27.763  27.423  1.00  0.00     0.074 A 
ATOM     19  C   UNL A   1      44.430  26.452  26.827  1.00  0.00     0.031 C 
ATOM     20  C   UNL A   1      38.630  28.414  29.980  1.00  0.00     0.029 A 
ATOM     21  C   UNL A   1      39.699  29.411  29.965  1.00  0.00     0.049 A 
ATOM     22  H   UNL A   1      41.541  29.265  29.002  1.00  0.00     0.167 HD
ATOM     23  C   UNL A   1      45.604  28.542  27.388  1.00  0.00     0.034 A 
ATOM     24  C   UNL A   1      39.671  30.615  30.573  1.00  0.00     0.034 A 
ATOM     25  C   UNL A   1      45.621  29.888  27.873  1.00  0.00     0.049 A 
ATOM     26  C   UNL A   1      40.873  31.522  30.439  1.00  0.00     0.074 A 
ATOM     27  C   UNL A   1      46.634  30.821  27.792  1.00  0.00     0.029 A 
ATOM     28  N   UNL A   1      44.554  30.494  28.520  1.00  0.00    -0.354 N 
ATOM     29  N   UNL A   1      42.014  31.292  29.835  1.00  0.00    -0.248 NA
ATOM     30  C   UNL A   1      40.776  32.863  31.037  1.00  0.00     0.031 C 
ATOM     31  C   UNL A   1      46.187  31.991  28.412  1.00  0.00     0.029 A 
ATOM     32  C   UNL A   1      44.880  31.796  28.840  1.00  0.00     0.049 A 
ATOM     33  H   UNL A   1      43.694  30.061  28.721  1.00  0.00     0.167 HD
ATOM     34  C   UNL A   1      42.754  32.465  29.945  1.00  0.00     0.074 A 
ATOM     35  C   UNL A   1      41.928  33.410  30.668  1.00  0.00     0.031 C 
ATOM     36  C   UNL A   1      44.004  32.735  29.495  1.00  0.00     0.034 A 
BRANCH  23  37
ATOM     37  C   UNL A   1      46.842  27.943  26.775  1.00  0.00     0.023 A 
ATOM     38  C   UNL A   1      47.860  27.415  27.598  1.00  0.00     0.012 A 
ATOM     39  C   UNL A   1      47.028  27.970  25.380  1.00  0.00     0.148 A 
ATOM     40  C   UNL A   1      49.081  27.020  27.053  1.00  0.00     0.002 A 
ATOM     41  C   UNL A   1      48.221  27.510  24.840  1.00  0.00     0.091 A 
ATOM     42  F   UNL A   1      46.058  28.489  24.613  1.00  0.00    -0.205 F 
ATOM     43  C   UNL A   1      49.259  27.062  25.674  1.00  0.00     0.022 A 
BRANCH  41  44
ATOM     44  S   UNL A   1      48.509  27.432  23.070  1.00  0.00     0.127 S 
ATOM     45  O   UNL A   1      49.872  27.947  22.968  1.00  0.00    -0.237 OA
ATOM     46  O   UNL A   1      48.376  26.000  22.802  1.00  0.00    -0.237 OA
ATOM     47  O   UNL A   1      47.477  28.261  22.460  1.00  0.00    -0.744 OA
ENDBRANCH  41  44
ENDBRANCH  23  37
BRANCH  24  48
ATOM     48  C   UNL A   1      38.449  31.060  31.309  1.00  0.00     0.023 A 
ATOM     49  C   UNL A   1      38.389  30.920  32.710  1.00  0.00     0.012 A 
ATOM     50  C   UNL A   1      37.361  31.648  30.634  1.00  0.00     0.148 A 
ATOM     51  C   UNL A   1      37.259  31.329  33.422  1.00  0.00     0.002 A 
ATOM     52  C   UNL A   1      36.261  32.102  31.356  1.00  0.00     0.091 A 
ATOM     53  F   UNL A   1      37.433  31.772  29.303  1.00  0.00    -0.205 F 
ATOM     54  C   UNL A   1      36.199  31.928  32.747  1.00  0.00     0.022 A 
BRANCH  52  55
ATOM     55  S   UNL A   1      34.905  33.001  30.592  1.00  0.00     0.127 S 
ATOM     56  O   UNL A   1      33.998  33.194  31.723  1.00  0.00    -0.237 OA
ATOM     57  O   UNL A   1      35.580  34.216  30.130  1.00  0.00    -0.237 OA
ATOM     58  O   UNL A   1      34.408  32.145  29.529  1.00  0.00    -0.744 OA
ENDBRANCH  52  55
ENDBRANCH  24  48
BRANCH  36  59
ATOM     59  C   UNL A   1      44.555  34.121  29.689  1.00  0.00     0.023 A 
ATOM     60  C   UNL A   1      45.262  34.442  30.862  1.00  0.00     0.012 A 
ATOM     61  C   UNL A   1      44.525  35.037  28.618  1.00  0.00     0.148 A 
ATOM     62  C   UNL A   1      45.935  35.659  30.965  1.00  0.00     0.002 A 
ATOM     63  C   UNL A   1      45.243  36.220  28.706  1.00  0.00     0.091 A 
ATOM     64  F   UNL A   1      43.830  34.709  27.519  1.00  0.00    -0.205 F 
ATOM     65  C   UNL A   1      45.942  36.538  29.883  1.00  0.00     0.022 A 
BRANCH  63  66
ATOM     66  S   UNL A   1      45.412  37.350  27.319  1.00  0.00     0.127 S 
ATOM     67  O   UNL A   1      46.000  36.482  26.300  1.00  0.00    -0.237 OA
ATOM     68  O   UNL A   1      44.025  37.737  27.068  1.00  0.00    -0.237 OA
ATOM     69  O   UNL A   1      46.271  38.433  27.782  1.00  0.00    -0.744 OA
ENDBRANCH  63  66
ENDBRANCH  36  59
ENDBRANCH  10  11
ENDBRANCH   3   5
ENDBRANCH   2   3
ENDBRANCH   1   2
BRANCH   1  70
ATOM     70  C   UNL A   1      36.780  21.604  24.275  1.00  0.00     0.274 C 
BRANCH  70  71
ATOM     71  O   UNL A   1      35.996  22.813  24.262  1.00  0.00    -0.457 OA
BRANCH  71  72
ATOM     72  C   UNL A   1      34.737  22.692  23.715  1.00  0.00     0.370 C 
ATOM     73  O   UNL A   1      34.459  23.170  22.618  1.00  0.00    -0.245 OA
BRANCH  72  74
ATOM     74  C   UNL A   1      33.764  21.872  24.659  1.00  0.00     0.328 C 
BRANCH  74  75
ATOM     75  N   UNL A   1      32.790  22.810  25.255  1.00  0.00    -0.319 N 
ATOM     76  C   UNL A   1      31.406  22.359  25.385  1.00  0.00     0.263 C 
ATOM     77  C   UNL A   1      33.259  23.348  26.553  1.00  0.00     0.274 C 
ATOM     78  H   UNL A   1      32.754  23.543  24.547  1.00  0.00     0.349 HD
ATOM     79  C   UNL A   1      30.519  23.568  25.698  1.00  0.00     0.062 C 
ATOM     80  C   UNL A   1      32.495  24.647  26.905  1.00  0.00     0.104 C 
ATOM     81  C   UNL A   1      30.989  24.332  26.937  1.00  0.00     0.022 C 
BRANCH  80  82
ATOM     82  C   UNL A   1      32.890  25.748  25.931  1.00  0.00     0.103 A 
ATOM     83  N   UNL A   1      33.332  25.508  24.714  1.00  0.00    -0.241 NA
ATOM     84  S   UNL A   1      32.869  27.414  26.360  1.00  0.00    -0.118 S 
ATOM     85  C   UNL A   1      33.443  26.674  23.995  1.00  0.00     0.082 A 
ATOM     86  C   UNL A   1      33.259  27.841  24.733  1.00  0.00     0.055 A 
ATOM     87  C   UNL A   1      33.721  26.766  22.616  1.00  0.00     0.030 A 
ATOM     88  C   UNL A   1      33.383  29.108  24.141  1.00  0.00     0.021 A 
ATOM     89  C   UNL A   1      33.819  28.021  22.012  1.00  0.00     0.002 A 
ATOM     90  C   UNL A   1      33.662  29.177  22.770  1.00  0.00     0.002 A 
ENDBRANCH  80  82
ENDBRANCH  74  75
BRANCH  74  91
ATOM     91  C   UNL A   1      33.084  20.771  23.850  1.00  0.00     0.046 A 
ATOM     92  C   UNL A   1      32.123  20.925  22.864  1.00  0.00     0.094 A 
ATOM     93  C   UNL A   1      33.344  19.349  23.917  1.00  0.00     0.010 A 
ATOM     94  N   UNL A   1      31.941  19.732  22.230  1.00  0.00    -0.361 N 
ATOM     95  C   UNL A   1      32.702  18.759  22.825  1.00  0.00     0.046 A 
ATOM     96  C   UNL A   1      34.130  18.521  24.750  1.00  0.00     0.026 A 
ATOM     97  H   UNL A   1      31.349  19.589  21.456  1.00  0.00     0.166 HD
ATOM     98  C   UNL A   1      32.885  17.420  22.459  1.00  0.00     0.028 A 
ATOM     99  C   UNL A   1      34.308  17.173  24.401  1.00  0.00     0.018 A 
ATOM    100  C   UNL A   1      33.721  16.637  23.258  1.00  0.00     0.018 A 
ATOM    101  Br  UNL A   1      35.465  16.091  25.439  1.00  0.00    -0.051 Br
ENDBRANCH  74  91
ENDBRANCH  72  74
ENDBRANCH  71  72
ENDBRANCH  70  71
ENDBRANCH   1  70
TORSDOF 17
ENDMDL
MODEL 2
REMARK VINA RESULT:     -12.8      2.350      2.709
REMARK SMILES O=C(OCCOC(=O)[C@H](c1c[nH]c2ccc(Br)cc12)[N@H+]1CCC[C@H](c2nc3ccccc3s2)C1)c1ccc(-c2c3nc(c(-c4cccc(S(=O)(=O)[O-])c4F)c4ccc([nH]4)c(-c4cccc(S(=O)(=O)[O-])c4F)c4nc(c(-c5cccc(S(=O)(=O)[O-])c5F)c5ccc2[nH]5)C=C4)C=C3)cc1
REMARK SMILES IDX 4 1 3 2 2 3 1 4 35 5 36 6 97 7 37 8 96 9 38 10 39 11 40 12
REMARK SMILES IDX 90 13 41 14 95 15 89 16 91 17 42 18 94 19 88 20 87 21 43 23
REMARK SMILES IDX 75 24 55 25 74 26 56 27 59 28 73 29 92 30 57 31 58 32 72 34
REMARK SMILES IDX 93 35 60 36 44 37 45 38 53 39 46 40 48 41 54 42 47 43 49 44
REMARK SMILES IDX 50 45 51 46 52 47 76 48 77 49 85 50 78 51 80 52 86 53 79 54
REMARK SMILES IDX 81 55 82 56 83 57 84 58 61 59 62 60 70 61 63 62 65 63 71 64
REMARK SMILES IDX 64 65 66 66 67 67 68 68 69 69 5 70 6 71 7 72 8 73 9 74 20 75
REMARK SMILES IDX 21 76 34 77 22 79 24 80 23 81 25 82 26 83 33 84 27 85 32 86
REMARK SMILES IDX 28 87 31 88 29 89 30 90 10 91 11 92 19 93 12 94 13 95 18 96
REMARK SMILES IDX 14 98 16 99 15 100 17 101
REMARK H PARENT 91 22 59 33 20 78 12 97
REMARK Flexibility Score: inf
ROOT
ATOM      1  C   UNL A   1      37.246  23.186  24.975  1.00  0.00     0.275 C 
ENDROOT
BRANCH   1   2
ATOM      2  O   UNL A   1      38.055  22.368  25.827  1.00  0.00    -0.458 OA
BRANCH   2   3
ATOM      3  C   UNL A   1      39.237  22.655  26.418  1.00  0.00     0.338 C 
ATOM      4  O   UNL A   1      40.052  21.741  26.549  1.00  0.00    -0.246 OA
BRANCH   3   5
ATOM      5  C   UNL A   1      39.587  24.002  26.992  1.00  0.00     0.060 A 
ATOM      6  C   UNL A   1      39.611  24.388  28.340  1.00  0.00     0.016 A 
ATOM      7  C   UNL A   1      39.957  24.967  26.053  1.00  0.00     0.016 A 
ATOM      8  C   UNL A   1      40.064  25.650  28.749  1.00  0.00     0.010 A 
ATOM      9  C   UNL A   1      40.410  26.223  26.456  1.00  0.00     0.010 A 
ATOM     10  C   UNL A   1      40.475  26.581  27.807  1.00  0.00    -0.014 A 
BRANCH  10  11
ATOM     11  C   UNL A   1      40.754  27.989  28.184  1.00  0.00     0.031 A 
ATOM     12  C   UNL A   1      42.185  28.443  28.104  1.00  0.00     0.074 A 
ATOM     13  C   UNL A   1      39.798  28.829  28.626  1.00  0.00     0.049 A 
ATOM     14  N   UNL A   1      42.739  29.534  28.550  1.00  0.00    -0.248 NA
ATOM     15  C   UNL A   1      43.136  27.487  27.505  1.00  0.00     0.031 C 
ATOM     16  C   UNL A   1      38.380  28.505  28.791  1.00  0.00     0.029 A 
ATOM     17  N   UNL A   1      39.887  30.135  29.041  1.00  0.00    -0.354 N 
ATOM     18  C   UNL A   1      44.105  29.337  28.392  1.00  0.00     0.074 A 
ATOM     19  C   UNL A   1      44.291  28.000  27.882  1.00  0.00     0.031 C 
ATOM     20  C   UNL A   1      37.733  29.587  29.260  1.00  0.00     0.029 A 
ATOM     21  C   UNL A   1      38.692  30.671  29.465  1.00  0.00     0.049 A 
ATOM     22  H   UNL A   1      40.730  30.644  29.035  1.00  0.00     0.167 HD
ATOM     23  C   UNL A   1      45.119  30.205  28.599  1.00  0.00     0.034 A 
ATOM     24  C   UNL A   1      38.417  31.893  29.966  1.00  0.00     0.034 A 
ATOM     25  C   UNL A   1      44.908  31.566  28.986  1.00  0.00     0.049 A 
ATOM     26  C   UNL A   1      39.542  32.893  30.098  1.00  0.00     0.074 A 
ATOM     27  C   UNL A   1      45.837  32.579  29.116  1.00  0.00     0.029 A 
ATOM     28  N   UNL A   1      43.667  32.106  29.288  1.00  0.00    -0.354 N 
ATOM     29  N   UNL A   1      40.817  32.736  29.833  1.00  0.00    -0.248 NA
ATOM     30  C   UNL A   1      39.192  34.244  30.563  1.00  0.00     0.031 C 
ATOM     31  C   UNL A   1      45.157  33.731  29.521  1.00  0.00     0.029 A 
ATOM     32  C   UNL A   1      43.801  33.443  29.600  1.00  0.00     0.049 A 
ATOM     33  H   UNL A   1      42.817  31.609  29.282  1.00  0.00     0.167 HD
ATOM     34  C   UNL A   1      41.414  33.973  30.059  1.00  0.00     0.074 A 
ATOM     35  C   UNL A   1      40.359  34.872  30.477  1.00  0.00     0.031 C 
ATOM     36  C   UNL A   1      42.716  34.330  29.940  1.00  0.00     0.034 A 
BRANCH  23  37
ATOM     37  C   UNL A   1      46.515  29.689  28.374  1.00  0.00     0.023 A 
ATOM     38  C   UNL A   1      47.118  29.796  27.101  1.00  0.00     0.012 A 
ATOM     39  C   UNL A   1      47.204  29.030  29.409  1.00  0.00     0.148 A 
ATOM     40  C   UNL A   1      48.333  29.169  26.835  1.00  0.00     0.002 A 
ATOM     41  C   UNL A   1      48.447  28.467  29.153  1.00  0.00     0.091 A 
ATOM     42  F   UNL A   1      46.613  28.923  30.607  1.00  0.00    -0.205 F 
ATOM     43  C   UNL A   1      49.001  28.510  27.863  1.00  0.00     0.022 A 
BRANCH  41  44
ATOM     44  S   UNL A   1      49.430  27.682  30.434  1.00  0.00     0.127 S 
ATOM     45  O   UNL A   1      48.601  26.531  30.781  1.00  0.00    -0.237 OA
ATOM     46  O   UNL A   1      50.661  27.355  29.716  1.00  0.00    -0.237 OA
ATOM     47  O   UNL A   1      49.590  28.681  31.484  1.00  0.00    -0.744 OA
ENDBRANCH  41  44
ENDBRANCH  23  37
BRANCH  24  48
ATOM     48  C   UNL A   1      37.013  32.261  30.324  1.00  0.00     0.023 A 
ATOM     49  C   UNL A   1      36.535  32.009  31.626  1.00  0.00     0.012 A 
ATOM     50  C   UNL A   1      36.161  32.888  29.394  1.00  0.00     0.148 A 
ATOM     51  C   UNL A   1      35.229  32.346  31.986  1.00  0.00     0.002 A 
ATOM     52  C   UNL A   1      34.877  33.269  29.775  1.00  0.00     0.091 A 
ATOM     53  F   UNL A   1      36.629  33.119  28.160  1.00  0.00    -0.205 F 
ATOM     54  C   UNL A   1      34.403  32.983  31.065  1.00  0.00     0.022 A 
BRANCH  52  55
ATOM     55  S   UNL A   1      33.785  34.208  28.701  1.00  0.00     0.127 S 
ATOM     56  O   UNL A   1      32.708  34.578  29.618  1.00  0.00    -0.237 OA
ATOM     57  O   UNL A   1      34.653  35.314  28.293  1.00  0.00    -0.237 OA
ATOM     58  O   UNL A   1      33.412  33.305  27.625  1.00  0.00    -0.744 OA
ENDBRANCH  52  55
ENDBRANCH  24  48
BRANCH  36  59
ATOM     59  C   UNL A   1      43.094  35.765  30.184  1.00  0.00     0.023 A 
ATOM     60  C   UNL A   1      43.648  36.149  31.419  1.00  0.00     0.012 A 
ATOM     61  C   UNL A   1      43.069  36.682  29.114  1.00  0.00     0.148 A 
ATOM     62  C   UNL A   1      44.174  37.430  31.585  1.00  0.00     0.002 A 
ATOM     63  C   UNL A   1      43.643  37.935  29.269  1.00  0.00     0.091 A 
ATOM     64  F   UNL A   1      42.521  36.292  27.954  1.00  0.00    -0.205 F 
ATOM     65  C   UNL A   1      44.190  38.314  30.507  1.00  0.00     0.022 A 
BRANCH  63  66
ATOM     66  S   UNL A   1      43.822  39.089  27.904  1.00  0.00     0.127 S 
ATOM     67  O   UNL A   1      44.490  40.215  28.553  1.00  0.00    -0.237 OA
ATOM     68  O   UNL A   1      44.660  38.334  26.972  1.00  0.00    -0.237 OA
ATOM     69  O   UNL A   1      42.473  39.360  27.424  1.00  0.00    -0.744 OA
ENDBRANCH  63  66
ENDBRANCH  36  59
ENDBRANCH  10  11
ENDBRANCH   3   5
ENDBRANCH   2   3
ENDBRANCH   1   2
BRANCH   1  70
ATOM     70  C   UNL A   1      36.264  22.408  24.088  1.00  0.00     0.274 C 
BRANCH  70  71
ATOM     71  O   UNL A   1      35.652  23.181  23.037  1.00  0.00    -0.457 OA
BRANCH  71  72
ATOM     72  C   UNL A   1      34.279  23.275  23.098  1.00  0.00     0.370 C 
ATOM     73  O   UNL A   1      33.652  24.060  22.391  1.00  0.00    -0.245 OA
BRANCH  72  74
ATOM     74  C   UNL A   1      33.669  22.260  24.150  1.00  0.00     0.328 C 
BRANCH  74  75
ATOM     75  N   UNL A   1      32.767  23.006  25.052  1.00  0.00    -0.319 N 
ATOM     76  C   UNL A   1      31.784  22.239  25.814  1.00  0.00     0.263 C 
ATOM     77  C   UNL A   1      33.511  23.904  25.965  1.00  0.00     0.274 C 
ATOM     78  H   UNL A   1      32.211  23.542  24.385  1.00  0.00     0.349 HD
ATOM     79  C   UNL A   1      30.753  23.207  26.406  1.00  0.00     0.062 C 
ATOM     80  C   UNL A   1      32.572  24.996  26.531  1.00  0.00     0.104 C 
ATOM     81  C   UNL A   1      31.400  24.305  27.251  1.00  0.00     0.022 C 
BRANCH  80  82
ATOM     82  C   UNL A   1      32.156  25.938  25.409  1.00  0.00     0.103 A 
ATOM     83  N   UNL A   1      30.930  25.993  24.931  1.00  0.00    -0.241 NA
ATOM     84  S   UNL A   1      33.274  26.968  24.605  1.00  0.00    -0.118 S 
ATOM     85  C   UNL A   1      30.792  27.044  24.058  1.00  0.00     0.082 A 
ATOM     86  C   UNL A   1      31.979  27.691  23.721  1.00  0.00     0.055 A 
ATOM     87  C   UNL A   1      29.579  27.494  23.499  1.00  0.00     0.030 A 
ATOM     88  C   UNL A   1      31.998  28.757  22.808  1.00  0.00     0.021 A 
ATOM     89  C   UNL A   1      29.583  28.571  22.610  1.00  0.00     0.002 A 
ATOM     90  C   UNL A   1      30.781  29.186  22.262  1.00  0.00     0.002 A 
ENDBRANCH  80  82
ENDBRANCH  74  75
BRANCH  74  91
ATOM     91  C   UNL A   1      32.947  21.138  23.410  1.00  0.00     0.046 A 
ATOM     92  C   UNL A   1      32.011  21.268  22.396  1.00  0.00     0.094 A 
ATOM     93  C   UNL A   1      33.132  19.713  23.583  1.00  0.00     0.010 A 
ATOM     94  N   UNL A   1      31.778  20.042  21.846  1.00  0.00    -0.361 N 
ATOM     95  C   UNL A   1      32.478  19.078  22.525  1.00  0.00     0.046 A 
ATOM     96  C   UNL A   1      33.862  18.910  24.489  1.00  0.00     0.026 A 
ATOM     97  H   UNL A   1      31.192  19.873  21.073  1.00  0.00     0.166 HD
ATOM     98  C   UNL A   1      32.599  17.708  22.259  1.00  0.00     0.028 A 
ATOM     99  C   UNL A   1      33.976  17.534  24.242  1.00  0.00     0.018 A 
ATOM    100  C   UNL A   1      33.380  16.945  23.129  1.00  0.00     0.018 A 
ATOM    101  Br  UNL A   1      35.059  16.474  25.377  1.00  0.00    -0.051 Br
ENDBRANCH  74  91
ENDBRANCH  72  74
ENDBRANCH  71  72
ENDBRANCH  70  71
ENDBRANCH   1  70
TORSDOF 17
ENDMDL
MODEL 3
REMARK VINA RESULT:     -12.4      1.773      1.956
REMARK SMILES O=C(OCCOC(=O)[C@H](c1c[nH]c2ccc(Br)cc12)[N@H+]1CCC[C@H](c2nc3ccccc3s2)C1)c1ccc(-c2c3nc(c(-c4cccc(S(=O)(=O)[O-])c4F)c4ccc([nH]4)c(-c4cccc(S(=O)(=O)[O-])c4F)c4nc(c(-c5cccc(S(=O)(=O)[O-])c5F)c5ccc2[nH]5)C=C4)C=C3)cc1
REMARK SMILES IDX 4 1 3 2 2 3 1 4 35 5 36 6 97 7 37 8 96 9 38 10 39 11 40 12
REMARK SMILES IDX 90 13 41 14 95 15 89 16 91 17 42 18 94 19 88 20 87 21 43 23
REMARK SMILES IDX 75 24 55 25 74 26 56 27 59 28 73 29 92 30 57 31 58 32 72 34
REMARK SMILES IDX 93 35 60 36 44 37 45 38 53 39 46 40 48 41 54 42 47 43 49 44
REMARK SMILES IDX 50 45 51 46 52 47 76 48 77 49 85 50 78 51 80 52 86 53 79 54
REMARK SMILES IDX 81 55 82 56 83 57 84 58 61 59 62 60 70 61 63 62 65 63 71 64
REMARK SMILES IDX 64 65 66 66 67 67 68 68 69 69 5 70 6 71 7 72 8 73 9 74 20 75
REMARK SMILES IDX 21 76 34 77 22 79 24 80 23 81 25 82 26 83 33 84 27 85 32 86
REMARK SMILES IDX 28 87 31 88 29 89 30 90 10 91 11 92 19 93 12 94 13 95 18 96
REMARK SMILES IDX 14 98 16 99 15 100 17 101
REMARK H PARENT 91 22 59 33 20 78 12 97
REMARK Flexibility Score: inf
ROOT
ATOM      1  C   UNL A   1      37.043  22.040  25.657  1.00  0.00     0.275 C 
ENDROOT
BRANCH   1   2
ATOM      2  O   UNL A   1      38.328  21.408  25.677  1.00  0.00    -0.458 OA
BRANCH   2   3
ATOM      3  C   UNL A   1      39.419  21.710  26.417  1.00  0.00     0.338 C 
ATOM      4  O   UNL A   1      40.012  20.784  26.970  1.00  0.00    -0.246 OA
BRANCH   3   5
ATOM      5  C   UNL A   1      39.906  23.112  26.665  1.00  0.00     0.060 A 
ATOM      6  C   UNL A   1      39.434  24.305  26.099  1.00  0.00     0.016 A 
ATOM      7  C   UNL A   1      40.939  23.223  27.598  1.00  0.00     0.016 A 
ATOM      8  C   UNL A   1      39.905  25.562  26.502  1.00  0.00     0.010 A 
ATOM      9  C   UNL A   1      41.410  24.472  28.003  1.00  0.00     0.010 A 
ATOM     10  C   UNL A   1      40.898  25.658  27.466  1.00  0.00    -0.014 A 
BRANCH  10  11
ATOM     11  C   UNL A   1      41.567  26.949  27.759  1.00  0.00     0.031 A 
ATOM     12  C   UNL A   1      42.957  27.132  27.216  1.00  0.00     0.074 A 
ATOM     13  C   UNL A   1      40.999  27.912  28.511  1.00  0.00     0.049 A 
ATOM     14  N   UNL A   1      43.839  28.056  27.474  1.00  0.00    -0.248 NA
ATOM     15  C   UNL A   1      43.446  26.071  26.315  1.00  0.00     0.031 C 
ATOM     16  C   UNL A   1      39.675  27.847  29.132  1.00  0.00     0.029 A 
ATOM     17  N   UNL A   1      41.485  29.137  28.899  1.00  0.00    -0.354 N 
ATOM     18  C   UNL A   1      45.009  27.620  26.866  1.00  0.00     0.074 A 
ATOM     19  C   UNL A   1      44.741  26.323  26.296  1.00  0.00     0.031 C 
ATOM     20  C   UNL A   1      39.452  28.986  29.812  1.00  0.00     0.029 A 
ATOM     21  C   UNL A   1      40.628  29.848  29.708  1.00  0.00     0.049 A 
ATOM     22  H   UNL A   1      42.367  29.476  28.623  1.00  0.00     0.167 HD
ATOM     23  C   UNL A   1      46.191  28.261  26.742  1.00  0.00     0.034 A 
ATOM     24  C   UNL A   1      40.787  31.051  30.298  1.00  0.00     0.034 A 
ATOM     25  C   UNL A   1      46.402  29.599  27.205  1.00  0.00     0.049 A 
ATOM     26  C   UNL A   1      42.075  31.806  30.067  1.00  0.00     0.074 A 
ATOM     27  C   UNL A   1      47.511  30.403  27.040  1.00  0.00     0.029 A 
ATOM     28  N   UNL A   1      45.464  30.333  27.914  1.00  0.00    -0.354 N 
ATOM     29  N   UNL A   1      43.136  31.437  29.390  1.00  0.00    -0.248 NA
ATOM     30  C   UNL A   1      42.180  33.153  30.651  1.00  0.00     0.031 C 
ATOM     31  C   UNL A   1      47.251  31.622  27.671  1.00  0.00     0.029 A 
ATOM     32  C   UNL A   1      45.964  31.589  28.192  1.00  0.00     0.049 A 
ATOM     33  H   UNL A   1      44.574  30.007  28.181  1.00  0.00     0.167 HD
ATOM     34  C   UNL A   1      44.016  32.514  29.430  1.00  0.00     0.074 A 
ATOM     35  C   UNL A   1      43.361  33.556  30.194  1.00  0.00     0.031 C 
ATOM     36  C   UNL A   1      45.254  32.630  28.891  1.00  0.00     0.034 A 
BRANCH  23  37
ATOM     37  C   UNL A   1      47.303  27.514  26.054  1.00  0.00     0.023 A 
ATOM     38  C   UNL A   1      48.137  26.643  26.789  1.00  0.00     0.012 A 
ATOM     39  C   UNL A   1      47.566  27.732  24.689  1.00  0.00     0.148 A 
ATOM     40  C   UNL A   1      49.272  26.085  26.204  1.00  0.00     0.002 A 
ATOM     41  C   UNL A   1      48.660  27.117  24.096  1.00  0.00     0.091 A 
ATOM     42  F   UNL A   1      46.775  28.574  24.009  1.00  0.00    -0.205 F 
ATOM     43  C   UNL A   1      49.530  26.317  24.856  1.00  0.00     0.022 A 
BRANCH  41  44
ATOM     44  S   UNL A   1      49.022  27.274  22.346  1.00  0.00     0.127 S 
ATOM     45  O   UNL A   1      50.479  27.368  22.350  1.00  0.00    -0.237 OA
ATOM     46  O   UNL A   1      48.493  26.019  21.811  1.00  0.00    -0.237 OA
ATOM     47  O   UNL A   1      48.316  28.468  21.897  1.00  0.00    -0.744 OA
ENDBRANCH  41  44
ENDBRANCH  23  37
BRANCH  24  48
ATOM     48  C   UNL A   1      39.681  31.644  31.110  1.00  0.00     0.023 A 
ATOM     49  C   UNL A   1      38.664  32.383  30.472  1.00  0.00     0.012 A 
ATOM     50  C   UNL A   1      39.613  31.454  32.504  1.00  0.00     0.148 A 
ATOM     51  C   UNL A   1      37.619  32.945  31.207  1.00  0.00     0.002 A 
ATOM     52  C   UNL A   1      38.541  31.972  33.224  1.00  0.00     0.091 A 
ATOM     53  F   UNL A   1      40.588  30.751  33.096  1.00  0.00    -0.205 F 
ATOM     54  C   UNL A   1      37.552  32.733  32.581  1.00  0.00     0.022 A 
BRANCH  52  55
ATOM     55  S   UNL A   1      38.299  31.644  34.975  1.00  0.00     0.127 S 
ATOM     56  O   UNL A   1      39.475  32.283  35.564  1.00  0.00    -0.237 OA
ATOM     57  O   UNL A   1      37.032  32.332  35.231  1.00  0.00    -0.237 OA
ATOM     58  O   UNL A   1      38.238  30.198  35.105  1.00  0.00    -0.744 OA
ENDBRANCH  52  55
ENDBRANCH  24  48
BRANCH  36  59
ATOM     59  C   UNL A   1      45.978  33.941  29.026  1.00  0.00     0.023 A 
ATOM     60  C   UNL A   1      46.875  34.147  30.090  1.00  0.00     0.012 A 
ATOM     61  C   UNL A   1      45.901  34.887  27.984  1.00  0.00     0.148 A 
ATOM     62  C   UNL A   1      47.687  35.280  30.114  1.00  0.00     0.002 A 
ATOM     63  C   UNL A   1      46.751  35.983  27.986  1.00  0.00     0.091 A 
ATOM     64  F   UNL A   1      45.026  34.671  26.991  1.00  0.00    -0.205 F 
ATOM     65  C   UNL A   1      47.640  36.186  29.055  1.00  0.00     0.022 A 
BRANCH  63  66
ATOM     66  S   UNL A   1      46.849  37.130  26.607  1.00  0.00     0.127 S 
ATOM     67  O   UNL A   1      46.928  36.218  25.467  1.00  0.00    -0.237 OA
ATOM     68  O   UNL A   1      45.586  37.858  26.722  1.00  0.00    -0.237 OA
ATOM     69  O   UNL A   1      48.039  37.939  26.837  1.00  0.00    -0.744 OA
ENDBRANCH  63  66
ENDBRANCH  36  59
ENDBRANCH  10  11
ENDBRANCH   3   5
ENDBRANCH   2   3
ENDBRANCH   1   2
BRANCH   1  70
ATOM     70  C   UNL A   1      36.318  21.968  24.306  1.00  0.00     0.274 C 
BRANCH  70  71
ATOM     71  O   UNL A   1      35.870  23.237  23.789  1.00  0.00    -0.457 OA
BRANCH  71  72
ATOM     72  C   UNL A   1      34.535  23.296  23.450  1.00  0.00     0.370 C 
ATOM     73  O   UNL A   1      34.130  24.015  22.541  1.00  0.00    -0.245 OA
BRANCH  72  74
ATOM     74  C   UNL A   1      33.658  22.333  24.353  1.00  0.00     0.328 C 
BRANCH  74  75
ATOM     75  N   UNL A   1      32.754  23.161  25.177  1.00  0.00    -0.319 N 
ATOM     76  C   UNL A   1      31.703  22.475  25.928  1.00  0.00     0.263 C 
ATOM     77  C   UNL A   1      33.499  24.065  26.083  1.00  0.00     0.274 C 
ATOM     78  H   UNL A   1      32.254  23.689  24.462  1.00  0.00     0.349 HD
ATOM     79  C   UNL A   1      30.695  23.514  26.427  1.00  0.00     0.062 C 
ATOM     80  C   UNL A   1      32.588  25.224  26.555  1.00  0.00     0.104 C 
ATOM     81  C   UNL A   1      31.354  24.621  27.251  1.00  0.00     0.022 C 
BRANCH  80  82
ATOM     82  C   UNL A   1      32.267  26.130  25.375  1.00  0.00     0.103 A 
ATOM     83  N   UNL A   1      31.057  26.252  24.868  1.00  0.00    -0.241 NA
ATOM     84  S   UNL A   1      33.476  27.025  24.540  1.00  0.00    -0.118 S 
ATOM     85  C   UNL A   1      31.016  27.260  23.935  1.00  0.00     0.082 A 
ATOM     86  C   UNL A   1      32.256  27.793  23.590  1.00  0.00     0.055 A 
ATOM     87  C   UNL A   1      29.852  27.769  23.326  1.00  0.00     0.030 A 
ATOM     88  C   UNL A   1      32.374  28.802  22.619  1.00  0.00     0.021 A 
ATOM     89  C   UNL A   1      29.956  28.790  22.380  1.00  0.00     0.002 A 
ATOM     90  C   UNL A   1      31.204  29.291  22.024  1.00  0.00     0.002 A 
ENDBRANCH  80  82
ENDBRANCH  74  75
BRANCH  74  91
ATOM     91  C   UNL A   1      32.896  21.358  23.459  1.00  0.00     0.046 A 
ATOM     92  C   UNL A   1      32.088  21.668  22.377  1.00  0.00     0.094 A 
ATOM     93  C   UNL A   1      32.905  19.913  23.533  1.00  0.00     0.010 A 
ATOM     94  N   UNL A   1      31.778  20.520  21.710  1.00  0.00    -0.361 N 
ATOM     95  C   UNL A   1      32.296  19.435  22.370  1.00  0.00     0.046 A 
ATOM     96  C   UNL A   1      33.446  18.968  24.434  1.00  0.00     0.026 A 
ATOM     97  H   UNL A   1      31.258  20.476  20.875  1.00  0.00     0.166 HD
ATOM     98  C   UNL A   1      32.292  18.083  22.006  1.00  0.00     0.028 A 
ATOM     99  C   UNL A   1      33.433  17.609  24.087  1.00  0.00     0.018 A 
ATOM    100  C   UNL A   1      32.892  17.174  22.879  1.00  0.00     0.018 A 
ATOM    101  Br  UNL A   1      34.272  16.352  25.227  1.00  0.00    -0.051 Br
ENDBRANCH  74  91
ENDBRANCH  72  74
ENDBRANCH  71  72
ENDBRANCH  70  71
ENDBRANCH   1  70
TORSDOF 17
ENDMDL
