MODEL 1
REMARK VINA RESULT:     -12.4      0.000      0.000
REMARK SMILES Cc1ccc(F)c(-c2ncccc2C(=O)OCCOC(=O)c2ccc(-c3c4nc(c(-c5cccc(S(=O)(=O)[O-])c5F)c5ccc([nH]5)c(-c5cccc(S(=O)(=O)[O-])c5F)c5nc(c(-c6cccc(S(=O)(=O)[O-])c6F)c6ccc3[nH]6)C=C5)C=C4)cc2)c1
REMARK SMILES IDX 18 1 17 2 16 3 14 4 15 5 13 6 8 7 9 8 10 9 12 10 11 11 7 12
REMARK SMILES IDX 1 13 2 14 3 15 85 16 4 17 5 18 6 19 19 20 20 21 21 22 22 23
REMARK SMILES IDX 23 24 84 25 24 26 83 27 25 28 26 29 27 30 77 31 28 32 82 33
REMARK SMILES IDX 76 34 78 35 29 36 81 37 75 38 74 39 30 41 62 42 42 43 61 44
REMARK SMILES IDX 43 45 46 46 60 47 79 48 44 49 45 50 59 52 80 53 47 54 31 55
REMARK SMILES IDX 32 56 40 57 33 58 35 59 41 60 34 61 36 62 37 63 38 64 39 65
REMARK SMILES IDX 63 66 64 67 72 68 65 69 67 70 73 71 66 72 68 73 69 74 70 75
REMARK SMILES IDX 71 76 48 77 49 78 57 79 50 80 52 81 58 82 51 83 53 84 54 85
REMARK SMILES IDX 55 86 56 87
REMARK H PARENT 78 40 46 51
REMARK Flexibility Score: inf
ROOT
ATOM      1  C   UNL A   1      35.269  20.989  24.589  1.00  0.00     0.275 C 
ENDROOT
BRANCH   1   2
ATOM      2  C   UNL A   1      34.778  22.399  24.280  1.00  0.00     0.275 C 
BRANCH   2   3
ATOM      3  O   UNL A   1      33.444  22.345  23.720  1.00  0.00    -0.458 OA
BRANCH   3   4
ATOM      4  C   UNL A   1      32.779  23.529  23.672  1.00  0.00     0.340 C 
ATOM      5  O   UNL A   1      33.026  24.454  22.919  1.00  0.00    -0.246 OA
BRANCH   4   6
ATOM      6  C   UNL A   1      31.778  23.602  24.756  1.00  0.00     0.086 A 
ATOM      7  C   UNL A   1      31.513  24.755  25.526  1.00  0.00     0.088 A 
ATOM      8  N   UNL A   1      30.678  24.714  26.595  1.00  0.00    -0.255 NA
ATOM      9  C   UNL A   1      30.150  23.510  26.930  1.00  0.00     0.112 A 
ATOM     10  C   UNL A   1      31.182  22.387  25.107  1.00  0.00     0.019 A 
ATOM     11  C   UNL A   1      30.364  22.335  26.225  1.00  0.00     0.021 A 
BRANCH   7  12
ATOM     12  C   UNL A   1      32.191  26.045  25.303  1.00  0.00     0.037 A 
ATOM     13  C   UNL A   1      35.166  29.448  27.084  1.00  0.00     0.044 C 
ATOM     14  C   UNL A   1      34.084  28.498  26.454  1.00  0.00    -0.050 A 
ATOM     15  C   UNL A   1      32.887  29.665  25.750  1.00  0.00     0.006 A 
ATOM     16  C   UNL A   1      33.716  26.521  26.172  1.00  0.00     0.016 A 
ATOM     17  C   UNL A   1      31.507  29.051  24.869  1.00  0.00     0.040 A 
ATOM     18  C   UNL A   1      31.184  27.336  24.658  1.00  0.00     0.132 A 
ATOM     19  F   UNL A   1      30.065  26.996  23.996  1.00  0.00    -0.206 F 
ENDBRANCH   7  12
ENDBRANCH   4   6
ENDBRANCH   3   4
ENDBRANCH   2   3
ENDBRANCH   1   2
BRANCH   1  20
ATOM     20  O   UNL A   1      36.225  21.084  25.655  1.00  0.00    -0.458 OA
BRANCH  20  21
ATOM     21  C   UNL A   1      37.486  20.765  25.300  1.00  0.00     0.338 C 
ATOM     22  O   UNL A   1      37.861  19.832  24.612  1.00  0.00    -0.246 OA
BRANCH  21  23
ATOM     23  C   UNL A   1      38.387  21.810  25.767  1.00  0.00     0.060 A 
ATOM     24  C   UNL A   1      39.880  21.415  26.683  1.00  0.00     0.016 A 
ATOM     25  C   UNL A   1      37.801  23.459  25.803  1.00  0.00     0.016 A 
ATOM     26  C   UNL A   1      40.786  22.903  27.715  1.00  0.00     0.010 A 
ATOM     27  C   UNL A   1      38.644  24.778  26.657  1.00  0.00     0.010 A 
ATOM     28  C   UNL A   1      40.132  24.585  27.605  1.00  0.00    -0.014 A 
BRANCH  28  29
ATOM     29  C   UNL A   1      40.943  25.820  28.034  1.00  0.00     0.031 A 
ATOM     30  C   UNL A   1      40.327  26.945  28.865  1.00  0.00     0.074 A 
ATOM     31  C   UNL A   1      42.198  26.060  27.568  1.00  0.00     0.049 A 
ATOM     32  N   UNL A   1      40.741  28.184  29.027  1.00  0.00    -0.248 NA
ATOM     33  C   UNL A   1      39.051  26.677  29.541  1.00  0.00     0.031 C 
ATOM     34  C   UNL A   1      42.938  25.227  26.635  1.00  0.00     0.029 A 
ATOM     35  N   UNL A   1      43.087  27.101  27.785  1.00  0.00    -0.354 N 
ATOM     36  C   UNL A   1      39.724  28.859  29.705  1.00  0.00     0.074 A 
ATOM     37  C   UNL A   1      38.659  27.897  29.891  1.00  0.00     0.031 C 
ATOM     38  C   UNL A   1      44.174  25.685  26.443  1.00  0.00     0.029 A 
ATOM     39  C   UNL A   1      44.293  26.956  27.119  1.00  0.00     0.049 A 
ATOM     40  H   UNL A   1      42.880  27.872  28.360  1.00  0.00     0.167 HD
ATOM     41  C   UNL A   1      39.687  30.135  30.176  1.00  0.00     0.034 A 
ATOM     42  C   UNL A   1      45.376  27.746  26.983  1.00  0.00     0.034 A 
ATOM     43  C   UNL A   1      40.813  31.039  30.167  1.00  0.00     0.049 A 
ATOM     44  C   UNL A   1      45.370  29.090  27.631  1.00  0.00     0.074 A 
ATOM     45  C   UNL A   1      40.915  32.294  30.746  1.00  0.00     0.029 A 
ATOM     46  N   UNL A   1      42.048  30.769  29.597  1.00  0.00    -0.354 N 
ATOM     47  N   UNL A   1      44.407  29.666  28.303  1.00  0.00    -0.248 NA
ATOM     48  C   UNL A   1      46.597  29.888  27.520  1.00  0.00     0.031 C 
ATOM     49  C   UNL A   1      42.210  32.778  30.536  1.00  0.00     0.029 A 
ATOM     50  C   UNL A   1      42.922  31.820  29.838  1.00  0.00     0.049 A 
ATOM     51  H   UNL A   1      42.273  29.953  29.096  1.00  0.00     0.167 HD
ATOM     52  C   UNL A   1      44.920  30.882  28.722  1.00  0.00     0.074 A 
ATOM     53  C   UNL A   1      46.288  30.950  28.251  1.00  0.00     0.031 C 
ATOM     54  C   UNL A   1      44.299  31.861  29.419  1.00  0.00     0.034 A 
BRANCH  41  55
ATOM     55  C   UNL A   1      38.414  30.619  30.847  1.00  0.00     0.023 A 
ATOM     56  C   UNL A   1      38.205  30.359  32.217  1.00  0.00     0.012 A 
ATOM     57  C   UNL A   1      37.462  31.395  30.149  1.00  0.00     0.148 A 
ATOM     58  C   UNL A   1      37.048  30.796  32.864  1.00  0.00     0.002 A 
ATOM     59  C   UNL A   1      36.335  31.875  30.815  1.00  0.00     0.091 A 
ATOM     60  F   UNL A   1      37.674  31.656  28.852  1.00  0.00    -0.205 F 
ATOM     61  C   UNL A   1      36.118  31.558  32.166  1.00  0.00     0.022 A 
BRANCH  59  62
ATOM     62  S   UNL A   1      35.115  32.946  30.041  1.00  0.00     0.127 S 
ATOM     63  O   UNL A   1      34.542  32.061  29.028  1.00  0.00    -0.237 OA
ATOM     64  O   UNL A   1      34.220  33.250  31.159  1.00  0.00    -0.237 OA
ATOM     65  O   UNL A   1      35.850  34.090  29.522  1.00  0.00    -0.744 OA
ENDBRANCH  59  62
ENDBRANCH  41  55
BRANCH  42  66
ATOM     66  C   UNL A   1      46.578  27.261  26.234  1.00  0.00     0.023 A 
ATOM     67  C   UNL A   1      46.673  27.520  24.853  1.00  0.00     0.012 A 
ATOM     68  C   UNL A   1      47.646  26.601  26.878  1.00  0.00     0.148 A 
ATOM     69  C   UNL A   1      47.787  27.103  24.121  1.00  0.00     0.002 A 
ATOM     70  C   UNL A   1      48.783  26.251  26.157  1.00  0.00     0.091 A 
ATOM     71  F   UNL A   1      47.542  26.352  28.192  1.00  0.00    -0.205 F 
ATOM     72  C   UNL A   1      48.847  26.482  24.775  1.00  0.00     0.022 A 
BRANCH  70  73
ATOM     73  S   UNL A   1      50.257  25.602  26.955  1.00  0.00     0.127 S 
ATOM     74  O   UNL A   1      50.585  26.670  27.896  1.00  0.00    -0.237 OA
ATOM     75  O   UNL A   1      49.760  24.371  27.570  1.00  0.00    -0.237 OA
ATOM     76  O   UNL A   1      51.214  25.383  25.878  1.00  0.00    -0.744 OA
ENDBRANCH  70  73
ENDBRANCH  42  66
BRANCH  54  77
ATOM     77  C   UNL A   1      45.120  33.069  29.774  1.00  0.00     0.023 A 
ATOM     78  C   UNL A   1      45.856  33.092  30.974  1.00  0.00     0.012 A 
ATOM     79  C   UNL A   1      45.175  34.170  28.901  1.00  0.00     0.148 A 
ATOM     80  C   UNL A   1      46.612  34.212  31.317  1.00  0.00     0.002 A 
ATOM     81  C   UNL A   1      45.971  35.262  29.224  1.00  0.00     0.091 A 
ATOM     82  F   UNL A   1      44.441  34.137  27.780  1.00  0.00    -0.205 F 
ATOM     83  C   UNL A   1      46.678  35.291  30.437  1.00  0.00     0.022 A 
BRANCH  81  84
ATOM     84  S   UNL A   1      46.187  36.655  28.113  1.00  0.00     0.127 S 
ATOM     85  O   UNL A   1      46.683  35.999  26.904  1.00  0.00    -0.237 OA
ATOM     86  O   UNL A   1      44.824  37.178  28.007  1.00  0.00    -0.237 OA
ATOM     87  O   UNL A   1      47.129  37.551  28.768  1.00  0.00    -0.744 OA
ENDBRANCH  81  84
ENDBRANCH  54  77
ENDBRANCH  28  29
ENDBRANCH  21  23
ENDBRANCH  20  21
ENDBRANCH   1  20
TORSDOF 15
ENDMDL
MODEL 2
REMARK VINA RESULT:     -12.1      1.093      1.836
REMARK SMILES Cc1ccc(F)c(-c2ncccc2C(=O)OCCOC(=O)c2ccc(-c3c4nc(c(-c5cccc(S(=O)(=O)[O-])c5F)c5ccc([nH]5)c(-c5cccc(S(=O)(=O)[O-])c5F)c5nc(c(-c6cccc(S(=O)(=O)[O-])c6F)c6ccc3[nH]6)C=C5)C=C4)cc2)c1
REMARK SMILES IDX 18 1 17 2 16 3 14 4 15 5 13 6 8 7 9 8 10 9 12 10 11 11 7 12
REMARK SMILES IDX 1 13 2 14 3 15 85 16 4 17 5 18 6 19 19 20 20 21 21 22 22 23
REMARK SMILES IDX 23 24 84 25 24 26 83 27 25 28 26 29 27 30 77 31 28 32 82 33
REMARK SMILES IDX 76 34 78 35 29 36 81 37 75 38 74 39 30 41 62 42 42 43 61 44
REMARK SMILES IDX 43 45 46 46 60 47 79 48 44 49 45 50 59 52 80 53 47 54 31 55
REMARK SMILES IDX 32 56 40 57 33 58 35 59 41 60 34 61 36 62 37 63 38 64 39 65
REMARK SMILES IDX 63 66 64 67 72 68 65 69 67 70 73 71 66 72 68 73 69 74 70 75
REMARK SMILES IDX 71 76 48 77 49 78 57 79 50 80 52 81 58 82 51 83 53 84 54 85
REMARK SMILES IDX 55 86 56 87
REMARK H PARENT 78 40 46 51
REMARK Flexibility Score: inf
ROOT
ATOM      1  C   UNL A   1      35.115  21.389  24.894  1.00  0.00     0.275 C 
ENDROOT
BRANCH   1   2
ATOM      2  C   UNL A   1      33.917  21.876  25.702  1.00  0.00     0.275 C 
BRANCH   2   3
ATOM      3  O   UNL A   1      33.772  23.309  25.555  1.00  0.00    -0.458 OA
BRANCH   3   4
ATOM      4  C   UNL A   1      32.585  23.730  25.047  1.00  0.00     0.340 C 
ATOM      5  O   UNL A   1      31.487  23.510  25.527  1.00  0.00    -0.246 OA
BRANCH   4   6
ATOM      6  C   UNL A   1      32.789  24.395  23.744  1.00  0.00     0.086 A 
ATOM      7  C   UNL A   1      32.777  25.793  23.547  1.00  0.00     0.088 A 
ATOM      8  N   UNL A   1      32.835  26.332  22.302  1.00  0.00    -0.255 NA
ATOM      9  C   UNL A   1      32.851  25.475  21.251  1.00  0.00     0.112 A 
ATOM     10  C   UNL A   1      32.849  23.544  22.637  1.00  0.00     0.019 A 
ATOM     11  C   UNL A   1      32.865  24.093  21.364  1.00  0.00     0.021 A 
BRANCH   7  12
ATOM     12  C   UNL A   1      32.593  26.759  24.646  1.00  0.00     0.037 A 
ATOM     13  C   UNL A   1      31.086  31.182  25.976  1.00  0.00     0.044 C 
ATOM     14  C   UNL A   1      31.737  29.788  25.655  1.00  0.00    -0.050 A 
ATOM     15  C   UNL A   1      33.243  29.806  26.665  1.00  0.00     0.006 A 
ATOM     16  C   UNL A   1      31.369  28.102  24.584  1.00  0.00     0.016 A 
ATOM     17  C   UNL A   1      34.282  28.400  26.682  1.00  0.00     0.040 A 
ATOM     18  C   UNL A   1      33.968  26.958  25.725  1.00  0.00     0.132 A 
ATOM     19  F   UNL A   1      34.868  25.964  25.795  1.00  0.00    -0.206 F 
ENDBRANCH   7  12
ENDBRANCH   4   6
ENDBRANCH   3   4
ENDBRANCH   2   3
ENDBRANCH   1   2
BRANCH   1  20
ATOM     20  O   UNL A   1      36.158  21.053  25.819  1.00  0.00    -0.458 OA
BRANCH  20  21
ATOM     21  C   UNL A   1      37.366  20.862  25.251  1.00  0.00     0.338 C 
ATOM     22  O   UNL A   1      37.673  20.054  24.392  1.00  0.00    -0.246 OA
BRANCH  21  23
ATOM     23  C   UNL A   1      38.283  21.887  25.731  1.00  0.00     0.060 A 
ATOM     24  C   UNL A   1      39.760  21.459  26.657  1.00  0.00     0.016 A 
ATOM     25  C   UNL A   1      37.727  23.547  25.770  1.00  0.00     0.016 A 
ATOM     26  C   UNL A   1      40.686  22.924  27.704  1.00  0.00     0.010 A 
ATOM     27  C   UNL A   1      38.589  24.845  26.637  1.00  0.00     0.010 A 
ATOM     28  C   UNL A   1      40.064  24.620  27.596  1.00  0.00    -0.014 A 
BRANCH  28  29
ATOM     29  C   UNL A   1      40.895  25.837  28.038  1.00  0.00     0.031 A 
ATOM     30  C   UNL A   1      40.297  26.962  28.881  1.00  0.00     0.074 A 
ATOM     31  C   UNL A   1      42.154  26.062  27.574  1.00  0.00     0.049 A 
ATOM     32  N   UNL A   1      40.731  28.193  29.056  1.00  0.00    -0.248 NA
ATOM     33  C   UNL A   1      39.017  26.708  29.555  1.00  0.00     0.031 C 
ATOM     34  C   UNL A   1      42.880  25.227  26.633  1.00  0.00     0.029 A 
ATOM     35  N   UNL A   1      43.059  27.085  27.802  1.00  0.00    -0.354 N 
ATOM     36  C   UNL A   1      39.725  28.877  29.742  1.00  0.00     0.074 A 
ATOM     37  C   UNL A   1      38.644  27.930  29.917  1.00  0.00     0.031 C 
ATOM     38  C   UNL A   1      44.123  25.667  26.446  1.00  0.00     0.029 A 
ATOM     39  C   UNL A   1      44.263  26.928  27.135  1.00  0.00     0.049 A 
ATOM     40  H   UNL A   1      42.864  27.854  28.385  1.00  0.00     0.167 HD
ATOM     41  C   UNL A   1      39.708  30.148  30.226  1.00  0.00     0.034 A 
ATOM     42  C   UNL A   1      45.358  27.703  27.007  1.00  0.00     0.034 A 
ATOM     43  C   UNL A   1      40.849  31.034  30.226  1.00  0.00     0.049 A 
ATOM     44  C   UNL A   1      45.373  29.040  27.670  1.00  0.00     0.074 A 
ATOM     45  C   UNL A   1      40.971  32.282  30.819  1.00  0.00     0.029 A 
ATOM     46  N   UNL A   1      42.079  30.751  29.653  1.00  0.00    -0.354 N 
ATOM     47  N   UNL A   1      44.420  29.624  28.347  1.00  0.00    -0.248 NA
ATOM     48  C   UNL A   1      46.614  29.819  27.566  1.00  0.00     0.031 C 
ATOM     49  C   UNL A   1      42.274  32.747  30.613  1.00  0.00     0.029 A 
ATOM     50  C   UNL A   1      42.970  31.785  29.905  1.00  0.00     0.049 A 
ATOM     51  H   UNL A   1      42.291  29.936  29.144  1.00  0.00     0.167 HD
ATOM     52  C   UNL A   1      44.952  30.827  28.779  1.00  0.00     0.074 A 
ATOM     53  C   UNL A   1      46.321  30.878  28.309  1.00  0.00     0.031 C 
ATOM     54  C   UNL A   1      44.347  31.809  29.486  1.00  0.00     0.034 A 
BRANCH  41  55
ATOM     55  C   UNL A   1      38.443  30.646  30.902  1.00  0.00     0.023 A 
ATOM     56  C   UNL A   1      38.270  30.451  32.288  1.00  0.00     0.012 A 
ATOM     57  C   UNL A   1      37.462  31.371  30.190  1.00  0.00     0.148 A 
ATOM     58  C   UNL A   1      37.121  30.902  32.940  1.00  0.00     0.002 A 
ATOM     59  C   UNL A   1      36.344  31.866  30.858  1.00  0.00     0.091 A 
ATOM     60  F   UNL A   1      37.640  31.570  28.876  1.00  0.00    -0.205 F 
ATOM     61  C   UNL A   1      36.163  31.614  32.227  1.00  0.00     0.022 A 
BRANCH  59  62
ATOM     62  S   UNL A   1      35.088  32.879  30.061  1.00  0.00     0.127 S 
ATOM     63  O   UNL A   1      34.193  33.176  31.179  1.00  0.00    -0.237 OA
ATOM     64  O   UNL A   1      35.870  34.022  29.589  1.00  0.00    -0.237 OA
ATOM     65  O   UNL A   1      34.513  32.057  29.006  1.00  0.00    -0.744 OA
ENDBRANCH  59  62
ENDBRANCH  41  55
BRANCH  42  66
ATOM     66  C   UNL A   1      46.553  27.206  26.253  1.00  0.00     0.023 A 
ATOM     67  C   UNL A   1      46.621  27.422  24.863  1.00  0.00     0.012 A 
ATOM     68  C   UNL A   1      47.637  26.577  26.898  1.00  0.00     0.148 A 
ATOM     69  C   UNL A   1      47.727  26.994  24.126  1.00  0.00     0.002 A 
ATOM     70  C   UNL A   1      48.766  26.216  26.169  1.00  0.00     0.091 A 
ATOM     71  F   UNL A   1      47.559  26.368  28.221  1.00  0.00    -0.205 F 
ATOM     72  C   UNL A   1      48.804  26.404  24.780  1.00  0.00     0.022 A 
BRANCH  70  73
ATOM     73  S   UNL A   1      50.260  25.606  26.961  1.00  0.00     0.127 S 
ATOM     74  O   UNL A   1      49.810  24.330  27.510  1.00  0.00    -0.237 OA
ATOM     75  O   UNL A   1      51.187  25.499  25.833  1.00  0.00    -0.237 OA
ATOM     76  O   UNL A   1      50.625  26.628  27.934  1.00  0.00    -0.744 OA
ENDBRANCH  70  73
ENDBRANCH  42  66
BRANCH  54  77
ATOM     77  C   UNL A   1      45.187  32.999  29.854  1.00  0.00     0.023 A 
ATOM     78  C   UNL A   1      45.927  32.996  31.053  1.00  0.00     0.012 A 
ATOM     79  C   UNL A   1      45.258  34.110  28.995  1.00  0.00     0.148 A 
ATOM     80  C   UNL A   1      46.701  34.100  31.407  1.00  0.00     0.002 A 
ATOM     81  C   UNL A   1      46.070  35.185  29.329  1.00  0.00     0.091 A 
ATOM     82  F   UNL A   1      44.520  34.101  27.875  1.00  0.00    -0.205 F 
ATOM     83  C   UNL A   1      46.781  35.189  30.540  1.00  0.00     0.022 A 
BRANCH  81  84
ATOM     84  S   UNL A   1      46.305  36.588  28.234  1.00  0.00     0.127 S 
ATOM     85  O   UNL A   1      44.972  37.187  28.226  1.00  0.00    -0.237 OA
ATOM     86  O   UNL A   1      47.319  37.367  28.947  1.00  0.00    -0.237 OA
ATOM     87  O   UNL A   1      46.751  36.037  26.962  1.00  0.00    -0.744 OA
ENDBRANCH  81  84
ENDBRANCH  54  77
ENDBRANCH  28  29
ENDBRANCH  21  23
ENDBRANCH  20  21
ENDBRANCH   1  20
TORSDOF 15
ENDMDL
MODEL 3
REMARK VINA RESULT:     -12.1      1.034      2.596
REMARK SMILES Cc1ccc(F)c(-c2ncccc2C(=O)OCCOC(=O)c2ccc(-c3c4nc(c(-c5cccc(S(=O)(=O)[O-])c5F)c5ccc([nH]5)c(-c5cccc(S(=O)(=O)[O-])c5F)c5nc(c(-c6cccc(S(=O)(=O)[O-])c6F)c6ccc3[nH]6)C=C5)C=C4)cc2)c1
REMARK SMILES IDX 18 1 17 2 16 3 14 4 15 5 13 6 8 7 9 8 10 9 12 10 11 11 7 12
REMARK SMILES IDX 1 13 2 14 3 15 85 16 4 17 5 18 6 19 19 20 20 21 21 22 22 23
REMARK SMILES IDX 23 24 84 25 24 26 83 27 25 28 26 29 27 30 77 31 28 32 82 33
REMARK SMILES IDX 76 34 78 35 29 36 81 37 75 38 74 39 30 41 62 42 42 43 61 44
REMARK SMILES IDX 43 45 46 46 60 47 79 48 44 49 45 50 59 52 80 53 47 54 31 55
REMARK SMILES IDX 32 56 40 57 33 58 35 59 41 60 34 61 36 62 37 63 38 64 39 65
REMARK SMILES IDX 63 66 64 67 72 68 65 69 67 70 73 71 66 72 68 73 69 74 70 75
REMARK SMILES IDX 71 76 48 77 49 78 57 79 50 80 52 81 58 82 51 83 53 84 54 85
REMARK SMILES IDX 55 86 56 87
REMARK H PARENT 78 40 46 51
REMARK Flexibility Score: inf
ROOT
ATOM      1  C   UNL A   1      35.562  20.901  24.745  1.00  0.00     0.275 C 
ENDROOT
BRANCH   1   2
ATOM      2  C   UNL A   1      35.514  22.155  23.879  1.00  0.00     0.275 C 
BRANCH   2   3
ATOM      3  O   UNL A   1      35.224  23.311  24.701  1.00  0.00    -0.458 OA
BRANCH   3   4
ATOM      4  C   UNL A   1      34.520  24.301  24.093  1.00  0.00     0.340 C 
ATOM      5  O   UNL A   1      34.726  24.738  22.974  1.00  0.00    -0.246 OA
BRANCH   4   6
ATOM      6  C   UNL A   1      33.532  24.879  25.026  1.00  0.00     0.086 A 
ATOM      7  C   UNL A   1      32.328  24.248  25.411  1.00  0.00     0.088 A 
ATOM      8  N   UNL A   1      31.402  24.893  26.165  1.00  0.00    -0.255 NA
ATOM      9  C   UNL A   1      31.651  26.187  26.489  1.00  0.00     0.112 A 
ATOM     10  C   UNL A   1      33.772  26.200  25.416  1.00  0.00     0.019 A 
ATOM     11  C   UNL A   1      32.808  26.873  26.149  1.00  0.00     0.021 A 
BRANCH   7  12
ATOM     12  C   UNL A   1      31.939  22.905  24.943  1.00  0.00     0.037 A 
ATOM     13  C   UNL A   1      32.661  18.112  25.256  1.00  0.00     0.044 C 
ATOM     14  C   UNL A   1      32.431  19.637  24.956  1.00  0.00    -0.050 A 
ATOM     15  C   UNL A   1      32.291  19.674  23.149  1.00  0.00     0.006 A 
ATOM     16  C   UNL A   1      32.198  21.402  25.932  1.00  0.00     0.016 A 
ATOM     17  C   UNL A   1      31.958  21.190  22.345  1.00  0.00     0.040 A 
ATOM     18  C   UNL A   1      31.789  22.717  23.200  1.00  0.00     0.132 A 
ATOM     19  F   UNL A   1      31.577  23.819  22.460  1.00  0.00    -0.206 F 
ENDBRANCH   7  12
ENDBRANCH   4   6
ENDBRANCH   3   4
ENDBRANCH   2   3
ENDBRANCH   1   2
BRANCH   1  20
ATOM     20  O   UNL A   1      36.525  21.124  25.784  1.00  0.00    -0.458 OA
BRANCH  20  21
ATOM     21  C   UNL A   1      37.793  20.819  25.442  1.00  0.00     0.338 C 
ATOM     22  O   UNL A   1      38.185  19.888  24.762  1.00  0.00    -0.246 OA
BRANCH  21  23
ATOM     23  C   UNL A   1      38.677  21.877  25.912  1.00  0.00     0.060 A 
ATOM     24  C   UNL A   1      40.139  21.508  26.887  1.00  0.00     0.016 A 
ATOM     25  C   UNL A   1      38.089  23.526  25.885  1.00  0.00     0.016 A 
ATOM     26  C   UNL A   1      41.010  23.023  27.910  1.00  0.00     0.010 A 
ATOM     27  C   UNL A   1      38.903  24.867  26.732  1.00  0.00     0.010 A 
ATOM     28  C   UNL A   1      40.358  24.702  27.734  1.00  0.00    -0.014 A 
BRANCH  28  29
ATOM     29  C   UNL A   1      41.154  25.948  28.157  1.00  0.00     0.031 A 
ATOM     30  C   UNL A   1      40.517  27.081  28.961  1.00  0.00     0.074 A 
ATOM     31  C   UNL A   1      42.415  26.190  27.709  1.00  0.00     0.049 A 
ATOM     32  N   UNL A   1      40.920  28.325  29.111  1.00  0.00    -0.248 NA
ATOM     33  C   UNL A   1      39.231  26.815  29.620  1.00  0.00     0.031 C 
ATOM     34  C   UNL A   1      43.176  25.348  26.802  1.00  0.00     0.029 A 
ATOM     35  N   UNL A   1      43.293  27.239  27.924  1.00  0.00    -0.354 N 
ATOM     36  C   UNL A   1      39.887  29.004  29.762  1.00  0.00     0.074 A 
ATOM     37  C   UNL A   1      38.825  28.037  29.944  1.00  0.00     0.031 C 
ATOM     38  C   UNL A   1      44.412  25.811  26.623  1.00  0.00     0.029 A 
ATOM     39  C   UNL A   1      44.511  27.093  27.281  1.00  0.00     0.049 A 
ATOM     40  H   UNL A   1      43.072  28.018  28.484  1.00  0.00     0.167 HD
ATOM     41  C   UNL A   1      39.834  30.286  30.213  1.00  0.00     0.034 A 
ATOM     42  C   UNL A   1      45.591  27.888  27.151  1.00  0.00     0.034 A 
ATOM     43  C   UNL A   1      40.954  31.197  30.208  1.00  0.00     0.049 A 
ATOM     44  C   UNL A   1      45.565  29.242  27.779  1.00  0.00     0.074 A 
ATOM     45  C   UNL A   1      41.038  32.462  30.770  1.00  0.00     0.029 A 
ATOM     46  N   UNL A   1      42.200  30.928  29.663  1.00  0.00    -0.354 N 
ATOM     47  N   UNL A   1      44.587  29.821  28.426  1.00  0.00    -0.248 NA
ATOM     48  C   UNL A   1      46.789  30.047  27.676  1.00  0.00     0.031 C 
ATOM     49  C   UNL A   1      42.334  32.952  30.574  1.00  0.00     0.029 A 
ATOM     50  C   UNL A   1      43.064  31.988  29.902  1.00  0.00     0.049 A 
ATOM     51  H   UNL A   1      42.439  30.105  29.179  1.00  0.00     0.167 HD
ATOM     52  C   UNL A   1      45.085  31.047  28.835  1.00  0.00     0.074 A 
ATOM     53  C   UNL A   1      46.461  31.117  28.386  1.00  0.00     0.031 C 
ATOM     54  C   UNL A   1      44.447  32.032  29.506  1.00  0.00     0.034 A 
BRANCH  41  55
ATOM     55  C   UNL A   1      38.546  30.772  30.855  1.00  0.00     0.023 A 
ATOM     56  C   UNL A   1      38.365  30.632  32.246  1.00  0.00     0.012 A 
ATOM     57  C   UNL A   1      37.551  31.434  30.102  1.00  0.00     0.148 A 
ATOM     58  C   UNL A   1      37.196  31.074  32.867  1.00  0.00     0.002 A 
ATOM     59  C   UNL A   1      36.411  31.922  30.737  1.00  0.00     0.091 A 
ATOM     60  F   UNL A   1      37.737  31.581  28.783  1.00  0.00    -0.205 F 
ATOM     61  C   UNL A   1      36.223  31.723  32.115  1.00  0.00     0.022 A 
BRANCH  59  62
ATOM     62  S   UNL A   1      35.132  32.858  29.886  1.00  0.00     0.127 S 
ATOM     63  O   UNL A   1      34.593  31.857  28.966  1.00  0.00    -0.237 OA
ATOM     64  O   UNL A   1      34.235  33.220  30.983  1.00  0.00    -0.237 OA
ATOM     65  O   UNL A   1      35.806  33.983  29.254  1.00  0.00    -0.744 OA
ENDBRANCH  59  62
ENDBRANCH  41  55
BRANCH  42  66
ATOM     66  C   UNL A   1      46.809  27.400  26.430  1.00  0.00     0.023 A 
ATOM     67  C   UNL A   1      46.987  27.748  25.077  1.00  0.00     0.012 A 
ATOM     68  C   UNL A   1      47.812  26.649  27.077  1.00  0.00     0.148 A 
ATOM     69  C   UNL A   1      48.119  27.331  24.374  1.00  0.00     0.002 A 
ATOM     70  C   UNL A   1      48.969  26.296  26.390  1.00  0.00     0.091 A 
ATOM     71  F   UNL A   1      47.630  26.316  28.364  1.00  0.00    -0.205 F 
ATOM     72  C   UNL A   1      49.116  26.618  25.033  1.00  0.00     0.022 A 
BRANCH  70  73
ATOM     73  S   UNL A   1      50.370  25.526  27.212  1.00  0.00     0.127 S 
ATOM     74  O   UNL A   1      50.708  26.521  28.227  1.00  0.00    -0.237 OA
ATOM     75  O   UNL A   1      49.784  24.290  27.732  1.00  0.00    -0.237 OA
ATOM     76  O   UNL A   1      51.364  25.318  26.166  1.00  0.00    -0.744 OA
ENDBRANCH  70  73
ENDBRANCH  42  66
BRANCH  54  77
ATOM     77  C   UNL A   1      45.253  33.250  29.857  1.00  0.00     0.023 A 
ATOM     78  C   UNL A   1      45.982  33.290  31.061  1.00  0.00     0.012 A 
ATOM     79  C   UNL A   1      45.303  34.346  28.975  1.00  0.00     0.148 A 
ATOM     80  C   UNL A   1      46.725  34.421  31.399  1.00  0.00     0.002 A 
ATOM     81  C   UNL A   1      46.086  35.447  29.294  1.00  0.00     0.091 A 
ATOM     82  F   UNL A   1      44.576  34.296  27.850  1.00  0.00    -0.205 F 
ATOM     83  C   UNL A   1      46.786  35.494  30.511  1.00  0.00     0.022 A 
BRANCH  81  84
ATOM     84  S   UNL A   1      46.296  36.833  28.173  1.00  0.00     0.127 S 
ATOM     85  O   UNL A   1      47.391  37.567  28.806  1.00  0.00    -0.237 OA
ATOM     86  O   UNL A   1      46.653  36.164  26.921  1.00  0.00    -0.237 OA
ATOM     87  O   UNL A   1      45.015  37.526  28.144  1.00  0.00    -0.744 OA
ENDBRANCH  81  84
ENDBRANCH  54  77
ENDBRANCH  28  29
ENDBRANCH  21  23
ENDBRANCH  20  21
ENDBRANCH   1  20
TORSDOF 15
ENDMDL
