MODEL 1
REMARK VINA RESULT:     -13.6      0.000      0.000
REMARK SMILES Cc1cccc(-n2ncc(C(=O)Nc3cccc(C(=O)OCCOC(=O)c4ccc(-c5c6nc(c(-c7cccc(S(=O)(=O)[O-])c7F)c7ccc([nH]7)c(-c7cccc(S(=O)(=O)[O-])c7F)c7nc(c(-c8cccc(S(=O)(=O)[O-])c8F)c8ccc5[nH]8)C=C7)C=C6)cc4)c3C)c2C)c1
REMARK SMILES IDX 22 1 21 2 19 3 20 4 18 5 14 6 15 7 90 8 16 9 91 10 17 11
REMARK SMILES IDX 13 12 11 13 12 14 10 16 7 17 8 18 92 19 9 20 93 21 6 22 1 23
REMARK SMILES IDX 2 24 3 25 94 26 4 27 5 28 23 29 24 30 25 31 26 32 27 33
REMARK SMILES IDX 28 34 89 35 29 36 88 37 30 38 31 39 32 40 82 41 33 42 87 43
REMARK SMILES IDX 81 44 83 45 34 46 86 47 80 48 79 49 35 51 67 52 47 53 66 54
REMARK SMILES IDX 48 55 51 56 65 57 84 58 49 59 50 60 64 62 85 63 52 64 36 65
REMARK SMILES IDX 37 66 45 67 38 68 40 69 46 70 39 71 41 72 42 73 43 74 44 75
REMARK SMILES IDX 68 76 69 77 77 78 70 79 72 80 78 81 71 82 73 83 74 84 75 85
REMARK SMILES IDX 76 86 53 87 54 88 62 89 55 90 57 91 63 92 56 93 58 94 59 95
REMARK SMILES IDX 60 96 61 97
REMARK H PARENT 13 15 83 50 51 61
REMARK Flexibility Score: inf
ROOT
ATOM      1  C   UNL A   1      34.037  28.407  25.254  1.00  0.00     0.275 C 
ENDROOT
BRANCH   1   2
ATOM      2  O   UNL A   1      33.045  29.213  24.621  1.00  0.00    -0.458 OA
BRANCH   2   3
ATOM      3  C   UNL A   1      31.870  29.414  25.269  1.00  0.00     0.338 C 
ATOM      4  O   UNL A   1      31.541  30.385  25.903  1.00  0.00    -0.246 OA
BRANCH   3   5
ATOM      5  C   UNL A   1      31.008  28.245  24.945  1.00  0.00     0.065 A 
ATOM      6  C   UNL A   1      30.058  26.041  25.345  1.00  0.00     0.045 A 
ATOM      7  C   UNL A   1      29.300  26.201  24.176  1.00  0.00     0.026 A 
ATOM      8  C   UNL A   1      30.853  27.127  25.799  1.00  0.00    -0.013 A 
ATOM      9  C   UNL A   1      29.452  27.314  23.353  1.00  0.00     0.003 A 
ATOM     10  C   UNL A   1      31.458  27.148  27.181  1.00  0.00     0.047 C 
ATOM     11  C   UNL A   1      30.335  28.317  23.717  1.00  0.00     0.016 A 
BRANCH   6  12
ATOM     12  N   UNL A   1      30.004  24.837  26.083  1.00  0.00    -0.322 N 
ATOM     13  C   UNL A   1      30.694  23.640  25.982  1.00  0.00     0.259 C 
ATOM     14  O   UNL A   1      30.118  22.622  26.377  1.00  0.00    -0.269 OA
ATOM     15  H   UNL A   1      29.344  24.851  26.813  1.00  0.00     0.170 HD
BRANCH  13  16
ATOM     16  C   UNL A   1      32.048  23.570  25.430  1.00  0.00     0.081 A 
ATOM     17  N   UNL A   1      34.235  23.183  25.178  1.00  0.00    -0.237 N 
ATOM     18  N   UNL A   1      33.850  23.790  24.033  1.00  0.00    -0.175 NA
ATOM     19  C   UNL A   1      33.199  23.150  26.102  1.00  0.00     0.054 A 
ATOM     20  C   UNL A   1      32.558  24.065  24.212  1.00  0.00     0.149 A 
ATOM     21  C   UNL A   1      33.379  22.905  27.560  1.00  0.00     0.068 C 
BRANCH  17  22
ATOM     22  C   UNL A   1      35.565  22.683  25.288  1.00  0.00     0.065 A 
ATOM     23  C   UNL A   1      37.344  19.342  24.838  1.00  0.00     0.044 C 
ATOM     24  C   UNL A   1      37.092  20.792  25.135  1.00  0.00    -0.049 A 
ATOM     25  C   UNL A   1      38.162  21.647  25.429  1.00  0.00     0.003 A 
ATOM     26  C   UNL A   1      35.791  21.311  25.101  1.00  0.00     0.031 A 
ATOM     27  C   UNL A   1      37.936  23.004  25.668  1.00  0.00     0.002 A 
ATOM     28  C   UNL A   1      36.641  23.526  25.591  1.00  0.00     0.028 A 
ENDBRANCH  17  22
ENDBRANCH  13  16
ENDBRANCH   6  12
ENDBRANCH   3   5
ENDBRANCH   2   3
ENDBRANCH   1   2
BRANCH   1  29
ATOM     29  C   UNL A   1      34.475  28.757  26.687  1.00  0.00     0.275 C 
BRANCH  29  30
ATOM     30  O   UNL A   1      35.371  29.867  26.932  1.00  0.00    -0.458 OA
BRANCH  30  31
ATOM     31  C   UNL A   1      36.067  30.148  28.061  1.00  0.00     0.338 C 
ATOM     32  O   UNL A   1      35.608  30.824  28.971  1.00  0.00    -0.246 OA
BRANCH  31  33
ATOM     33  C   UNL A   1      37.397  29.549  28.173  1.00  0.00     0.060 A 
ATOM     34  C   UNL A   1      38.273  29.601  27.078  1.00  0.00     0.016 A 
ATOM     35  C   UNL A   1      37.783  29.001  29.392  1.00  0.00     0.016 A 
ATOM     36  C   UNL A   1      39.578  29.158  27.215  1.00  0.00     0.010 A 
ATOM     37  C   UNL A   1      39.097  28.650  29.565  1.00  0.00     0.010 A 
ATOM     38  C   UNL A   1      39.962  28.656  28.455  1.00  0.00    -0.014 A 
BRANCH  38  39
ATOM     39  C   UNL A   1      41.041  27.692  28.572  1.00  0.00     0.031 A 
ATOM     40  C   UNL A   1      40.865  26.252  28.400  1.00  0.00     0.074 A 
ATOM     41  C   UNL A   1      42.234  28.283  28.809  1.00  0.00     0.049 A 
ATOM     42  N   UNL A   1      41.698  25.395  28.874  1.00  0.00    -0.248 NA
ATOM     43  C   UNL A   1      39.721  25.650  27.727  1.00  0.00     0.031 C 
ATOM     44  C   UNL A   1      43.583  27.787  28.649  1.00  0.00     0.029 A 
ATOM     45  N   UNL A   1      42.397  29.543  29.407  1.00  0.00    -0.354 N 
ATOM     46  C   UNL A   1      41.371  24.169  28.343  1.00  0.00     0.074 A 
ATOM     47  C   UNL A   1      40.076  24.359  27.730  1.00  0.00     0.031 C 
ATOM     48  C   UNL A   1      44.416  28.606  29.321  1.00  0.00     0.029 A 
ATOM     49  C   UNL A   1      43.596  29.522  30.110  1.00  0.00     0.049 A 
ATOM     50  H   UNL A   1      41.774  30.304  29.340  1.00  0.00     0.167 HD
ATOM     51  C   UNL A   1      42.333  23.201  28.326  1.00  0.00     0.034 A 
ATOM     52  C   UNL A   1      43.629  29.705  31.465  1.00  0.00     0.034 A 
ATOM     53  C   UNL A   1      43.550  23.678  29.014  1.00  0.00     0.049 A 
ATOM     54  C   UNL A   1      44.170  28.463  32.162  1.00  0.00     0.074 A 
ATOM     55  C   UNL A   1      44.723  24.260  28.556  1.00  0.00     0.029 A 
ATOM     56  N   UNL A   1      43.516  23.925  30.382  1.00  0.00    -0.354 N 
ATOM     57  N   UNL A   1      44.411  27.324  31.570  1.00  0.00    -0.248 NA
ATOM     58  C   UNL A   1      44.304  28.384  33.613  1.00  0.00     0.031 C 
ATOM     59  C   UNL A   1      45.378  24.882  29.659  1.00  0.00     0.029 A 
ATOM     60  C   UNL A   1      44.625  24.655  30.797  1.00  0.00     0.049 A 
ATOM     61  H   UNL A   1      42.797  23.623  30.982  1.00  0.00     0.167 HD
ATOM     62  C   UNL A   1      44.575  26.348  32.514  1.00  0.00     0.074 A 
ATOM     63  C   UNL A   1      44.447  27.062  33.776  1.00  0.00     0.031 C 
ATOM     64  C   UNL A   1      44.750  25.024  32.206  1.00  0.00     0.034 A 
BRANCH  51  65
ATOM     65  C   UNL A   1      42.322  22.014  27.371  1.00  0.00     0.023 A 
ATOM     66  C   UNL A   1      41.284  21.069  27.542  1.00  0.00     0.012 A 
ATOM     67  C   UNL A   1      43.286  21.700  26.384  1.00  0.00     0.148 A 
ATOM     68  C   UNL A   1      41.266  19.836  26.882  1.00  0.00     0.002 A 
ATOM     69  C   UNL A   1      43.305  20.441  25.766  1.00  0.00     0.091 A 
ATOM     70  F   UNL A   1      44.150  22.637  25.981  1.00  0.00    -0.205 F 
ATOM     71  C   UNL A   1      42.300  19.504  26.023  1.00  0.00     0.022 A 
BRANCH  69  72
ATOM     72  S   UNL A   1      44.649  19.895  24.693  1.00  0.00     0.127 S 
ATOM     73  O   UNL A   1      44.484  20.767  23.526  1.00  0.00    -0.237 OA
ATOM     74  O   UNL A   1      45.833  20.183  25.499  1.00  0.00    -0.237 OA
ATOM     75  O   UNL A   1      44.400  18.485  24.418  1.00  0.00    -0.744 OA
ENDBRANCH  69  72
ENDBRANCH  51  65
BRANCH  52  76
ATOM     76  C   UNL A   1      42.488  30.525  32.029  1.00  0.00     0.023 A 
ATOM     77  C   UNL A   1      42.309  31.861  31.586  1.00  0.00     0.012 A 
ATOM     78  C   UNL A   1      41.412  29.914  32.694  1.00  0.00     0.148 A 
ATOM     79  C   UNL A   1      41.064  32.500  31.689  1.00  0.00     0.002 A 
ATOM     80  C   UNL A   1      40.172  30.543  32.770  1.00  0.00     0.091 A 
ATOM     81  F   UNL A   1      41.550  28.684  33.198  1.00  0.00    -0.205 F 
ATOM     82  C   UNL A   1      39.985  31.828  32.259  1.00  0.00     0.022 A 
BRANCH  80  83
ATOM     83  S   UNL A   1      38.773  29.564  33.327  1.00  0.00     0.127 S 
ATOM     84  O   UNL A   1      37.632  30.181  32.649  1.00  0.00    -0.237 OA
ATOM     85  O   UNL A   1      39.087  28.230  32.831  1.00  0.00    -0.237 OA
ATOM     86  O   UNL A   1      38.811  29.767  34.770  1.00  0.00    -0.744 OA
ENDBRANCH  80  83
ENDBRANCH  52  76
BRANCH  64  87
ATOM     87  C   UNL A   1      45.060  23.961  33.250  1.00  0.00     0.023 A 
ATOM     88  C   UNL A   1      44.049  23.120  33.759  1.00  0.00     0.012 A 
ATOM     89  C   UNL A   1      46.338  23.828  33.848  1.00  0.00     0.148 A 
ATOM     90  C   UNL A   1      44.312  22.093  34.667  1.00  0.00     0.002 A 
ATOM     91  C   UNL A   1      46.586  22.853  34.810  1.00  0.00     0.091 A 
ATOM     92  F   UNL A   1      47.322  24.670  33.521  1.00  0.00    -0.205 F 
ATOM     93  C   UNL A   1      45.588  21.953  35.187  1.00  0.00     0.022 A 
BRANCH  91  94
ATOM     94  S   UNL A   1      48.149  22.733  35.687  1.00  0.00     0.127 S 
ATOM     95  O   UNL A   1      47.888  21.616  36.596  1.00  0.00    -0.237 OA
ATOM     96  O   UNL A   1      49.081  22.431  34.601  1.00  0.00    -0.237 OA
ATOM     97  O   UNL A   1      48.361  24.017  36.339  1.00  0.00    -0.744 OA
ENDBRANCH  91  94
ENDBRANCH  64  87
ENDBRANCH  38  39
ENDBRANCH  31  33
ENDBRANCH  30  31
ENDBRANCH  29  30
ENDBRANCH   1  29
TORSDOF 17
ENDMDL
MODEL 2
REMARK VINA RESULT:     -13.5      1.515      2.016
REMARK SMILES Cc1cccc(-n2ncc(C(=O)Nc3cccc(C(=O)OCCOC(=O)c4ccc(-c5c6nc(c(-c7cccc(S(=O)(=O)[O-])c7F)c7ccc([nH]7)c(-c7cccc(S(=O)(=O)[O-])c7F)c7nc(c(-c8cccc(S(=O)(=O)[O-])c8F)c8ccc5[nH]8)C=C7)C=C6)cc4)c3C)c2C)c1
REMARK SMILES IDX 22 1 21 2 19 3 20 4 18 5 14 6 15 7 90 8 16 9 91 10 17 11
REMARK SMILES IDX 13 12 11 13 12 14 10 16 7 17 8 18 92 19 9 20 93 21 6 22 1 23
REMARK SMILES IDX 2 24 3 25 94 26 4 27 5 28 23 29 24 30 25 31 26 32 27 33
REMARK SMILES IDX 28 34 89 35 29 36 88 37 30 38 31 39 32 40 82 41 33 42 87 43
REMARK SMILES IDX 81 44 83 45 34 46 86 47 80 48 79 49 35 51 67 52 47 53 66 54
REMARK SMILES IDX 48 55 51 56 65 57 84 58 49 59 50 60 64 62 85 63 52 64 36 65
REMARK SMILES IDX 37 66 45 67 38 68 40 69 46 70 39 71 41 72 42 73 43 74 44 75
REMARK SMILES IDX 68 76 69 77 77 78 70 79 72 80 78 81 71 82 73 83 74 84 75 85
REMARK SMILES IDX 76 86 53 87 54 88 62 89 55 90 57 91 63 92 56 93 58 94 59 95
REMARK SMILES IDX 60 96 61 97
REMARK H PARENT 13 15 83 50 51 61
REMARK Flexibility Score: inf
ROOT
ATOM      1  C   UNL A   1      33.241  30.904  27.360  1.00  0.00     0.275 C 
ENDROOT
BRANCH   1   2
ATOM      2  O   UNL A   1      33.221  30.179  26.132  1.00  0.00    -0.458 OA
BRANCH   2   3
ATOM      3  C   UNL A   1      33.778  28.942  26.106  1.00  0.00     0.338 C 
ATOM      4  O   UNL A   1      34.462  28.430  26.955  1.00  0.00    -0.246 OA
BRANCH   3   5
ATOM      5  C   UNL A   1      33.280  28.285  24.866  1.00  0.00     0.065 A 
ATOM      6  C   UNL A   1      31.843  26.782  23.605  1.00  0.00     0.045 A 
ATOM      7  C   UNL A   1      32.480  27.221  22.435  1.00  0.00     0.026 A 
ATOM      8  C   UNL A   1      32.175  27.401  24.839  1.00  0.00    -0.013 A 
ATOM      9  C   UNL A   1      33.556  28.103  22.476  1.00  0.00     0.003 A 
ATOM     10  C   UNL A   1      31.341  27.202  26.080  1.00  0.00     0.047 C 
ATOM     11  C   UNL A   1      33.982  28.605  23.695  1.00  0.00     0.016 A 
BRANCH   6  12
ATOM     12  N   UNL A   1      30.858  25.770  23.555  1.00  0.00    -0.322 N 
ATOM     13  C   UNL A   1      30.921  24.390  23.649  1.00  0.00     0.259 C 
ATOM     14  O   UNL A   1      30.042  23.743  23.071  1.00  0.00    -0.269 OA
ATOM     15  H   UNL A   1      29.944  26.114  23.428  1.00  0.00     0.170 HD
BRANCH  13  16
ATOM     16  C   UNL A   1      31.982  23.712  24.396  1.00  0.00     0.081 A 
ATOM     17  N   UNL A   1      33.940  22.804  24.978  1.00  0.00    -0.237 N 
ATOM     18  N   UNL A   1      33.125  22.593  26.036  1.00  0.00    -0.175 NA
ATOM     19  C   UNL A   1      33.246  23.363  23.913  1.00  0.00     0.054 A 
ATOM     20  C   UNL A   1      31.947  23.089  25.661  1.00  0.00     0.149 A 
ATOM     21  C   UNL A   1      33.731  23.373  22.505  1.00  0.00     0.068 C 
BRANCH  17  22
ATOM     22  C   UNL A   1      35.317  22.451  25.078  1.00  0.00     0.065 A 
ATOM     23  C   UNL A   1      37.411  19.271  24.890  1.00  0.00     0.044 C 
ATOM     24  C   UNL A   1      37.023  20.713  25.049  1.00  0.00    -0.049 A 
ATOM     25  C   UNL A   1      38.010  21.695  25.205  1.00  0.00     0.003 A 
ATOM     26  C   UNL A   1      35.675  21.096  25.022  1.00  0.00     0.031 A 
ATOM     27  C   UNL A   1      37.655  23.041  25.314  1.00  0.00     0.002 A 
ATOM     28  C   UNL A   1      36.312  23.423  25.243  1.00  0.00     0.028 A 
ENDBRANCH  17  22
ENDBRANCH  13  16
ENDBRANCH   6  12
ENDBRANCH   3   5
ENDBRANCH   2   3
ENDBRANCH   1   2
BRANCH   1  29
ATOM     29  C   UNL A   1      34.439  31.822  27.661  1.00  0.00     0.275 C 
BRANCH  29  30
ATOM     30  O   UNL A   1      35.788  31.300  27.637  1.00  0.00    -0.458 OA
BRANCH  30  31
ATOM     31  C   UNL A   1      36.704  31.299  28.637  1.00  0.00     0.338 C 
ATOM     32  O   UNL A   1      36.733  32.156  29.509  1.00  0.00    -0.246 OA
BRANCH  31  33
ATOM     33  C   UNL A   1      37.640  30.175  28.663  1.00  0.00     0.060 A 
ATOM     34  C   UNL A   1      37.627  29.292  29.755  1.00  0.00     0.016 A 
ATOM     35  C   UNL A   1      38.472  29.971  27.568  1.00  0.00     0.016 A 
ATOM     36  C   UNL A   1      38.412  28.152  29.730  1.00  0.00     0.010 A 
ATOM     37  C   UNL A   1      39.179  28.798  27.492  1.00  0.00     0.010 A 
ATOM     38  C   UNL A   1      39.205  27.938  28.606  1.00  0.00    -0.014 A 
BRANCH  38  39
ATOM     39  C   UNL A   1      40.422  27.151  28.685  1.00  0.00     0.031 A 
ATOM     40  C   UNL A   1      40.471  25.708  28.460  1.00  0.00     0.074 A 
ATOM     41  C   UNL A   1      41.510  27.912  28.939  1.00  0.00     0.049 A 
ATOM     42  N   UNL A   1      41.432  24.976  28.901  1.00  0.00    -0.248 NA
ATOM     43  C   UNL A   1      39.430  24.959  27.769  1.00  0.00     0.031 C 
ATOM     44  C   UNL A   1      42.918  27.639  28.758  1.00  0.00     0.029 A 
ATOM     45  N   UNL A   1      41.478  29.160  29.583  1.00  0.00    -0.354 N 
ATOM     46  C   UNL A   1      41.296  23.733  28.326  1.00  0.00     0.074 A 
ATOM     47  C   UNL A   1      39.982  23.739  27.724  1.00  0.00     0.031 C 
ATOM     48  C   UNL A   1      43.618  28.554  29.458  1.00  0.00     0.029 A 
ATOM     49  C   UNL A   1      42.672  29.302  30.282  1.00  0.00     0.049 A 
ATOM     50  H   UNL A   1      40.744  29.816  29.546  1.00  0.00     0.167 HD
ATOM     51  C   UNL A   1      42.397  22.929  28.272  1.00  0.00     0.034 A 
ATOM     52  C   UNL A   1      42.687  29.439  31.642  1.00  0.00     0.034 A 
ATOM     53  C   UNL A   1      43.531  23.565  28.974  1.00  0.00     0.049 A 
ATOM     54  C   UNL A   1      43.421  28.273  32.292  1.00  0.00     0.074 A 
ATOM     55  C   UNL A   1      44.595  24.339  28.534  1.00  0.00     0.029 A 
ATOM     56  N   UNL A   1      43.470  23.755  30.350  1.00  0.00    -0.354 N 
ATOM     57  N   UNL A   1      43.832  27.208  31.659  1.00  0.00    -0.248 NA
ATOM     58  C   UNL A   1      43.577  28.164  33.739  1.00  0.00     0.031 C 
ATOM     59  C   UNL A   1      45.153  25.016  29.657  1.00  0.00     0.029 A 
ATOM     60  C   UNL A   1      44.454  24.634  30.789  1.00  0.00     0.049 A 
ATOM     61  H   UNL A   1      42.811  23.323  30.940  1.00  0.00     0.167 HD
ATOM     62  C   UNL A   1      44.155  26.236  32.566  1.00  0.00     0.074 A 
ATOM     63  C   UNL A   1      43.927  26.876  33.854  1.00  0.00     0.031 C 
ATOM     64  C   UNL A   1      44.532  24.968  32.210  1.00  0.00     0.034 A 
BRANCH  51  65
ATOM     65  C   UNL A   1      42.564  21.789  27.275  1.00  0.00     0.023 A 
ATOM     66  C   UNL A   1      41.786  20.630  27.496  1.00  0.00     0.012 A 
ATOM     67  C   UNL A   1      43.477  21.723  26.196  1.00  0.00     0.148 A 
ATOM     68  C   UNL A   1      41.984  19.438  26.791  1.00  0.00     0.002 A 
ATOM     69  C   UNL A   1      43.721  20.513  25.528  1.00  0.00     0.091 A 
ATOM     70  F   UNL A   1      44.067  22.839  25.758  1.00  0.00    -0.205 F 
ATOM     71  C   UNL A   1      42.980  19.367  25.833  1.00  0.00     0.022 A 
BRANCH  69  72
ATOM     72  S   UNL A   1      45.046  20.308  24.321  1.00  0.00     0.127 S 
ATOM     73  O   UNL A   1      44.707  21.321  23.317  1.00  0.00    -0.237 OA
ATOM     74  O   UNL A   1      46.239  20.614  25.108  1.00  0.00    -0.237 OA
ATOM     75  O   UNL A   1      44.945  18.937  23.836  1.00  0.00    -0.744 OA
ENDBRANCH  69  72
ENDBRANCH  51  65
BRANCH  52  76
ATOM     76  C   UNL A   1      41.436  30.050  32.239  1.00  0.00     0.023 A 
ATOM     77  C   UNL A   1      40.451  29.200  32.805  1.00  0.00     0.012 A 
ATOM     78  C   UNL A   1      41.378  31.416  32.564  1.00  0.00     0.148 A 
ATOM     79  C   UNL A   1      39.538  29.681  33.756  1.00  0.00     0.002 A 
ATOM     80  C   UNL A   1      40.487  31.881  33.527  1.00  0.00     0.091 A 
ATOM     81  F   UNL A   1      42.234  32.274  32.001  1.00  0.00    -0.205 F 
ATOM     82  C   UNL A   1      39.573  31.020  34.138  1.00  0.00     0.022 A 
BRANCH  80  83
ATOM     83  S   UNL A   1      40.707  33.560  34.127  1.00  0.00     0.127 S 
ATOM     84  O   UNL A   1      40.188  34.383  33.035  1.00  0.00    -0.237 OA
ATOM     85  O   UNL A   1      39.875  33.594  35.322  1.00  0.00    -0.237 OA
ATOM     86  O   UNL A   1      42.152  33.631  34.315  1.00  0.00    -0.744 OA
ENDBRANCH  80  83
ENDBRANCH  52  76
BRANCH  64  87
ATOM     87  C   UNL A   1      45.012  23.930  33.214  1.00  0.00     0.023 A 
ATOM     88  C   UNL A   1      44.128  22.976  33.758  1.00  0.00     0.012 A 
ATOM     89  C   UNL A   1      46.329  23.929  33.740  1.00  0.00     0.148 A 
ATOM     90  C   UNL A   1      44.551  21.971  34.629  1.00  0.00     0.002 A 
ATOM     91  C   UNL A   1      46.733  22.973  34.666  1.00  0.00     0.091 A 
ATOM     92  F   UNL A   1      47.196  24.878  33.377  1.00  0.00    -0.205 F 
ATOM     93  C   UNL A   1      45.861  21.963  35.077  1.00  0.00     0.022 A 
BRANCH  91  94
ATOM     94  S   UNL A   1      48.347  23.012  35.456  1.00  0.00     0.127 S 
ATOM     95  O   UNL A   1      48.247  21.877  36.375  1.00  0.00    -0.237 OA
ATOM     96  O   UNL A   1      49.243  22.799  34.320  1.00  0.00    -0.237 OA
ATOM     97  O   UNL A   1      48.465  24.312  36.098  1.00  0.00    -0.744 OA
ENDBRANCH  91  94
ENDBRANCH  64  87
ENDBRANCH  38  39
ENDBRANCH  31  33
ENDBRANCH  30  31
ENDBRANCH  29  30
ENDBRANCH   1  29
TORSDOF 17
ENDMDL
MODEL 3
REMARK VINA RESULT:     -13.2      2.177      2.920
REMARK SMILES Cc1cccc(-n2ncc(C(=O)Nc3cccc(C(=O)OCCOC(=O)c4ccc(-c5c6nc(c(-c7cccc(S(=O)(=O)[O-])c7F)c7ccc([nH]7)c(-c7cccc(S(=O)(=O)[O-])c7F)c7nc(c(-c8cccc(S(=O)(=O)[O-])c8F)c8ccc5[nH]8)C=C7)C=C6)cc4)c3C)c2C)c1
REMARK SMILES IDX 22 1 21 2 19 3 20 4 18 5 14 6 15 7 90 8 16 9 91 10 17 11
REMARK SMILES IDX 13 12 11 13 12 14 10 16 7 17 8 18 92 19 9 20 93 21 6 22 1 23
REMARK SMILES IDX 2 24 3 25 94 26 4 27 5 28 23 29 24 30 25 31 26 32 27 33
REMARK SMILES IDX 28 34 89 35 29 36 88 37 30 38 31 39 32 40 82 41 33 42 87 43
REMARK SMILES IDX 81 44 83 45 34 46 86 47 80 48 79 49 35 51 67 52 47 53 66 54
REMARK SMILES IDX 48 55 51 56 65 57 84 58 49 59 50 60 64 62 85 63 52 64 36 65
REMARK SMILES IDX 37 66 45 67 38 68 40 69 46 70 39 71 41 72 42 73 43 74 44 75
REMARK SMILES IDX 68 76 69 77 77 78 70 79 72 80 78 81 71 82 73 83 74 84 75 85
REMARK SMILES IDX 76 86 53 87 54 88 62 89 55 90 57 91 63 92 56 93 58 94 59 95
REMARK SMILES IDX 60 96 61 97
REMARK H PARENT 13 15 83 50 51 61
REMARK Flexibility Score: inf
ROOT
ATOM      1  C   UNL A   1      32.817  30.893  27.348  1.00  0.00     0.275 C 
ENDROOT
BRANCH   1   2
ATOM      2  O   UNL A   1      32.949  30.269  26.073  1.00  0.00    -0.458 OA
BRANCH   2   3
ATOM      3  C   UNL A   1      33.730  29.163  25.975  1.00  0.00     0.338 C 
ATOM      4  O   UNL A   1      34.564  28.785  26.759  1.00  0.00    -0.246 OA
BRANCH   3   5
ATOM      5  C   UNL A   1      33.273  28.434  24.761  1.00  0.00     0.065 A 
ATOM      6  C   UNL A   1      31.890  26.842  23.548  1.00  0.00     0.045 A 
ATOM      7  C   UNL A   1      32.548  27.229  22.372  1.00  0.00     0.026 A 
ATOM      8  C   UNL A   1      32.183  27.531  24.755  1.00  0.00    -0.013 A 
ATOM      9  C   UNL A   1      33.609  28.130  22.391  1.00  0.00     0.003 A 
ATOM     10  C   UNL A   1      31.323  27.383  25.986  1.00  0.00     0.047 C 
ATOM     11  C   UNL A   1      33.997  28.703  23.591  1.00  0.00     0.016 A 
BRANCH   6  12
ATOM     12  N   UNL A   1      30.923  25.811  23.530  1.00  0.00    -0.322 N 
ATOM     13  C   UNL A   1      31.006  24.439  23.697  1.00  0.00     0.259 C 
ATOM     14  O   UNL A   1      30.151  23.749  23.134  1.00  0.00    -0.269 OA
ATOM     15  H   UNL A   1      30.007  26.133  23.364  1.00  0.00     0.170 HD
BRANCH  13  16
ATOM     16  C   UNL A   1      32.060  23.819  24.502  1.00  0.00     0.081 A 
ATOM     17  N   UNL A   1      34.018  22.980  25.177  1.00  0.00    -0.237 N 
ATOM     18  N   UNL A   1      33.180  22.804  26.223  1.00  0.00    -0.175 NA
ATOM     19  C   UNL A   1      33.342  23.473  24.069  1.00  0.00     0.054 A 
ATOM     20  C   UNL A   1      32.003  23.258  25.796  1.00  0.00     0.149 A 
ATOM     21  C   UNL A   1      33.863  23.425  22.675  1.00  0.00     0.068 C 
BRANCH  17  22
ATOM     22  C   UNL A   1      35.399  22.660  25.329  1.00  0.00     0.065 A 
ATOM     23  C   UNL A   1      37.642  19.624  24.795  1.00  0.00     0.044 C 
ATOM     24  C   UNL A   1      37.179  21.006  25.155  1.00  0.00    -0.049 A 
ATOM     25  C   UNL A   1      38.106  21.981  25.546  1.00  0.00     0.003 A 
ATOM     26  C   UNL A   1      35.821  21.345  25.082  1.00  0.00     0.031 A 
ATOM     27  C   UNL A   1      37.684  23.278  25.844  1.00  0.00     0.002 A 
ATOM     28  C   UNL A   1      36.334  23.623  25.728  1.00  0.00     0.028 A 
ENDBRANCH  17  22
ENDBRANCH  13  16
ENDBRANCH   6  12
ENDBRANCH   3   5
ENDBRANCH   2   3
ENDBRANCH   1   2
BRANCH   1  29
ATOM     29  C   UNL A   1      33.560  32.214  27.609  1.00  0.00     0.275 C 
BRANCH  29  30
ATOM     30  O   UNL A   1      34.907  32.207  28.139  1.00  0.00    -0.458 OA
BRANCH  30  31
ATOM     31  C   UNL A   1      35.345  31.679  29.308  1.00  0.00     0.338 C 
ATOM     32  O   UNL A   1      34.790  31.888  30.378  1.00  0.00    -0.246 OA
BRANCH  31  33
ATOM     33  C   UNL A   1      36.499  30.783  29.229  1.00  0.00     0.060 A 
ATOM     34  C   UNL A   1      36.776  29.918  30.298  1.00  0.00     0.016 A 
ATOM     35  C   UNL A   1      37.252  30.766  28.060  1.00  0.00     0.016 A 
ATOM     36  C   UNL A   1      37.782  28.974  30.181  1.00  0.00     0.010 A 
ATOM     37  C   UNL A   1      38.184  29.772  27.897  1.00  0.00     0.010 A 
ATOM     38  C   UNL A   1      38.496  28.937  28.986  1.00  0.00    -0.014 A 
BRANCH  38  39
ATOM     39  C   UNL A   1      39.856  28.431  28.940  1.00  0.00     0.031 A 
ATOM     40  C   UNL A   1      40.194  27.038  28.662  1.00  0.00     0.074 A 
ATOM     41  C   UNL A   1      40.773  29.406  29.133  1.00  0.00     0.049 A 
ATOM     42  N   UNL A   1      41.324  26.524  29.000  1.00  0.00    -0.248 NA
ATOM     43  C   UNL A   1      39.283  26.092  28.031  1.00  0.00     0.031 C 
ATOM     44  C   UNL A   1      42.186  29.448  28.831  1.00  0.00     0.029 A 
ATOM     45  N   UNL A   1      40.529  30.607  29.821  1.00  0.00    -0.354 N 
ATOM     46  C   UNL A   1      41.410  25.290  28.395  1.00  0.00     0.074 A 
ATOM     47  C   UNL A   1      40.078  25.022  27.900  1.00  0.00     0.031 C 
ATOM     48  C   UNL A   1      42.731  30.481  29.504  1.00  0.00     0.029 A 
ATOM     49  C   UNL A   1      41.720  30.992  30.426  1.00  0.00     0.049 A 
ATOM     50  H   UNL A   1      39.671  31.088  29.864  1.00  0.00     0.167 HD
ATOM     51  C   UNL A   1      42.648  24.745  28.225  1.00  0.00     0.034 A 
ATOM     52  C   UNL A   1      41.822  31.107  31.785  1.00  0.00     0.034 A 
ATOM     53  C   UNL A   1      43.675  25.600  28.856  1.00  0.00     0.049 A 
ATOM     54  C   UNL A   1      42.841  30.117  32.334  1.00  0.00     0.074 A 
ATOM     55  C   UNL A   1      44.507  26.594  28.360  1.00  0.00     0.029 A 
ATOM     56  N   UNL A   1      43.692  25.750  30.238  1.00  0.00    -0.354 N 
ATOM     57  N   UNL A   1      43.416  29.177  31.633  1.00  0.00    -0.248 NA
ATOM     58  C   UNL A   1      43.140  30.021  33.759  1.00  0.00     0.031 C 
ATOM     59  C   UNL A   1      45.000  27.357  29.458  1.00  0.00     0.029 A 
ATOM     60  C   UNL A   1      44.499  26.814  30.627  1.00  0.00     0.049 A 
ATOM     61  H   UNL A   1      43.195  25.175  30.863  1.00  0.00     0.167 HD
ATOM     62  C   UNL A   1      44.015  28.283  32.478  1.00  0.00     0.074 A 
ATOM     63  C   UNL A   1      43.766  28.837  33.801  1.00  0.00     0.031 C 
ATOM     64  C   UNL A   1      44.624  27.133  32.049  1.00  0.00     0.034 A 
BRANCH  51  65
ATOM     65  C   UNL A   1      42.970  23.686  27.179  1.00  0.00     0.023 A 
ATOM     66  C   UNL A   1      43.512  24.142  25.955  1.00  0.00     0.012 A 
ATOM     67  C   UNL A   1      42.707  22.298  27.257  1.00  0.00     0.148 A 
ATOM     68  C   UNL A   1      43.662  23.314  24.837  1.00  0.00     0.002 A 
ATOM     69  C   UNL A   1      42.798  21.478  26.122  1.00  0.00     0.091 A 
ATOM     70  F   UNL A   1      42.434  21.741  28.442  1.00  0.00    -0.205 F 
ATOM     71  C   UNL A   1      43.266  21.990  24.908  1.00  0.00     0.022 A 
BRANCH  69  72
ATOM     72  S   UNL A   1      42.236  19.764  26.101  1.00  0.00     0.127 S 
ATOM     73  O   UNL A   1      42.778  19.248  27.361  1.00  0.00    -0.237 OA
ATOM     74  O   UNL A   1      40.782  19.910  26.084  1.00  0.00    -0.237 OA
ATOM     75  O   UNL A   1      42.824  19.159  24.912  1.00  0.00    -0.744 OA
ENDBRANCH  69  72
ENDBRANCH  51  65
BRANCH  52  76
ATOM     76  C   UNL A   1      40.524  31.423  32.500  1.00  0.00     0.023 A 
ATOM     77  C   UNL A   1      39.633  30.365  32.819  1.00  0.00     0.012 A 
ATOM     78  C   UNL A   1      40.338  32.648  33.161  1.00  0.00     0.148 A 
ATOM     79  C   UNL A   1      38.688  30.498  33.848  1.00  0.00     0.002 A 
ATOM     80  C   UNL A   1      39.417  32.765  34.199  1.00  0.00     0.091 A 
ATOM     81  F   UNL A   1      41.100  33.700  32.846  1.00  0.00    -0.205 F 
ATOM     82  C   UNL A   1      38.598  31.693  34.558  1.00  0.00     0.022 A 
BRANCH  80  83
ATOM     83  S   UNL A   1      39.480  34.249  35.208  1.00  0.00     0.127 S 
ATOM     84  O   UNL A   1      38.622  33.924  36.348  1.00  0.00    -0.237 OA
ATOM     85  O   UNL A   1      40.891  34.348  35.557  1.00  0.00    -0.237 OA
ATOM     86  O   UNL A   1      38.942  35.259  34.303  1.00  0.00    -0.744 OA
ENDBRANCH  80  83
ENDBRANCH  52  76
BRANCH  64  87
ATOM     87  C   UNL A   1      45.399  26.207  32.974  1.00  0.00     0.023 A 
ATOM     88  C   UNL A   1      46.798  26.066  32.864  1.00  0.00     0.012 A 
ATOM     89  C   UNL A   1      44.762  25.360  33.915  1.00  0.00     0.148 A 
ATOM     90  C   UNL A   1      47.545  25.277  33.740  1.00  0.00     0.002 A 
ATOM     91  C   UNL A   1      45.499  24.515  34.739  1.00  0.00     0.091 A 
ATOM     92  F   UNL A   1      43.429  25.332  33.997  1.00  0.00    -0.205 F 
ATOM     93  C   UNL A   1      46.894  24.507  34.688  1.00  0.00     0.022 A 
BRANCH  91  94
ATOM     94  S   UNL A   1      44.728  23.332  35.850  1.00  0.00     0.127 S 
ATOM     95  O   UNL A   1      44.379  24.186  36.987  1.00  0.00    -0.237 OA
ATOM     96  O   UNL A   1      43.587  22.874  35.058  1.00  0.00    -0.237 OA
ATOM     97  O   UNL A   1      45.729  22.314  36.133  1.00  0.00    -0.744 OA
ENDBRANCH  91  94
ENDBRANCH  64  87
ENDBRANCH  38  39
ENDBRANCH  31  33
ENDBRANCH  30  31
ENDBRANCH  29  30
ENDBRANCH   1  29
TORSDOF 17
ENDMDL
