MODEL 1
REMARK VINA RESULT:     -10.9      0.000      0.000
REMARK SMILES CC[C@@H](NS(=O)(=O)c1ccc(CC#N)cc1)C(=O)OCCOC(=O)c1ccc(-c2c3nc(c(-c4cccc(S(=O)(=O)[O-])c4F)c4ccc([nH]4)c(-c4cccc(S(=O)(=O)[O-])c4F)c4nc(c(-c5cccc(S(=O)(=O)[O-])c5F)c5ccc2[nH]5)C=C4)C=C3)cc1
REMARK SMILES IDX 20 1 19 2 17 3 18 4 3 5 2 6 1 7 4 8 5 10 6 11 7 12 8 13 9 14
REMARK SMILES IDX 16 15 10 16 15 17 11 18 12 19 13 20 14 21 21 22 22 23 23 24
REMARK SMILES IDX 24 25 25 26 26 27 87 28 27 29 86 30 28 31 29 32 30 33 80 34
REMARK SMILES IDX 31 35 85 36 79 37 81 38 32 39 84 40 78 41 77 42 33 44 65 45
REMARK SMILES IDX 45 46 64 47 46 48 49 49 63 50 82 51 47 52 48 53 62 55 83 56
REMARK SMILES IDX 50 57 34 58 35 59 43 60 36 61 38 62 44 63 37 64 39 65 40 66
REMARK SMILES IDX 41 67 42 68 66 69 67 70 75 71 68 72 70 73 76 74 69 75 71 76
REMARK SMILES IDX 72 77 73 78 74 79 51 80 52 81 60 82 53 83 55 84 61 85 54 86
REMARK SMILES IDX 56 87 57 88 58 89 59 90
REMARK H PARENT 4 9 81 43 49 54
REMARK Flexibility Score: inf
ROOT
ATOM      1  C   UNL A   1      31.820  29.064  25.083  1.00  0.00     0.274 C 
ENDROOT
BRANCH   1   2
ATOM      2  O   UNL A   1      31.662  28.973  23.655  1.00  0.00    -0.461 OA
BRANCH   2   3
ATOM      3  C   UNL A   1      30.799  28.041  23.145  1.00  0.00     0.324 C 
ATOM      4  O   UNL A   1      29.706  28.312  22.665  1.00  0.00    -0.250 OA
BRANCH   3   5
ATOM      5  C   UNL A   1      31.261  26.601  23.398  1.00  0.00     0.179 C 
BRANCH   5   6
ATOM      6  C   UNL A   1      30.181  25.841  24.201  1.00  0.00     0.028 C 
ATOM      7  C   UNL A   1      30.751  24.788  25.138  1.00  0.00     0.006 C 
ENDBRANCH   5   6
BRANCH   5   8
ATOM      8  N   UNL A   1      31.551  25.863  22.119  1.00  0.00    -0.197 NA
ATOM      9  H   UNL A   1      31.302  26.493  21.356  1.00  0.00     0.142 HD
BRANCH   8  10
ATOM     10  S   UNL A   1      33.128  25.286  21.783  1.00  0.00     0.241 S 
ATOM     11  O   UNL A   1      33.278  25.269  20.338  1.00  0.00    -0.207 OA
ATOM     12  O   UNL A   1      33.985  26.077  22.625  1.00  0.00    -0.207 OA
BRANCH  10  13
ATOM     13  C   UNL A   1      33.220  23.618  22.392  1.00  0.00     0.082 A 
ATOM     14  C   UNL A   1      32.148  22.729  22.275  1.00  0.00     0.022 A 
ATOM     15  C   UNL A   1      34.331  23.234  23.116  1.00  0.00     0.022 A 
ATOM     16  C   UNL A   1      32.139  21.549  23.048  1.00  0.00     0.006 A 
ATOM     17  C   UNL A   1      34.244  22.169  23.996  1.00  0.00     0.006 A 
ATOM     18  C   UNL A   1      33.140  21.331  24.008  1.00  0.00    -0.034 A 
BRANCH  18  19
ATOM     19  C   UNL A   1      33.189  20.239  25.043  1.00  0.00     0.155 C 
BRANCH  19  20
ATOM     20  C   UNL A   1      34.053  19.058  24.633  1.00  0.00     0.067 C 
ATOM     21  N   UNL A   1      34.770  18.078  24.293  1.00  0.00    -0.198 NA
ENDBRANCH  19  20
ENDBRANCH  18  19
ENDBRANCH  10  13
ENDBRANCH   8  10
ENDBRANCH   5   8
ENDBRANCH   3   5
ENDBRANCH   2   3
ENDBRANCH   1   2
BRANCH   1  22
ATOM     22  C   UNL A   1      31.778  30.438  25.764  1.00  0.00     0.275 C 
BRANCH  22  23
ATOM     23  O   UNL A   1      32.387  30.497  27.054  1.00  0.00    -0.458 OA
BRANCH  23  24
ATOM     24  C   UNL A   1      33.090  31.637  27.261  1.00  0.00     0.338 C 
ATOM     25  O   UNL A   1      32.646  32.775  27.234  1.00  0.00    -0.246 OA
BRANCH  24  26
ATOM     26  C   UNL A   1      34.454  31.331  27.716  1.00  0.00     0.060 A 
ATOM     27  C   UNL A   1      34.758  29.987  27.963  1.00  0.00     0.016 A 
ATOM     28  C   UNL A   1      35.382  32.335  27.990  1.00  0.00     0.016 A 
ATOM     29  C   UNL A   1      35.987  29.633  28.498  1.00  0.00     0.010 A 
ATOM     30  C   UNL A   1      36.607  31.981  28.564  1.00  0.00     0.010 A 
ATOM     31  C   UNL A   1      36.897  30.633  28.845  1.00  0.00    -0.014 A 
BRANCH  31  32
ATOM     32  C   UNL A   1      38.066  30.266  29.671  1.00  0.00     0.031 A 
ATOM     33  C   UNL A   1      39.073  29.312  29.096  1.00  0.00     0.074 A 
ATOM     34  C   UNL A   1      38.245  30.809  30.886  1.00  0.00     0.049 A 
ATOM     35  N   UNL A   1      40.133  28.793  29.652  1.00  0.00    -0.248 NA
ATOM     36  C   UNL A   1      38.855  28.888  27.701  1.00  0.00     0.031 C 
ATOM     37  C   UNL A   1      37.360  31.791  31.511  1.00  0.00     0.029 A 
ATOM     38  N   UNL A   1      39.225  30.590  31.820  1.00  0.00    -0.354 N 
ATOM     39  C   UNL A   1      40.687  27.952  28.696  1.00  0.00     0.074 A 
ATOM     40  C   UNL A   1      39.848  28.031  27.520  1.00  0.00     0.031 C 
ATOM     41  C   UNL A   1      37.818  32.063  32.746  1.00  0.00     0.029 A 
ATOM     42  C   UNL A   1      39.002  31.247  33.006  1.00  0.00     0.049 A 
ATOM     43  H   UNL A   1      40.010  30.020  31.656  1.00  0.00     0.167 HD
ATOM     44  C   UNL A   1      41.799  27.186  28.789  1.00  0.00     0.034 A 
ATOM     45  C   UNL A   1      39.660  31.165  34.178  1.00  0.00     0.034 A 
ATOM     46  C   UNL A   1      42.633  27.130  29.957  1.00  0.00     0.049 A 
ATOM     47  C   UNL A   1      40.868  30.270  34.271  1.00  0.00     0.074 A 
ATOM     48  C   UNL A   1      43.791  26.401  30.154  1.00  0.00     0.029 A 
ATOM     49  N   UNL A   1      42.392  27.827  31.132  1.00  0.00    -0.354 N 
ATOM     50  N   UNL A   1      41.423  29.528  33.341  1.00  0.00    -0.248 NA
ATOM     51  C   UNL A   1      41.559  30.218  35.568  1.00  0.00     0.031 C 
ATOM     52  C   UNL A   1      44.235  26.634  31.459  1.00  0.00     0.029 A 
ATOM     53  C   UNL A   1      43.374  27.537  32.064  1.00  0.00     0.049 A 
ATOM     54  H   UNL A   1      41.635  28.437  31.281  1.00  0.00     0.167 HD
ATOM     55  C   UNL A   1      42.543  28.951  33.928  1.00  0.00     0.074 A 
ATOM     56  C   UNL A   1      42.600  29.445  35.289  1.00  0.00     0.031 C 
ATOM     57  C   UNL A   1      43.438  28.082  33.396  1.00  0.00     0.034 A 
BRANCH  44  58
ATOM     58  C   UNL A   1      42.169  26.348  27.595  1.00  0.00     0.023 A 
ATOM     59  C   UNL A   1      42.894  26.921  26.531  1.00  0.00     0.012 A 
ATOM     60  C   UNL A   1      41.826  24.983  27.543  1.00  0.00     0.148 A 
ATOM     61  C   UNL A   1      43.244  26.156  25.418  1.00  0.00     0.002 A 
ATOM     62  C   UNL A   1      42.217  24.216  26.451  1.00  0.00     0.091 A 
ATOM     63  F   UNL A   1      41.114  24.463  28.552  1.00  0.00    -0.205 F 
ATOM     64  C   UNL A   1      42.915  24.803  25.383  1.00  0.00     0.022 A 
BRANCH  62  65
ATOM     65  S   UNL A   1      41.905  22.450  26.346  1.00  0.00     0.127 S 
ATOM     66  O   UNL A   1      42.545  21.965  27.568  1.00  0.00    -0.237 OA
ATOM     67  O   UNL A   1      40.443  22.396  26.361  1.00  0.00    -0.237 OA
ATOM     68  O   UNL A   1      42.518  22.006  25.102  1.00  0.00    -0.744 OA
ENDBRANCH  62  65
ENDBRANCH  44  58
BRANCH  45  69
ATOM     69  C   UNL A   1      39.195  31.953  35.354  1.00  0.00     0.023 A 
ATOM     70  C   UNL A   1      38.255  31.395  36.242  1.00  0.00     0.012 A 
ATOM     71  C   UNL A   1      39.689  33.249  35.601  1.00  0.00     0.148 A 
ATOM     72  C   UNL A   1      37.792  32.126  37.337  1.00  0.00     0.002 A 
ATOM     73  C   UNL A   1      39.264  33.951  36.724  1.00  0.00     0.091 A 
ATOM     74  F   UNL A   1      40.568  33.770  34.734  1.00  0.00    -0.205 F 
ATOM     75  C   UNL A   1      38.304  33.398  37.584  1.00  0.00     0.022 A 
BRANCH  73  76
ATOM     76  S   UNL A   1      39.951  35.546  37.183  1.00  0.00     0.127 S 
ATOM     77  O   UNL A   1      39.241  35.827  38.430  1.00  0.00    -0.237 OA
ATOM     78  O   UNL A   1      41.370  35.228  37.342  1.00  0.00    -0.237 OA
ATOM     79  O   UNL A   1      39.651  36.438  36.072  1.00  0.00    -0.744 OA
ENDBRANCH  73  76
ENDBRANCH  45  69
BRANCH  57  80
ATOM     80  C   UNL A   1      44.585  27.639  34.268  1.00  0.00     0.023 A 
ATOM     81  C   UNL A   1      45.745  28.433  34.362  1.00  0.00     0.012 A 
ATOM     82  C   UNL A   1      44.475  26.476  35.056  1.00  0.00     0.148 A 
ATOM     83  C   UNL A   1      46.793  28.058  35.203  1.00  0.00     0.002 A 
ATOM     84  C   UNL A   1      45.501  26.137  35.930  1.00  0.00     0.091 A 
ATOM     85  F   UNL A   1      43.370  25.726  34.940  1.00  0.00    -0.205 F 
ATOM     86  C   UNL A   1      46.665  26.919  35.994  1.00  0.00     0.022 A 
BRANCH  84  87
ATOM     87  S   UNL A   1      45.381  24.747  37.061  1.00  0.00     0.127 S 
ATOM     88  O   UNL A   1      46.787  24.498  37.377  1.00  0.00    -0.237 OA
ATOM     89  O   UNL A   1      44.600  25.310  38.163  1.00  0.00    -0.237 OA
ATOM     90  O   UNL A   1      44.709  23.685  36.324  1.00  0.00    -0.744 OA
ENDBRANCH  84  87
ENDBRANCH  57  80
ENDBRANCH  31  32
ENDBRANCH  24  26
ENDBRANCH  23  24
ENDBRANCH  22  23
ENDBRANCH   1  22
TORSDOF 20
ENDMDL
MODEL 2
REMARK VINA RESULT:     -10.6      0.893      7.927
REMARK SMILES CC[C@@H](NS(=O)(=O)c1ccc(CC#N)cc1)C(=O)OCCOC(=O)c1ccc(-c2c3nc(c(-c4cccc(S(=O)(=O)[O-])c4F)c4ccc([nH]4)c(-c4cccc(S(=O)(=O)[O-])c4F)c4nc(c(-c5cccc(S(=O)(=O)[O-])c5F)c5ccc2[nH]5)C=C4)C=C3)cc1
REMARK SMILES IDX 20 1 19 2 17 3 18 4 3 5 2 6 1 7 4 8 5 10 6 11 7 12 8 13 9 14
REMARK SMILES IDX 16 15 10 16 15 17 11 18 12 19 13 20 14 21 21 22 22 23 23 24
REMARK SMILES IDX 24 25 25 26 26 27 87 28 27 29 86 30 28 31 29 32 30 33 80 34
REMARK SMILES IDX 31 35 85 36 79 37 81 38 32 39 84 40 78 41 77 42 33 44 65 45
REMARK SMILES IDX 45 46 64 47 46 48 49 49 63 50 82 51 47 52 48 53 62 55 83 56
REMARK SMILES IDX 50 57 34 58 35 59 43 60 36 61 38 62 44 63 37 64 39 65 40 66
REMARK SMILES IDX 41 67 42 68 66 69 67 70 75 71 68 72 70 73 76 74 69 75 71 76
REMARK SMILES IDX 72 77 73 78 74 79 51 80 52 81 60 82 53 83 55 84 61 85 54 86
REMARK SMILES IDX 56 87 57 88 58 89 59 90
REMARK H PARENT 4 9 81 43 49 54
REMARK Flexibility Score: inf
ROOT
ATOM      1  C   UNL A   1      31.875  28.767  27.134  1.00  0.00     0.274 C 
ENDROOT
BRANCH   1   2
ATOM      2  O   UNL A   1      30.960  28.105  26.242  1.00  0.00    -0.461 OA
BRANCH   2   3
ATOM      3  C   UNL A   1      31.361  27.846  24.958  1.00  0.00     0.324 C 
ATOM      4  O   UNL A   1      31.577  28.713  24.122  1.00  0.00    -0.250 OA
BRANCH   3   5
ATOM      5  C   UNL A   1      31.339  26.351  24.617  1.00  0.00     0.179 C 
BRANCH   5   6
ATOM      6  C   UNL A   1      29.917  25.789  24.834  1.00  0.00     0.028 C 
ATOM      7  C   UNL A   1      28.867  26.433  23.944  1.00  0.00     0.006 C 
ENDBRANCH   5   6
BRANCH   5   8
ATOM      8  N   UNL A   1      31.779  26.082  23.204  1.00  0.00    -0.197 NA
ATOM      9  H   UNL A   1      31.477  26.883  22.648  1.00  0.00     0.142 HD
BRANCH   8  10
ATOM     10  S   UNL A   1      33.431  25.827  22.837  1.00  0.00     0.241 S 
ATOM     11  O   UNL A   1      33.618  26.176  21.439  1.00  0.00    -0.207 OA
ATOM     12  O   UNL A   1      34.140  26.505  23.889  1.00  0.00    -0.207 OA
BRANCH  10  13
ATOM     13  C   UNL A   1      33.756  24.092  23.046  1.00  0.00     0.082 A 
ATOM     14  C   UNL A   1      32.756  23.129  22.887  1.00  0.00     0.022 A 
ATOM     15  C   UNL A   1      34.996  23.697  23.508  1.00  0.00     0.022 A 
ATOM     16  C   UNL A   1      32.967  21.823  23.375  1.00  0.00     0.006 A 
ATOM     17  C   UNL A   1      35.138  22.472  24.136  1.00  0.00     0.006 A 
ATOM     18  C   UNL A   1      34.123  21.529  24.116  1.00  0.00    -0.034 A 
BRANCH  18  19
ATOM     19  C   UNL A   1      34.426  20.260  24.870  1.00  0.00     0.155 C 
BRANCH  19  20
ATOM     20  C   UNL A   1      33.203  19.386  25.093  1.00  0.00     0.067 C 
ATOM     21  N   UNL A   1      32.188  18.660  25.279  1.00  0.00    -0.198 NA
ENDBRANCH  19  20
ENDBRANCH  18  19
ENDBRANCH  10  13
ENDBRANCH   8  10
ENDBRANCH   5   8
ENDBRANCH   3   5
ENDBRANCH   2   3
ENDBRANCH   1   2
BRANCH   1  22
ATOM     22  C   UNL A   1      31.969  30.298  27.123  1.00  0.00     0.275 C 
BRANCH  22  23
ATOM     23  O   UNL A   1      33.174  30.830  26.570  1.00  0.00    -0.458 OA
BRANCH  23  24
ATOM     24  C   UNL A   1      33.757  31.762  27.362  1.00  0.00     0.338 C 
ATOM     25  O   UNL A   1      33.232  32.778  27.791  1.00  0.00    -0.246 OA
BRANCH  24  26
ATOM     26  C   UNL A   1      35.081  31.306  27.813  1.00  0.00     0.060 A 
ATOM     27  C   UNL A   1      35.262  29.926  27.964  1.00  0.00     0.016 A 
ATOM     28  C   UNL A   1      36.086  32.202  28.172  1.00  0.00     0.016 A 
ATOM     29  C   UNL A   1      36.445  29.428  28.488  1.00  0.00     0.010 A 
ATOM     30  C   UNL A   1      37.265  31.702  28.735  1.00  0.00     0.010 A 
ATOM     31  C   UNL A   1      37.432  30.318  28.920  1.00  0.00    -0.014 A 
BRANCH  31  32
ATOM     32  C   UNL A   1      38.548  29.791  29.733  1.00  0.00     0.031 A 
ATOM     33  C   UNL A   1      38.704  30.294  31.139  1.00  0.00     0.074 A 
ATOM     34  C   UNL A   1      39.373  28.853  29.240  1.00  0.00     0.049 A 
ATOM     35  N   UNL A   1      39.638  30.034  32.013  1.00  0.00    -0.248 NA
ATOM     36  C   UNL A   1      37.661  31.215  31.627  1.00  0.00     0.031 C 
ATOM     37  C   UNL A   1      39.270  28.253  27.910  1.00  0.00     0.029 A 
ATOM     38  N   UNL A   1      40.473  28.257  29.799  1.00  0.00    -0.354 N 
ATOM     39  C   UNL A   1      39.323  30.786  33.137  1.00  0.00     0.074 A 
ATOM     40  C   UNL A   1      38.108  31.512  32.838  1.00  0.00     0.031 C 
ATOM     41  C   UNL A   1      40.295  27.398  27.740  1.00  0.00     0.029 A 
ATOM     42  C   UNL A   1      41.139  27.423  28.933  1.00  0.00     0.049 A 
ATOM     43  H   UNL A   1      40.758  28.411  30.729  1.00  0.00     0.167 HD
ATOM     44  C   UNL A   1      39.985  30.860  34.314  1.00  0.00     0.034 A 
ATOM     45  C   UNL A   1      42.316  26.785  29.078  1.00  0.00     0.034 A 
ATOM     46  C   UNL A   1      41.182  30.120  34.604  1.00  0.00     0.049 A 
ATOM     47  C   UNL A   1      43.059  26.920  30.382  1.00  0.00     0.074 A 
ATOM     48  C   UNL A   1      41.925  30.107  35.769  1.00  0.00     0.029 A 
ATOM     49  N   UNL A   1      41.816  29.266  33.713  1.00  0.00    -0.354 N 
ATOM     50  N   UNL A   1      42.720  27.581  31.464  1.00  0.00    -0.248 NA
ATOM     51  C   UNL A   1      44.336  26.200  30.497  1.00  0.00     0.031 C 
ATOM     52  C   UNL A   1      43.026  29.267  35.573  1.00  0.00     0.029 A 
ATOM     53  C   UNL A   1      42.949  28.728  34.298  1.00  0.00     0.049 A 
ATOM     54  H   UNL A   1      41.506  29.071  32.800  1.00  0.00     0.167 HD
ATOM     55  C   UNL A   1      43.719  27.330  32.397  1.00  0.00     0.074 A 
ATOM     56  C   UNL A   1      44.668  26.440  31.759  1.00  0.00     0.031 C 
ATOM     57  C   UNL A   1      43.850  27.801  33.662  1.00  0.00     0.034 A 
BRANCH  44  58
ATOM     58  C   UNL A   1      39.428  31.776  35.370  1.00  0.00     0.023 A 
ATOM     59  C   UNL A   1      38.452  31.301  36.269  1.00  0.00     0.012 A 
ATOM     60  C   UNL A   1      39.896  33.098  35.493  1.00  0.00     0.148 A 
ATOM     61  C   UNL A   1      37.926  32.139  37.253  1.00  0.00     0.002 A 
ATOM     62  C   UNL A   1      39.401  33.914  36.504  1.00  0.00     0.091 A 
ATOM     63  F   UNL A   1      40.806  33.539  34.612  1.00  0.00    -0.205 F 
ATOM     64  C   UNL A   1      38.407  33.440  37.377  1.00  0.00     0.022 A 
BRANCH  62  65
ATOM     65  S   UNL A   1      40.009  35.579  36.792  1.00  0.00     0.127 S 
ATOM     66  O   UNL A   1      39.348  35.920  38.051  1.00  0.00    -0.237 OA
ATOM     67  O   UNL A   1      41.452  35.364  36.899  1.00  0.00    -0.237 OA
ATOM     68  O   UNL A   1      39.595  36.364  35.638  1.00  0.00    -0.744 OA
ENDBRANCH  62  65
ENDBRANCH  44  58
BRANCH  45  69
ATOM     69  C   UNL A   1      42.863  25.961  27.964  1.00  0.00     0.023 A 
ATOM     70  C   UNL A   1      43.928  26.455  27.186  1.00  0.00     0.012 A 
ATOM     71  C   UNL A   1      42.338  24.684  27.680  1.00  0.00     0.148 A 
ATOM     72  C   UNL A   1      44.439  25.706  26.126  1.00  0.00     0.002 A 
ATOM     73  C   UNL A   1      42.888  23.921  26.656  1.00  0.00     0.091 A 
ATOM     74  F   UNL A   1      41.312  24.241  28.419  1.00  0.00    -0.205 F 
ATOM     75  C   UNL A   1      43.928  24.436  25.867  1.00  0.00     0.022 A 
BRANCH  73  76
ATOM     76  S   UNL A   1      42.370  22.234  26.324  1.00  0.00     0.127 S 
ATOM     77  O   UNL A   1      42.631  21.585  27.607  1.00  0.00    -0.237 OA
ATOM     78  O   UNL A   1      40.953  22.412  26.002  1.00  0.00    -0.237 OA
ATOM     79  O   UNL A   1      43.191  21.782  25.209  1.00  0.00    -0.744 OA
ENDBRANCH  73  76
ENDBRANCH  45  69
BRANCH  57  80
ATOM     80  C   UNL A   1      45.037  27.332  34.463  1.00  0.00     0.023 A 
ATOM     81  C   UNL A   1      46.232  28.078  34.452  1.00  0.00     0.012 A 
ATOM     82  C   UNL A   1      44.936  26.195  35.289  1.00  0.00     0.148 A 
ATOM     83  C   UNL A   1      47.321  27.679  35.228  1.00  0.00     0.002 A 
ATOM     84  C   UNL A   1      46.008  25.834  36.098  1.00  0.00     0.091 A 
ATOM     85  F   UNL A   1      43.796  25.490  35.272  1.00  0.00    -0.205 F 
ATOM     86  C   UNL A   1      47.204  26.566  36.057  1.00  0.00     0.022 A 
BRANCH  84  87
ATOM     87  S   UNL A   1      45.913  24.479  37.272  1.00  0.00     0.127 S 
ATOM     88  O   UNL A   1      45.704  23.333  36.389  1.00  0.00    -0.237 OA
ATOM     89  O   UNL A   1      47.230  24.527  37.908  1.00  0.00    -0.237 OA
ATOM     90  O   UNL A   1      44.802  24.794  38.161  1.00  0.00    -0.744 OA
ENDBRANCH  84  87
ENDBRANCH  57  80
ENDBRANCH  31  32
ENDBRANCH  24  26
ENDBRANCH  23  24
ENDBRANCH  22  23
ENDBRANCH   1  22
TORSDOF 20
ENDMDL
MODEL 3
REMARK VINA RESULT:     -10.4      5.981     10.968
REMARK SMILES CC[C@@H](NS(=O)(=O)c1ccc(CC#N)cc1)C(=O)OCCOC(=O)c1ccc(-c2c3nc(c(-c4cccc(S(=O)(=O)[O-])c4F)c4ccc([nH]4)c(-c4cccc(S(=O)(=O)[O-])c4F)c4nc(c(-c5cccc(S(=O)(=O)[O-])c5F)c5ccc2[nH]5)C=C4)C=C3)cc1
REMARK SMILES IDX 20 1 19 2 17 3 18 4 3 5 2 6 1 7 4 8 5 10 6 11 7 12 8 13 9 14
REMARK SMILES IDX 16 15 10 16 15 17 11 18 12 19 13 20 14 21 21 22 22 23 23 24
REMARK SMILES IDX 24 25 25 26 26 27 87 28 27 29 86 30 28 31 29 32 30 33 80 34
REMARK SMILES IDX 31 35 85 36 79 37 81 38 32 39 84 40 78 41 77 42 33 44 65 45
REMARK SMILES IDX 45 46 64 47 46 48 49 49 63 50 82 51 47 52 48 53 62 55 83 56
REMARK SMILES IDX 50 57 34 58 35 59 43 60 36 61 38 62 44 63 37 64 39 65 40 66
REMARK SMILES IDX 41 67 42 68 66 69 67 70 75 71 68 72 70 73 76 74 69 75 71 76
REMARK SMILES IDX 72 77 73 78 74 79 51 80 52 81 60 82 53 83 55 84 61 85 54 86
REMARK SMILES IDX 56 87 57 88 58 89 59 90
REMARK H PARENT 4 9 81 43 49 54
REMARK Flexibility Score: inf
ROOT
ATOM      1  C   UNL A   1      43.011  20.455  25.723  1.00  0.00     0.274 C 
ENDROOT
BRANCH   1   2
ATOM      2  O   UNL A   1      43.872  21.382  25.036  1.00  0.00    -0.461 OA
BRANCH   2   3
ATOM      3  C   UNL A   1      45.080  21.699  25.597  1.00  0.00     0.324 C 
ATOM      4  O   UNL A   1      46.035  20.936  25.640  1.00  0.00    -0.250 OA
BRANCH   3   5
ATOM      5  C   UNL A   1      45.062  23.047  26.328  1.00  0.00     0.179 C 
BRANCH   5   6
ATOM      6  C   UNL A   1      44.529  22.853  27.765  1.00  0.00     0.028 C 
ATOM      7  C   UNL A   1      43.451  23.852  28.153  1.00  0.00     0.006 C 
ENDBRANCH   5   6
BRANCH   5   8
ATOM      8  N   UNL A   1      46.422  23.688  26.375  1.00  0.00    -0.197 NA
ATOM      9  H   UNL A   1      47.103  22.929  26.361  1.00  0.00     0.142 HD
BRANCH   8  10
ATOM     10  S   UNL A   1      46.905  24.801  25.167  1.00  0.00     0.241 S 
ATOM     11  O   UNL A   1      47.098  24.045  23.941  1.00  0.00    -0.207 OA
ATOM     12  O   UNL A   1      45.942  25.866  25.256  1.00  0.00    -0.207 OA
BRANCH  10  13
ATOM     13  C   UNL A   1      48.465  25.486  25.674  1.00  0.00     0.082 A 
ATOM     14  C   UNL A   1      49.264  26.230  24.801  1.00  0.00     0.022 A 
ATOM     15  C   UNL A   1      48.960  25.163  26.921  1.00  0.00     0.022 A 
ATOM     16  C   UNL A   1      50.615  26.468  25.130  1.00  0.00     0.006 A 
ATOM     17  C   UNL A   1      50.321  25.248  27.164  1.00  0.00     0.006 A 
ATOM     18  C   UNL A   1      51.177  25.864  26.266  1.00  0.00    -0.034 A 
BRANCH  18  19
ATOM     19  C   UNL A   1      52.629  25.848  26.666  1.00  0.00     0.155 C 
BRANCH  19  20
ATOM     20  C   UNL A   1      53.571  25.574  25.506  1.00  0.00     0.067 C 
ATOM     21  N   UNL A   1      54.352  25.346  24.542  1.00  0.00    -0.198 NA
ENDBRANCH  19  20
ENDBRANCH  18  19
ENDBRANCH  10  13
ENDBRANCH   8  10
ENDBRANCH   5   8
ENDBRANCH   3   5
ENDBRANCH   2   3
ENDBRANCH   1   2
BRANCH   1  22
ATOM     22  C   UNL A   1      41.706  20.958  26.353  1.00  0.00     0.275 C 
BRANCH  22  23
ATOM     23  O   UNL A   1      41.296  22.264  25.946  1.00  0.00    -0.458 OA
BRANCH  23  24
ATOM     24  C   UNL A   1      40.064  22.602  26.399  1.00  0.00     0.338 C 
ATOM     25  O   UNL A   1      39.124  21.841  26.570  1.00  0.00    -0.246 OA
BRANCH  24  26
ATOM     26  C   UNL A   1      40.042  24.001  26.848  1.00  0.00     0.060 A 
ATOM     27  C   UNL A   1      40.539  24.964  25.962  1.00  0.00     0.016 A 
ATOM     28  C   UNL A   1      39.640  24.356  28.136  1.00  0.00     0.016 A 
ATOM     29  C   UNL A   1      40.651  26.289  26.357  1.00  0.00     0.010 A 
ATOM     30  C   UNL A   1      39.788  25.684  28.546  1.00  0.00     0.010 A 
ATOM     31  C   UNL A   1      40.320  26.644  27.666  1.00  0.00    -0.014 A 
BRANCH  31  32
ATOM     32  C   UNL A   1      40.715  27.982  28.154  1.00  0.00     0.031 A 
ATOM     33  C   UNL A   1      42.175  28.331  28.172  1.00  0.00     0.074 A 
ATOM     34  C   UNL A   1      39.786  28.877  28.528  1.00  0.00     0.049 A 
ATOM     35  N   UNL A   1      42.764  29.408  28.617  1.00  0.00    -0.248 NA
ATOM     36  C   UNL A   1      43.097  27.330  27.607  1.00  0.00     0.031 C 
ATOM     37  C   UNL A   1      38.341  28.661  28.490  1.00  0.00     0.029 A 
ATOM     38  N   UNL A   1      39.928  30.144  29.033  1.00  0.00    -0.354 N 
ATOM     39  C   UNL A   1      44.124  29.200  28.426  1.00  0.00     0.074 A 
ATOM     40  C   UNL A   1      44.276  27.895  27.821  1.00  0.00     0.031 C 
ATOM     41  C   UNL A   1      37.726  29.747  28.991  1.00  0.00     0.029 A 
ATOM     42  C   UNL A   1      38.737  30.713  29.416  1.00  0.00     0.049 A 
ATOM     43  H   UNL A   1      40.797  30.600  29.113  1.00  0.00     0.167 HD
ATOM     44  C   UNL A   1      45.152  30.027  28.724  1.00  0.00     0.034 A 
ATOM     45  C   UNL A   1      38.500  31.866  30.070  1.00  0.00     0.034 A 
ATOM     46  C   UNL A   1      44.986  31.328  29.310  1.00  0.00     0.049 A 
ATOM     47  C   UNL A   1      39.665  32.748  30.434  1.00  0.00     0.074 A 
ATOM     48  C   UNL A   1      45.958  32.255  29.638  1.00  0.00     0.029 A 
ATOM     49  N   UNL A   1      43.764  31.884  29.662  1.00  0.00    -0.354 N 
ATOM     50  N   UNL A   1      40.943  32.574  30.190  1.00  0.00    -0.248 NA
ATOM     51  C   UNL A   1      39.357  34.000  31.140  1.00  0.00     0.031 C 
ATOM     52  C   UNL A   1      45.326  33.360  30.218  1.00  0.00     0.029 A 
ATOM     53  C   UNL A   1      43.957  33.138  30.216  1.00  0.00     0.049 A 
ATOM     54  H   UNL A   1      42.890  31.450  29.537  1.00  0.00     0.167 HD
ATOM     55  C   UNL A   1      41.586  33.706  30.679  1.00  0.00     0.074 A 
ATOM     56  C   UNL A   1      40.553  34.569  31.217  1.00  0.00     0.031 C 
ATOM     57  C   UNL A   1      42.909  34.001  30.696  1.00  0.00     0.034 A 
BRANCH  44  58
ATOM     58  C   UNL A   1      46.545  29.541  28.424  1.00  0.00     0.023 A 
ATOM     59  C   UNL A   1      47.109  29.765  27.151  1.00  0.00     0.012 A 
ATOM     60  C   UNL A   1      47.308  28.893  29.414  1.00  0.00     0.148 A 
ATOM     61  C   UNL A   1      48.398  29.321  26.859  1.00  0.00     0.002 A 
ATOM     62  C   UNL A   1      48.609  28.494  29.130  1.00  0.00     0.091 A 
ATOM     63  F   UNL A   1      46.745  28.667  30.610  1.00  0.00    -0.205 F 
ATOM     64  C   UNL A   1      49.151  28.696  27.850  1.00  0.00     0.022 A 
BRANCH  62  65
ATOM     65  S   UNL A   1      49.684  27.746  30.359  1.00  0.00     0.127 S 
ATOM     66  O   UNL A   1      48.991  26.487  30.630  1.00  0.00    -0.237 OA
ATOM     67  O   UNL A   1      50.940  27.604  29.622  1.00  0.00    -0.237 OA
ATOM     68  O   UNL A   1      49.734  28.683  31.473  1.00  0.00    -0.744 OA
ENDBRANCH  62  65
ENDBRANCH  44  58
BRANCH  45  69
ATOM     69  C   UNL A   1      37.104  32.254  30.419  1.00  0.00     0.023 A 
ATOM     70  C   UNL A   1      36.604  31.980  31.707  1.00  0.00     0.012 A 
ATOM     71  C   UNL A   1      36.275  32.903  29.483  1.00  0.00     0.148 A 
ATOM     72  C   UNL A   1      35.293  32.318  32.046  1.00  0.00     0.002 A 
ATOM     73  C   UNL A   1      34.988  33.284  29.845  1.00  0.00     0.091 A 
ATOM     74  F   UNL A   1      36.762  33.136  28.257  1.00  0.00    -0.205 F 
ATOM     75  C   UNL A   1      34.489  32.978  31.120  1.00  0.00     0.022 A 
BRANCH  73  76
ATOM     76  S   UNL A   1      33.921  34.237  28.758  1.00  0.00     0.127 S 
ATOM     77  O   UNL A   1      33.540  33.237  27.763  1.00  0.00    -0.237 OA
ATOM     78  O   UNL A   1      32.848  34.640  29.667  1.00  0.00    -0.237 OA
ATOM     79  O   UNL A   1      34.741  35.335  28.266  1.00  0.00    -0.744 OA
ENDBRANCH  73  76
ENDBRANCH  45  69
BRANCH  57  80
ATOM     80  C   UNL A   1      43.320  35.331  31.273  1.00  0.00     0.023 A 
ATOM     81  C   UNL A   1      43.609  35.442  32.648  1.00  0.00     0.012 A 
ATOM     82  C   UNL A   1      43.499  36.449  30.435  1.00  0.00     0.148 A 
ATOM     83  C   UNL A   1      44.037  36.657  33.185  1.00  0.00     0.002 A 
ATOM     84  C   UNL A   1      43.975  37.641  30.968  1.00  0.00     0.091 A 
ATOM     85  F   UNL A   1      43.204  36.327  29.132  1.00  0.00    -0.205 F 
ATOM     86  C   UNL A   1      44.231  37.750  32.344  1.00  0.00     0.022 A 
BRANCH  84  87
ATOM     87  S   UNL A   1      44.354  39.069  29.946  1.00  0.00     0.127 S 
ATOM     88  O   UNL A   1      45.370  38.529  29.044  1.00  0.00    -0.237 OA
ATOM     89  O   UNL A   1      43.064  39.349  29.314  1.00  0.00    -0.237 OA
ATOM     90  O   UNL A   1      44.816  40.105  30.860  1.00  0.00    -0.744 OA
ENDBRANCH  84  87
ENDBRANCH  57  80
ENDBRANCH  31  32
ENDBRANCH  24  26
ENDBRANCH  23  24
ENDBRANCH  22  23
ENDBRANCH   1  22
TORSDOF 20
ENDMDL
