MODEL 1
REMARK VINA RESULT:     -13.1      0.000      0.000
REMARK SMILES CC[C@@H](C)[C@@H](NC(=O)Cn1nc(-c2ccc3ccccc3c2)ccc1=O)C(=O)OCCOC(=O)c1ccc(-c2c3nc(c(-c4cccc(S(=O)(=O)[O-])c4F)c4ccc([nH]4)c(-c4cccc(S(=O)(=O)[O-])c4F)c4nc(c(-c5cccc(S(=O)(=O)[O-])c5F)c5ccc2[nH]5)C=C4)C=C3)cc1
REMARK SMILES IDX 30 1 29 2 27 3 28 4 5 5 3 6 4 7 2 8 1 9 6 10 7 11 8 13 9 14
REMARK SMILES IDX 10 15 11 16 25 17 12 18 24 19 26 20 23 21 13 22 14 23 22 24
REMARK SMILES IDX 15 25 21 26 16 27 20 28 17 29 19 30 18 31 31 32 32 33 33 34
REMARK SMILES IDX 34 35 35 36 36 37 97 38 37 39 96 40 38 41 39 42 40 43 90 44
REMARK SMILES IDX 41 45 95 46 89 47 91 48 42 49 94 50 88 51 87 52 43 54 75 55
REMARK SMILES IDX 55 56 74 57 56 58 59 59 73 60 92 61 57 62 58 63 72 65 93 66
REMARK SMILES IDX 60 67 44 68 45 69 53 70 46 71 48 72 54 73 47 74 49 75 50 76
REMARK SMILES IDX 51 77 52 78 76 79 77 80 85 81 78 82 80 83 86 84 79 85 81 86
REMARK SMILES IDX 82 87 83 88 84 89 61 90 62 91 70 92 63 93 65 94 71 95 64 96
REMARK SMILES IDX 66 97 67 98 68 99 69 100
REMARK H PARENT 6 12 91 53 59 64
REMARK Flexibility Score: inf
ROOT
ATOM      1  C   UNL A   1      31.515  29.239  24.679  1.00  0.00     0.274 C 
ENDROOT
BRANCH   1   2
ATOM      2  O   UNL A   1      30.344  29.431  23.848  1.00  0.00    -0.461 OA
BRANCH   2   3
ATOM      3  C   UNL A   1      30.300  28.656  22.739  1.00  0.00     0.329 C 
ATOM      4  O   UNL A   1      30.002  29.083  21.626  1.00  0.00    -0.250 OA
BRANCH   3   5
ATOM      5  C   UNL A   1      30.531  27.152  22.975  1.00  0.00     0.195 C 
BRANCH   5   6
ATOM      6  C   UNL A   1      29.493  26.121  23.493  1.00  0.00     0.019 C 
ATOM      7  C   UNL A   1      28.139  26.703  23.877  1.00  0.00     0.010 C 
BRANCH   6   8
ATOM      8  C   UNL A   1      30.101  25.345  24.702  1.00  0.00     0.002 C 
ATOM      9  C   UNL A   1      30.112  26.117  26.015  1.00  0.00     0.004 C 
ENDBRANCH   6   8
ENDBRANCH   5   6
BRANCH   5  10
ATOM     10  N   UNL A   1      31.313  26.623  21.843  1.00  0.00    -0.341 N 
ATOM     11  C   UNL A   1      32.633  26.384  21.638  1.00  0.00     0.242 C 
ATOM     12  H   UNL A   1      30.755  26.392  21.066  1.00  0.00     0.164 HD
ATOM     13  O   UNL A   1      32.922  25.978  20.501  1.00  0.00    -0.273 OA
BRANCH  11  14
ATOM     14  C   UNL A   1      33.708  26.313  22.737  1.00  0.00     0.248 C 
BRANCH  14  15
ATOM     15  N   UNL A   1      33.513  25.562  23.971  1.00  0.00    -0.220 N 
ATOM     16  N   UNL A   1      33.542  24.178  23.833  1.00  0.00    -0.169 NA
ATOM     17  C   UNL A   1      33.812  26.150  25.191  1.00  0.00     0.267 A 
ATOM     18  C   UNL A   1      33.455  23.461  24.911  1.00  0.00     0.091 A 
ATOM     19  C   UNL A   1      33.463  25.329  26.376  1.00  0.00     0.075 A 
ATOM     20  O   UNL A   1      34.234  27.291  25.347  1.00  0.00    -0.268 OA
ATOM     21  C   UNL A   1      33.254  24.015  26.261  1.00  0.00     0.036 A 
BRANCH  18  22
ATOM     22  C   UNL A   1      33.606  21.990  24.802  1.00  0.00     0.003 A 
ATOM     23  C   UNL A   1      34.710  21.408  25.430  1.00  0.00     0.011 A 
ATOM     24  C   UNL A   1      32.737  21.206  24.038  1.00  0.00     0.019 A 
ATOM     25  C   UNL A   1      34.957  20.044  25.283  1.00  0.00     0.009 A 
ATOM     26  C   UNL A   1      33.010  19.840  23.835  1.00  0.00    -0.018 A 
ATOM     27  C   UNL A   1      34.133  19.254  24.469  1.00  0.00    -0.018 A 
ATOM     28  C   UNL A   1      32.215  19.046  22.991  1.00  0.00     0.009 A 
ATOM     29  C   UNL A   1      34.420  17.896  24.251  1.00  0.00     0.009 A 
ATOM     30  C   UNL A   1      32.528  17.703  22.768  1.00  0.00     0.001 A 
ATOM     31  C   UNL A   1      33.627  17.128  23.398  1.00  0.00     0.001 A 
ENDBRANCH  18  22
ENDBRANCH  14  15
ENDBRANCH  11  14
ENDBRANCH   5  10
ENDBRANCH   3   5
ENDBRANCH   2   3
ENDBRANCH   1   2
BRANCH   1  32
ATOM     32  C   UNL A   1      31.537  30.269  25.802  1.00  0.00     0.275 C 
BRANCH  32  33
ATOM     33  O   UNL A   1      32.889  30.419  26.247  1.00  0.00    -0.458 OA
BRANCH  33  34
ATOM     34  C   UNL A   1      33.119  31.528  26.991  1.00  0.00     0.338 C 
ATOM     35  O   UNL A   1      32.371  32.456  27.198  1.00  0.00    -0.246 OA
BRANCH  34  36
ATOM     36  C   UNL A   1      34.375  31.263  27.701  1.00  0.00     0.060 A 
ATOM     37  C   UNL A   1      35.256  32.310  27.954  1.00  0.00     0.016 A 
ATOM     38  C   UNL A   1      34.703  29.940  28.019  1.00  0.00     0.016 A 
ATOM     39  C   UNL A   1      36.487  32.020  28.526  1.00  0.00     0.010 A 
ATOM     40  C   UNL A   1      35.928  29.653  28.605  1.00  0.00     0.010 A 
ATOM     41  C   UNL A   1      36.824  30.694  28.853  1.00  0.00    -0.014 A 
BRANCH  41  42
ATOM     42  C   UNL A   1      38.092  30.447  29.557  1.00  0.00     0.031 A 
ATOM     43  C   UNL A   1      38.303  30.934  30.953  1.00  0.00     0.074 A 
ATOM     44  C   UNL A   1      39.012  29.704  28.915  1.00  0.00     0.049 A 
ATOM     45  N   UNL A   1      39.222  30.570  31.806  1.00  0.00    -0.248 NA
ATOM     46  C   UNL A   1      37.373  31.954  31.466  1.00  0.00     0.031 C 
ATOM     47  C   UNL A   1      38.901  29.259  27.522  1.00  0.00     0.029 A 
ATOM     48  N   UNL A   1      40.187  29.160  29.351  1.00  0.00    -0.354 N 
ATOM     49  C   UNL A   1      38.983  31.308  32.956  1.00  0.00     0.074 A 
ATOM     50  C   UNL A   1      37.848  32.162  32.689  1.00  0.00     0.031 C 
ATOM     51  C   UNL A   1      39.933  28.451  27.239  1.00  0.00     0.029 A 
ATOM     52  C   UNL A   1      40.770  28.326  28.426  1.00  0.00     0.049 A 
ATOM     53  H   UNL A   1      40.577  29.345  30.236  1.00  0.00     0.167 HD
ATOM     54  C   UNL A   1      39.648  31.244  34.132  1.00  0.00     0.034 A 
ATOM     55  C   UNL A   1      41.832  27.509  28.547  1.00  0.00     0.034 A 
ATOM     56  C   UNL A   1      40.757  30.361  34.368  1.00  0.00     0.049 A 
ATOM     57  C   UNL A   1      42.513  27.419  29.880  1.00  0.00     0.074 A 
ATOM     58  C   UNL A   1      41.463  30.162  35.541  1.00  0.00     0.029 A 
ATOM     59  N   UNL A   1      41.326  29.535  33.409  1.00  0.00    -0.354 N 
ATOM     60  N   UNL A   1      42.184  28.005  31.007  1.00  0.00    -0.248 NA
ATOM     61  C   UNL A   1      43.684  26.539  29.972  1.00  0.00     0.031 C 
ATOM     62  C   UNL A   1      42.465  29.221  35.288  1.00  0.00     0.029 A 
ATOM     63  C   UNL A   1      42.379  28.831  33.960  1.00  0.00     0.049 A 
ATOM     64  H   UNL A   1      41.024  29.462  32.476  1.00  0.00     0.167 HD
ATOM     65  C   UNL A   1      43.101  27.557  31.947  1.00  0.00     0.074 A 
ATOM     66  C   UNL A   1      43.985  26.634  31.262  1.00  0.00     0.031 C 
ATOM     67  C   UNL A   1      43.213  27.893  33.255  1.00  0.00     0.034 A 
BRANCH  54  68
ATOM     68  C   UNL A   1      39.168  32.087  35.279  1.00  0.00     0.023 A 
ATOM     69  C   UNL A   1      38.278  31.520  36.214  1.00  0.00     0.012 A 
ATOM     70  C   UNL A   1      39.693  33.373  35.510  1.00  0.00     0.148 A 
ATOM     71  C   UNL A   1      37.920  32.220  37.365  1.00  0.00     0.002 A 
ATOM     72  C   UNL A   1      39.352  34.054  36.673  1.00  0.00     0.091 A 
ATOM     73  F   UNL A   1      40.535  33.889  34.603  1.00  0.00    -0.205 F 
ATOM     74  C   UNL A   1      38.464  33.481  37.599  1.00  0.00     0.022 A 
BRANCH  72  75
ATOM     75  S   UNL A   1      40.034  35.660  37.102  1.00  0.00     0.127 S 
ATOM     76  O   UNL A   1      39.654  36.464  35.941  1.00  0.00    -0.237 OA
ATOM     77  O   UNL A   1      39.308  35.980  38.330  1.00  0.00    -0.237 OA
ATOM     78  O   UNL A   1      41.467  35.460  37.265  1.00  0.00    -0.744 OA
ENDBRANCH  72  75
ENDBRANCH  54  68
BRANCH  55  79
ATOM     79  C   UNL A   1      42.210  26.633  27.406  1.00  0.00     0.023 A 
ATOM     80  C   UNL A   1      43.067  27.136  26.410  1.00  0.00     0.012 A 
ATOM     81  C   UNL A   1      41.808  25.284  27.356  1.00  0.00     0.148 A 
ATOM     82  C   UNL A   1      43.513  26.312  25.375  1.00  0.00     0.002 A 
ATOM     83  C   UNL A   1      42.288  24.458  26.347  1.00  0.00     0.091 A 
ATOM     84  F   UNL A   1      40.988  24.832  28.315  1.00  0.00    -0.205 F 
ATOM     85  C   UNL A   1      43.134  24.972  25.350  1.00  0.00     0.022 A 
BRANCH  83  86
ATOM     86  S   UNL A   1      41.947  22.695  26.304  1.00  0.00     0.127 S 
ATOM     87  O   UNL A   1      42.654  22.285  25.092  1.00  0.00    -0.237 OA
ATOM     88  O   UNL A   1      42.552  22.237  27.555  1.00  0.00    -0.237 OA
ATOM     89  O   UNL A   1      40.496  22.578  26.260  1.00  0.00    -0.744 OA
ENDBRANCH  83  86
ENDBRANCH  55  79
BRANCH  67  90
ATOM     90  C   UNL A   1      44.337  27.275  34.034  1.00  0.00     0.023 A 
ATOM     91  C   UNL A   1      45.584  27.927  34.068  1.00  0.00     0.012 A 
ATOM     92  C   UNL A   1      44.120  26.133  34.827  1.00  0.00     0.148 A 
ATOM     93  C   UNL A   1      46.606  27.445  34.881  1.00  0.00     0.002 A 
ATOM     94  C   UNL A   1      45.132  25.678  35.659  1.00  0.00     0.091 A 
ATOM     95  F   UNL A   1      42.924  25.529  34.763  1.00  0.00    -0.205 F 
ATOM     96  C   UNL A   1      46.377  26.331  35.685  1.00  0.00     0.022 A 
BRANCH  94  97
ATOM     97  S   UNL A   1      44.908  24.300  36.788  1.00  0.00     0.127 S 
ATOM     98  O   UNL A   1      43.815  24.781  37.631  1.00  0.00    -0.237 OA
ATOM     99  O   UNL A   1      44.546  23.212  35.880  1.00  0.00    -0.237 OA
ATOM    100  O   UNL A   1      46.184  24.123  37.469  1.00  0.00    -0.744 OA
ENDBRANCH  94  97
ENDBRANCH  67  90
ENDBRANCH  41  42
ENDBRANCH  34  36
ENDBRANCH  33  34
ENDBRANCH  32  33
ENDBRANCH   1  32
TORSDOF 20
ENDMDL
MODEL 2
REMARK VINA RESULT:     -12.3      4.722     10.224
REMARK SMILES CC[C@@H](C)[C@@H](NC(=O)Cn1nc(-c2ccc3ccccc3c2)ccc1=O)C(=O)OCCOC(=O)c1ccc(-c2c3nc(c(-c4cccc(S(=O)(=O)[O-])c4F)c4ccc([nH]4)c(-c4cccc(S(=O)(=O)[O-])c4F)c4nc(c(-c5cccc(S(=O)(=O)[O-])c5F)c5ccc2[nH]5)C=C4)C=C3)cc1
REMARK SMILES IDX 30 1 29 2 27 3 28 4 5 5 3 6 4 7 2 8 1 9 6 10 7 11 8 13 9 14
REMARK SMILES IDX 10 15 11 16 25 17 12 18 24 19 26 20 23 21 13 22 14 23 22 24
REMARK SMILES IDX 15 25 21 26 16 27 20 28 17 29 19 30 18 31 31 32 32 33 33 34
REMARK SMILES IDX 34 35 35 36 36 37 97 38 37 39 96 40 38 41 39 42 40 43 90 44
REMARK SMILES IDX 41 45 95 46 89 47 91 48 42 49 94 50 88 51 87 52 43 54 75 55
REMARK SMILES IDX 55 56 74 57 56 58 59 59 73 60 92 61 57 62 58 63 72 65 93 66
REMARK SMILES IDX 60 67 44 68 45 69 53 70 46 71 48 72 54 73 47 74 49 75 50 76
REMARK SMILES IDX 51 77 52 78 76 79 77 80 85 81 78 82 80 83 86 84 79 85 81 86
REMARK SMILES IDX 82 87 83 88 84 89 61 90 62 91 70 92 63 93 65 94 71 95 64 96
REMARK SMILES IDX 66 97 67 98 68 99 69 100
REMARK H PARENT 6 12 91 53 59 64
REMARK Flexibility Score: inf
ROOT
ATOM      1  C   UNL A   1      35.252  20.789  25.254  1.00  0.00     0.274 C 
ENDROOT
BRANCH   1   2
ATOM      2  O   UNL A   1      34.133  20.463  26.113  1.00  0.00    -0.461 OA
BRANCH   2   3
ATOM      3  C   UNL A   1      32.939  20.374  25.482  1.00  0.00     0.329 C 
ATOM      4  O   UNL A   1      32.355  19.309  25.286  1.00  0.00    -0.250 OA
BRANCH   3   5
ATOM      5  C   UNL A   1      32.398  21.692  24.901  1.00  0.00     0.195 C 
BRANCH   5   6
ATOM      6  C   UNL A   1      32.134  22.013  23.406  1.00  0.00     0.019 C 
ATOM      7  C   UNL A   1      31.879  20.800  22.521  1.00  0.00     0.010 C 
BRANCH   6   8
ATOM      8  C   UNL A   1      33.327  22.842  22.840  1.00  0.00     0.002 C 
ATOM      9  C   UNL A   1      32.933  23.940  21.858  1.00  0.00     0.004 C 
ENDBRANCH   6   8
ENDBRANCH   5   6
BRANCH   5  10
ATOM     10  N   UNL A   1      31.300  22.161  25.765  1.00  0.00    -0.341 N 
ATOM     11  C   UNL A   1      31.169  23.171  26.662  1.00  0.00     0.242 C 
ATOM     12  H   UNL A   1      30.482  21.622  25.671  1.00  0.00     0.164 HD
ATOM     13  O   UNL A   1      30.077  23.211  27.251  1.00  0.00    -0.273 OA
BRANCH  11  14
ATOM     14  C   UNL A   1      32.119  24.376  26.793  1.00  0.00     0.248 C 
BRANCH  14  15
ATOM     15  N   UNL A   1      32.401  25.271  25.677  1.00  0.00    -0.220 N 
ATOM     16  N   UNL A   1      31.339  26.079  25.283  1.00  0.00    -0.169 NA
ATOM     17  C   UNL A   1      33.707  25.653  25.413  1.00  0.00     0.267 A 
ATOM     18  C   UNL A   1      31.559  26.952  24.348  1.00  0.00     0.091 A 
ATOM     19  C   UNL A   1      33.878  26.469  24.186  1.00  0.00     0.075 A 
ATOM     20  O   UNL A   1      34.695  25.293  26.044  1.00  0.00    -0.268 OA
ATOM     21  C   UNL A   1      32.836  27.092  23.628  1.00  0.00     0.036 A 
BRANCH  18  22
ATOM     22  C   UNL A   1      30.479  27.906  23.997  1.00  0.00     0.003 A 
ATOM     23  C   UNL A   1      29.346  27.390  23.364  1.00  0.00     0.011 A 
ATOM     24  C   UNL A   1      30.602  29.282  24.208  1.00  0.00     0.019 A 
ATOM     25  C   UNL A   1      28.341  28.251  22.924  1.00  0.00     0.009 A 
ATOM     26  C   UNL A   1      29.621  30.163  23.717  1.00  0.00    -0.018 A 
ATOM     27  C   UNL A   1      28.476  29.638  23.070  1.00  0.00    -0.018 A 
ATOM     28  C   UNL A   1      29.763  31.558  23.821  1.00  0.00     0.009 A 
ATOM     29  C   UNL A   1      27.506  30.517  22.559  1.00  0.00     0.009 A 
ATOM     30  C   UNL A   1      28.800  32.418  23.288  1.00  0.00     0.001 A 
ATOM     31  C   UNL A   1      27.672  31.898  22.659  1.00  0.00     0.001 A 
ENDBRANCH  18  22
ENDBRANCH  14  15
ENDBRANCH  11  14
ENDBRANCH   5  10
ENDBRANCH   3   5
ENDBRANCH   2   3
ENDBRANCH   1   2
BRANCH   1  32
ATOM     32  C   UNL A   1      36.185  21.771  25.954  1.00  0.00     0.275 C 
BRANCH  32  33
ATOM     33  O   UNL A   1      37.398  21.854  25.200  1.00  0.00    -0.458 OA
BRANCH  33  34
ATOM     34  C   UNL A   1      38.486  21.334  25.820  1.00  0.00     0.338 C 
ATOM     35  O   UNL A   1      38.879  20.190  25.800  1.00  0.00    -0.246 OA
BRANCH  34  36
ATOM     36  C   UNL A   1      39.233  22.491  26.323  1.00  0.00     0.060 A 
ATOM     37  C   UNL A   1      40.251  22.301  27.253  1.00  0.00     0.016 A 
ATOM     38  C   UNL A   1      38.836  23.773  25.927  1.00  0.00     0.016 A 
ATOM     39  C   UNL A   1      40.869  23.417  27.800  1.00  0.00     0.010 A 
ATOM     40  C   UNL A   1      39.466  24.889  26.463  1.00  0.00     0.010 A 
ATOM     41  C   UNL A   1      40.480  24.710  27.406  1.00  0.00    -0.014 A 
BRANCH  41  42
ATOM     42  C   UNL A   1      41.237  25.859  27.928  1.00  0.00     0.031 A 
ATOM     43  C   UNL A   1      42.648  26.105  27.505  1.00  0.00     0.074 A 
ATOM     44  C   UNL A   1      40.576  26.708  28.736  1.00  0.00     0.049 A 
ATOM     45  N   UNL A   1      43.352  27.196  27.638  1.00  0.00    -0.248 NA
ATOM     46  C   UNL A   1      43.365  24.998  26.851  1.00  0.00     0.031 C 
ATOM     47  C   UNL A   1      39.220  26.488  29.248  1.00  0.00     0.029 A 
ATOM     48  N   UNL A   1      40.929  27.932  29.230  1.00  0.00    -0.354 N 
ATOM     49  C   UNL A   1      44.592  26.915  27.083  1.00  0.00     0.074 A 
ATOM     50  C   UNL A   1      44.557  25.541  26.632  1.00  0.00     0.031 C 
ATOM     51  C   UNL A   1      38.829  27.575  29.929  1.00  0.00     0.029 A 
ATOM     52  C   UNL A   1      39.905  28.559  29.899  1.00  0.00     0.049 A 
ATOM     53  H   UNL A   1      41.826  28.325  29.119  1.00  0.00     0.167 HD
ATOM     54  C   UNL A   1      45.646  27.751  26.946  1.00  0.00     0.034 A 
ATOM     55  C   UNL A   1      39.827  29.812  30.383  1.00  0.00     0.034 A 
ATOM     56  C   UNL A   1      45.632  29.121  27.383  1.00  0.00     0.049 A 
ATOM     57  C   UNL A   1      40.991  30.733  30.165  1.00  0.00     0.074 A 
ATOM     58  C   UNL A   1      46.617  30.080  27.233  1.00  0.00     0.029 A 
ATOM     59  N   UNL A   1      44.582  29.721  28.061  1.00  0.00    -0.354 N 
ATOM     60  N   UNL A   1      42.100  30.505  29.503  1.00  0.00    -0.248 NA
ATOM     61  C   UNL A   1      40.886  32.083  30.729  1.00  0.00     0.031 C 
ATOM     62  C   UNL A   1      46.165  31.260  27.830  1.00  0.00     0.029 A 
ATOM     63  C   UNL A   1      44.897  31.036  28.345  1.00  0.00     0.049 A 
ATOM     64  H   UNL A   1      43.738  29.277  28.303  1.00  0.00     0.167 HD
ATOM     65  C   UNL A   1      42.823  31.688  29.558  1.00  0.00     0.074 A 
ATOM     66  C   UNL A   1      42.016  32.636  30.302  1.00  0.00     0.031 C 
ATOM     67  C   UNL A   1      44.052  31.960  29.056  1.00  0.00     0.034 A 
BRANCH  54  68
ATOM     68  C   UNL A   1      46.875  27.253  26.240  1.00  0.00     0.023 A 
ATOM     69  C   UNL A   1      47.031  27.531  24.867  1.00  0.00     0.012 A 
ATOM     70  C   UNL A   1      47.926  26.642  26.950  1.00  0.00     0.148 A 
ATOM     71  C   UNL A   1      48.218  27.210  24.210  1.00  0.00     0.002 A 
ATOM     72  C   UNL A   1      49.117  26.348  26.294  1.00  0.00     0.091 A 
ATOM     73  F   UNL A   1      47.750  26.386  28.255  1.00  0.00    -0.205 F 
ATOM     74  C   UNL A   1      49.263  26.629  24.926  1.00  0.00     0.022 A 
BRANCH  72  75
ATOM     75  S   UNL A   1      50.546  25.649  27.128  1.00  0.00     0.127 S 
ATOM     76  O   UNL A   1      51.525  25.593  26.042  1.00  0.00    -0.237 OA
ATOM     77  O   UNL A   1      50.826  26.656  28.150  1.00  0.00    -0.237 OA
ATOM     78  O   UNL A   1      50.123  24.352  27.637  1.00  0.00    -0.744 OA
ENDBRANCH  72  75
ENDBRANCH  54  68
BRANCH  55  79
ATOM     79  C   UNL A   1      38.555  30.279  30.994  1.00  0.00     0.023 A 
ATOM     80  C   UNL A   1      38.370  30.140  32.383  1.00  0.00     0.012 A 
ATOM     81  C   UNL A   1      37.578  30.944  30.229  1.00  0.00     0.148 A 
ATOM     82  C   UNL A   1      37.226  30.650  33.000  1.00  0.00     0.002 A 
ATOM     83  C   UNL A   1      36.461  31.485  30.856  1.00  0.00     0.091 A 
ATOM     84  F   UNL A   1      37.777  31.058  28.909  1.00  0.00    -0.205 F 
ATOM     85  C   UNL A   1      36.279  31.332  32.240  1.00  0.00     0.022 A 
BRANCH  83  86
ATOM     86  S   UNL A   1      35.251  32.478  29.975  1.00  0.00     0.127 S 
ATOM     87  O   UNL A   1      34.292  32.786  31.033  1.00  0.00    -0.237 OA
ATOM     88  O   UNL A   1      36.059  33.613  29.526  1.00  0.00    -0.237 OA
ATOM     89  O   UNL A   1      34.757  31.631  28.899  1.00  0.00    -0.744 OA
ENDBRANCH  83  86
ENDBRANCH  55  79
BRANCH  67  90
ATOM     90  C   UNL A   1      44.611  33.330  29.302  1.00  0.00     0.023 A 
ATOM     91  C   UNL A   1      45.377  33.557  30.460  1.00  0.00     0.012 A 
ATOM     92  C   UNL A   1      44.488  34.342  28.331  1.00  0.00     0.148 A 
ATOM     93  C   UNL A   1      46.013  34.782  30.653  1.00  0.00     0.002 A 
ATOM     94  C   UNL A   1      45.152  35.547  28.515  1.00  0.00     0.091 A 
ATOM     95  F   UNL A   1      43.743  34.097  27.244  1.00  0.00    -0.205 F 
ATOM     96  C   UNL A   1      45.911  35.770  29.677  1.00  0.00     0.022 A 
BRANCH  94  97
ATOM     97  S   UNL A   1      45.146  36.851  27.280  1.00  0.00     0.127 S 
ATOM     98  O   UNL A   1      45.847  36.210  26.169  1.00  0.00    -0.237 OA
ATOM     99  O   UNL A   1      43.714  37.061  27.059  1.00  0.00    -0.237 OA
ATOM    100  O   UNL A   1      45.839  37.982  27.883  1.00  0.00    -0.744 OA
ENDBRANCH  94  97
ENDBRANCH  67  90
ENDBRANCH  41  42
ENDBRANCH  34  36
ENDBRANCH  33  34
ENDBRANCH  32  33
ENDBRANCH   1  32
TORSDOF 20
ENDMDL
MODEL 3
REMARK VINA RESULT:     -12.0      2.064      3.197
REMARK SMILES CC[C@@H](C)[C@@H](NC(=O)Cn1nc(-c2ccc3ccccc3c2)ccc1=O)C(=O)OCCOC(=O)c1ccc(-c2c3nc(c(-c4cccc(S(=O)(=O)[O-])c4F)c4ccc([nH]4)c(-c4cccc(S(=O)(=O)[O-])c4F)c4nc(c(-c5cccc(S(=O)(=O)[O-])c5F)c5ccc2[nH]5)C=C4)C=C3)cc1
REMARK SMILES IDX 30 1 29 2 27 3 28 4 5 5 3 6 4 7 2 8 1 9 6 10 7 11 8 13 9 14
REMARK SMILES IDX 10 15 11 16 25 17 12 18 24 19 26 20 23 21 13 22 14 23 22 24
REMARK SMILES IDX 15 25 21 26 16 27 20 28 17 29 19 30 18 31 31 32 32 33 33 34
REMARK SMILES IDX 34 35 35 36 36 37 97 38 37 39 96 40 38 41 39 42 40 43 90 44
REMARK SMILES IDX 41 45 95 46 89 47 91 48 42 49 94 50 88 51 87 52 43 54 75 55
REMARK SMILES IDX 55 56 74 57 56 58 59 59 73 60 92 61 57 62 58 63 72 65 93 66
REMARK SMILES IDX 60 67 44 68 45 69 53 70 46 71 48 72 54 73 47 74 49 75 50 76
REMARK SMILES IDX 51 77 52 78 76 79 77 80 85 81 78 82 80 83 86 84 79 85 81 86
REMARK SMILES IDX 82 87 83 88 84 89 61 90 62 91 70 92 63 93 65 94 71 95 64 96
REMARK SMILES IDX 66 97 67 98 68 99 69 100
REMARK H PARENT 6 12 91 53 59 64
REMARK Flexibility Score: inf
ROOT
ATOM      1  C   UNL A   1      32.708  27.982  27.117  1.00  0.00     0.274 C 
ENDROOT
BRANCH   1   2
ATOM      2  O   UNL A   1      31.594  27.183  26.652  1.00  0.00    -0.461 OA
BRANCH   2   3
ATOM      3  C   UNL A   1      31.858  26.415  25.570  1.00  0.00     0.329 C 
ATOM      4  O   UNL A   1      32.585  25.424  25.603  1.00  0.00    -0.250 OA
BRANCH   3   5
ATOM      5  C   UNL A   1      31.285  26.931  24.237  1.00  0.00     0.195 C 
BRANCH   5   6
ATOM      6  C   UNL A   1      30.083  27.896  24.051  1.00  0.00     0.019 C 
ATOM      7  C   UNL A   1      28.885  27.301  23.322  1.00  0.00     0.010 C 
BRANCH   6   8
ATOM      8  C   UNL A   1      30.567  29.183  23.316  1.00  0.00     0.002 C 
ATOM      9  C   UNL A   1      29.719  29.591  22.117  1.00  0.00     0.004 C 
ENDBRANCH   6   8
ENDBRANCH   5   6
BRANCH   5  10
ATOM     10  N   UNL A   1      32.412  27.283  23.356  1.00  0.00    -0.341 N 
ATOM     11  C   UNL A   1      33.159  26.593  22.457  1.00  0.00     0.242 C 
ATOM     12  H   UNL A   1      32.683  28.226  23.438  1.00  0.00     0.164 HD
ATOM     13  O   UNL A   1      34.085  27.238  21.939  1.00  0.00    -0.273 OA
BRANCH  11  14
ATOM     14  C   UNL A   1      32.789  25.227  21.852  1.00  0.00     0.248 C 
BRANCH  14  15
ATOM     15  N   UNL A   1      33.021  23.973  22.559  1.00  0.00    -0.220 N 
ATOM     16  N   UNL A   1      34.312  23.798  23.047  1.00  0.00    -0.169 NA
ATOM     17  C   UNL A   1      31.956  23.302  23.140  1.00  0.00     0.267 A 
ATOM     18  C   UNL A   1      34.552  22.737  23.754  1.00  0.00     0.091 A 
ATOM     19  C   UNL A   1      32.301  21.984  23.727  1.00  0.00     0.075 A 
ATOM     20  O   UNL A   1      30.785  23.666  23.112  1.00  0.00    -0.268 OA
ATOM     21  C   UNL A   1      33.568  21.671  24.010  1.00  0.00     0.036 A 
BRANCH  18  22
ATOM     22  C   UNL A   1      35.885  22.590  24.387  1.00  0.00     0.003 A 
ATOM     23  C   UNL A   1      36.472  21.323  24.364  1.00  0.00     0.011 A 
ATOM     24  C   UNL A   1      36.513  23.644  25.058  1.00  0.00     0.019 A 
ATOM     25  C   UNL A   1      37.680  21.102  25.025  1.00  0.00     0.009 A 
ATOM     26  C   UNL A   1      37.701  23.417  25.777  1.00  0.00    -0.018 A 
ATOM     27  C   UNL A   1      38.291  22.130  25.756  1.00  0.00    -0.018 A 
ATOM     28  C   UNL A   1      38.302  24.428  26.546  1.00  0.00     0.009 A 
ATOM     29  C   UNL A   1      39.465  21.895  26.491  1.00  0.00     0.009 A 
ATOM     30  C   UNL A   1      39.458  24.172  27.288  1.00  0.00     0.001 A 
ATOM     31  C   UNL A   1      40.039  22.907  27.259  1.00  0.00     0.001 A 
ENDBRANCH  18  22
ENDBRANCH  14  15
ENDBRANCH  11  14
ENDBRANCH   5  10
ENDBRANCH   3   5
ENDBRANCH   2   3
ENDBRANCH   1   2
BRANCH   1  32
ATOM     32  C   UNL A   1      32.704  29.343  26.431  1.00  0.00     0.275 C 
BRANCH  32  33
ATOM     33  O   UNL A   1      34.016  29.904  26.535  1.00  0.00    -0.458 OA
BRANCH  33  34
ATOM     34  C   UNL A   1      34.089  31.037  27.276  1.00  0.00     0.338 C 
ATOM     35  O   UNL A   1      33.250  31.898  27.406  1.00  0.00    -0.246 OA
BRANCH  34  36
ATOM     36  C   UNL A   1      35.301  30.889  28.089  1.00  0.00     0.060 A 
ATOM     37  C   UNL A   1      36.247  31.910  28.105  1.00  0.00     0.016 A 
ATOM     38  C   UNL A   1      35.523  29.677  28.752  1.00  0.00     0.016 A 
ATOM     39  C   UNL A   1      37.437  31.703  28.790  1.00  0.00     0.010 A 
ATOM     40  C   UNL A   1      36.707  29.477  29.450  1.00  0.00     0.010 A 
ATOM     41  C   UNL A   1      37.668  30.489  29.463  1.00  0.00    -0.014 A 
BRANCH  41  42
ATOM     42  C   UNL A   1      38.894  30.357  30.267  1.00  0.00     0.031 A 
ATOM     43  C   UNL A   1      38.976  30.931  31.643  1.00  0.00     0.074 A 
ATOM     44  C   UNL A   1      39.897  29.635  29.735  1.00  0.00     0.049 A 
ATOM     45  N   UNL A   1      39.850  30.669  32.576  1.00  0.00    -0.248 NA
ATOM     46  C   UNL A   1      37.957  31.921  32.029  1.00  0.00     0.031 C 
ATOM     47  C   UNL A   1      39.911  29.108  28.366  1.00  0.00     0.029 A 
ATOM     48  N   UNL A   1      41.065  29.185  30.281  1.00  0.00    -0.354 N 
ATOM     49  C   UNL A   1      39.488  31.454  33.662  1.00  0.00     0.074 A 
ATOM     50  C   UNL A   1      38.330  32.223  33.267  1.00  0.00     0.031 C 
ATOM     51  C   UNL A   1      41.004  28.348  28.203  1.00  0.00     0.029 A 
ATOM     52  C   UNL A   1      41.759  28.338  29.450  1.00  0.00     0.049 A 
ATOM     53  H   UNL A   1      41.379  29.442  31.179  1.00  0.00     0.167 HD
ATOM     54  C   UNL A   1      40.069  31.494  34.882  1.00  0.00     0.034 A 
ATOM     55  C   UNL A   1      42.852  27.592  29.692  1.00  0.00     0.034 A 
ATOM     56  C   UNL A   1      41.205  30.692  35.246  1.00  0.00     0.049 A 
ATOM     57  C   UNL A   1      43.439  27.616  31.072  1.00  0.00     0.074 A 
ATOM     58  C   UNL A   1      41.834  30.600  36.475  1.00  0.00     0.029 A 
ATOM     59  N   UNL A   1      41.886  29.850  34.379  1.00  0.00    -0.354 N 
ATOM     60  N   UNL A   1      42.998  28.243  32.136  1.00  0.00    -0.248 NA
ATOM     61  C   UNL A   1      44.647  26.814  31.296  1.00  0.00     0.031 C 
ATOM     62  C   UNL A   1      42.901  29.707  36.348  1.00  0.00     0.029 A 
ATOM     63  C   UNL A   1      42.933  29.240  35.042  1.00  0.00     0.049 A 
ATOM     64  H   UNL A   1      41.656  29.708  33.433  1.00  0.00     0.167 HD
ATOM     65  C   UNL A   1      43.868  27.902  33.162  1.00  0.00     0.074 A 
ATOM     66  C   UNL A   1      44.848  26.997  32.596  1.00  0.00     0.031 C 
ATOM     67  C   UNL A   1      43.866  28.316  34.453  1.00  0.00     0.034 A 
BRANCH  54  68
ATOM     68  C   UNL A   1      39.462  32.369  35.942  1.00  0.00     0.023 A 
ATOM     69  C   UNL A   1      38.489  31.821  36.803  1.00  0.00     0.012 A 
ATOM     70  C   UNL A   1      39.942  33.672  36.176  1.00  0.00     0.148 A 
ATOM     71  C   UNL A   1      38.005  32.555  37.884  1.00  0.00     0.002 A 
ATOM     72  C   UNL A   1      39.473  34.389  37.272  1.00  0.00     0.091 A 
ATOM     73  F   UNL A   1      40.864  34.171  35.340  1.00  0.00    -0.205 F 
ATOM     74  C   UNL A   1      38.504  33.833  38.124  1.00  0.00     0.022 A 
BRANCH  72  75
ATOM     75  S   UNL A   1      40.084  36.021  37.707  1.00  0.00     0.127 S 
ATOM     76  O   UNL A   1      41.505  35.757  37.930  1.00  0.00    -0.237 OA
ATOM     77  O   UNL A   1      39.789  36.789  36.498  1.00  0.00    -0.237 OA
ATOM     78  O   UNL A   1      39.344  36.427  38.893  1.00  0.00    -0.744 OA
ENDBRANCH  72  75
ENDBRANCH  54  68
BRANCH  55  79
ATOM     79  C   UNL A   1      43.358  26.679  28.634  1.00  0.00     0.023 A 
ATOM     80  C   UNL A   1      42.749  25.421  28.465  1.00  0.00     0.012 A 
ATOM     81  C   UNL A   1      44.364  27.085  27.737  1.00  0.00     0.148 A 
ATOM     82  C   UNL A   1      43.140  24.578  27.423  1.00  0.00     0.002 A 
ATOM     83  C   UNL A   1      44.720  26.259  26.677  1.00  0.00     0.091 A 
ATOM     84  F   UNL A   1      44.931  28.286  27.923  1.00  0.00    -0.205 F 
ATOM     85  C   UNL A   1      44.116  25.001  26.524  1.00  0.00     0.022 A 
BRANCH  83  86
ATOM     86  S   UNL A   1      45.881  26.771  25.406  1.00  0.00     0.127 S 
ATOM     87  O   UNL A   1      45.943  25.579  24.563  1.00  0.00    -0.237 OA
ATOM     88  O   UNL A   1      45.191  27.914  24.808  1.00  0.00    -0.237 OA
ATOM     89  O   UNL A   1      47.109  27.113  26.111  1.00  0.00    -0.744 OA
ENDBRANCH  83  86
ENDBRANCH  55  79
BRANCH  67  90
ATOM     90  C   UNL A   1      44.963  27.809  35.342  1.00  0.00     0.023 A 
ATOM     91  C   UNL A   1      46.115  28.598  35.524  1.00  0.00     0.012 A 
ATOM     92  C   UNL A   1      44.796  26.628  36.089  1.00  0.00     0.148 A 
ATOM     93  C   UNL A   1      47.092  28.213  36.439  1.00  0.00     0.002 A 
ATOM     94  C   UNL A   1      45.758  26.269  37.023  1.00  0.00     0.091 A 
ATOM     95  F   UNL A   1      43.692  25.894  35.885  1.00  0.00    -0.205 F 
ATOM     96  C   UNL A   1      46.908  27.058  37.196  1.00  0.00     0.022 A 
BRANCH  94  97
ATOM     97  S   UNL A   1      45.575  24.844  38.099  1.00  0.00     0.127 S 
ATOM     98  O   UNL A   1      44.528  25.296  39.015  1.00  0.00    -0.237 OA
ATOM     99  O   UNL A   1      45.158  23.800  37.163  1.00  0.00    -0.237 OA
ATOM    100  O   UNL A   1      46.880  24.627  38.708  1.00  0.00    -0.744 OA
ENDBRANCH  94  97
ENDBRANCH  67  90
ENDBRANCH  41  42
ENDBRANCH  34  36
ENDBRANCH  33  34
ENDBRANCH  32  33
ENDBRANCH   1  32
TORSDOF 20
ENDMDL
