MODEL 1
REMARK VINA RESULT:     -10.2      0.000      0.000
REMARK SMILES O=C(OCCOC(=O)c1cc(/C=C/c2cc(O)cc(O)c2)ccc1O)c1ccc(-c2c3nc(c(-c4cccc(S(=O)(=O)[O-])c4F)c4ccc([nH]4)c(-c4cccc(S(=O)(=O)[O-])c4F)c4nc(c(-c5cccc(S(=O)(=O)[O-])c5F)c5ccc2[nH]5)C=C4)C=C3)cc1
REMARK SMILES IDX 4 1 3 2 2 3 1 4 26 5 27 6 88 7 28 8 87 9 29 10 30 11 31 12
REMARK SMILES IDX 81 13 32 14 86 15 80 16 82 17 33 18 85 19 79 20 78 21 34 23
REMARK SMILES IDX 66 24 46 25 65 26 47 27 50 28 64 29 83 30 48 31 49 32 63 34
REMARK SMILES IDX 84 35 51 36 35 37 36 38 44 39 37 40 39 41 45 42 38 43 40 44
REMARK SMILES IDX 41 45 42 46 43 47 67 48 68 49 76 50 69 51 71 52 77 53 70 54
REMARK SMILES IDX 72 55 73 56 74 57 75 58 52 59 53 60 61 61 54 62 56 63 62 64
REMARK SMILES IDX 55 65 57 66 58 67 59 68 60 69 5 70 6 71 7 72 8 73 9 74 10 75
REMARK SMILES IDX 24 76 11 77 23 78 22 79 25 80 12 82 13 83 14 84 15 85 21 86
REMARK SMILES IDX 16 87 19 88 18 89 17 90 20 92
REMARK H PARENT 82 22 50 33 25 81 17 91 20 93
REMARK Flexibility Score: inf
ROOT
ATOM      1  C   UNL A   1      33.026  34.565  28.529  1.00  0.00     0.275 C 
ENDROOT
BRANCH   1   2
ATOM      2  O   UNL A   1      33.893  33.749  27.726  1.00  0.00    -0.458 OA
BRANCH   2   3
ATOM      3  C   UNL A   1      33.953  32.400  27.622  1.00  0.00     0.338 C 
ATOM      4  O   UNL A   1      32.999  31.815  27.106  1.00  0.00    -0.246 OA
BRANCH   3   5
ATOM      5  C   UNL A   1      35.046  31.558  28.210  1.00  0.00     0.060 A 
ATOM      6  C   UNL A   1      35.020  30.180  28.441  1.00  0.00     0.016 A 
ATOM      7  C   UNL A   1      36.218  32.251  28.559  1.00  0.00     0.016 A 
ATOM      8  C   UNL A   1      36.139  29.500  28.939  1.00  0.00     0.010 A 
ATOM      9  C   UNL A   1      37.346  31.579  29.030  1.00  0.00     0.010 A 
ATOM     10  C   UNL A   1      37.306  30.197  29.238  1.00  0.00    -0.014 A 
BRANCH  10  11
ATOM     11  C   UNL A   1      38.426  29.546  29.950  1.00  0.00     0.031 A 
ATOM     12  C   UNL A   1      38.684  29.970  31.363  1.00  0.00     0.074 A 
ATOM     13  C   UNL A   1      39.228  28.654  29.341  1.00  0.00     0.049 A 
ATOM     14  N   UNL A   1      39.671  29.654  32.155  1.00  0.00    -0.248 NA
ATOM     15  C   UNL A   1      37.690  30.879  31.965  1.00  0.00     0.031 C 
ATOM     16  C   UNL A   1      39.038  28.128  27.993  1.00  0.00     0.029 A 
ATOM     17  N   UNL A   1      40.404  28.083  29.759  1.00  0.00    -0.354 N 
ATOM     18  C   UNL A   1      39.423  30.331  33.340  1.00  0.00     0.074 A 
ATOM     19  C   UNL A   1      38.229  31.121  33.147  1.00  0.00     0.031 C 
ATOM     20  C   UNL A   1      40.119  27.409  27.645  1.00  0.00     0.029 A 
ATOM     21  C   UNL A   1      41.067  27.418  28.754  1.00  0.00     0.049 A 
ATOM     22  H   UNL A   1      40.738  28.143  30.682  1.00  0.00     0.167 HD
ATOM     23  C   UNL A   1      40.106  30.266  34.504  1.00  0.00     0.034 A 
ATOM     24  C   UNL A   1      42.314  26.905  28.727  1.00  0.00     0.034 A 
ATOM     25  C   UNL A   1      41.287  29.473  34.679  1.00  0.00     0.049 A 
ATOM     26  C   UNL A   1      43.117  26.913  29.999  1.00  0.00     0.074 A 
ATOM     27  C   UNL A   1      42.034  29.274  35.823  1.00  0.00     0.029 A 
ATOM     28  N   UNL A   1      41.905  28.761  33.661  1.00  0.00    -0.354 N 
ATOM     29  N   UNL A   1      42.804  27.437  31.161  1.00  0.00    -0.248 NA
ATOM     30  C   UNL A   1      44.403  26.203  29.987  1.00  0.00     0.031 C 
ATOM     31  C   UNL A   1      43.125  28.464  35.487  1.00  0.00     0.029 A 
ATOM     32  C   UNL A   1      43.035  28.131  34.143  1.00  0.00     0.049 A 
ATOM     33  H   UNL A   1      41.584  28.711  32.731  1.00  0.00     0.167 HD
ATOM     34  C   UNL A   1      43.811  27.056  32.036  1.00  0.00     0.074 A 
ATOM     35  C   UNL A   1      44.762  26.281  31.264  1.00  0.00     0.031 C 
ATOM     36  C   UNL A   1      43.927  27.309  33.363  1.00  0.00     0.034 A 
BRANCH  23  37
ATOM     37  C   UNL A   1      39.558  31.064  35.654  1.00  0.00     0.023 A 
ATOM     38  C   UNL A   1      38.460  30.564  36.388  1.00  0.00     0.012 A 
ATOM     39  C   UNL A   1      40.084  32.329  35.970  1.00  0.00     0.148 A 
ATOM     40  C   UNL A   1      37.854  31.340  37.374  1.00  0.00     0.002 A 
ATOM     41  C   UNL A   1      39.502  33.076  36.987  1.00  0.00     0.091 A 
ATOM     42  F   UNL A   1      41.108  32.798  35.243  1.00  0.00    -0.205 F 
ATOM     43  C   UNL A   1      38.377  32.593  37.676  1.00  0.00     0.022 A 
BRANCH  41  44
ATOM     44  S   UNL A   1      40.146  34.674  37.490  1.00  0.00     0.127 S 
ATOM     45  O   UNL A   1      39.246  35.023  38.588  1.00  0.00    -0.237 OA
ATOM     46  O   UNL A   1      41.510  34.341  37.902  1.00  0.00    -0.237 OA
ATOM     47  O   UNL A   1      40.063  35.525  36.312  1.00  0.00    -0.744 OA
ENDBRANCH  41  44
ENDBRANCH  23  37
BRANCH  24  48
ATOM     48  C   UNL A   1      42.842  26.310  27.469  1.00  0.00     0.023 A 
ATOM     49  C   UNL A   1      43.633  27.084  26.600  1.00  0.00     0.012 A 
ATOM     50  C   UNL A   1      42.601  24.956  27.157  1.00  0.00     0.148 A 
ATOM     51  C   UNL A   1      44.155  26.530  25.430  1.00  0.00     0.002 A 
ATOM     52  C   UNL A   1      43.154  24.400  26.008  1.00  0.00     0.091 A 
ATOM     53  F   UNL A   1      41.857  24.234  28.005  1.00  0.00    -0.205 F 
ATOM     54  C   UNL A   1      43.922  25.188  25.136  1.00  0.00     0.022 A 
BRANCH  52  55
ATOM     55  S   UNL A   1      43.000  22.656  25.602  1.00  0.00     0.127 S 
ATOM     56  O   UNL A   1      43.425  22.636  24.205  1.00  0.00    -0.237 OA
ATOM     57  O   UNL A   1      43.941  22.053  26.545  1.00  0.00    -0.237 OA
ATOM     58  O   UNL A   1      41.604  22.318  25.840  1.00  0.00    -0.744 OA
ENDBRANCH  52  55
ENDBRANCH  24  48
BRANCH  36  59
ATOM     59  C   UNL A   1      45.072  26.679  34.106  1.00  0.00     0.023 A 
ATOM     60  C   UNL A   1      46.310  27.341  34.193  1.00  0.00     0.012 A 
ATOM     61  C   UNL A   1      44.854  25.500  34.847  1.00  0.00     0.148 A 
ATOM     62  C   UNL A   1      47.321  26.833  35.008  1.00  0.00     0.002 A 
ATOM     63  C   UNL A   1      45.845  25.031  35.697  1.00  0.00     0.091 A 
ATOM     64  F   UNL A   1      43.671  24.880  34.727  1.00  0.00    -0.205 F 
ATOM     65  C   UNL A   1      47.083  25.692  35.773  1.00  0.00     0.022 A 
BRANCH  63  66
ATOM     66  S   UNL A   1      45.584  23.641  36.804  1.00  0.00     0.127 S 
ATOM     67  O   UNL A   1      46.945  23.366  37.261  1.00  0.00    -0.237 OA
ATOM     68  O   UNL A   1      44.702  24.218  37.819  1.00  0.00    -0.237 OA
ATOM     69  O   UNL A   1      44.976  22.591  35.999  1.00  0.00    -0.744 OA
ENDBRANCH  63  66
ENDBRANCH  36  59
ENDBRANCH  10  11
ENDBRANCH   3   5
ENDBRANCH   2   3
ENDBRANCH   1   2
BRANCH   1  70
ATOM     70  C   UNL A   1      33.664  35.084  29.819  1.00  0.00     0.275 C 
BRANCH  70  71
ATOM     71  O   UNL A   1      34.144  34.037  30.674  1.00  0.00    -0.458 OA
BRANCH  71  72
ATOM     72  C   UNL A   1      34.075  34.295  32.010  1.00  0.00     0.342 C 
ATOM     73  O   UNL A   1      33.065  34.366  32.681  1.00  0.00    -0.246 OA
BRANCH  72  74
ATOM     74  C   UNL A   1      35.435  34.291  32.590  1.00  0.00     0.102 A 
ATOM     75  C   UNL A   1      36.512  34.439  31.697  1.00  0.00     0.027 A 
ATOM     76  C   UNL A   1      35.673  34.155  33.956  1.00  0.00     0.130 A 
ATOM     77  C   UNL A   1      37.826  34.548  32.173  1.00  0.00    -0.025 A 
ATOM     78  C   UNL A   1      36.983  34.179  34.431  1.00  0.00     0.048 A 
ATOM     79  C   UNL A   1      38.045  34.401  33.550  1.00  0.00     0.012 A 
BRANCH  76  80
ATOM     80  O   UNL A   1      34.640  33.992  34.835  1.00  0.00    -0.507 OA
ATOM     81  H   UNL A   1      33.858  34.500  34.739  1.00  0.00     0.293 HD
ENDBRANCH  76  80
BRANCH  77  82
ATOM     82  C   UNL A   1      38.992  34.829  31.313  1.00  0.00     0.009 C 
ATOM     83  C   UNL A   1      39.789  33.921  30.725  1.00  0.00     0.009 C 
BRANCH  83  84
ATOM     84  C   UNL A   1      40.937  34.272  29.871  1.00  0.00    -0.018 A 
ATOM     85  C   UNL A   1      42.167  33.606  29.985  1.00  0.00     0.054 A 
ATOM     86  C   UNL A   1      40.778  35.237  28.865  1.00  0.00     0.054 A 
ATOM     87  C   UNL A   1      43.209  33.909  29.109  1.00  0.00     0.119 A 
ATOM     88  C   UNL A   1      41.835  35.522  27.999  1.00  0.00     0.119 A 
ATOM     89  C   UNL A   1      43.050  34.857  28.110  1.00  0.00     0.092 A 
BRANCH  87  90
ATOM     90  O   UNL A   1      44.413  33.271  29.204  1.00  0.00    -0.508 OA
ATOM     91  H   UNL A   1      44.449  32.334  29.190  1.00  0.00     0.293 HD
ENDBRANCH  87  90
BRANCH  88  92
ATOM     92  O   UNL A   1      41.709  36.455  27.011  1.00  0.00    -0.508 OA
ATOM     93  H   UNL A   1      41.132  37.186  27.127  1.00  0.00     0.293 HD
ENDBRANCH  88  92
ENDBRANCH  83  84
ENDBRANCH  77  82
ENDBRANCH  72  74
ENDBRANCH  71  72
ENDBRANCH  70  71
ENDBRANCH   1  70
TORSDOF 19
ENDMDL
MODEL 2
REMARK VINA RESULT:     -10.2      2.833      4.801
REMARK SMILES O=C(OCCOC(=O)c1cc(/C=C/c2cc(O)cc(O)c2)ccc1O)c1ccc(-c2c3nc(c(-c4cccc(S(=O)(=O)[O-])c4F)c4ccc([nH]4)c(-c4cccc(S(=O)(=O)[O-])c4F)c4nc(c(-c5cccc(S(=O)(=O)[O-])c5F)c5ccc2[nH]5)C=C4)C=C3)cc1
REMARK SMILES IDX 4 1 3 2 2 3 1 4 26 5 27 6 88 7 28 8 87 9 29 10 30 11 31 12
REMARK SMILES IDX 81 13 32 14 86 15 80 16 82 17 33 18 85 19 79 20 78 21 34 23
REMARK SMILES IDX 66 24 46 25 65 26 47 27 50 28 64 29 83 30 48 31 49 32 63 34
REMARK SMILES IDX 84 35 51 36 35 37 36 38 44 39 37 40 39 41 45 42 38 43 40 44
REMARK SMILES IDX 41 45 42 46 43 47 67 48 68 49 76 50 69 51 71 52 77 53 70 54
REMARK SMILES IDX 72 55 73 56 74 57 75 58 52 59 53 60 61 61 54 62 56 63 62 64
REMARK SMILES IDX 55 65 57 66 58 67 59 68 60 69 5 70 6 71 7 72 8 73 9 74 10 75
REMARK SMILES IDX 24 76 11 77 23 78 22 79 25 80 12 82 13 83 14 84 15 85 21 86
REMARK SMILES IDX 16 87 19 88 18 89 17 90 20 92
REMARK H PARENT 82 22 50 33 25 81 17 91 20 93
REMARK Flexibility Score: inf
ROOT
ATOM      1  C   UNL A   1      33.188  37.212  30.152  1.00  0.00     0.275 C 
ENDROOT
BRANCH   1   2
ATOM      2  O   UNL A   1      32.640  36.840  31.426  1.00  0.00    -0.458 OA
BRANCH   2   3
ATOM      3  C   UNL A   1      32.694  35.652  32.073  1.00  0.00     0.338 C 
ATOM      4  O   UNL A   1      31.631  35.130  32.414  1.00  0.00    -0.246 OA
BRANCH   3   5
ATOM      5  C   UNL A   1      33.965  34.991  32.517  1.00  0.00     0.060 A 
ATOM      6  C   UNL A   1      35.272  35.406  32.245  1.00  0.00     0.016 A 
ATOM      7  C   UNL A   1      33.802  33.830  33.292  1.00  0.00     0.016 A 
ATOM      8  C   UNL A   1      36.378  34.731  32.777  1.00  0.00     0.010 A 
ATOM      9  C   UNL A   1      34.896  33.168  33.848  1.00  0.00     0.010 A 
ATOM     10  C   UNL A   1      36.196  33.609  33.579  1.00  0.00    -0.014 A 
BRANCH  10  11
ATOM     11  C   UNL A   1      37.338  32.762  33.985  1.00  0.00     0.031 A 
ATOM     12  C   UNL A   1      38.176  33.237  35.131  1.00  0.00     0.074 A 
ATOM     13  C   UNL A   1      37.659  31.641  33.314  1.00  0.00     0.049 A 
ATOM     14  N   UNL A   1      39.296  32.754  35.594  1.00  0.00    -0.248 NA
ATOM     15  C   UNL A   1      37.681  34.423  35.855  1.00  0.00     0.031 C 
ATOM     16  C   UNL A   1      36.885  31.057  32.223  1.00  0.00     0.029 A 
ATOM     17  N   UNL A   1      38.761  30.829  33.413  1.00  0.00    -0.354 N 
ATOM     18  C   UNL A   1      39.644  33.581  36.652  1.00  0.00     0.074 A 
ATOM     19  C   UNL A   1      38.652  34.629  36.728  1.00  0.00     0.031 C 
ATOM     20  C   UNL A   1      37.591  30.055  31.671  1.00  0.00     0.029 A 
ATOM     21  C   UNL A   1      38.859  29.924  32.381  1.00  0.00     0.049 A 
ATOM     22  H   UNL A   1      39.414  30.888  34.146  1.00  0.00     0.167 HD
ATOM     23  C   UNL A   1      40.675  33.452  37.515  1.00  0.00     0.034 A 
ATOM     24  C   UNL A   1      39.874  29.108  32.035  1.00  0.00     0.034 A 
ATOM     25  C   UNL A   1      41.647  32.403  37.427  1.00  0.00     0.049 A 
ATOM     26  C   UNL A   1      41.070  29.030  32.945  1.00  0.00     0.074 A 
ATOM     27  C   UNL A   1      42.702  32.127  38.274  1.00  0.00     0.029 A 
ATOM     28  N   UNL A   1      41.689  31.463  36.407  1.00  0.00    -0.354 N 
ATOM     29  N   UNL A   1      41.319  29.723  34.030  1.00  0.00    -0.248 NA
ATOM     30  C   UNL A   1      42.086  28.016  32.634  1.00  0.00     0.031 C 
ATOM     31  C   UNL A   1      43.402  31.037  37.746  1.00  0.00     0.029 A 
ATOM     32  C   UNL A   1      42.761  30.613  36.591  1.00  0.00     0.049 A 
ATOM     33  H   UNL A   1      41.048  31.410  35.661  1.00  0.00     0.167 HD
ATOM     34  C   UNL A   1      42.474  29.181  34.575  1.00  0.00     0.074 A 
ATOM     35  C   UNL A   1      42.894  28.119  33.683  1.00  0.00     0.031 C 
ATOM     36  C   UNL A   1      43.116  29.520  35.720  1.00  0.00     0.034 A 
BRANCH  23  37
ATOM     37  C   UNL A   1      40.762  34.469  38.619  1.00  0.00     0.023 A 
ATOM     38  C   UNL A   1      41.691  35.528  38.519  1.00  0.00     0.012 A 
ATOM     39  C   UNL A   1      39.974  34.346  39.776  1.00  0.00     0.148 A 
ATOM     40  C   UNL A   1      41.880  36.409  39.582  1.00  0.00     0.002 A 
ATOM     41  C   UNL A   1      40.136  35.257  40.813  1.00  0.00     0.091 A 
ATOM     42  F   UNL A   1      39.118  33.317  39.864  1.00  0.00    -0.205 F 
ATOM     43  C   UNL A   1      41.100  36.276  40.727  1.00  0.00     0.022 A 
BRANCH  41  44
ATOM     44  S   UNL A   1      39.132  35.204  42.300  1.00  0.00     0.127 S 
ATOM     45  O   UNL A   1      39.822  34.182  43.085  1.00  0.00    -0.237 OA
ATOM     46  O   UNL A   1      39.272  36.566  42.815  1.00  0.00    -0.237 OA
ATOM     47  O   UNL A   1      37.788  34.861  41.860  1.00  0.00    -0.744 OA
ENDBRANCH  41  44
ENDBRANCH  23  37
BRANCH  24  48
ATOM     48  C   UNL A   1      39.772  28.282  30.801  1.00  0.00     0.023 A 
ATOM     49  C   UNL A   1      39.028  27.088  30.812  1.00  0.00     0.012 A 
ATOM     50  C   UNL A   1      40.373  28.707  29.598  1.00  0.00     0.148 A 
ATOM     51  C   UNL A   1      38.904  26.316  29.654  1.00  0.00     0.002 A 
ATOM     52  C   UNL A   1      40.214  27.953  28.440  1.00  0.00     0.091 A 
ATOM     53  F   UNL A   1      41.064  29.854  29.607  1.00  0.00    -0.205 F 
ATOM     54  C   UNL A   1      39.491  26.751  28.468  1.00  0.00     0.022 A 
BRANCH  52  55
ATOM     55  S   UNL A   1      40.840  28.485  26.842  1.00  0.00     0.127 S 
ATOM     56  O   UNL A   1      40.930  27.220  26.118  1.00  0.00    -0.237 OA
ATOM     57  O   UNL A   1      39.774  29.382  26.394  1.00  0.00    -0.237 OA
ATOM     58  O   UNL A   1      42.110  29.145  27.116  1.00  0.00    -0.744 OA
ENDBRANCH  52  55
ENDBRANCH  24  48
BRANCH  36  59
ATOM     59  C   UNL A   1      44.296  28.689  36.142  1.00  0.00     0.023 A 
ATOM     60  C   UNL A   1      45.598  29.068  35.766  1.00  0.00     0.012 A 
ATOM     61  C   UNL A   1      44.109  27.623  37.043  1.00  0.00     0.148 A 
ATOM     62  C   UNL A   1      46.701  28.390  36.282  1.00  0.00     0.002 A 
ATOM     63  C   UNL A   1      45.212  26.988  37.594  1.00  0.00     0.091 A 
ATOM     64  F   UNL A   1      42.856  27.272  37.365  1.00  0.00    -0.205 F 
ATOM     65  C   UNL A   1      46.510  27.365  37.208  1.00  0.00     0.022 A 
BRANCH  63  66
ATOM     66  S   UNL A   1      45.064  25.743  38.878  1.00  0.00     0.127 S 
ATOM     67  O   UNL A   1      44.486  24.621  38.139  1.00  0.00    -0.237 OA
ATOM     68  O   UNL A   1      46.455  25.554  39.287  1.00  0.00    -0.237 OA
ATOM     69  O   UNL A   1      44.203  26.318  39.903  1.00  0.00    -0.744 OA
ENDBRANCH  63  66
ENDBRANCH  36  59
ENDBRANCH  10  11
ENDBRANCH   3   5
ENDBRANCH   2   3
ENDBRANCH   1   2
BRANCH   1  70
ATOM     70  C   UNL A   1      32.846  36.249  29.013  1.00  0.00     0.275 C 
BRANCH  70  71
ATOM     71  O   UNL A   1      33.947  35.416  28.626  1.00  0.00    -0.458 OA
BRANCH  71  72
ATOM     72  C   UNL A   1      33.621  34.142  28.268  1.00  0.00     0.342 C 
ATOM     73  O   UNL A   1      32.559  33.771  27.809  1.00  0.00    -0.246 OA
BRANCH  72  74
ATOM     74  C   UNL A   1      34.820  33.282  28.334  1.00  0.00     0.102 A 
ATOM     75  C   UNL A   1      35.977  33.840  28.907  1.00  0.00     0.027 A 
ATOM     76  C   UNL A   1      34.836  31.970  27.866  1.00  0.00     0.130 A 
ATOM     77  C   UNL A   1      37.127  33.061  29.102  1.00  0.00    -0.025 A 
ATOM     78  C   UNL A   1      35.999  31.212  27.981  1.00  0.00     0.048 A 
ATOM     79  C   UNL A   1      37.124  31.745  28.617  1.00  0.00     0.012 A 
BRANCH  76  80
ATOM     80  O   UNL A   1      33.726  31.417  27.292  1.00  0.00    -0.507 OA
ATOM     81  H   UNL A   1      33.400  30.593  27.597  1.00  0.00     0.293 HD
ENDBRANCH  76  80
BRANCH  77  82
ATOM     82  C   UNL A   1      38.333  33.536  29.806  1.00  0.00     0.009 C 
ATOM     83  C   UNL A   1      39.424  32.809  30.104  1.00  0.00     0.009 C 
BRANCH  83  84
ATOM     84  C   UNL A   1      40.600  33.350  30.806  1.00  0.00    -0.018 A 
ATOM     85  C   UNL A   1      40.786  33.155  32.183  1.00  0.00     0.054 A 
ATOM     86  C   UNL A   1      41.600  34.006  30.073  1.00  0.00     0.054 A 
ATOM     87  C   UNL A   1      41.948  33.613  32.804  1.00  0.00     0.119 A 
ATOM     88  C   UNL A   1      42.756  34.455  30.715  1.00  0.00     0.119 A 
ATOM     89  C   UNL A   1      42.940  34.254  32.077  1.00  0.00     0.092 A 
BRANCH  87  90
ATOM     90  O   UNL A   1      42.147  33.431  34.143  1.00  0.00    -0.508 OA
ATOM     91  H   UNL A   1      41.706  32.736  34.591  1.00  0.00     0.293 HD
ENDBRANCH  87  90
BRANCH  88  92
ATOM     92  O   UNL A   1      43.745  35.095  30.027  1.00  0.00    -0.508 OA
ATOM     93  H   UNL A   1      43.928  35.998  30.201  1.00  0.00     0.293 HD
ENDBRANCH  88  92
ENDBRANCH  83  84
ENDBRANCH  77  82
ENDBRANCH  72  74
ENDBRANCH  71  72
ENDBRANCH  70  71
ENDBRANCH   1  70
TORSDOF 19
ENDMDL
MODEL 3
REMARK VINA RESULT:     -10.2      4.825     12.073
REMARK SMILES O=C(OCCOC(=O)c1cc(/C=C/c2cc(O)cc(O)c2)ccc1O)c1ccc(-c2c3nc(c(-c4cccc(S(=O)(=O)[O-])c4F)c4ccc([nH]4)c(-c4cccc(S(=O)(=O)[O-])c4F)c4nc(c(-c5cccc(S(=O)(=O)[O-])c5F)c5ccc2[nH]5)C=C4)C=C3)cc1
REMARK SMILES IDX 4 1 3 2 2 3 1 4 26 5 27 6 88 7 28 8 87 9 29 10 30 11 31 12
REMARK SMILES IDX 81 13 32 14 86 15 80 16 82 17 33 18 85 19 79 20 78 21 34 23
REMARK SMILES IDX 66 24 46 25 65 26 47 27 50 28 64 29 83 30 48 31 49 32 63 34
REMARK SMILES IDX 84 35 51 36 35 37 36 38 44 39 37 40 39 41 45 42 38 43 40 44
REMARK SMILES IDX 41 45 42 46 43 47 67 48 68 49 76 50 69 51 71 52 77 53 70 54
REMARK SMILES IDX 72 55 73 56 74 57 75 58 52 59 53 60 61 61 54 62 56 63 62 64
REMARK SMILES IDX 55 65 57 66 58 67 59 68 60 69 5 70 6 71 7 72 8 73 9 74 10 75
REMARK SMILES IDX 24 76 11 77 23 78 22 79 25 80 12 82 13 83 14 84 15 85 21 86
REMARK SMILES IDX 16 87 19 88 18 89 17 90 20 92
REMARK H PARENT 82 22 50 33 25 81 17 91 20 93
REMARK Flexibility Score: inf
ROOT
ATOM      1  C   UNL A   1      41.451  20.376  27.378  1.00  0.00     0.275 C 
ENDROOT
BRANCH   1   2
ATOM      2  O   UNL A   1      40.403  21.299  27.714  1.00  0.00    -0.458 OA
BRANCH   2   3
ATOM      3  C   UNL A   1      39.885  22.316  26.986  1.00  0.00     0.338 C 
ATOM      4  O   UNL A   1      39.348  22.044  25.910  1.00  0.00    -0.246 OA
BRANCH   3   5
ATOM      5  C   UNL A   1      40.034  23.766  27.338  1.00  0.00     0.060 A 
ATOM      6  C   UNL A   1      39.314  24.843  26.812  1.00  0.00     0.016 A 
ATOM      7  C   UNL A   1      41.010  24.053  28.309  1.00  0.00     0.016 A 
ATOM      8  C   UNL A   1      39.508  26.149  27.277  1.00  0.00     0.010 A 
ATOM      9  C   UNL A   1      41.191  25.346  28.797  1.00  0.00     0.010 A 
ATOM     10  C   UNL A   1      40.448  26.408  28.270  1.00  0.00    -0.014 A 
BRANCH  10  11
ATOM     11  C   UNL A   1      40.818  27.792  28.635  1.00  0.00     0.031 A 
ATOM     12  C   UNL A   1      42.271  28.086  28.845  1.00  0.00     0.074 A 
ATOM     13  C   UNL A   1      39.886  28.742  28.836  1.00  0.00     0.049 A 
ATOM     14  N   UNL A   1      42.839  29.171  29.292  1.00  0.00    -0.248 NA
ATOM     15  C   UNL A   1      43.212  27.003  28.505  1.00  0.00     0.031 C 
ATOM     16  C   UNL A   1      38.453  28.584  28.606  1.00  0.00     0.029 A 
ATOM     17  N   UNL A   1      40.004  30.011  29.343  1.00  0.00    -0.354 N 
ATOM     18  C   UNL A   1      44.200  28.899  29.297  1.00  0.00     0.074 A 
ATOM     19  C   UNL A   1      44.370  27.530  28.866  1.00  0.00     0.031 C 
ATOM     20  C   UNL A   1      37.810  29.663  29.083  1.00  0.00     0.029 A 
ATOM     21  C   UNL A   1      38.791  30.589  29.639  1.00  0.00     0.049 A 
ATOM     22  H   UNL A   1      40.868  30.462  29.481  1.00  0.00     0.167 HD
ATOM     23  C   UNL A   1      45.222  29.731  29.591  1.00  0.00     0.034 A 
ATOM     24  C   UNL A   1      38.510  31.722  30.314  1.00  0.00     0.034 A 
ATOM     25  C   UNL A   1      45.036  31.088  30.011  1.00  0.00     0.049 A 
ATOM     26  C   UNL A   1      39.653  32.609  30.727  1.00  0.00     0.074 A 
ATOM     27  C   UNL A   1      45.989  32.050  30.279  1.00  0.00     0.029 A 
ATOM     28  N   UNL A   1      43.797  31.667  30.246  1.00  0.00    -0.354 N 
ATOM     29  N   UNL A   1      40.941  32.400  30.594  1.00  0.00    -0.248 NA
ATOM     30  C   UNL A   1      39.314  33.913  31.312  1.00  0.00     0.031 C 
ATOM     31  C   UNL A   1      45.324  33.204  30.708  1.00  0.00     0.029 A 
ATOM     32  C   UNL A   1      43.957  32.971  30.672  1.00  0.00     0.049 A 
ATOM     33  H   UNL A   1      42.930  31.215  30.127  1.00  0.00     0.167 HD
ATOM     34  C   UNL A   1      41.564  33.570  31.003  1.00  0.00     0.074 A 
ATOM     35  C   UNL A   1      40.512  34.477  31.418  1.00  0.00     0.031 C 
ATOM     36  C   UNL A   1      42.886  33.873  31.014  1.00  0.00     0.034 A 
BRANCH  23  37
ATOM     37  C   UNL A   1      46.611  29.174  29.439  1.00  0.00     0.023 A 
ATOM     38  C   UNL A   1      47.198  28.465  30.509  1.00  0.00     0.012 A 
ATOM     39  C   UNL A   1      47.355  29.402  28.267  1.00  0.00     0.148 A 
ATOM     40  C   UNL A   1      48.526  28.049  30.440  1.00  0.00     0.002 A 
ATOM     41  C   UNL A   1      48.664  28.942  28.190  1.00  0.00     0.091 A 
ATOM     42  F   UNL A   1      46.789  30.102  27.274  1.00  0.00    -0.205 F 
ATOM     43  C   UNL A   1      49.258  28.284  29.280  1.00  0.00     0.022 A 
BRANCH  41  44
ATOM     44  S   UNL A   1      49.663  29.142  26.712  1.00  0.00     0.127 S 
ATOM     45  O   UNL A   1      49.776  30.597  26.627  1.00  0.00    -0.237 OA
ATOM     46  O   UNL A   1      50.900  28.455  27.081  1.00  0.00    -0.237 OA
ATOM     47  O   UNL A   1      48.916  28.504  25.638  1.00  0.00    -0.744 OA
ENDBRANCH  41  44
ENDBRANCH  23  37
BRANCH  24  48
ATOM     48  C   UNL A   1      37.094  32.086  30.590  1.00  0.00     0.023 A 
ATOM     49  C   UNL A   1      36.531  31.823  31.852  1.00  0.00     0.012 A 
ATOM     50  C   UNL A   1      36.315  32.741  29.614  1.00  0.00     0.148 A 
ATOM     51  C   UNL A   1      35.211  32.183  32.132  1.00  0.00     0.002 A 
ATOM     52  C   UNL A   1      35.013  33.130  29.911  1.00  0.00     0.091 A 
ATOM     53  F   UNL A   1      36.876  32.995  28.423  1.00  0.00    -0.205 F 
ATOM     54  C   UNL A   1      34.455  32.841  31.165  1.00  0.00     0.022 A 
BRANCH  52  55
ATOM     55  S   UNL A   1      33.999  34.078  28.770  1.00  0.00     0.127 S 
ATOM     56  O   UNL A   1      33.591  33.054  27.811  1.00  0.00    -0.237 OA
ATOM     57  O   UNL A   1      32.936  34.558  29.653  1.00  0.00    -0.237 OA
ATOM     58  O   UNL A   1      34.867  35.122  28.244  1.00  0.00    -0.744 OA
ENDBRANCH  52  55
ENDBRANCH  24  48
BRANCH  36  59
ATOM     59  C   UNL A   1      43.288  35.267  31.405  1.00  0.00     0.023 A 
ATOM     60  C   UNL A   1      43.636  35.556  32.738  1.00  0.00     0.012 A 
ATOM     61  C   UNL A   1      43.469  36.244  30.406  1.00  0.00     0.148 A 
ATOM     62  C   UNL A   1      44.157  36.806  33.070  1.00  0.00     0.002 A 
ATOM     63  C   UNL A   1      44.038  37.466  30.735  1.00  0.00     0.091 A 
ATOM     64  F   UNL A   1      43.109  35.946  29.150  1.00  0.00    -0.205 F 
ATOM     65  C   UNL A   1      44.375  37.752  32.069  1.00  0.00     0.022 A 
BRANCH  63  66
ATOM     66  S   UNL A   1      44.462  38.694  29.497  1.00  0.00     0.127 S 
ATOM     67  O   UNL A   1      43.142  39.101  29.017  1.00  0.00    -0.237 OA
ATOM     68  O   UNL A   1      45.162  39.703  30.291  1.00  0.00    -0.237 OA
ATOM     69  O   UNL A   1      45.295  38.009  28.516  1.00  0.00    -0.744 OA
ENDBRANCH  63  66
ENDBRANCH  36  59
ENDBRANCH  10  11
ENDBRANCH   3   5
ENDBRANCH   2   3
ENDBRANCH   1   2
BRANCH   1  70
ATOM     70  C   UNL A   1      41.071  19.355  26.304  1.00  0.00     0.275 C 
BRANCH  70  71
ATOM     71  O   UNL A   1      42.123  19.106  25.362  1.00  0.00    -0.458 OA
BRANCH  71  72
ATOM     72  C   UNL A   1      43.290  18.647  25.896  1.00  0.00     0.342 C 
ATOM     73  O   UNL A   1      43.440  17.618  26.524  1.00  0.00    -0.246 OA
BRANCH  72  74
ATOM     74  C   UNL A   1      44.414  19.489  25.437  1.00  0.00     0.102 A 
ATOM     75  C   UNL A   1      44.160  20.863  25.274  1.00  0.00     0.027 A 
ATOM     76  C   UNL A   1      45.684  18.978  25.176  1.00  0.00     0.130 A 
ATOM     77  C   UNL A   1      45.195  21.748  24.941  1.00  0.00    -0.025 A 
ATOM     78  C   UNL A   1      46.700  19.838  24.765  1.00  0.00     0.048 A 
ATOM     79  C   UNL A   1      46.463  21.213  24.675  1.00  0.00     0.012 A 
BRANCH  76  80
ATOM     80  O   UNL A   1      45.944  17.644  25.312  1.00  0.00    -0.507 OA
ATOM     81  H   UNL A   1      46.002  17.097  24.553  1.00  0.00     0.293 HD
ENDBRANCH  76  80
BRANCH  77  82
ATOM     82  C   UNL A   1      45.035  23.213  24.875  1.00  0.00     0.009 C 
ATOM     83  C   UNL A   1      43.962  23.919  25.273  1.00  0.00     0.009 C 
BRANCH  83  84
ATOM     84  C   UNL A   1      43.870  25.387  25.183  1.00  0.00    -0.018 A 
ATOM     85  C   UNL A   1      42.632  26.048  25.200  1.00  0.00     0.054 A 
ATOM     86  C   UNL A   1      45.046  26.151  25.162  1.00  0.00     0.054 A 
ATOM     87  C   UNL A   1      42.582  27.441  25.193  1.00  0.00     0.119 A 
ATOM     88  C   UNL A   1      44.973  27.545  25.156  1.00  0.00     0.119 A 
ATOM     89  C   UNL A   1      43.745  28.197  25.179  1.00  0.00     0.092 A 
BRANCH  87  90
ATOM     90  O   UNL A   1      41.387  28.101  25.210  1.00  0.00    -0.508 OA
ATOM     91  H   UNL A   1      41.157  28.634  25.946  1.00  0.00     0.293 HD
ENDBRANCH  87  90
BRANCH  88  92
ATOM     92  O   UNL A   1      46.100  28.314  25.136  1.00  0.00    -0.508 OA
ATOM     93  H   UNL A   1      46.898  27.967  24.787  1.00  0.00     0.293 HD
ENDBRANCH  88  92
ENDBRANCH  83  84
ENDBRANCH  77  82
ENDBRANCH  72  74
ENDBRANCH  71  72
ENDBRANCH  70  71
ENDBRANCH   1  70
TORSDOF 19
ENDMDL
