MODEL 1
REMARK VINA RESULT:     -11.8      0.000      0.000
REMARK SMILES NC(=O)C1CC[NH+](Cc2ccc(C(=O)OCCOC(=O)c3ccc(-c4c5nc(c(-c6cccc(S(=O)(=O)[O-])c6F)c6ccc([nH]6)c(-c6cccc(S(=O)(=O)[O-])c6F)c6nc(c(-c7cccc(S(=O)(=O)[O-])c7F)c7ccc4[nH]7)C=C6)C=C5)cc3)cc2)CC1
REMARK SMILES IDX 16 1 15 2 13 3 14 4 12 5 9 6 10 7 85 8 11 9 84 10 8 11 7 12
REMARK SMILES IDX 4 13 5 14 87 15 6 16 86 17 2 19 1 20 3 23 17 24 18 25 19 26
REMARK SMILES IDX 20 27 21 28 22 29 83 30 23 31 82 32 24 33 25 34 26 35 76 36
REMARK SMILES IDX 27 37 81 38 75 39 77 40 28 41 80 42 74 43 73 44 29 46 61 47
REMARK SMILES IDX 41 48 60 49 42 50 45 51 59 52 78 53 43 54 44 55 58 57 79 58
REMARK SMILES IDX 46 59 30 60 31 61 39 62 32 63 34 64 40 65 33 66 35 67 36 68
REMARK SMILES IDX 37 69 38 70 62 71 63 72 71 73 64 74 66 75 72 76 65 77 67 78
REMARK SMILES IDX 68 79 69 80 70 81 47 82 48 83 56 84 49 85 51 86 57 87 50 88
REMARK SMILES IDX 52 89 53 90 54 91 55 92
REMARK H PARENT 7 18 1 21 1 22 77 45 45 56
REMARK Flexibility Score: inf
ROOT
ATOM      1  C   UNL A   1      31.362  29.720  24.467  1.00  0.00     0.275 C 
ENDROOT
BRANCH   1   2
ATOM      2  O   UNL A   1      30.052  29.746  23.870  1.00  0.00    -0.458 OA
BRANCH   2   3
ATOM      3  C   UNL A   1      29.951  29.139  22.661  1.00  0.00     0.338 C 
ATOM      4  O   UNL A   1      29.777  29.689  21.589  1.00  0.00    -0.246 OA
BRANCH   3   5
ATOM      5  C   UNL A   1      30.143  27.673  22.778  1.00  0.00     0.060 A 
ATOM      6  C   UNL A   1      30.640  24.977  23.353  1.00  0.00     0.006 A 
ATOM      7  C   UNL A   1      29.542  25.623  23.930  1.00  0.00     0.010 A 
ATOM      8  C   UNL A   1      31.387  25.646  22.368  1.00  0.00     0.010 A 
ATOM      9  C   UNL A   1      29.333  26.975  23.685  1.00  0.00     0.016 A 
ATOM     10  C   UNL A   1      31.142  26.992  22.081  1.00  0.00     0.016 A 
BRANCH   6  11
ATOM     11  C   UNL A   1      31.132  23.668  23.953  1.00  0.00     0.299 C 
BRANCH  11  12
ATOM     12  N   UNL A   1      31.952  23.829  25.186  1.00  0.00    -0.331 N 
ATOM     13  C   UNL A   1      34.198  23.031  26.928  1.00  0.00     0.089 C 
ATOM     14  C   UNL A   1      32.736  22.766  27.312  1.00  0.00     0.075 C 
ATOM     15  C   UNL A   1      34.225  24.328  26.118  1.00  0.00     0.075 C 
ATOM     16  C   UNL A   1      31.867  22.649  26.058  1.00  0.00     0.263 C 
ATOM     17  C   UNL A   1      33.332  24.232  24.881  1.00  0.00     0.263 C 
ATOM     18  H   UNL A   1      31.551  24.601  25.720  1.00  0.00     0.348 HD
BRANCH  13  19
ATOM     19  C   UNL A   1      34.789  21.791  26.241  1.00  0.00     0.220 C 
ATOM     20  N   UNL A   1      36.139  21.714  26.101  1.00  0.00    -0.369 N 
ATOM     21  H   UNL A   1      36.545  20.930  25.664  1.00  0.00     0.159 HD
ATOM     22  H   UNL A   1      36.710  22.442  26.436  1.00  0.00     0.159 HD
ATOM     23  O   UNL A   1      34.096  20.841  25.879  1.00  0.00    -0.275 OA
ENDBRANCH  13  19
ENDBRANCH  11  12
ENDBRANCH   6  11
ENDBRANCH   3   5
ENDBRANCH   2   3
ENDBRANCH   1   2
BRANCH   1  24
ATOM     24  C   UNL A   1      31.373  30.507  25.776  1.00  0.00     0.275 C 
BRANCH  24  25
ATOM     25  O   UNL A   1      32.613  30.303  26.481  1.00  0.00    -0.458 OA
BRANCH  25  26
ATOM     26  C   UNL A   1      33.131  31.407  27.066  1.00  0.00     0.338 C 
ATOM     27  O   UNL A   1      32.574  32.476  27.256  1.00  0.00    -0.246 OA
BRANCH  26  28
ATOM     28  C   UNL A   1      34.493  31.133  27.548  1.00  0.00     0.060 A 
ATOM     29  C   UNL A   1      34.827  29.820  27.857  1.00  0.00     0.016 A 
ATOM     30  C   UNL A   1      35.368  32.166  27.866  1.00  0.00     0.016 A 
ATOM     31  C   UNL A   1      35.973  29.536  28.591  1.00  0.00     0.010 A 
ATOM     32  C   UNL A   1      36.582  31.866  28.499  1.00  0.00     0.010 A 
ATOM     33  C   UNL A   1      36.881  30.552  28.912  1.00  0.00    -0.014 A 
BRANCH  33  34
ATOM     34  C   UNL A   1      38.122  30.243  29.686  1.00  0.00     0.031 A 
ATOM     35  C   UNL A   1      39.179  29.334  29.105  1.00  0.00     0.074 A 
ATOM     36  C   UNL A   1      38.301  30.760  30.921  1.00  0.00     0.049 A 
ATOM     37  N   UNL A   1      40.231  28.812  29.687  1.00  0.00    -0.248 NA
ATOM     38  C   UNL A   1      39.030  28.945  27.693  1.00  0.00     0.031 C 
ATOM     39  C   UNL A   1      37.375  31.665  31.607  1.00  0.00     0.029 A 
ATOM     40  N   UNL A   1      39.318  30.588  31.831  1.00  0.00    -0.354 N 
ATOM     41  C   UNL A   1      40.809  27.964  28.747  1.00  0.00     0.074 A 
ATOM     42  C   UNL A   1      40.007  28.060  27.547  1.00  0.00     0.031 C 
ATOM     43  C   UNL A   1      37.870  31.983  32.811  1.00  0.00     0.029 A 
ATOM     44  C   UNL A   1      39.099  31.232  33.029  1.00  0.00     0.049 A 
ATOM     45  H   UNL A   1      40.124  30.054  31.645  1.00  0.00     0.167 HD
ATOM     46  C   UNL A   1      41.906  27.180  28.874  1.00  0.00     0.034 A 
ATOM     47  C   UNL A   1      39.774  31.187  34.195  1.00  0.00     0.034 A 
ATOM     48  C   UNL A   1      42.752  27.155  30.038  1.00  0.00     0.049 A 
ATOM     49  C   UNL A   1      40.993  30.312  34.298  1.00  0.00     0.074 A 
ATOM     50  C   UNL A   1      43.930  26.453  30.225  1.00  0.00     0.029 A 
ATOM     51  N   UNL A   1      42.515  27.858  31.207  1.00  0.00    -0.354 N 
ATOM     52  N   UNL A   1      41.562  29.578  33.374  1.00  0.00    -0.248 NA
ATOM     53  C   UNL A   1      41.668  30.267  35.604  1.00  0.00     0.031 C 
ATOM     54  C   UNL A   1      44.388  26.706  31.522  1.00  0.00     0.029 A 
ATOM     55  C   UNL A   1      43.515  27.594  32.128  1.00  0.00     0.049 A 
ATOM     56  H   UNL A   1      41.748  28.456  31.362  1.00  0.00     0.167 HD
ATOM     57  C   UNL A   1      42.680  29.013  33.976  1.00  0.00     0.074 A 
ATOM     58  C   UNL A   1      42.721  29.509  35.335  1.00  0.00     0.031 C 
ATOM     59  C   UNL A   1      43.581  28.144  33.456  1.00  0.00     0.034 A 
BRANCH  46  60
ATOM     60  C   UNL A   1      42.278  26.275  27.727  1.00  0.00     0.023 A 
ATOM     61  C   UNL A   1      43.225  26.690  26.770  1.00  0.00     0.012 A 
ATOM     62  C   UNL A   1      41.759  24.964  27.663  1.00  0.00     0.148 A 
ATOM     63  C   UNL A   1      43.633  25.823  25.756  1.00  0.00     0.002 A 
ATOM     64  C   UNL A   1      42.205  24.093  26.677  1.00  0.00     0.091 A 
ATOM     65  F   UNL A   1      40.848  24.595  28.573  1.00  0.00    -0.205 F 
ATOM     66  C   UNL A   1      43.134  24.524  25.717  1.00  0.00     0.022 A 
BRANCH  64  67
ATOM     67  S   UNL A   1      41.689  22.373  26.595  1.00  0.00     0.127 S 
ATOM     68  O   UNL A   1      42.233  21.842  27.845  1.00  0.00    -0.237 OA
ATOM     69  O   UNL A   1      40.231  22.493  26.569  1.00  0.00    -0.237 OA
ATOM     70  O   UNL A   1      42.278  21.830  25.380  1.00  0.00    -0.744 OA
ENDBRANCH  64  67
ENDBRANCH  46  60
BRANCH  47  71
ATOM     71  C   UNL A   1      39.313  31.986  35.367  1.00  0.00     0.023 A 
ATOM     72  C   UNL A   1      38.409  31.414  36.284  1.00  0.00     0.012 A 
ATOM     73  C   UNL A   1      39.758  33.306  35.581  1.00  0.00     0.148 A 
ATOM     74  C   UNL A   1      37.931  32.152  37.368  1.00  0.00     0.002 A 
ATOM     75  C   UNL A   1      39.331  34.011  36.698  1.00  0.00     0.091 A 
ATOM     76  F   UNL A   1      40.598  33.846  34.685  1.00  0.00    -0.205 F 
ATOM     77  C   UNL A   1      38.401  33.445  37.582  1.00  0.00     0.022 A 
BRANCH  75  78
ATOM     78  S   UNL A   1      40.002  35.622  37.125  1.00  0.00     0.127 S 
ATOM     79  O   UNL A   1      39.648  36.413  35.951  1.00  0.00    -0.237 OA
ATOM     80  O   UNL A   1      39.254  35.951  38.339  1.00  0.00    -0.237 OA
ATOM     81  O   UNL A   1      41.425  35.403  37.343  1.00  0.00    -0.744 OA
ENDBRANCH  75  78
ENDBRANCH  47  71
BRANCH  59  82
ATOM     82  C   UNL A   1      44.724  27.716  34.337  1.00  0.00     0.023 A 
ATOM     83  C   UNL A   1      45.912  28.473  34.367  1.00  0.00     0.012 A 
ATOM     84  C   UNL A   1      44.593  26.596  35.181  1.00  0.00     0.148 A 
ATOM     85  C   UNL A   1      46.967  28.099  35.198  1.00  0.00     0.002 A 
ATOM     86  C   UNL A   1      45.629  26.260  36.044  1.00  0.00     0.091 A 
ATOM     87  F   UNL A   1      43.463  25.878  35.122  1.00  0.00    -0.205 F 
ATOM     88  C   UNL A   1      46.821  27.002  36.044  1.00  0.00     0.022 A 
BRANCH  86  89
ATOM     89  S   UNL A   1      45.490  24.925  37.238  1.00  0.00     0.127 S 
ATOM     90  O   UNL A   1      46.786  24.993  37.912  1.00  0.00    -0.237 OA
ATOM     91  O   UNL A   1      44.355  25.357  38.054  1.00  0.00    -0.237 OA
ATOM     92  O   UNL A   1      45.252  23.716  36.463  1.00  0.00    -0.744 OA
ENDBRANCH  86  89
ENDBRANCH  59  82
ENDBRANCH  33  34
ENDBRANCH  26  28
ENDBRANCH  25  26
ENDBRANCH  24  25
ENDBRANCH   1  24
TORSDOF 17
ENDMDL
MODEL 2
REMARK VINA RESULT:     -11.7      5.172      8.083
REMARK SMILES NC(=O)C1CC[NH+](Cc2ccc(C(=O)OCCOC(=O)c3ccc(-c4c5nc(c(-c6cccc(S(=O)(=O)[O-])c6F)c6ccc([nH]6)c(-c6cccc(S(=O)(=O)[O-])c6F)c6nc(c(-c7cccc(S(=O)(=O)[O-])c7F)c7ccc4[nH]7)C=C6)C=C5)cc3)cc2)CC1
REMARK SMILES IDX 16 1 15 2 13 3 14 4 12 5 9 6 10 7 85 8 11 9 84 10 8 11 7 12
REMARK SMILES IDX 4 13 5 14 87 15 6 16 86 17 2 19 1 20 3 23 17 24 18 25 19 26
REMARK SMILES IDX 20 27 21 28 22 29 83 30 23 31 82 32 24 33 25 34 26 35 76 36
REMARK SMILES IDX 27 37 81 38 75 39 77 40 28 41 80 42 74 43 73 44 29 46 61 47
REMARK SMILES IDX 41 48 60 49 42 50 45 51 59 52 78 53 43 54 44 55 58 57 79 58
REMARK SMILES IDX 46 59 30 60 31 61 39 62 32 63 34 64 40 65 33 66 35 67 36 68
REMARK SMILES IDX 37 69 38 70 62 71 63 72 71 73 64 74 66 75 72 76 65 77 67 78
REMARK SMILES IDX 68 79 69 80 70 81 47 82 48 83 56 84 49 85 51 86 57 87 50 88
REMARK SMILES IDX 52 89 53 90 54 91 55 92
REMARK H PARENT 7 18 1 21 1 22 77 45 45 56
REMARK Flexibility Score: inf
ROOT
ATOM      1  C   UNL A   1      36.174  19.705  25.004  1.00  0.00     0.275 C 
ENDROOT
BRANCH   1   2
ATOM      2  O   UNL A   1      35.469  20.734  25.723  1.00  0.00    -0.458 OA
BRANCH   2   3
ATOM      3  C   UNL A   1      34.162  20.886  25.390  1.00  0.00     0.338 C 
ATOM      4  O   UNL A   1      33.216  20.318  25.902  1.00  0.00    -0.246 OA
BRANCH   3   5
ATOM      5  C   UNL A   1      33.995  21.908  24.327  1.00  0.00     0.060 A 
ATOM      6  C   UNL A   1      33.544  24.065  22.597  1.00  0.00     0.006 A 
ATOM      7  C   UNL A   1      34.629  24.091  23.479  1.00  0.00     0.010 A 
ATOM      8  C   UNL A   1      32.787  22.886  22.481  1.00  0.00     0.010 A 
ATOM      9  C   UNL A   1      34.816  23.044  24.373  1.00  0.00     0.016 A 
ATOM     10  C   UNL A   1      33.010  21.809  23.344  1.00  0.00     0.016 A 
BRANCH   6  11
ATOM     11  C   UNL A   1      33.073  25.362  21.957  1.00  0.00     0.299 C 
BRANCH  11  12
ATOM     12  N   UNL A   1      32.776  26.452  22.929  1.00  0.00    -0.331 N 
ATOM     13  C   UNL A   1      31.296  28.877  23.731  1.00  0.00     0.089 C 
ATOM     14  C   UNL A   1      32.781  28.920  23.347  1.00  0.00     0.075 C 
ATOM     15  C   UNL A   1      31.036  27.520  24.385  1.00  0.00     0.075 C 
ATOM     16  C   UNL A   1      33.118  27.776  22.389  1.00  0.00     0.263 C 
ATOM     17  C   UNL A   1      31.403  26.369  23.446  1.00  0.00     0.263 C 
ATOM     18  H   UNL A   1      33.384  26.314  23.737  1.00  0.00     0.348 HD
BRANCH  13  19
ATOM     19  C   UNL A   1      30.432  29.217  22.507  1.00  0.00     0.220 C 
ATOM     20  N   UNL A   1      30.893  30.146  21.629  1.00  0.00    -0.369 N 
ATOM     21  H   UNL A   1      30.359  30.384  20.837  1.00  0.00     0.159 HD
ATOM     22  H   UNL A   1      31.761  30.584  21.788  1.00  0.00     0.159 HD
ATOM     23  O   UNL A   1      29.378  28.631  22.257  1.00  0.00    -0.275 OA
ENDBRANCH  13  19
ENDBRANCH  11  12
ENDBRANCH   6  11
ENDBRANCH   3   5
ENDBRANCH   2   3
ENDBRANCH   1   2
BRANCH   1  24
ATOM     24  C   UNL A   1      37.632  20.105  24.783  1.00  0.00     0.275 C 
BRANCH  24  25
ATOM     25  O   UNL A   1      38.002  21.185  25.660  1.00  0.00    -0.458 OA
BRANCH  25  26
ATOM     26  C   UNL A   1      39.247  21.104  26.182  1.00  0.00     0.338 C 
ATOM     27  O   UNL A   1      39.996  20.140  26.165  1.00  0.00    -0.246 OA
BRANCH  26  28
ATOM     28  C   UNL A   1      39.652  22.405  26.734  1.00  0.00     0.060 A 
ATOM     29  C   UNL A   1      39.023  23.545  26.250  1.00  0.00     0.016 A 
ATOM     30  C   UNL A   1      40.753  22.521  27.575  1.00  0.00     0.016 A 
ATOM     31  C   UNL A   1      39.556  24.806  26.498  1.00  0.00     0.010 A 
ATOM     32  C   UNL A   1      41.217  23.797  27.923  1.00  0.00     0.010 A 
ATOM     33  C   UNL A   1      40.654  24.957  27.354  1.00  0.00    -0.014 A 
BRANCH  33  34
ATOM     34  C   UNL A   1      41.216  26.313  27.634  1.00  0.00     0.031 A 
ATOM     35  C   UNL A   1      42.615  26.669  27.188  1.00  0.00     0.074 A 
ATOM     36  C   UNL A   1      40.484  27.229  28.304  1.00  0.00     0.049 A 
ATOM     37  N   UNL A   1      43.336  27.721  27.488  1.00  0.00    -0.248 NA
ATOM     38  C   UNL A   1      43.304  25.711  26.305  1.00  0.00     0.031 C 
ATOM     39  C   UNL A   1      39.113  27.035  28.784  1.00  0.00     0.029 A 
ATOM     40  N   UNL A   1      40.793  28.505  28.714  1.00  0.00    -0.354 N 
ATOM     41  C   UNL A   1      44.585  27.507  26.913  1.00  0.00     0.074 A 
ATOM     42  C   UNL A   1      44.519  26.237  26.225  1.00  0.00     0.031 C 
ATOM     43  C   UNL A   1      38.694  28.150  29.401  1.00  0.00     0.029 A 
ATOM     44  C   UNL A   1      39.794  29.104  29.449  1.00  0.00     0.049 A 
ATOM     45  H   UNL A   1      41.647  28.947  28.504  1.00  0.00     0.167 HD
ATOM     46  C   UNL A   1      45.684  28.297  26.956  1.00  0.00     0.034 A 
ATOM     47  C   UNL A   1      39.773  30.264  30.136  1.00  0.00     0.034 A 
ATOM     48  C   UNL A   1      45.720  29.601  27.566  1.00  0.00     0.049 A 
ATOM     49  C   UNL A   1      41.009  31.121  30.156  1.00  0.00     0.074 A 
ATOM     50  C   UNL A   1      46.765  30.508  27.587  1.00  0.00     0.029 A 
ATOM     51  N   UNL A   1      44.671  30.183  28.258  1.00  0.00    -0.354 N 
ATOM     52  N   UNL A   1      42.152  30.934  29.544  1.00  0.00    -0.248 NA
ATOM     53  C   UNL A   1      40.947  32.355  30.953  1.00  0.00     0.031 C 
ATOM     54  C   UNL A   1      46.359  31.626  28.322  1.00  0.00     0.029 A 
ATOM     55  C   UNL A   1      45.049  31.430  28.726  1.00  0.00     0.049 A 
ATOM     56  H   UNL A   1      43.788  29.771  28.398  1.00  0.00     0.167 HD
ATOM     57  C   UNL A   1      42.932  32.041  29.854  1.00  0.00     0.074 A 
ATOM     58  C   UNL A   1      42.122  32.906  30.686  1.00  0.00     0.031 C 
ATOM     59  C   UNL A   1      44.212  32.310  29.499  1.00  0.00     0.034 A 
BRANCH  46  60
ATOM     60  C   UNL A   1      46.957  27.793  26.324  1.00  0.00     0.023 A 
ATOM     61  C   UNL A   1      47.874  27.033  27.078  1.00  0.00     0.012 A 
ATOM     62  C   UNL A   1      47.188  27.987  24.946  1.00  0.00     0.148 A 
ATOM     63  C   UNL A   1      49.010  26.494  26.475  1.00  0.00     0.002 A 
ATOM     64  C   UNL A   1      48.299  27.408  24.344  1.00  0.00     0.091 A 
ATOM     65  F   UNL A   1      46.312  28.725  24.251  1.00  0.00    -0.205 F 
ATOM     66  C   UNL A   1      49.215  26.670  25.109  1.00  0.00     0.022 A 
BRANCH  64  67
ATOM     67  S   UNL A   1      48.605  27.504  22.576  1.00  0.00     0.127 S 
ATOM     68  O   UNL A   1      49.898  28.187  22.537  1.00  0.00    -0.237 OA
ATOM     69  O   UNL A   1      48.650  26.092  22.197  1.00  0.00    -0.237 OA
ATOM     70  O   UNL A   1      47.490  28.251  22.012  1.00  0.00    -0.744 OA
ENDBRANCH  64  67
ENDBRANCH  46  60
BRANCH  47  71
ATOM     71  C   UNL A   1      38.546  30.685  30.872  1.00  0.00     0.023 A 
ATOM     72  C   UNL A   1      38.423  30.385  32.244  1.00  0.00     0.012 A 
ATOM     73  C   UNL A   1      37.502  31.377  30.228  1.00  0.00     0.148 A 
ATOM     74  C   UNL A   1      37.269  30.733  32.948  1.00  0.00     0.002 A 
ATOM     75  C   UNL A   1      36.386  31.780  30.950  1.00  0.00     0.091 A 
ATOM     76  F   UNL A   1      37.622  31.633  28.917  1.00  0.00    -0.205 F 
ATOM     77  C   UNL A   1      36.257  31.440  32.305  1.00  0.00     0.022 A 
BRANCH  75  78
ATOM     78  S   UNL A   1      35.109  32.820  30.234  1.00  0.00     0.127 S 
ATOM     79  O   UNL A   1      34.581  31.962  29.178  1.00  0.00    -0.237 OA
ATOM     80  O   UNL A   1      34.210  33.025  31.371  1.00  0.00    -0.237 OA
ATOM     81  O   UNL A   1      35.796  34.027  29.793  1.00  0.00    -0.744 OA
ENDBRANCH  75  78
ENDBRANCH  47  71
BRANCH  59  82
ATOM     82  C   UNL A   1      44.803  33.616  29.957  1.00  0.00     0.023 A 
ATOM     83  C   UNL A   1      45.537  33.677  31.158  1.00  0.00     0.012 A 
ATOM     84  C   UNL A   1      44.680  34.772  29.160  1.00  0.00     0.148 A 
ATOM     85  C   UNL A   1      46.109  34.877  31.577  1.00  0.00     0.002 A 
ATOM     86  C   UNL A   1      45.298  35.951  29.558  1.00  0.00     0.091 A 
ATOM     87  F   UNL A   1      43.962  34.697  28.031  1.00  0.00    -0.205 F 
ATOM     88  C   UNL A   1      46.000  36.009  30.773  1.00  0.00     0.022 A 
BRANCH  86  89
ATOM     89  S   UNL A   1      45.295  37.429  28.538  1.00  0.00     0.127 S 
ATOM     90  O   UNL A   1      46.711  37.793  28.536  1.00  0.00    -0.237 OA
ATOM     91  O   UNL A   1      44.794  36.922  27.260  1.00  0.00    -0.237 OA
ATOM     92  O   UNL A   1      44.408  38.374  29.202  1.00  0.00    -0.744 OA
ENDBRANCH  86  89
ENDBRANCH  59  82
ENDBRANCH  33  34
ENDBRANCH  26  28
ENDBRANCH  25  26
ENDBRANCH  24  25
ENDBRANCH   1  24
TORSDOF 17
ENDMDL
MODEL 3
REMARK VINA RESULT:     -11.7      5.001     10.190
REMARK SMILES NC(=O)C1CC[NH+](Cc2ccc(C(=O)OCCOC(=O)c3ccc(-c4c5nc(c(-c6cccc(S(=O)(=O)[O-])c6F)c6ccc([nH]6)c(-c6cccc(S(=O)(=O)[O-])c6F)c6nc(c(-c7cccc(S(=O)(=O)[O-])c7F)c7ccc4[nH]7)C=C6)C=C5)cc3)cc2)CC1
REMARK SMILES IDX 16 1 15 2 13 3 14 4 12 5 9 6 10 7 85 8 11 9 84 10 8 11 7 12
REMARK SMILES IDX 4 13 5 14 87 15 6 16 86 17 2 19 1 20 3 23 17 24 18 25 19 26
REMARK SMILES IDX 20 27 21 28 22 29 83 30 23 31 82 32 24 33 25 34 26 35 76 36
REMARK SMILES IDX 27 37 81 38 75 39 77 40 28 41 80 42 74 43 73 44 29 46 61 47
REMARK SMILES IDX 41 48 60 49 42 50 45 51 59 52 78 53 43 54 44 55 58 57 79 58
REMARK SMILES IDX 46 59 30 60 31 61 39 62 32 63 34 64 40 65 33 66 35 67 36 68
REMARK SMILES IDX 37 69 38 70 62 71 63 72 71 73 64 74 66 75 72 76 65 77 67 78
REMARK SMILES IDX 68 79 69 80 70 81 47 82 48 83 56 84 49 85 51 86 57 87 50 88
REMARK SMILES IDX 52 89 53 90 54 91 55 92
REMARK H PARENT 7 18 1 21 1 22 77 45 45 56
REMARK Flexibility Score: inf
ROOT
ATOM      1  C   UNL A   1      35.365  20.658  25.014  1.00  0.00     0.275 C 
ENDROOT
BRANCH   1   2
ATOM      2  O   UNL A   1      35.368  21.944  25.663  1.00  0.00    -0.458 OA
BRANCH   2   3
ATOM      3  C   UNL A   1      34.468  22.090  26.668  1.00  0.00     0.338 C 
ATOM      4  O   UNL A   1      34.398  21.414  27.677  1.00  0.00    -0.246 OA
BRANCH   3   5
ATOM      5  C   UNL A   1      33.576  23.251  26.427  1.00  0.00     0.060 A 
ATOM      6  C   UNL A   1      32.103  25.626  26.234  1.00  0.00     0.006 A 
ATOM      7  C   UNL A   1      33.378  25.547  25.666  1.00  0.00     0.010 A 
ATOM      8  C   UNL A   1      31.515  24.461  26.756  1.00  0.00     0.010 A 
ATOM      9  C   UNL A   1      34.127  24.385  25.812  1.00  0.00     0.016 A 
ATOM     10  C   UNL A   1      32.249  23.275  26.855  1.00  0.00     0.016 A 
BRANCH   6  11
ATOM     11  C   UNL A   1      31.480  26.992  26.475  1.00  0.00     0.299 C 
BRANCH  11  12
ATOM     12  N   UNL A   1      31.046  27.696  25.235  1.00  0.00    -0.331 N 
ATOM     13  C   UNL A   1      31.092  28.048  22.305  1.00  0.00     0.089 C 
ATOM     14  C   UNL A   1      31.764  29.048  23.255  1.00  0.00     0.075 C 
ATOM     15  C   UNL A   1      29.870  27.484  23.031  1.00  0.00     0.075 C 
ATOM     16  C   UNL A   1      32.170  28.356  24.557  1.00  0.00     0.263 C 
ATOM     17  C   UNL A   1      30.263  26.820  24.351  1.00  0.00     0.263 C 
ATOM     18  H   UNL A   1      30.410  28.443  25.516  1.00  0.00     0.348 HD
BRANCH  13  19
ATOM     19  C   UNL A   1      32.123  27.021  21.815  1.00  0.00     0.220 C 
ATOM     20  N   UNL A   1      31.683  25.968  21.076  1.00  0.00    -0.369 N 
ATOM     21  H   UNL A   1      32.322  25.293  20.750  1.00  0.00     0.159 HD
ATOM     22  H   UNL A   1      30.724  25.879  20.869  1.00  0.00     0.159 HD
ATOM     23  O   UNL A   1      33.332  27.153  22.005  1.00  0.00    -0.275 OA
ENDBRANCH  13  19
ENDBRANCH  11  12
ENDBRANCH   6  11
ENDBRANCH   3   5
ENDBRANCH   2   3
ENDBRANCH   1   2
BRANCH   1  24
ATOM     24  C   UNL A   1      36.770  20.059  25.001  1.00  0.00     0.275 C 
BRANCH  24  25
ATOM     25  O   UNL A   1      37.766  21.096  25.074  1.00  0.00    -0.458 OA
BRANCH  25  26
ATOM     26  C   UNL A   1      38.881  20.777  25.771  1.00  0.00     0.338 C 
ATOM     27  O   UNL A   1      39.440  19.694  25.819  1.00  0.00    -0.246 OA
BRANCH  26  28
ATOM     28  C   UNL A   1      39.418  21.970  26.441  1.00  0.00     0.060 A 
ATOM     29  C   UNL A   1      38.884  23.207  26.104  1.00  0.00     0.016 A 
ATOM     30  C   UNL A   1      40.549  21.898  27.248  1.00  0.00     0.016 A 
ATOM     31  C   UNL A   1      39.536  24.382  26.463  1.00  0.00     0.010 A 
ATOM     32  C   UNL A   1      41.137  23.082  27.711  1.00  0.00     0.010 A 
ATOM     33  C   UNL A   1      40.667  24.342  27.288  1.00  0.00    -0.014 A 
BRANCH  33  34
ATOM     34  C   UNL A   1      41.358  25.605  27.688  1.00  0.00     0.031 A 
ATOM     35  C   UNL A   1      40.630  26.652  28.498  1.00  0.00     0.074 A 
ATOM     36  C   UNL A   1      42.636  25.831  27.314  1.00  0.00     0.049 A 
ATOM     37  N   UNL A   1      40.997  27.876  28.789  1.00  0.00    -0.248 NA
ATOM     38  C   UNL A   1      39.309  26.286  29.038  1.00  0.00     0.031 C 
ATOM     39  C   UNL A   1      43.472  24.907  26.543  1.00  0.00     0.029 A 
ATOM     40  N   UNL A   1      43.456  26.917  27.516  1.00  0.00    -0.354 N 
ATOM     41  C   UNL A   1      39.922  28.451  29.458  1.00  0.00     0.074 A 
ATOM     42  C   UNL A   1      38.895  27.436  29.554  1.00  0.00     0.031 C 
ATOM     43  C   UNL A   1      44.683  25.451  26.356  1.00  0.00     0.029 A 
ATOM     44  C   UNL A   1      44.685  26.800  26.905  1.00  0.00     0.049 A 
ATOM     45  H   UNL A   1      43.189  27.703  28.045  1.00  0.00     0.167 HD
ATOM     46  C   UNL A   1      39.802  29.708  29.947  1.00  0.00     0.034 A 
ATOM     47  C   UNL A   1      45.685  27.690  26.750  1.00  0.00     0.034 A 
ATOM     48  C   UNL A   1      40.857  30.687  29.929  1.00  0.00     0.049 A 
ATOM     49  C   UNL A   1      45.522  29.075  27.312  1.00  0.00     0.074 A 
ATOM     50  C   UNL A   1      40.854  31.960  30.474  1.00  0.00     0.029 A 
ATOM     51  N   UNL A   1      42.097  30.507  29.340  1.00  0.00    -0.354 N 
ATOM     52  N   UNL A   1      44.527  29.573  28.005  1.00  0.00    -0.248 NA
ATOM     53  C   UNL A   1      46.625  30.020  27.079  1.00  0.00     0.031 C 
ATOM     54  C   UNL A   1      42.082  32.562  30.184  1.00  0.00     0.029 A 
ATOM     55  C   UNL A   1      42.863  31.651  29.493  1.00  0.00     0.049 A 
ATOM     56  H   UNL A   1      42.391  29.687  28.880  1.00  0.00     0.167 HD
ATOM     57  C   UNL A   1      44.899  30.874  28.320  1.00  0.00     0.074 A 
ATOM     58  C   UNL A   1      46.220  31.079  27.765  1.00  0.00     0.031 C 
ATOM     59  C   UNL A   1      44.201  31.822  28.991  1.00  0.00     0.034 A 
BRANCH  46  60
ATOM     60  C   UNL A   1      38.485  30.120  30.555  1.00  0.00     0.023 A 
ATOM     61  C   UNL A   1      38.214  29.856  31.913  1.00  0.00     0.012 A 
ATOM     62  C   UNL A   1      37.557  30.865  29.797  1.00  0.00     0.148 A 
ATOM     63  C   UNL A   1      37.032  30.310  32.500  1.00  0.00     0.002 A 
ATOM     64  C   UNL A   1      36.404  31.352  30.402  1.00  0.00     0.091 A 
ATOM     65  F   UNL A   1      37.826  31.091  28.504  1.00  0.00    -0.205 F 
ATOM     66  C   UNL A   1      36.136  31.066  31.749  1.00  0.00     0.022 A 
BRANCH  64  67
ATOM     67  S   UNL A   1      35.231  32.409  29.544  1.00  0.00     0.127 S 
ATOM     68  O   UNL A   1      34.571  31.455  28.652  1.00  0.00    -0.237 OA
ATOM     69  O   UNL A   1      34.395  32.892  30.643  1.00  0.00    -0.237 OA
ATOM     70  O   UNL A   1      36.020  33.436  28.881  1.00  0.00    -0.744 OA
ENDBRANCH  64  67
ENDBRANCH  46  60
BRANCH  47  71
ATOM     71  C   UNL A   1      46.931  27.309  26.023  1.00  0.00     0.023 A 
ATOM     72  C   UNL A   1      47.042  27.583  24.645  1.00  0.00     0.012 A 
ATOM     73  C   UNL A   1      48.004  26.676  26.682  1.00  0.00     0.148 A 
ATOM     74  C   UNL A   1      48.180  27.202  23.932  1.00  0.00     0.002 A 
ATOM     75  C   UNL A   1      49.161  26.361  25.981  1.00  0.00     0.091 A 
ATOM     76  F   UNL A   1      47.874  26.398  27.988  1.00  0.00    -0.205 F 
ATOM     77  C   UNL A   1      49.244  26.603  24.602  1.00  0.00     0.022 A 
BRANCH  75  78
ATOM     78  S   UNL A   1      50.629  25.725  26.797  1.00  0.00     0.127 S 
ATOM     79  O   UNL A   1      50.148  24.453  27.329  1.00  0.00    -0.237 OA
ATOM     80  O   UNL A   1      51.572  25.612  25.684  1.00  0.00    -0.237 OA
ATOM     81  O   UNL A   1      50.991  26.734  27.784  1.00  0.00    -0.744 OA
ENDBRANCH  75  78
ENDBRANCH  47  71
BRANCH  59  82
ATOM     82  C   UNL A   1      44.870  33.150  29.217  1.00  0.00     0.023 A 
ATOM     83  C   UNL A   1      45.702  33.339  30.339  1.00  0.00     0.012 A 
ATOM     84  C   UNL A   1      44.722  34.192  28.281  1.00  0.00     0.148 A 
ATOM     85  C   UNL A   1      46.346  34.558  30.545  1.00  0.00     0.002 A 
ATOM     86  C   UNL A   1      45.410  35.386  28.465  1.00  0.00     0.091 A 
ATOM     87  F   UNL A   1      43.911  33.999  27.231  1.00  0.00    -0.205 F 
ATOM     88  C   UNL A   1      46.211  35.575  29.602  1.00  0.00     0.022 A 
BRANCH  86  89
ATOM     89  S   UNL A   1      45.372  36.712  27.254  1.00  0.00     0.127 S 
ATOM     90  O   UNL A   1      43.941  36.816  26.971  1.00  0.00    -0.237 OA
ATOM     91  O   UNL A   1      45.928  37.836  28.009  1.00  0.00    -0.237 OA
ATOM     92  O   UNL A   1      46.198  36.265  26.141  1.00  0.00    -0.744 OA
ENDBRANCH  86  89
ENDBRANCH  59  82
ENDBRANCH  33  34
ENDBRANCH  26  28
ENDBRANCH  25  26
ENDBRANCH  24  25
ENDBRANCH   1  24
TORSDOF 17
ENDMDL
