MODEL 1
REMARK VINA RESULT:     -12.5      0.000      0.000
REMARK SMILES C[C@H]1[C@H](C)CC[C@@]2(C(=O)OCCOC(=O)c3ccc(-c4c5nc(c(-c6cccc(S(=O)(=O)[O-])c6F)c6ccc([nH]6)c(-c6cccc(S(=O)(=O)[O-])c6F)c6nc(c(-c7cccc(S(=O)(=O)[O-])c7F)c7ccc4[nH]7)C=C6)C=C5)cc3)CC[C@@]3(C)C(=CC[C@@H]4[C@@]5(C)CC[C@H](O)C(C)(C)[C@@H]5CC[C@]43C)[C@H]12
REMARK SMILES IDX 12 1 11 2 10 3 8 4 9 5 7 6 1 7 2 8 3 9 101 10 4 11 5 12
REMARK SMILES IDX 83 13 6 14 79 15 81 16 84 17 80 18 82 19 99 20 85 21 86 22
REMARK SMILES IDX 98 23 100 24 87 25 97 26 88 27 89 28 96 29 90 30 93 31 91 32
REMARK SMILES IDX 94 33 95 34 92 35 13 37 14 38 15 39 16 40 17 41 78 42 18 43
REMARK SMILES IDX 77 44 19 45 20 46 21 47 71 48 22 49 76 50 70 51 72 52 23 53
REMARK SMILES IDX 75 54 69 55 68 56 24 58 56 59 36 60 55 61 37 62 40 63 54 64
REMARK SMILES IDX 73 65 38 66 39 67 53 69 74 70 41 71 25 72 26 73 34 74 27 75
REMARK SMILES IDX 29 76 35 77 28 78 30 79 31 80 32 81 33 82 57 83 58 84 66 85
REMARK SMILES IDX 59 86 61 87 67 88 60 89 62 90 63 91 64 92 65 93 42 94 43 95
REMARK SMILES IDX 51 96 44 97 46 98 52 99 45 100 47 101 48 102 49 103 50 104
REMARK H PARENT 92 36 72 57 40 68
REMARK Flexibility Score: inf
ROOT
ATOM      1  C   UNL A   1      34.369  29.477  26.893  1.00  0.00     0.275 C 
ENDROOT
BRANCH   1   2
ATOM      2  C   UNL A   1      34.462  29.015  25.429  1.00  0.00     0.274 C 
BRANCH   2   3
ATOM      3  O   UNL A   1      33.559  27.969  25.005  1.00  0.00    -0.462 OA
BRANCH   3   4
ATOM      4  C   UNL A   1      32.467  28.427  24.334  1.00  0.00     0.312 C 
ATOM      5  O   UNL A   1      32.538  28.757  23.171  1.00  0.00    -0.252 OA
BRANCH   4   6
ATOM      6  C   UNL A   1      31.215  28.699  25.200  1.00  0.00     0.075 C 
ATOM      7  C   UNL A   1      28.193  28.197  22.737  1.00  0.00     0.008 C 
ATOM      8  C   UNL A   1      29.507  28.787  23.272  1.00  0.00    -0.003 C 
ATOM      9  C   UNL A   1      29.311  30.314  23.557  1.00  0.00    -0.011 C 
ATOM     10  C   UNL A   1      30.001  27.985  24.533  1.00  0.00     0.036 C 
ATOM     11  C   UNL A   1      29.014  31.120  22.282  1.00  0.00     0.008 C 
ATOM     12  C   UNL A   1      30.511  30.977  24.236  1.00  0.00     0.005 C 
ATOM     13  C   UNL A   1      30.432  26.483  24.375  1.00  0.00    -0.063 C 
ATOM     14  C   UNL A   1      31.005  30.203  25.440  1.00  0.00     0.020 C 
ATOM     15  C   UNL A   1      31.390  28.064  26.611  1.00  0.00     0.020 C 
ATOM     16  C   UNL A   1      30.736  25.679  25.691  1.00  0.00    -0.006 C 
ATOM     17  C   UNL A   1      30.790  25.995  23.169  1.00  0.00    -0.027 C 
ATOM     18  C   UNL A   1      31.634  26.550  26.632  1.00  0.00     0.013 C 
ATOM     19  C   UNL A   1      29.399  25.473  26.450  1.00  0.00     0.017 C 
ATOM     20  C   UNL A   1      31.453  24.207  25.392  1.00  0.00    -0.020 C 
ATOM     21  C   UNL A   1      31.699  24.814  22.954  1.00  0.00     0.032 C 
ATOM     22  C   UNL A   1      32.483  24.411  24.223  1.00  0.00     0.006 C 
ATOM     23  C   UNL A   1      32.201  23.644  26.627  1.00  0.00     0.008 C 
ATOM     24  C   UNL A   1      30.376  23.154  25.019  1.00  0.00     0.012 C 
ATOM     25  C   UNL A   1      33.648  23.338  23.991  1.00  0.00    -0.025 C 
ATOM     26  C   UNL A   1      33.146  22.468  26.343  1.00  0.00     0.005 C 
ATOM     27  C   UNL A   1      33.148  22.152  23.146  1.00  0.00     0.012 C 
ATOM     28  C   UNL A   1      34.802  24.030  23.194  1.00  0.00     0.010 C 
ATOM     29  C   UNL A   1      34.257  22.918  25.379  1.00  0.00     0.003 C 
ATOM     30  C   UNL A   1      36.092  23.214  23.094  1.00  0.00     0.033 C 
ATOM     31  C   UNL A   1      35.548  22.005  25.334  1.00  0.00    -0.006 C 
ATOM     32  C   UNL A   1      36.613  22.718  24.442  1.00  0.00     0.120 C 
ATOM     33  C   UNL A   1      35.286  20.561  24.867  1.00  0.00     0.014 C 
ATOM     34  C   UNL A   1      36.158  21.864  26.760  1.00  0.00     0.014 C 
BRANCH  32  35
ATOM     35  O   UNL A   1      37.770  21.916  24.207  1.00  0.00    -0.393 OA
ATOM     36  H   UNL A   1      38.529  22.491  24.019  1.00  0.00     0.210 HD
ENDBRANCH  32  35
ENDBRANCH   4   6
ENDBRANCH   3   4
ENDBRANCH   2   3
ENDBRANCH   1   2
BRANCH   1  37
ATOM     37  O   UNL A   1      34.355  30.904  27.059  1.00  0.00    -0.458 OA
BRANCH  37  38
ATOM     38  C   UNL A   1      34.930  31.367  28.204  1.00  0.00     0.338 C 
ATOM     39  O   UNL A   1      34.446  32.194  28.963  1.00  0.00    -0.246 OA
BRANCH  38  40
ATOM     40  C   UNL A   1      36.136  30.557  28.533  1.00  0.00     0.060 A 
ATOM     41  C   UNL A   1      36.145  29.814  29.728  1.00  0.00     0.016 A 
ATOM     42  C   UNL A   1      37.205  30.443  27.651  1.00  0.00     0.016 A 
ATOM     43  C   UNL A   1      37.211  28.955  30.044  1.00  0.00     0.010 A 
ATOM     44  C   UNL A   1      38.268  29.597  27.974  1.00  0.00     0.010 A 
ATOM     45  C   UNL A   1      38.297  28.858  29.175  1.00  0.00    -0.014 A 
BRANCH  45  46
ATOM     46  C   UNL A   1      39.616  28.296  29.589  1.00  0.00     0.031 A 
ATOM     47  C   UNL A   1      40.395  29.127  30.573  1.00  0.00     0.074 A 
ATOM     48  C   UNL A   1      40.185  27.198  29.051  1.00  0.00     0.049 A 
ATOM     49  N   UNL A   1      41.636  29.017  30.961  1.00  0.00    -0.248 NA
ATOM     50  C   UNL A   1      39.672  30.264  31.178  1.00  0.00     0.031 C 
ATOM     51  C   UNL A   1      39.558  26.272  28.118  1.00  0.00     0.029 A 
ATOM     52  N   UNL A   1      41.469  26.715  29.169  1.00  0.00    -0.354 N 
ATOM     53  C   UNL A   1      41.841  30.075  31.836  1.00  0.00     0.074 A 
ATOM     54  C   UNL A   1      40.636  30.871  31.844  1.00  0.00     0.031 C 
ATOM     55  C   UNL A   1      40.481  25.412  27.649  1.00  0.00     0.029 A 
ATOM     56  C   UNL A   1      41.762  25.692  28.291  1.00  0.00     0.049 A 
ATOM     57  H   UNL A   1      42.118  27.066  29.821  1.00  0.00     0.167 HD
ATOM     58  C   UNL A   1      42.901  30.324  32.635  1.00  0.00     0.034 A 
ATOM     59  C   UNL A   1      42.927  25.053  28.049  1.00  0.00     0.034 A 
ATOM     60  C   UNL A   1      44.071  29.503  32.683  1.00  0.00     0.049 A 
ATOM     61  C   UNL A   1      44.123  25.374  28.917  1.00  0.00     0.074 A 
ATOM     62  C   UNL A   1      45.166  29.613  33.517  1.00  0.00     0.029 A 
ATOM     63  N   UNL A   1      44.291  28.411  31.861  1.00  0.00    -0.354 N 
ATOM     64  N   UNL A   1      44.234  26.260  29.878  1.00  0.00    -0.248 NA
ATOM     65  C   UNL A   1      45.328  24.548  28.728  1.00  0.00     0.031 C 
ATOM     66  C   UNL A   1      46.053  28.580  33.199  1.00  0.00     0.029 A 
ATOM     67  C   UNL A   1      45.502  27.827  32.174  1.00  0.00     0.049 A 
ATOM     68  H   UNL A   1      43.676  28.098  31.160  1.00  0.00     0.167 HD
ATOM     69  C   UNL A   1      45.475  26.034  30.465  1.00  0.00     0.074 A 
ATOM     70  C   UNL A   1      46.089  24.942  29.741  1.00  0.00     0.031 C 
ATOM     71  C   UNL A   1      46.051  26.671  31.514  1.00  0.00     0.034 A 
BRANCH  58  72
ATOM     72  C   UNL A   1      42.763  31.477  33.588  1.00  0.00     0.023 A 
ATOM     73  C   UNL A   1      43.247  32.745  33.195  1.00  0.00     0.012 A 
ATOM     74  C   UNL A   1      42.197  31.314  34.863  1.00  0.00     0.148 A 
ATOM     75  C   UNL A   1      43.222  33.819  34.080  1.00  0.00     0.002 A 
ATOM     76  C   UNL A   1      42.132  32.403  35.722  1.00  0.00     0.091 A 
ATOM     77  F   UNL A   1      41.763  30.096  35.220  1.00  0.00    -0.205 F 
ATOM     78  C   UNL A   1      42.660  33.649  35.340  1.00  0.00     0.022 A 
BRANCH  76  79
ATOM     79  S   UNL A   1      41.370  32.317  37.345  1.00  0.00     0.127 S 
ATOM     80  O   UNL A   1      41.390  33.720  37.758  1.00  0.00    -0.237 OA
ATOM     81  O   UNL A   1      40.041  31.795  37.027  1.00  0.00    -0.237 OA
ATOM     82  O   UNL A   1      42.204  31.424  38.137  1.00  0.00    -0.744 OA
ENDBRANCH  76  79
ENDBRANCH  58  72
BRANCH  59  83
ATOM     83  C   UNL A   1      43.021  23.957  27.038  1.00  0.00     0.023 A 
ATOM     84  C   UNL A   1      43.638  24.227  25.798  1.00  0.00     0.012 A 
ATOM     85  C   UNL A   1      42.445  22.690  27.252  1.00  0.00     0.148 A 
ATOM     86  C   UNL A   1      43.630  23.281  24.772  1.00  0.00     0.002 A 
ATOM     87  C   UNL A   1      42.470  21.737  26.234  1.00  0.00     0.091 A 
ATOM     88  F   UNL A   1      41.852  22.451  28.430  1.00  0.00    -0.205 F 
ATOM     89  C   UNL A   1      43.046  22.037  24.989  1.00  0.00     0.022 A 
BRANCH  87  90
ATOM     90  S   UNL A   1      41.804  20.078  26.434  1.00  0.00     0.127 S 
ATOM     91  O   UNL A   1      40.368  20.316  26.326  1.00  0.00    -0.237 OA
ATOM     92  O   UNL A   1      42.398  19.373  25.298  1.00  0.00    -0.237 OA
ATOM     93  O   UNL A   1      42.276  19.622  27.735  1.00  0.00    -0.744 OA
ENDBRANCH  87  90
ENDBRANCH  59  83
BRANCH  71  94
ATOM     94  C   UNL A   1      47.369  26.159  32.027  1.00  0.00     0.023 A 
ATOM     95  C   UNL A   1      48.573  26.680  31.520  1.00  0.00     0.012 A 
ATOM     96  C   UNL A   1      47.403  25.251  33.106  1.00  0.00     0.148 A 
ATOM     97  C   UNL A   1      49.796  26.293  32.070  1.00  0.00     0.002 A 
ATOM     98  C   UNL A   1      48.620  24.909  33.680  1.00  0.00     0.091 A 
ATOM     99  F   UNL A   1      46.243  24.749  33.558  1.00  0.00    -0.205 F 
ATOM    100  C   UNL A   1      49.818  25.421  33.158  1.00  0.00     0.022 A 
BRANCH  98 101
ATOM    101  S   UNL A   1      48.733  23.885  35.152  1.00  0.00     0.127 S 
ATOM    102  O   UNL A   1      48.196  22.613  34.674  1.00  0.00    -0.237 OA
ATOM    103  O   UNL A   1      50.171  23.879  35.418  1.00  0.00    -0.237 OA
ATOM    104  O   UNL A   1      47.936  24.558  36.170  1.00  0.00    -0.744 OA
ENDBRANCH  98 101
ENDBRANCH  71  94
ENDBRANCH  45  46
ENDBRANCH  38  40
ENDBRANCH  37  38
ENDBRANCH   1  37
TORSDOF 15
ENDMDL
MODEL 2
REMARK VINA RESULT:     -12.4      3.957      9.617
REMARK SMILES C[C@H]1[C@H](C)CC[C@@]2(C(=O)OCCOC(=O)c3ccc(-c4c5nc(c(-c6cccc(S(=O)(=O)[O-])c6F)c6ccc([nH]6)c(-c6cccc(S(=O)(=O)[O-])c6F)c6nc(c(-c7cccc(S(=O)(=O)[O-])c7F)c7ccc4[nH]7)C=C6)C=C5)cc3)CC[C@@]3(C)C(=CC[C@@H]4[C@@]5(C)CC[C@H](O)C(C)(C)[C@@H]5CC[C@]43C)[C@H]12
REMARK SMILES IDX 12 1 11 2 10 3 8 4 9 5 7 6 1 7 2 8 3 9 101 10 4 11 5 12
REMARK SMILES IDX 83 13 6 14 79 15 81 16 84 17 80 18 82 19 99 20 85 21 86 22
REMARK SMILES IDX 98 23 100 24 87 25 97 26 88 27 89 28 96 29 90 30 93 31 91 32
REMARK SMILES IDX 94 33 95 34 92 35 13 37 14 38 15 39 16 40 17 41 78 42 18 43
REMARK SMILES IDX 77 44 19 45 20 46 21 47 71 48 22 49 76 50 70 51 72 52 23 53
REMARK SMILES IDX 75 54 69 55 68 56 24 58 56 59 36 60 55 61 37 62 40 63 54 64
REMARK SMILES IDX 73 65 38 66 39 67 53 69 74 70 41 71 25 72 26 73 34 74 27 75
REMARK SMILES IDX 29 76 35 77 28 78 30 79 31 80 32 81 33 82 57 83 58 84 66 85
REMARK SMILES IDX 59 86 61 87 67 88 60 89 62 90 63 91 64 92 65 93 42 94 43 95
REMARK SMILES IDX 51 96 44 97 46 98 52 99 45 100 47 101 48 102 49 103 50 104
REMARK H PARENT 92 36 72 57 40 68
REMARK Flexibility Score: inf
ROOT
ATOM      1  C   UNL A   1      37.641  23.339  26.060  1.00  0.00     0.275 C 
ENDROOT
BRANCH   1   2
ATOM      2  C   UNL A   1      36.350  22.997  26.822  1.00  0.00     0.274 C 
BRANCH   2   3
ATOM      3  O   UNL A   1      35.100  23.161  26.117  1.00  0.00    -0.462 OA
BRANCH   3   4
ATOM      4  C   UNL A   1      34.508  21.986  25.770  1.00  0.00     0.312 C 
ATOM      5  O   UNL A   1      33.796  21.389  26.547  1.00  0.00    -0.252 OA
BRANCH   4   6
ATOM      6  C   UNL A   1      34.973  21.372  24.430  1.00  0.00     0.075 C 
ATOM      7  C   UNL A   1      31.928  19.189  23.242  1.00  0.00     0.008 C 
ATOM      8  C   UNL A   1      33.051  19.675  24.172  1.00  0.00    -0.003 C 
ATOM      9  C   UNL A   1      34.085  18.519  24.383  1.00  0.00    -0.011 C 
ATOM     10  C   UNL A   1      33.706  20.990  23.607  1.00  0.00     0.036 C 
ATOM     11  C   UNL A   1      33.477  17.308  25.110  1.00  0.00     0.008 C 
ATOM     12  C   UNL A   1      35.329  18.936  25.171  1.00  0.00     0.005 C 
ATOM     13  C   UNL A   1      32.851  22.304  23.517  1.00  0.00    -0.063 C 
ATOM     14  C   UNL A   1      35.956  20.210  24.646  1.00  0.00     0.020 C 
ATOM     15  C   UNL A   1      35.748  22.434  23.594  1.00  0.00     0.020 C 
ATOM     16  C   UNL A   1      33.494  23.532  22.775  1.00  0.00    -0.006 C 
ATOM     17  C   UNL A   1      31.745  22.457  24.276  1.00  0.00    -0.027 C 
ATOM     18  C   UNL A   1      34.971  23.712  23.259  1.00  0.00     0.013 C 
ATOM     19  C   UNL A   1      33.580  23.192  21.264  1.00  0.00     0.017 C 
ATOM     20  C   UNL A   1      32.628  24.937  22.992  1.00  0.00    -0.020 C 
ATOM     21  C   UNL A   1      31.165  23.782  24.695  1.00  0.00     0.032 C 
ATOM     22  C   UNL A   1      32.138  24.965  24.485  1.00  0.00     0.006 C 
ATOM     23  C   UNL A   1      33.472  26.208  22.718  1.00  0.00     0.008 C 
ATOM     24  C   UNL A   1      31.433  24.987  22.003  1.00  0.00     0.012 C 
ATOM     25  C   UNL A   1      31.679  26.348  25.147  1.00  0.00    -0.025 C 
ATOM     26  C   UNL A   1      32.852  27.526  23.204  1.00  0.00     0.005 C 
ATOM     27  C   UNL A   1      30.209  26.662  24.812  1.00  0.00     0.012 C 
ATOM     28  C   UNL A   1      31.788  26.208  26.702  1.00  0.00     0.010 C 
ATOM     29  C   UNL A   1      32.682  27.485  24.732  1.00  0.00     0.003 C 
ATOM     30  C   UNL A   1      31.614  27.515  27.476  1.00  0.00     0.033 C 
ATOM     31  C   UNL A   1      32.496  28.884  25.446  1.00  0.00    -0.006 C 
ATOM     32  C   UNL A   1      32.518  28.646  26.990  1.00  0.00     0.120 C 
ATOM     33  C   UNL A   1      31.238  29.656  25.006  1.00  0.00     0.014 C 
ATOM     34  C   UNL A   1      33.688  29.827  25.106  1.00  0.00     0.014 C 
BRANCH  32  35
ATOM     35  O   UNL A   1      32.210  29.820  27.739  1.00  0.00    -0.393 OA
ATOM     36  H   UNL A   1      33.028  30.195  28.103  1.00  0.00     0.210 HD
ENDBRANCH  32  35
ENDBRANCH   4   6
ENDBRANCH   3   4
ENDBRANCH   2   3
ENDBRANCH   1   2
BRANCH   1  37
ATOM     37  O   UNL A   1      38.623  22.289  26.065  1.00  0.00    -0.458 OA
BRANCH  37  38
ATOM     38  C   UNL A   1      39.703  22.501  26.866  1.00  0.00     0.338 C 
ATOM     39  O   UNL A   1      40.551  21.670  27.157  1.00  0.00    -0.246 OA
BRANCH  38  40
ATOM     40  C   UNL A   1      39.844  23.955  27.162  1.00  0.00     0.060 A 
ATOM     41  C   UNL A   1      40.389  24.795  26.173  1.00  0.00     0.016 A 
ATOM     42  C   UNL A   1      39.366  24.511  28.343  1.00  0.00     0.016 A 
ATOM     43  C   UNL A   1      40.455  26.186  26.355  1.00  0.00     0.010 A 
ATOM     44  C   UNL A   1      39.443  25.893  28.525  1.00  0.00     0.010 A 
ATOM     45  C   UNL A   1      40.000  26.746  27.549  1.00  0.00    -0.014 A 
BRANCH  45  46
ATOM     46  C   UNL A   1      40.374  28.122  27.989  1.00  0.00     0.031 A 
ATOM     47  C   UNL A   1      41.850  28.372  28.155  1.00  0.00     0.074 A 
ATOM     48  C   UNL A   1      39.494  29.073  28.362  1.00  0.00     0.049 A 
ATOM     49  N   UNL A   1      42.468  29.378  28.710  1.00  0.00    -0.248 NA
ATOM     50  C   UNL A   1      42.747  27.317  27.647  1.00  0.00     0.031 C 
ATOM     51  C   UNL A   1      38.045  29.004  28.235  1.00  0.00     0.029 A 
ATOM     52  N   UNL A   1      39.703  30.277  28.998  1.00  0.00    -0.354 N 
ATOM     53  C   UNL A   1      43.818  29.064  28.631  1.00  0.00     0.074 A 
ATOM     54  C   UNL A   1      43.924  27.738  28.071  1.00  0.00     0.031 C 
ATOM     55  C   UNL A   1      37.485  30.043  28.883  1.00  0.00     0.029 A 
ATOM     56  C   UNL A   1      38.543  30.887  29.429  1.00  0.00     0.049 A 
ATOM     57  H   UNL A   1      40.597  30.666  29.132  1.00  0.00     0.167 HD
ATOM     58  C   UNL A   1      44.889  29.838  28.915  1.00  0.00     0.034 A 
ATOM     59  C   UNL A   1      38.365  32.003  30.168  1.00  0.00     0.034 A 
ATOM     60  C   UNL A   1      44.794  31.178  29.407  1.00  0.00     0.049 A 
ATOM     61  C   UNL A   1      39.575  32.838  30.524  1.00  0.00     0.074 A 
ATOM     62  C   UNL A   1      45.810  32.082  29.645  1.00  0.00     0.029 A 
ATOM     63  N   UNL A   1      43.603  31.807  29.729  1.00  0.00    -0.354 N 
ATOM     64  N   UNL A   1      40.841  32.611  30.267  1.00  0.00    -0.248 NA
ATOM     65  C   UNL A   1      39.326  34.127  31.192  1.00  0.00     0.031 C 
ATOM     66  C   UNL A   1      45.231  33.266  30.113  1.00  0.00     0.029 A 
ATOM     67  C   UNL A   1      43.856  33.096  30.155  1.00  0.00     0.049 A 
ATOM     68  H   UNL A   1      42.711  31.397  29.663  1.00  0.00     0.167 HD
ATOM     69  C   UNL A   1      41.522  33.761  30.653  1.00  0.00     0.074 A 
ATOM     70  C   UNL A   1      40.534  34.677  31.181  1.00  0.00     0.031 C 
ATOM     71  C   UNL A   1      42.847  34.035  30.574  1.00  0.00     0.034 A 
BRANCH  58  72
ATOM     72  C   UNL A   1      46.236  29.263  28.584  1.00  0.00     0.023 A 
ATOM     73  C   UNL A   1      46.768  29.480  27.293  1.00  0.00     0.012 A 
ATOM     74  C   UNL A   1      46.956  28.493  29.512  1.00  0.00     0.148 A 
ATOM     75  C   UNL A   1      47.969  28.890  26.913  1.00  0.00     0.002 A 
ATOM     76  C   UNL A   1      48.178  27.948  29.140  1.00  0.00     0.091 A 
ATOM     77  F   UNL A   1      46.421  28.286  30.724  1.00  0.00    -0.205 F 
ATOM     78  C   UNL A   1      48.677  28.130  27.838  1.00  0.00     0.022 A 
BRANCH  76  79
ATOM     79  S   UNL A   1      49.207  27.007  30.270  1.00  0.00     0.127 S 
ATOM     80  O   UNL A   1      48.427  25.779  30.428  1.00  0.00    -0.237 OA
ATOM     81  O   UNL A   1      50.439  26.850  29.498  1.00  0.00    -0.237 OA
ATOM     82  O   UNL A   1      49.337  27.819  31.472  1.00  0.00    -0.744 OA
ENDBRANCH  76  79
ENDBRANCH  58  72
BRANCH  59  83
ATOM     83  C   UNL A   1      37.000  32.493  30.527  1.00  0.00     0.023 A 
ATOM     84  C   UNL A   1      36.478  32.182  31.800  1.00  0.00     0.012 A 
ATOM     85  C   UNL A   1      36.187  33.185  29.607  1.00  0.00     0.148 A 
ATOM     86  C   UNL A   1      35.160  32.497  32.132  1.00  0.00     0.002 A 
ATOM     87  C   UNL A   1      34.882  33.527  29.957  1.00  0.00     0.091 A 
ATOM     88  F   UNL A   1      36.691  33.464  28.397  1.00  0.00    -0.205 F 
ATOM     89  C   UNL A   1      34.362  33.169  31.212  1.00  0.00     0.022 A 
BRANCH  87  90
ATOM     90  S   UNL A   1      33.790  34.453  28.869  1.00  0.00     0.127 S 
ATOM     91  O   UNL A   1      33.390  33.432  27.905  1.00  0.00    -0.237 OA
ATOM     92  O   UNL A   1      32.734  34.878  29.787  1.00  0.00    -0.237 OA
ATOM     93  O   UNL A   1      34.599  35.543  28.340  1.00  0.00    -0.744 OA
ENDBRANCH  87  90
ENDBRANCH  59  83
BRANCH  71  94
ATOM     94  C   UNL A   1      43.320  35.407  30.966  1.00  0.00     0.023 A 
ATOM     95  C   UNL A   1      43.799  35.643  32.268  1.00  0.00     0.012 A 
ATOM     96  C   UNL A   1      43.407  36.429  29.997  1.00  0.00     0.148 A 
ATOM     97  C   UNL A   1      44.344  36.883  32.605  1.00  0.00     0.002 A 
ATOM     98  C   UNL A   1      43.996  37.643  30.326  1.00  0.00     0.091 A 
ATOM     99  F   UNL A   1      42.924  36.189  28.768  1.00  0.00    -0.205 F 
ATOM    100  C   UNL A   1      44.456  37.875  31.632  1.00  0.00     0.022 A 
BRANCH  98 101
ATOM    101  S   UNL A   1      44.284  38.931  29.108  1.00  0.00     0.127 S 
ATOM    102  O   UNL A   1      45.119  38.238  28.131  1.00  0.00    -0.237 OA
ATOM    103  O   UNL A   1      42.928  39.233  28.648  1.00  0.00    -0.237 OA
ATOM    104  O   UNL A   1      44.932  40.022  29.824  1.00  0.00    -0.744 OA
ENDBRANCH  98 101
ENDBRANCH  71  94
ENDBRANCH  45  46
ENDBRANCH  38  40
ENDBRANCH  37  38
ENDBRANCH   1  37
TORSDOF 15
ENDMDL
MODEL 3
REMARK VINA RESULT:     -12.3      3.814      9.389
REMARK SMILES C[C@H]1[C@H](C)CC[C@@]2(C(=O)OCCOC(=O)c3ccc(-c4c5nc(c(-c6cccc(S(=O)(=O)[O-])c6F)c6ccc([nH]6)c(-c6cccc(S(=O)(=O)[O-])c6F)c6nc(c(-c7cccc(S(=O)(=O)[O-])c7F)c7ccc4[nH]7)C=C6)C=C5)cc3)CC[C@@]3(C)C(=CC[C@@H]4[C@@]5(C)CC[C@H](O)C(C)(C)[C@@H]5CC[C@]43C)[C@H]12
REMARK SMILES IDX 12 1 11 2 10 3 8 4 9 5 7 6 1 7 2 8 3 9 101 10 4 11 5 12
REMARK SMILES IDX 83 13 6 14 79 15 81 16 84 17 80 18 82 19 99 20 85 21 86 22
REMARK SMILES IDX 98 23 100 24 87 25 97 26 88 27 89 28 96 29 90 30 93 31 91 32
REMARK SMILES IDX 94 33 95 34 92 35 13 37 14 38 15 39 16 40 17 41 78 42 18 43
REMARK SMILES IDX 77 44 19 45 20 46 21 47 71 48 22 49 76 50 70 51 72 52 23 53
REMARK SMILES IDX 75 54 69 55 68 56 24 58 56 59 36 60 55 61 37 62 40 63 54 64
REMARK SMILES IDX 73 65 38 66 39 67 53 69 74 70 41 71 25 72 26 73 34 74 27 75
REMARK SMILES IDX 29 76 35 77 28 78 30 79 31 80 32 81 33 82 57 83 58 84 66 85
REMARK SMILES IDX 59 86 61 87 67 88 60 89 62 90 63 91 64 92 65 93 42 94 43 95
REMARK SMILES IDX 51 96 44 97 46 98 52 99 45 100 47 101 48 102 49 103 50 104
REMARK H PARENT 92 36 72 57 40 68
REMARK Flexibility Score: inf
ROOT
ATOM      1  C   UNL A   1      37.319  23.808  26.231  1.00  0.00     0.275 C 
ENDROOT
BRANCH   1   2
ATOM      2  C   UNL A   1      36.050  23.208  26.860  1.00  0.00     0.274 C 
BRANCH   2   3
ATOM      3  O   UNL A   1      34.841  23.232  26.069  1.00  0.00    -0.462 OA
BRANCH   3   4
ATOM      4  C   UNL A   1      34.359  21.996  25.766  1.00  0.00     0.312 C 
ATOM      5  O   UNL A   1      33.714  21.360  26.571  1.00  0.00    -0.252 OA
BRANCH   4   6
ATOM      6  C   UNL A   1      34.867  21.384  24.440  1.00  0.00     0.075 C 
ATOM      7  C   UNL A   1      31.852  19.223  23.139  1.00  0.00     0.008 C 
ATOM      8  C   UNL A   1      32.945  19.700  24.109  1.00  0.00    -0.003 C 
ATOM      9  C   UNL A   1      33.966  18.537  24.350  1.00  0.00    -0.011 C 
ATOM     10  C   UNL A   1      33.627  21.013  23.573  1.00  0.00     0.036 C 
ATOM     11  C   UNL A   1      33.326  17.326  25.051  1.00  0.00     0.008 C 
ATOM     12  C   UNL A   1      35.183  18.943  25.183  1.00  0.00     0.005 C 
ATOM     13  C   UNL A   1      32.782  22.332  23.459  1.00  0.00    -0.063 C 
ATOM     14  C   UNL A   1      35.835  20.216  24.686  1.00  0.00     0.020 C 
ATOM     15  C   UNL A   1      35.676  22.445  23.636  1.00  0.00     0.020 C 
ATOM     16  C   UNL A   1      33.457  23.560  22.745  1.00  0.00    -0.006 C 
ATOM     17  C   UNL A   1      31.652  22.488  24.180  1.00  0.00    -0.027 C 
ATOM     18  C   UNL A   1      34.918  23.730  23.281  1.00  0.00     0.013 C 
ATOM     19  C   UNL A   1      33.593  23.225  21.237  1.00  0.00     0.017 C 
ATOM     20  C   UNL A   1      32.592  24.969  22.938  1.00  0.00    -0.020 C 
ATOM     21  C   UNL A   1      31.066  23.814  24.585  1.00  0.00     0.032 C 
ATOM     22  C   UNL A   1      32.051  24.993  24.413  1.00  0.00     0.006 C 
ATOM     23  C   UNL A   1      33.453  26.236  22.699  1.00  0.00     0.008 C 
ATOM     24  C   UNL A   1      31.433  25.030  21.909  1.00  0.00     0.012 C 
ATOM     25  C   UNL A   1      31.577  26.375  25.066  1.00  0.00    -0.025 C 
ATOM     26  C   UNL A   1      32.823  27.555  23.169  1.00  0.00     0.005 C 
ATOM     27  C   UNL A   1      30.122  26.699  24.682  1.00  0.00     0.012 C 
ATOM     28  C   UNL A   1      31.632  26.229  26.622  1.00  0.00     0.010 C 
ATOM     29  C   UNL A   1      32.600  27.509  24.691  1.00  0.00     0.003 C 
ATOM     30  C   UNL A   1      31.438  27.533  27.397  1.00  0.00     0.033 C 
ATOM     31  C   UNL A   1      32.397  28.906  25.404  1.00  0.00    -0.006 C 
ATOM     32  C   UNL A   1      32.365  28.661  26.946  1.00  0.00     0.120 C 
ATOM     33  C   UNL A   1      31.160  29.687  24.924  1.00  0.00     0.014 C 
ATOM     34  C   UNL A   1      33.606  29.843  25.109  1.00  0.00     0.014 C 
BRANCH  32  35
ATOM     35  O   UNL A   1      32.038  29.834  27.690  1.00  0.00    -0.393 OA
ATOM     36  H   UNL A   1      32.390  30.615  27.234  1.00  0.00     0.210 HD
ENDBRANCH  32  35
ENDBRANCH   4   6
ENDBRANCH   3   4
ENDBRANCH   2   3
ENDBRANCH   1   2
BRANCH   1  37
ATOM     37  O   UNL A   1      38.243  22.831  25.726  1.00  0.00    -0.458 OA
BRANCH  37  38
ATOM     38  C   UNL A   1      39.376  22.661  26.461  1.00  0.00     0.338 C 
ATOM     39  O   UNL A   1      39.997  21.615  26.586  1.00  0.00    -0.246 OA
BRANCH  38  40
ATOM     40  C   UNL A   1      39.896  23.983  26.913  1.00  0.00     0.060 A 
ATOM     41  C   UNL A   1      40.140  24.179  28.285  1.00  0.00     0.016 A 
ATOM     42  C   UNL A   1      40.232  24.985  26.009  1.00  0.00     0.016 A 
ATOM     43  C   UNL A   1      40.722  25.366  28.758  1.00  0.00     0.010 A 
ATOM     44  C   UNL A   1      40.800  26.168  26.485  1.00  0.00     0.010 A 
ATOM     45  C   UNL A   1      41.037  26.384  27.859  1.00  0.00    -0.014 A 
BRANCH  45  46
ATOM     46  C   UNL A   1      41.286  27.792  28.287  1.00  0.00     0.031 A 
ATOM     47  C   UNL A   1      42.724  28.142  28.564  1.00  0.00     0.074 A 
ATOM     48  C   UNL A   1      40.320  28.693  28.559  1.00  0.00     0.049 A 
ATOM     49  N   UNL A   1      43.231  29.199  29.137  1.00  0.00    -0.248 NA
ATOM     50  C   UNL A   1      43.725  27.134  28.162  1.00  0.00     0.031 C 
ATOM     51  C   UNL A   1      38.894  28.527  28.318  1.00  0.00     0.029 A 
ATOM     52  N   UNL A   1      40.400  29.923  29.174  1.00  0.00    -0.354 N 
ATOM     53  C   UNL A   1      44.600  28.971  29.177  1.00  0.00     0.074 A 
ATOM     54  C   UNL A   1      44.834  27.641  28.667  1.00  0.00     0.031 C 
ATOM     55  C   UNL A   1      38.219  29.543  28.888  1.00  0.00     0.029 A 
ATOM     56  C   UNL A   1      39.173  30.467  29.492  1.00  0.00     0.049 A 
ATOM     57  H   UNL A   1      41.255  30.372  29.369  1.00  0.00     0.167 HD
ATOM     58  C   UNL A   1      45.593  29.819  29.523  1.00  0.00     0.034 A 
ATOM     59  C   UNL A   1      38.865  31.587  30.181  1.00  0.00     0.034 A 
ATOM     60  C   UNL A   1      45.374  31.162  29.966  1.00  0.00     0.049 A 
ATOM     61  C   UNL A   1      39.987  32.507  30.608  1.00  0.00     0.074 A 
ATOM     62  C   UNL A   1      46.308  32.135  30.258  1.00  0.00     0.029 A 
ATOM     63  N   UNL A   1      44.123  31.720  30.172  1.00  0.00    -0.354 N 
ATOM     64  N   UNL A   1      41.281  32.356  30.461  1.00  0.00    -0.248 NA
ATOM     65  C   UNL A   1      39.604  33.793  31.215  1.00  0.00     0.031 C 
ATOM     66  C   UNL A   1      45.620  33.290  30.643  1.00  0.00     0.029 A 
ATOM     67  C   UNL A   1      44.259  33.033  30.579  1.00  0.00     0.049 A 
ATOM     68  H   UNL A   1      43.267  31.252  30.046  1.00  0.00     0.167 HD
ATOM     69  C   UNL A   1      41.855  33.557  30.867  1.00  0.00     0.074 A 
ATOM     70  C   UNL A   1      40.771  34.419  31.285  1.00  0.00     0.031 C 
ATOM     71  C   UNL A   1      43.163  33.914  30.887  1.00  0.00     0.034 A 
BRANCH  58  72
ATOM     72  C   UNL A   1      46.996  29.325  29.319  1.00  0.00     0.023 A 
ATOM     73  C   UNL A   1      47.644  28.660  30.384  1.00  0.00     0.012 A 
ATOM     74  C   UNL A   1      47.682  29.536  28.111  1.00  0.00     0.148 A 
ATOM     75  C   UNL A   1      48.974  28.266  30.270  1.00  0.00     0.002 A 
ATOM     76  C   UNL A   1      48.994  29.096  27.989  1.00  0.00     0.091 A 
ATOM     77  F   UNL A   1      47.052  30.186  27.122  1.00  0.00    -0.205 F 
ATOM     78  C   UNL A   1      49.646  28.479  29.071  1.00  0.00     0.022 A 
BRANCH  76  79
ATOM     79  S   UNL A   1      49.935  29.258  26.469  1.00  0.00     0.127 S 
ATOM     80  O   UNL A   1      51.149  28.508  26.791  1.00  0.00    -0.237 OA
ATOM     81  O   UNL A   1      49.056  28.606  25.499  1.00  0.00    -0.237 OA
ATOM     82  O   UNL A   1      50.124  30.686  26.260  1.00  0.00    -0.744 OA
ENDBRANCH  76  79
ENDBRANCH  58  72
BRANCH  59  83
ATOM     83  C   UNL A   1      37.447  31.996  30.414  1.00  0.00     0.023 A 
ATOM     84  C   UNL A   1      36.883  31.796  31.691  1.00  0.00     0.012 A 
ATOM     85  C   UNL A   1      36.633  32.498  29.379  1.00  0.00     0.148 A 
ATOM     86  C   UNL A   1      35.526  32.033  31.921  1.00  0.00     0.002 A 
ATOM     87  C   UNL A   1      35.287  32.765  29.624  1.00  0.00     0.091 A 
ATOM     88  F   UNL A   1      37.179  32.672  28.167  1.00  0.00    -0.205 F 
ATOM     89  C   UNL A   1      34.729  32.517  30.889  1.00  0.00     0.022 A 
BRANCH  87  90
ATOM     90  S   UNL A   1      34.187  33.454  28.380  1.00  0.00     0.127 S 
ATOM     91  O   UNL A   1      33.708  32.251  27.704  1.00  0.00    -0.237 OA
ATOM     92  O   UNL A   1      33.187  34.136  29.202  1.00  0.00    -0.237 OA
ATOM     93  O   UNL A   1      35.013  34.347  27.578  1.00  0.00    -0.744 OA
ENDBRANCH  87  90
ENDBRANCH  59  83
BRANCH  71  94
ATOM     94  C   UNL A   1      43.514  35.323  31.275  1.00  0.00     0.023 A 
ATOM     95  C   UNL A   1      43.729  36.296  30.282  1.00  0.00     0.012 A 
ATOM     96  C   UNL A   1      43.502  35.707  32.633  1.00  0.00     0.148 A 
ATOM     97  C   UNL A   1      43.944  37.629  30.634  1.00  0.00     0.002 A 
ATOM     98  C   UNL A   1      43.666  37.044  32.973  1.00  0.00     0.091 A 
ATOM     99  F   UNL A   1      43.316  34.759  33.565  1.00  0.00    -0.205 F 
ATOM    100  C   UNL A   1      43.896  38.004  31.976  1.00  0.00     0.022 A 
BRANCH  98 101
ATOM    101  S   UNL A   1      43.506  37.630  34.664  1.00  0.00     0.127 S 
ATOM    102  O   UNL A   1      43.631  39.076  34.492  1.00  0.00    -0.237 OA
ATOM    103  O   UNL A   1      42.164  37.173  35.026  1.00  0.00    -0.237 OA
ATOM    104  O   UNL A   1      44.581  36.993  35.412  1.00  0.00    -0.744 OA
ENDBRANCH  98 101
ENDBRANCH  71  94
ENDBRANCH  45  46
ENDBRANCH  38  40
ENDBRANCH  37  38
ENDBRANCH   1  37
TORSDOF 15
ENDMDL
