MODEL 1
REMARK VINA RESULT:     -12.6      0.000      0.000
REMARK SMILES O=C(OCCOC(=O)c1ccc2c(=O)n(CCc3c[nH]c4ccccc34)c(=O)[nH]c2c1)c1ccc(-c2c3nc(c(-c4cccc(S(=O)(=O)[O-])c4F)c4ccc([nH]4)c(-c4cccc(S(=O)(=O)[O-])c4F)c4nc(c(-c5cccc(S(=O)(=O)[O-])c5F)c5ccc2[nH]5)C=C4)C=C3)cc1
REMARK SMILES IDX 4 1 3 2 2 3 1 4 32 5 33 6 94 7 34 8 93 9 35 10 36 11 37 12
REMARK SMILES IDX 87 13 38 14 92 15 86 16 88 17 39 18 91 19 85 20 84 21 40 23
REMARK SMILES IDX 72 24 52 25 71 26 53 27 56 28 70 29 89 30 54 31 55 32 69 34
REMARK SMILES IDX 90 35 57 36 41 37 42 38 50 39 43 40 45 41 51 42 44 43 46 44
REMARK SMILES IDX 47 45 48 46 49 47 73 48 74 49 82 50 75 51 77 52 83 53 76 54
REMARK SMILES IDX 78 55 79 56 80 57 81 58 58 59 59 60 67 61 60 62 62 63 68 64
REMARK SMILES IDX 61 65 63 66 64 67 65 68 66 69 5 70 6 71 7 72 8 73 9 74 10 75
REMARK SMILES IDX 31 76 11 77 30 78 12 79 29 80 13 81 27 82 14 84 15 85 28 86
REMARK SMILES IDX 16 87 17 88 18 89 19 90 26 91 20 92 21 93 25 94 22 96 24 97
REMARK SMILES IDX 23 98
REMARK H PARENT 88 22 56 33 29 83 20 95
REMARK Flexibility Score: inf
ROOT
ATOM      1  C   UNL A   1      31.336  32.107  26.962  1.00  0.00     0.275 C 
ENDROOT
BRANCH   1   2
ATOM      2  O   UNL A   1      32.041  33.338  27.120  1.00  0.00    -0.458 OA
BRANCH   2   3
ATOM      3  C   UNL A   1      32.880  33.736  28.096  1.00  0.00     0.338 C 
ATOM      4  O   UNL A   1      32.482  34.642  28.831  1.00  0.00    -0.246 OA
BRANCH   3   5
ATOM      5  C   UNL A   1      34.283  33.230  28.293  1.00  0.00     0.060 A 
ATOM      6  C   UNL A   1      34.393  32.232  29.260  1.00  0.00     0.016 A 
ATOM      7  C   UNL A   1      35.482  33.660  27.703  1.00  0.00     0.016 A 
ATOM      8  C   UNL A   1      35.641  31.852  29.753  1.00  0.00     0.010 A 
ATOM      9  C   UNL A   1      36.752  33.217  28.165  1.00  0.00     0.010 A 
ATOM     10  C   UNL A   1      36.860  32.350  29.248  1.00  0.00    -0.014 A 
BRANCH  10  11
ATOM     11  C   UNL A   1      38.134  31.895  29.920  1.00  0.00     0.031 A 
ATOM     12  C   UNL A   1      38.587  32.335  31.305  1.00  0.00     0.074 A 
ATOM     13  C   UNL A   1      38.755  30.831  29.366  1.00  0.00     0.049 A 
ATOM     14  N   UNL A   1      39.337  31.675  32.164  1.00  0.00    -0.248 NA
ATOM     15  C   UNL A   1      38.118  33.629  31.832  1.00  0.00     0.031 C 
ATOM     16  C   UNL A   1      38.458  30.297  28.032  1.00  0.00     0.029 A 
ATOM     17  N   UNL A   1      39.683  29.959  29.871  1.00  0.00    -0.354 N 
ATOM     18  C   UNL A   1      39.270  32.377  33.368  1.00  0.00     0.074 A 
ATOM     19  C   UNL A   1      38.550  33.600  33.092  1.00  0.00     0.031 C 
ATOM     20  C   UNL A   1      39.087  29.131  27.876  1.00  0.00     0.029 A 
ATOM     21  C   UNL A   1      39.962  28.917  29.020  1.00  0.00     0.049 A 
ATOM     22  H   UNL A   1      40.108  30.069  30.752  1.00  0.00     0.167 HD
ATOM     23  C   UNL A   1      39.644  31.948  34.600  1.00  0.00     0.034 A 
ATOM     24  C   UNL A   1      40.877  27.933  29.093  1.00  0.00     0.034 A 
ATOM     25  C   UNL A   1      40.504  30.816  34.829  1.00  0.00     0.049 A 
ATOM     26  C   UNL A   1      41.703  27.812  30.323  1.00  0.00     0.074 A 
ATOM     27  C   UNL A   1      41.066  30.391  36.023  1.00  0.00     0.029 A 
ATOM     28  N   UNL A   1      41.012  29.999  33.836  1.00  0.00    -0.354 N 
ATOM     29  N   UNL A   1      41.497  28.368  31.491  1.00  0.00    -0.248 NA
ATOM     30  C   UNL A   1      42.896  26.962  30.253  1.00  0.00     0.031 C 
ATOM     31  C   UNL A   1      41.974  29.365  35.737  1.00  0.00     0.029 A 
ATOM     32  C   UNL A   1      41.950  29.136  34.373  1.00  0.00     0.049 A 
ATOM     33  H   UNL A   1      40.747  30.028  32.889  1.00  0.00     0.167 HD
ATOM     34  C   UNL A   1      42.536  27.936  32.299  1.00  0.00     0.074 A 
ATOM     35  C   UNL A   1      43.363  27.061  31.492  1.00  0.00     0.031 C 
ATOM     36  C   UNL A   1      42.774  28.256  33.592  1.00  0.00     0.034 A 
BRANCH  23  37
ATOM     37  C   UNL A   1      39.117  32.635  35.837  1.00  0.00     0.023 A 
ATOM     38  C   UNL A   1      38.107  31.981  36.582  1.00  0.00     0.012 A 
ATOM     39  C   UNL A   1      39.744  33.766  36.384  1.00  0.00     0.148 A 
ATOM     40  C   UNL A   1      37.744  32.433  37.853  1.00  0.00     0.002 A 
ATOM     41  C   UNL A   1      39.378  34.212  37.652  1.00  0.00     0.091 A 
ATOM     42  F   UNL A   1      40.707  34.361  35.668  1.00  0.00    -0.205 F 
ATOM     43  C   UNL A   1      38.386  33.544  38.392  1.00  0.00     0.022 A 
BRANCH  41  44
ATOM     44  S   UNL A   1      40.154  35.626  38.446  1.00  0.00     0.127 S 
ATOM     45  O   UNL A   1      39.530  35.597  39.769  1.00  0.00    -0.237 OA
ATOM     46  O   UNL A   1      41.568  35.257  38.426  1.00  0.00    -0.237 OA
ATOM     47  O   UNL A   1      39.806  36.781  37.630  1.00  0.00    -0.744 OA
ENDBRANCH  41  44
ENDBRANCH  23  37
BRANCH  24  48
ATOM     48  C   UNL A   1      41.120  27.128  27.868  1.00  0.00     0.023 A 
ATOM     49  C   UNL A   1      41.897  27.621  26.809  1.00  0.00     0.012 A 
ATOM     50  C   UNL A   1      40.693  25.781  27.850  1.00  0.00     0.148 A 
ATOM     51  C   UNL A   1      42.275  26.767  25.769  1.00  0.00     0.002 A 
ATOM     52  C   UNL A   1      41.140  24.923  26.861  1.00  0.00     0.091 A 
ATOM     53  F   UNL A   1      39.916  25.351  28.856  1.00  0.00    -0.205 F 
ATOM     54  C   UNL A   1      41.923  25.415  25.810  1.00  0.00     0.022 A 
BRANCH  52  55
ATOM     55  S   UNL A   1      40.881  23.148  26.967  1.00  0.00     0.127 S 
ATOM     56  O   UNL A   1      39.438  23.046  26.769  1.00  0.00    -0.237 OA
ATOM     57  O   UNL A   1      41.696  22.655  25.857  1.00  0.00    -0.237 OA
ATOM     58  O   UNL A   1      41.370  22.756  28.283  1.00  0.00    -0.744 OA
ENDBRANCH  52  55
ENDBRANCH  24  48
BRANCH  36  59
ATOM     59  C   UNL A   1      43.993  27.681  34.243  1.00  0.00     0.023 A 
ATOM     60  C   UNL A   1      45.182  28.433  34.257  1.00  0.00     0.012 A 
ATOM     61  C   UNL A   1      43.934  26.451  34.924  1.00  0.00     0.148 A 
ATOM     62  C   UNL A   1      46.303  27.965  34.939  1.00  0.00     0.002 A 
ATOM     63  C   UNL A   1      45.042  26.009  35.633  1.00  0.00     0.091 A 
ATOM     64  F   UNL A   1      42.790  25.753  34.881  1.00  0.00    -0.205 F 
ATOM     65  C   UNL A   1      46.229  26.761  35.637  1.00  0.00     0.022 A 
BRANCH  63  66
ATOM     66  S   UNL A   1      45.019  24.512  36.622  1.00  0.00     0.127 S 
ATOM     67  O   UNL A   1      44.206  24.927  37.765  1.00  0.00    -0.237 OA
ATOM     68  O   UNL A   1      44.369  23.560  35.723  1.00  0.00    -0.237 OA
ATOM     69  O   UNL A   1      46.410  24.210  36.928  1.00  0.00    -0.744 OA
ENDBRANCH  63  66
ENDBRANCH  36  59
ENDBRANCH  10  11
ENDBRANCH   3   5
ENDBRANCH   2   3
ENDBRANCH   1   2
BRANCH   1  70
ATOM     70  C   UNL A   1      32.213  30.857  26.825  1.00  0.00     0.275 C 
BRANCH  70  71
ATOM     71  O   UNL A   1      32.498  30.440  25.478  1.00  0.00    -0.458 OA
BRANCH  71  72
ATOM     72  C   UNL A   1      31.726  29.423  24.996  1.00  0.00     0.338 C 
ATOM     73  O   UNL A   1      30.761  29.517  24.276  1.00  0.00    -0.246 OA
BRANCH  72  74
ATOM     74  C   UNL A   1      32.262  28.133  25.500  1.00  0.00     0.062 A 
ATOM     75  C   UNL A   1      33.589  27.767  25.235  1.00  0.00     0.016 A 
ATOM     76  C   UNL A   1      31.402  27.249  26.169  1.00  0.00     0.042 A 
ATOM     77  C   UNL A   1      34.042  26.484  25.584  1.00  0.00     0.017 A 
ATOM     78  C   UNL A   1      31.847  25.950  26.456  1.00  0.00     0.056 A 
ATOM     79  C   UNL A   1      33.152  25.561  26.157  1.00  0.00     0.064 A 
ATOM     80  N   UNL A   1      30.939  24.987  26.899  1.00  0.00    -0.307 N 
ATOM     81  C   UNL A   1      33.507  24.123  26.275  1.00  0.00     0.264 A 
ATOM     82  C   UNL A   1      31.190  23.639  26.891  1.00  0.00     0.328 A 
ATOM     83  H   UNL A   1      30.066  25.294  27.235  1.00  0.00     0.171 HD
ATOM     84  O   UNL A   1      34.689  23.797  26.203  1.00  0.00    -0.268 OA
ATOM     85  N   UNL A   1      32.445  23.233  26.473  1.00  0.00    -0.260 N 
ATOM     86  O   UNL A   1      30.288  22.866  27.215  1.00  0.00    -0.248 OA
BRANCH  85  87
ATOM     87  C   UNL A   1      32.673  21.791  26.264  1.00  0.00     0.136 C 
BRANCH  87  88
ATOM     88  C   UNL A   1      32.190  21.233  24.891  1.00  0.00     0.060 C 
BRANCH  88  89
ATOM     89  C   UNL A   1      32.580  22.094  23.733  1.00  0.00    -0.021 A 
ATOM     90  C   UNL A   1      33.769  22.074  23.024  1.00  0.00     0.087 A 
ATOM     91  C   UNL A   1      31.832  23.195  23.226  1.00  0.00     0.003 A 
ATOM     92  N   UNL A   1      33.774  23.174  22.203  1.00  0.00    -0.361 N 
ATOM     93  C   UNL A   1      32.771  24.011  22.618  1.00  0.00     0.046 A 
ATOM     94  C   UNL A   1      30.535  23.688  23.394  1.00  0.00     0.010 A 
ATOM     95  H   UNL A   1      34.388  23.333  21.450  1.00  0.00     0.166 HD
ATOM     96  C   UNL A   1      32.594  25.381  22.498  1.00  0.00     0.026 A 
ATOM     97  C   UNL A   1      30.308  25.045  23.137  1.00  0.00     0.001 A 
ATOM     98  C   UNL A   1      31.331  25.894  22.745  1.00  0.00     0.002 A 
ENDBRANCH  88  89
ENDBRANCH  87  88
ENDBRANCH  85  87
ENDBRANCH  72  74
ENDBRANCH  71  72
ENDBRANCH  70  71
ENDBRANCH   1  70
TORSDOF 17
ENDMDL
MODEL 2
REMARK VINA RESULT:     -12.4      2.189      3.085
REMARK SMILES O=C(OCCOC(=O)c1ccc2c(=O)n(CCc3c[nH]c4ccccc34)c(=O)[nH]c2c1)c1ccc(-c2c3nc(c(-c4cccc(S(=O)(=O)[O-])c4F)c4ccc([nH]4)c(-c4cccc(S(=O)(=O)[O-])c4F)c4nc(c(-c5cccc(S(=O)(=O)[O-])c5F)c5ccc2[nH]5)C=C4)C=C3)cc1
REMARK SMILES IDX 4 1 3 2 2 3 1 4 32 5 33 6 94 7 34 8 93 9 35 10 36 11 37 12
REMARK SMILES IDX 87 13 38 14 92 15 86 16 88 17 39 18 91 19 85 20 84 21 40 23
REMARK SMILES IDX 72 24 52 25 71 26 53 27 56 28 70 29 89 30 54 31 55 32 69 34
REMARK SMILES IDX 90 35 57 36 41 37 42 38 50 39 43 40 45 41 51 42 44 43 46 44
REMARK SMILES IDX 47 45 48 46 49 47 73 48 74 49 82 50 75 51 77 52 83 53 76 54
REMARK SMILES IDX 78 55 79 56 80 57 81 58 58 59 59 60 67 61 60 62 62 63 68 64
REMARK SMILES IDX 61 65 63 66 64 67 65 68 66 69 5 70 6 71 7 72 8 73 9 74 10 75
REMARK SMILES IDX 31 76 11 77 30 78 12 79 29 80 13 81 27 82 14 84 15 85 28 86
REMARK SMILES IDX 16 87 17 88 18 89 19 90 26 91 20 92 21 93 25 94 22 96 24 97
REMARK SMILES IDX 23 98
REMARK H PARENT 88 22 56 33 29 83 20 95
REMARK Flexibility Score: inf
ROOT
ATOM      1  C   UNL A   1      31.877  29.817  26.854  1.00  0.00     0.275 C 
ENDROOT
BRANCH   1   2
ATOM      2  O   UNL A   1      33.266  29.897  27.172  1.00  0.00    -0.458 OA
BRANCH   2   3
ATOM      3  C   UNL A   1      33.991  30.939  27.627  1.00  0.00     0.338 C 
ATOM      4  O   UNL A   1      33.392  32.005  27.775  1.00  0.00    -0.246 OA
BRANCH   3   5
ATOM      5  C   UNL A   1      35.475  30.920  27.874  1.00  0.00     0.060 A 
ATOM      6  C   UNL A   1      36.037  29.645  27.848  1.00  0.00     0.016 A 
ATOM      7  C   UNL A   1      36.343  31.977  28.191  1.00  0.00     0.016 A 
ATOM      8  C   UNL A   1      37.330  29.427  28.321  1.00  0.00     0.010 A 
ATOM      9  C   UNL A   1      37.685  31.753  28.607  1.00  0.00     0.010 A 
ATOM     10  C   UNL A   1      38.187  30.463  28.746  1.00  0.00    -0.014 A 
BRANCH  10  11
ATOM     11  C   UNL A   1      39.541  30.073  29.291  1.00  0.00     0.031 A 
ATOM     12  C   UNL A   1      40.132  30.593  30.593  1.00  0.00     0.074 A 
ATOM     13  C   UNL A   1      40.127  28.997  28.722  1.00  0.00     0.049 A 
ATOM     14  N   UNL A   1      40.992  29.995  31.393  1.00  0.00    -0.248 NA
ATOM     15  C   UNL A   1      39.687  31.901  31.107  1.00  0.00     0.031 C 
ATOM     16  C   UNL A   1      39.700  28.388  27.458  1.00  0.00     0.029 A 
ATOM     17  N   UNL A   1      41.131  28.174  29.160  1.00  0.00    -0.354 N 
ATOM     18  C   UNL A   1      41.039  30.756  32.562  1.00  0.00     0.074 A 
ATOM     19  C   UNL A   1      40.257  31.946  32.310  1.00  0.00     0.031 C 
ATOM     20  C   UNL A   1      40.341  27.231  27.288  1.00  0.00     0.029 A 
ATOM     21  C   UNL A   1      41.344  27.097  28.335  1.00  0.00     0.049 A 
ATOM     22  H   UNL A   1      41.647  28.338  29.983  1.00  0.00     0.167 HD
ATOM     23  C   UNL A   1      41.559  30.400  33.763  1.00  0.00     0.034 A 
ATOM     24  C   UNL A   1      42.290  26.139  28.352  1.00  0.00     0.034 A 
ATOM     25  C   UNL A   1      42.473  29.302  33.948  1.00  0.00     0.049 A 
ATOM     26  C   UNL A   1      43.251  26.101  29.486  1.00  0.00     0.074 A 
ATOM     27  C   UNL A   1      43.175  28.951  35.090  1.00  0.00     0.029 A 
ATOM     28  N   UNL A   1      42.891  28.447  32.945  1.00  0.00    -0.354 N 
ATOM     29  N   UNL A   1      43.160  26.711  30.641  1.00  0.00    -0.248 NA
ATOM     30  C   UNL A   1      44.452  25.276  29.322  1.00  0.00     0.031 C 
ATOM     31  C   UNL A   1      44.076  27.934  34.754  1.00  0.00     0.029 A 
ATOM     32  C   UNL A   1      43.907  27.635  33.414  1.00  0.00     0.049 A 
ATOM     33  H   UNL A   1      42.522  28.422  32.033  1.00  0.00     0.167 HD
ATOM     34  C   UNL A   1      44.294  26.345  31.347  1.00  0.00     0.074 A 
ATOM     35  C   UNL A   1      45.051  25.450  30.495  1.00  0.00     0.031 C 
ATOM     36  C   UNL A   1      44.665  26.736  32.588  1.00  0.00     0.034 A 
BRANCH  23  37
ATOM     37  C   UNL A   1      41.153  31.136  35.018  1.00  0.00     0.023 A 
ATOM     38  C   UNL A   1      42.050  32.093  35.548  1.00  0.00     0.012 A 
ATOM     39  C   UNL A   1      39.847  31.066  35.530  1.00  0.00     0.148 A 
ATOM     40  C   UNL A   1      41.647  32.975  36.554  1.00  0.00     0.002 A 
ATOM     41  C   UNL A   1      39.451  31.948  36.533  1.00  0.00     0.091 A 
ATOM     42  F   UNL A   1      39.011  30.162  35.003  1.00  0.00    -0.205 F 
ATOM     43  C   UNL A   1      40.345  32.908  37.040  1.00  0.00     0.022 A 
BRANCH  41  44
ATOM     44  S   UNL A   1      37.790  31.956  37.220  1.00  0.00     0.127 S 
ATOM     45  O   UNL A   1      37.024  32.548  36.124  1.00  0.00    -0.237 OA
ATOM     46  O   UNL A   1      37.539  30.534  37.445  1.00  0.00    -0.237 OA
ATOM     47  O   UNL A   1      37.862  32.769  38.426  1.00  0.00    -0.744 OA
ENDBRANCH  41  44
ENDBRANCH  23  37
BRANCH  24  48
ATOM     48  C   UNL A   1      42.419  25.279  27.147  1.00  0.00     0.023 A 
ATOM     49  C   UNL A   1      43.165  25.686  26.031  1.00  0.00     0.012 A 
ATOM     50  C   UNL A   1      41.912  23.961  27.203  1.00  0.00     0.148 A 
ATOM     51  C   UNL A   1      43.436  24.775  25.007  1.00  0.00     0.002 A 
ATOM     52  C   UNL A   1      42.254  23.044  26.225  1.00  0.00     0.091 A 
ATOM     53  F   UNL A   1      41.166  23.614  28.263  1.00  0.00    -0.205 F 
ATOM     54  C   UNL A   1      43.008  23.450  25.117  1.00  0.00     0.022 A 
BRANCH  52  55
ATOM     55  S   UNL A   1      41.896  21.292  26.411  1.00  0.00     0.127 S 
ATOM     56  O   UNL A   1      40.461  21.252  26.144  1.00  0.00    -0.237 OA
ATOM     57  O   UNL A   1      42.738  20.698  25.373  1.00  0.00    -0.237 OA
ATOM     58  O   UNL A   1      42.299  20.950  27.770  1.00  0.00    -0.744 OA
ENDBRANCH  52  55
ENDBRANCH  24  48
BRANCH  36  59
ATOM     59  C   UNL A   1      45.965  26.224  33.125  1.00  0.00     0.023 A 
ATOM     60  C   UNL A   1      47.124  27.006  32.973  1.00  0.00     0.012 A 
ATOM     61  C   UNL A   1      46.018  25.027  33.862  1.00  0.00     0.148 A 
ATOM     62  C   UNL A   1      48.327  26.600  33.547  1.00  0.00     0.002 A 
ATOM     63  C   UNL A   1      47.211  24.648  34.463  1.00  0.00     0.091 A 
ATOM     64  F   UNL A   1      44.898  24.299  33.977  1.00  0.00    -0.205 F 
ATOM     65  C   UNL A   1      48.367  25.429  34.302  1.00  0.00     0.022 A 
BRANCH  63  66
ATOM     66  S   UNL A   1      47.341  23.200  35.514  1.00  0.00     0.127 S 
ATOM     67  O   UNL A   1      48.716  23.310  36.000  1.00  0.00    -0.237 OA
ATOM     68  O   UNL A   1      46.314  23.458  36.522  1.00  0.00    -0.237 OA
ATOM     69  O   UNL A   1      47.077  22.053  34.655  1.00  0.00    -0.744 OA
ENDBRANCH  63  66
ENDBRANCH  36  59
ENDBRANCH  10  11
ENDBRANCH   3   5
ENDBRANCH   2   3
ENDBRANCH   1   2
BRANCH   1  70
ATOM     70  C   UNL A   1      31.543  29.785  25.358  1.00  0.00     0.275 C 
BRANCH  70  71
ATOM     71  O   UNL A   1      31.861  28.560  24.673  1.00  0.00    -0.458 OA
BRANCH  71  72
ATOM     72  C   UNL A   1      30.830  27.971  24.002  1.00  0.00     0.338 C 
ATOM     73  O   UNL A   1      30.086  28.490  23.206  1.00  0.00    -0.246 OA
BRANCH  72  74
ATOM     74  C   UNL A   1      30.749  26.543  24.403  1.00  0.00     0.062 A 
ATOM     75  C   UNL A   1      30.784  26.187  25.759  1.00  0.00     0.016 A 
ATOM     76  C   UNL A   1      30.723  25.554  23.410  1.00  0.00     0.042 A 
ATOM     77  C   UNL A   1      30.859  24.832  26.122  1.00  0.00     0.017 A 
ATOM     78  C   UNL A   1      30.860  24.208  23.782  1.00  0.00     0.056 A 
ATOM     79  C   UNL A   1      30.940  23.845  25.126  1.00  0.00     0.064 A 
ATOM     80  N   UNL A   1      31.078  23.235  22.805  1.00  0.00    -0.307 N 
ATOM     81  C   UNL A   1      31.304  22.444  25.461  1.00  0.00     0.264 A 
ATOM     82  C   UNL A   1      31.545  21.974  23.073  1.00  0.00     0.328 A 
ATOM     83  H   UNL A   1      30.885  23.469  21.868  1.00  0.00     0.171 HD
ATOM     84  O   UNL A   1      31.191  22.065  26.623  1.00  0.00    -0.268 OA
ATOM     85  N   UNL A   1      31.749  21.646  24.402  1.00  0.00    -0.260 N 
ATOM     86  O   UNL A   1      31.791  21.221  22.131  1.00  0.00    -0.248 OA
BRANCH  85  87
ATOM     87  C   UNL A   1      32.437  20.377  24.704  1.00  0.00     0.136 C 
BRANCH  87  88
ATOM     88  C   UNL A   1      33.986  20.403  24.539  1.00  0.00     0.060 C 
BRANCH  88  89
ATOM     89  C   UNL A   1      34.634  21.566  25.222  1.00  0.00    -0.021 A 
ATOM     90  C   UNL A   1      35.073  21.642  26.532  1.00  0.00     0.087 A 
ATOM     91  C   UNL A   1      34.799  22.868  24.669  1.00  0.00     0.003 A 
ATOM     92  N   UNL A   1      35.390  22.953  26.781  1.00  0.00    -0.361 N 
ATOM     93  C   UNL A   1      34.868  23.711  25.765  1.00  0.00     0.046 A 
ATOM     94  C   UNL A   1      34.686  23.440  23.399  1.00  0.00     0.010 A 
ATOM     95  H   UNL A   1      35.901  23.290  27.552  1.00  0.00     0.166 HD
ATOM     96  C   UNL A   1      34.479  25.041  25.702  1.00  0.00     0.026 A 
ATOM     97  C   UNL A   1      34.435  24.814  23.316  1.00  0.00     0.001 A 
ATOM     98  C   UNL A   1      34.281  25.597  24.449  1.00  0.00     0.002 A 
ENDBRANCH  88  89
ENDBRANCH  87  88
ENDBRANCH  85  87
ENDBRANCH  72  74
ENDBRANCH  71  72
ENDBRANCH  70  71
ENDBRANCH   1  70
TORSDOF 17
ENDMDL
MODEL 3
REMARK VINA RESULT:     -12.4      2.466      8.689
REMARK SMILES O=C(OCCOC(=O)c1ccc2c(=O)n(CCc3c[nH]c4ccccc34)c(=O)[nH]c2c1)c1ccc(-c2c3nc(c(-c4cccc(S(=O)(=O)[O-])c4F)c4ccc([nH]4)c(-c4cccc(S(=O)(=O)[O-])c4F)c4nc(c(-c5cccc(S(=O)(=O)[O-])c5F)c5ccc2[nH]5)C=C4)C=C3)cc1
REMARK SMILES IDX 4 1 3 2 2 3 1 4 32 5 33 6 94 7 34 8 93 9 35 10 36 11 37 12
REMARK SMILES IDX 87 13 38 14 92 15 86 16 88 17 39 18 91 19 85 20 84 21 40 23
REMARK SMILES IDX 72 24 52 25 71 26 53 27 56 28 70 29 89 30 54 31 55 32 69 34
REMARK SMILES IDX 90 35 57 36 41 37 42 38 50 39 43 40 45 41 51 42 44 43 46 44
REMARK SMILES IDX 47 45 48 46 49 47 73 48 74 49 82 50 75 51 77 52 83 53 76 54
REMARK SMILES IDX 78 55 79 56 80 57 81 58 58 59 59 60 67 61 60 62 62 63 68 64
REMARK SMILES IDX 61 65 63 66 64 67 65 68 66 69 5 70 6 71 7 72 8 73 9 74 10 75
REMARK SMILES IDX 31 76 11 77 30 78 12 79 29 80 13 81 27 82 14 84 15 85 28 86
REMARK SMILES IDX 16 87 17 88 18 89 19 90 26 91 20 92 21 93 25 94 22 96 24 97
REMARK SMILES IDX 23 98
REMARK H PARENT 88 22 56 33 29 83 20 95
REMARK Flexibility Score: inf
ROOT
ATOM      1  C   UNL A   1      43.679  21.274  25.479  1.00  0.00     0.275 C 
ENDROOT
BRANCH   1   2
ATOM      2  O   UNL A   1      43.368  22.414  24.677  1.00  0.00    -0.458 OA
BRANCH   2   3
ATOM      3  C   UNL A   1      43.681  23.712  24.860  1.00  0.00     0.338 C 
ATOM      4  O   UNL A   1      44.718  24.110  24.325  1.00  0.00    -0.246 OA
BRANCH   3   5
ATOM      5  C   UNL A   1      42.920  24.673  25.732  1.00  0.00     0.060 A 
ATOM      6  C   UNL A   1      43.455  25.959  25.757  1.00  0.00     0.016 A 
ATOM      7  C   UNL A   1      41.811  24.443  26.562  1.00  0.00     0.016 A 
ATOM      8  C   UNL A   1      43.040  26.885  26.713  1.00  0.00     0.010 A 
ATOM      9  C   UNL A   1      41.347  25.418  27.489  1.00  0.00     0.010 A 
ATOM     10  C   UNL A   1      41.997  26.640  27.631  1.00  0.00    -0.014 A 
BRANCH  10  11
ATOM     11  C   UNL A   1      41.695  27.713  28.650  1.00  0.00     0.031 A 
ATOM     12  C   UNL A   1      40.546  28.707  28.545  1.00  0.00     0.074 A 
ATOM     13  C   UNL A   1      42.315  27.595  29.844  1.00  0.00     0.049 A 
ATOM     14  N   UNL A   1      39.894  29.303  29.522  1.00  0.00    -0.248 NA
ATOM     15  C   UNL A   1      40.017  29.047  27.212  1.00  0.00     0.031 C 
ATOM     16  C   UNL A   1      43.452  26.707  30.107  1.00  0.00     0.029 A 
ATOM     17  N   UNL A   1      42.034  28.141  31.069  1.00  0.00    -0.354 N 
ATOM     18  C   UNL A   1      38.787  29.921  28.938  1.00  0.00     0.074 A 
ATOM     19  C   UNL A   1      38.941  29.776  27.508  1.00  0.00     0.031 C 
ATOM     20  C   UNL A   1      43.687  26.670  31.419  1.00  0.00     0.029 A 
ATOM     21  C   UNL A   1      42.837  27.657  32.072  1.00  0.00     0.049 A 
ATOM     22  H   UNL A   1      41.328  28.812  31.215  1.00  0.00     0.167 HD
ATOM     23  C   UNL A   1      37.688  30.415  29.562  1.00  0.00     0.034 A 
ATOM     24  C   UNL A   1      42.954  28.011  33.365  1.00  0.00     0.034 A 
ATOM     25  C   UNL A   1      37.628  30.704  30.972  1.00  0.00     0.049 A 
ATOM     26  C   UNL A   1      42.015  29.023  33.918  1.00  0.00     0.074 A 
ATOM     27  C   UNL A   1      36.620  31.346  31.675  1.00  0.00     0.029 A 
ATOM     28  N   UNL A   1      38.653  30.470  31.869  1.00  0.00    -0.354 N 
ATOM     29  N   UNL A   1      40.890  29.448  33.400  1.00  0.00    -0.248 NA
ATOM     30  C   UNL A   1      42.362  29.628  35.208  1.00  0.00     0.031 C 
ATOM     31  C   UNL A   1      37.072  31.569  32.980  1.00  0.00     0.029 A 
ATOM     32  C   UNL A   1      38.345  31.037  33.092  1.00  0.00     0.049 A 
ATOM     33  H   UNL A   1      39.479  29.975  31.667  1.00  0.00     0.167 HD
ATOM     34  C   UNL A   1      40.390  30.373  34.301  1.00  0.00     0.074 A 
ATOM     35  C   UNL A   1      41.327  30.438  35.404  1.00  0.00     0.031 C 
ATOM     36  C   UNL A   1      39.257  31.105  34.200  1.00  0.00     0.034 A 
BRANCH  23  37
ATOM     37  C   UNL A   1      36.413  30.648  28.787  1.00  0.00     0.023 A 
ATOM     38  C   UNL A   1      35.693  29.517  28.336  1.00  0.00     0.012 A 
ATOM     39  C   UNL A   1      35.816  31.916  28.702  1.00  0.00     0.148 A 
ATOM     40  C   UNL A   1      34.397  29.645  27.829  1.00  0.00     0.002 A 
ATOM     41  C   UNL A   1      34.524  32.038  28.196  1.00  0.00     0.091 A 
ATOM     42  F   UNL A   1      36.510  32.971  29.149  1.00  0.00    -0.205 F 
ATOM     43  C   UNL A   1      33.809  30.905  27.767  1.00  0.00     0.022 A 
BRANCH  41  44
ATOM     44  S   UNL A   1      33.668  33.615  28.087  1.00  0.00     0.127 S 
ATOM     45  O   UNL A   1      32.437  33.231  27.396  1.00  0.00    -0.237 OA
ATOM     46  O   UNL A   1      33.495  33.973  29.493  1.00  0.00    -0.237 OA
ATOM     47  O   UNL A   1      34.547  34.494  27.329  1.00  0.00    -0.744 OA
ENDBRANCH  41  44
ENDBRANCH  23  37
BRANCH  24  48
ATOM     48  C   UNL A   1      44.123  27.489  34.119  1.00  0.00     0.023 A 
ATOM     49  C   UNL A   1      45.327  28.205  34.192  1.00  0.00     0.012 A 
ATOM     50  C   UNL A   1      43.955  26.328  34.906  1.00  0.00     0.148 A 
ATOM     51  C   UNL A   1      46.330  27.789  35.072  1.00  0.00     0.002 A 
ATOM     52  C   UNL A   1      44.918  25.971  35.833  1.00  0.00     0.091 A 
ATOM     53  F   UNL A   1      42.809  25.641  34.782  1.00  0.00    -0.205 F 
ATOM     54  C   UNL A   1      46.115  26.694  35.911  1.00  0.00     0.022 A 
BRANCH  52  55
ATOM     55  S   UNL A   1      44.615  24.697  37.063  1.00  0.00     0.127 S 
ATOM     56  O   UNL A   1      43.239  24.987  37.457  1.00  0.00    -0.237 OA
ATOM     57  O   UNL A   1      44.791  23.472  36.283  1.00  0.00    -0.237 OA
ATOM     58  O   UNL A   1      45.626  24.895  38.094  1.00  0.00    -0.744 OA
ENDBRANCH  52  55
ENDBRANCH  24  48
BRANCH  36  59
ATOM     59  C   UNL A   1      38.946  32.072  35.300  1.00  0.00     0.023 A 
ATOM     60  C   UNL A   1      38.187  31.636  36.401  1.00  0.00     0.012 A 
ATOM     61  C   UNL A   1      39.487  33.370  35.291  1.00  0.00     0.148 A 
ATOM     62  C   UNL A   1      37.965  32.486  37.483  1.00  0.00     0.002 A 
ATOM     63  C   UNL A   1      39.294  34.198  36.388  1.00  0.00     0.091 A 
ATOM     64  F   UNL A   1      40.195  33.759  34.220  1.00  0.00    -0.205 F 
ATOM     65  C   UNL A   1      38.529  33.760  37.482  1.00  0.00     0.022 A 
BRANCH  63  66
ATOM     66  S   UNL A   1      40.043  35.824  36.512  1.00  0.00     0.127 S 
ATOM     67  O   UNL A   1      39.408  36.352  37.719  1.00  0.00    -0.237 OA
ATOM     68  O   UNL A   1      41.461  35.500  36.657  1.00  0.00    -0.237 OA
ATOM     69  O   UNL A   1      39.701  36.520  35.278  1.00  0.00    -0.744 OA
ENDBRANCH  63  66
ENDBRANCH  36  59
ENDBRANCH  10  11
ENDBRANCH   3   5
ENDBRANCH   2   3
ENDBRANCH   1   2
BRANCH   1  70
ATOM     70  C   UNL A   1      42.473  20.523  26.055  1.00  0.00     0.275 C 
BRANCH  70  71
ATOM     71  O   UNL A   1      41.182  21.022  25.662  1.00  0.00    -0.458 OA
BRANCH  71  72
ATOM     72  C   UNL A   1      40.331  21.332  26.682  1.00  0.00     0.338 C 
ATOM     73  O   UNL A   1      40.548  21.246  27.867  1.00  0.00    -0.246 OA
BRANCH  72  74
ATOM     74  C   UNL A   1      39.048  21.812  26.108  1.00  0.00     0.062 A 
ATOM     75  C   UNL A   1      38.724  23.176  26.142  1.00  0.00     0.016 A 
ATOM     76  C   UNL A   1      38.129  20.877  25.610  1.00  0.00     0.042 A 
ATOM     77  C   UNL A   1      37.449  23.600  25.735  1.00  0.00     0.017 A 
ATOM     78  C   UNL A   1      36.838  21.305  25.264  1.00  0.00     0.056 A 
ATOM     79  C   UNL A   1      36.491  22.654  25.336  1.00  0.00     0.064 A 
ATOM     80  N   UNL A   1      35.842  20.364  24.998  1.00  0.00    -0.307 N 
ATOM     81  C   UNL A   1      35.062  23.026  25.176  1.00  0.00     0.264 A 
ATOM     82  C   UNL A   1      34.502  20.654  24.978  1.00  0.00     0.328 A 
ATOM     83  H   UNL A   1      36.119  19.436  24.815  1.00  0.00     0.171 HD
ATOM     84  O   UNL A   1      34.771  24.212  25.044  1.00  0.00    -0.268 OA
ATOM     85  N   UNL A   1      34.139  21.975  25.176  1.00  0.00    -0.260 N 
ATOM     86  O   UNL A   1      33.698  19.734  24.825  1.00  0.00    -0.248 OA
BRANCH  85  87
ATOM     87  C   UNL A   1      32.708  22.280  25.359  1.00  0.00     0.136 C 
BRANCH  87  88
ATOM     88  C   UNL A   1      31.926  22.615  24.054  1.00  0.00     0.060 C 
BRANCH  88  89
ATOM     89  C   UNL A   1      31.076  23.840  24.172  1.00  0.00    -0.021 A 
ATOM     90  C   UNL A   1      30.112  24.291  23.287  1.00  0.00     0.087 A 
ATOM     91  C   UNL A   1      31.202  24.846  25.172  1.00  0.00     0.003 A 
ATOM     92  N   UNL A   1      29.752  25.554  23.684  1.00  0.00    -0.361 N 
ATOM     93  C   UNL A   1      30.684  25.990  24.590  1.00  0.00     0.046 A 
ATOM     94  C   UNL A   1      31.871  24.968  26.393  1.00  0.00     0.010 A 
ATOM     95  H   UNL A   1      28.965  26.057  23.373  1.00  0.00     0.166 HD
ATOM     96  C   UNL A   1      31.096  27.261  24.961  1.00  0.00     0.026 A 
ATOM     97  C   UNL A   1      32.169  26.255  26.854  1.00  0.00     0.001 A 
ATOM     98  C   UNL A   1      31.834  27.387  26.126  1.00  0.00     0.002 A 
ENDBRANCH  88  89
ENDBRANCH  87  88
ENDBRANCH  85  87
ENDBRANCH  72  74
ENDBRANCH  71  72
ENDBRANCH  70  71
ENDBRANCH   1  70
TORSDOF 17
ENDMDL
