MODEL 1
REMARK VINA RESULT:     -11.8      0.000      0.000
REMARK SMILES Cc1ccc([C@@H](C)Nc2ccccc2C(=O)OCCOC(=O)c2ccc(-c3c4nc(c(-c5cccc(S(=O)(=O)[O-])c5F)c5ccc([nH]5)c(-c5cccc(S(=O)(=O)[O-])c5F)c5nc(c(-c6cccc(S(=O)(=O)[O-])c6F)c6ccc3[nH]6)C=C5)C=C4)cc2)cc1F
REMARK SMILES IDX 18 1 17 2 15 3 16 4 14 5 9 6 10 7 11 8 13 9 12 10 8 11 6 13
REMARK SMILES IDX 7 14 5 15 1 16 2 17 3 18 87 19 4 20 86 21 88 22 19 23 20 24
REMARK SMILES IDX 21 25 22 26 23 27 24 28 85 29 25 30 84 31 26 32 27 33 28 34
REMARK SMILES IDX 78 35 29 36 83 37 77 38 79 39 30 40 82 41 76 42 75 43 31 45
REMARK SMILES IDX 63 46 43 47 62 48 44 49 47 50 61 51 80 52 45 53 46 54 60 56
REMARK SMILES IDX 81 57 48 58 32 59 33 60 41 61 34 62 36 63 42 64 35 65 37 66
REMARK SMILES IDX 38 67 39 68 40 69 64 70 65 71 73 72 66 73 68 74 74 75 67 76
REMARK SMILES IDX 69 77 70 78 71 79 72 80 49 81 50 82 58 83 51 84 53 85 59 86
REMARK SMILES IDX 52 87 54 88 55 89 56 90 57 91
REMARK H PARENT 8 12 79 44 47 55
REMARK Flexibility Score: inf
ROOT
ATOM      1  C   UNL A   1      33.121  31.014  27.587  1.00  0.00     0.275 C 
ENDROOT
BRANCH   1   2
ATOM      2  O   UNL A   1      32.996  30.690  26.191  1.00  0.00    -0.458 OA
BRANCH   2   3
ATOM      3  C   UNL A   1      33.133  29.433  25.738  1.00  0.00     0.340 C 
ATOM      4  O   UNL A   1      33.977  28.631  26.129  1.00  0.00    -0.246 OA
BRANCH   3   5
ATOM      5  C   UNL A   1      32.037  29.081  24.778  1.00  0.00     0.083 A 
ATOM      6  C   UNL A   1      31.946  27.935  23.953  1.00  0.00     0.049 A 
ATOM      7  C   UNL A   1      30.798  27.851  23.119  1.00  0.00     0.026 A 
ATOM      8  C   UNL A   1      29.810  28.837  23.062  1.00  0.00     0.002 A 
ATOM      9  C   UNL A   1      31.027  30.077  24.708  1.00  0.00     0.018 A 
ATOM     10  C   UNL A   1      29.929  29.962  23.856  1.00  0.00     0.001 A 
BRANCH   6  11
ATOM     11  N   UNL A   1      32.745  26.801  23.901  1.00  0.00    -0.378 N 
ATOM     12  H   UNL A   1      33.592  26.911  23.411  1.00  0.00     0.161 HD
BRANCH  11  13
ATOM     13  C   UNL A   1      32.527  25.482  24.453  1.00  0.00     0.106 C 
ATOM     14  C   UNL A   1      31.909  25.576  25.848  1.00  0.00     0.036 C 
BRANCH  13  15
ATOM     15  C   UNL A   1      33.814  24.690  24.407  1.00  0.00    -0.023 A 
ATOM     16  C   UNL A   1      37.283  22.154  24.267  1.00  0.00     0.047 C 
ATOM     17  C   UNL A   1      36.087  23.049  24.284  1.00  0.00    -0.015 A 
ATOM     18  C   UNL A   1      35.113  22.960  23.288  1.00  0.00     0.007 A 
ATOM     19  C   UNL A   1      35.927  23.987  25.311  1.00  0.00     0.126 A 
ATOM     20  C   UNL A   1      33.993  23.778  23.347  1.00  0.00     0.006 A 
ATOM     21  C   UNL A   1      34.808  24.806  25.379  1.00  0.00     0.045 A 
ATOM     22  F   UNL A   1      36.864  24.089  26.265  1.00  0.00    -0.207 F 
ENDBRANCH  13  15
ENDBRANCH  11  13
ENDBRANCH   6  11
ENDBRANCH   3   5
ENDBRANCH   2   3
ENDBRANCH   1   2
BRANCH   1  23
ATOM     23  C   UNL A   1      33.852  32.341  27.705  1.00  0.00     0.275 C 
BRANCH  23  24
ATOM     24  O   UNL A   1      35.247  32.076  27.565  1.00  0.00    -0.458 OA
BRANCH  24  25
ATOM     25  C   UNL A   1      35.800  31.608  28.705  1.00  0.00     0.338 C 
ATOM     26  O   UNL A   1      36.074  32.209  29.728  1.00  0.00    -0.246 OA
BRANCH  25  27
ATOM     27  C   UNL A   1      36.257  30.240  28.515  1.00  0.00     0.060 A 
ATOM     28  C   UNL A   1      36.554  29.595  29.727  1.00  0.00     0.016 A 
ATOM     29  C   UNL A   1      37.040  30.116  27.367  1.00  0.00     0.016 A 
ATOM     30  C   UNL A   1      37.834  29.127  29.902  1.00  0.00     0.010 A 
ATOM     31  C   UNL A   1      38.317  29.679  27.552  1.00  0.00     0.010 A 
ATOM     32  C   UNL A   1      38.713  29.271  28.831  1.00  0.00    -0.014 A 
BRANCH  32  33
ATOM     33  C   UNL A   1      40.080  28.842  28.903  1.00  0.00     0.031 A 
ATOM     34  C   UNL A   1      40.292  27.414  28.644  1.00  0.00     0.074 A 
ATOM     35  C   UNL A   1      41.055  29.749  29.095  1.00  0.00     0.049 A 
ATOM     36  N   UNL A   1      41.252  26.716  29.128  1.00  0.00    -0.248 NA
ATOM     37  C   UNL A   1      39.329  26.618  27.873  1.00  0.00     0.031 C 
ATOM     38  C   UNL A   1      42.478  29.566  28.858  1.00  0.00     0.029 A 
ATOM     39  N   UNL A   1      40.998  31.022  29.636  1.00  0.00    -0.354 N 
ATOM     40  C   UNL A   1      41.256  25.535  28.425  1.00  0.00     0.074 A 
ATOM     41  C   UNL A   1      39.958  25.444  27.801  1.00  0.00     0.031 C 
ATOM     42  C   UNL A   1      43.153  30.529  29.511  1.00  0.00     0.029 A 
ATOM     43  C   UNL A   1      42.190  31.259  30.321  1.00  0.00     0.049 A 
ATOM     44  H   UNL A   1      40.245  31.651  29.552  1.00  0.00     0.167 HD
ATOM     45  C   UNL A   1      42.432  24.875  28.253  1.00  0.00     0.034 A 
ATOM     46  C   UNL A   1      42.263  31.366  31.684  1.00  0.00     0.034 A 
ATOM     47  C   UNL A   1      43.514  25.602  28.902  1.00  0.00     0.049 A 
ATOM     48  C   UNL A   1      43.092  30.252  32.289  1.00  0.00     0.074 A 
ATOM     49  C   UNL A   1      44.415  26.535  28.409  1.00  0.00     0.029 A 
ATOM     50  N   UNL A   1      43.517  25.743  30.283  1.00  0.00    -0.354 N 
ATOM     51  N   UNL A   1      43.206  29.065  31.754  1.00  0.00    -0.248 NA
ATOM     52  C   UNL A   1      43.882  30.396  33.508  1.00  0.00     0.031 C 
ATOM     53  C   UNL A   1      44.918  27.280  29.503  1.00  0.00     0.029 A 
ATOM     54  C   UNL A   1      44.334  26.791  30.658  1.00  0.00     0.049 A 
ATOM     55  H   UNL A   1      43.008  25.178  30.907  1.00  0.00     0.167 HD
ATOM     56  C   UNL A   1      44.128  28.337  32.465  1.00  0.00     0.074 A 
ATOM     57  C   UNL A   1      44.498  29.202  33.569  1.00  0.00     0.031 C 
ATOM     58  C   UNL A   1      44.546  27.099  32.065  1.00  0.00     0.034 A 
BRANCH  45  59
ATOM     59  C   UNL A   1      42.612  23.816  27.194  1.00  0.00     0.023 A 
ATOM     60  C   UNL A   1      43.381  24.037  26.030  1.00  0.00     0.012 A 
ATOM     61  C   UNL A   1      42.046  22.532  27.337  1.00  0.00     0.148 A 
ATOM     62  C   UNL A   1      43.687  23.007  25.131  1.00  0.00     0.002 A 
ATOM     63  C   UNL A   1      42.312  21.520  26.416  1.00  0.00     0.091 A 
ATOM     64  F   UNL A   1      41.244  22.259  28.372  1.00  0.00    -0.205 F 
ATOM     65  C   UNL A   1      43.156  21.740  25.328  1.00  0.00     0.022 A 
BRANCH  63  66
ATOM     66  S   UNL A   1      41.536  19.919  26.645  1.00  0.00     0.127 S 
ATOM     67  O   UNL A   1      41.809  19.240  25.383  1.00  0.00    -0.237 OA
ATOM     68  O   UNL A   1      42.204  19.396  27.832  1.00  0.00    -0.237 OA
ATOM     69  O   UNL A   1      40.126  20.258  26.853  1.00  0.00    -0.744 OA
ENDBRANCH  63  66
ENDBRANCH  45  59
BRANCH  46  70
ATOM     70  C   UNL A   1      41.055  31.983  32.303  1.00  0.00     0.023 A 
ATOM     71  C   UNL A   1      41.051  33.347  32.648  1.00  0.00     0.012 A 
ATOM     72  C   UNL A   1      40.174  31.108  32.970  1.00  0.00     0.148 A 
ATOM     73  C   UNL A   1      40.291  33.789  33.741  1.00  0.00     0.002 A 
ATOM     74  C   UNL A   1      39.468  31.542  34.088  1.00  0.00     0.091 A 
ATOM     75  F   UNL A   1      40.129  29.823  32.580  1.00  0.00    -0.205 F 
ATOM     76  C   UNL A   1      39.538  32.880  34.491  1.00  0.00     0.022 A 
BRANCH  74  77
ATOM     77  S   UNL A   1      38.694  30.310  35.146  1.00  0.00     0.127 S 
ATOM     78  O   UNL A   1      39.837  29.703  35.821  1.00  0.00    -0.237 OA
ATOM     79  O   UNL A   1      37.790  31.096  35.982  1.00  0.00    -0.237 OA
ATOM     80  O   UNL A   1      38.004  29.423  34.212  1.00  0.00    -0.744 OA
ENDBRANCH  74  77
ENDBRANCH  46  70
BRANCH  58  81
ATOM     81  C   UNL A   1      45.329  26.091  32.877  1.00  0.00     0.023 A 
ATOM     82  C   UNL A   1      46.746  26.211  32.904  1.00  0.00     0.012 A 
ATOM     83  C   UNL A   1      44.789  24.969  33.514  1.00  0.00     0.148 A 
ATOM     84  C   UNL A   1      47.576  25.264  33.506  1.00  0.00     0.002 A 
ATOM     85  C   UNL A   1      45.612  24.088  34.218  1.00  0.00     0.091 A 
ATOM     86  F   UNL A   1      43.484  24.690  33.406  1.00  0.00    -0.205 F 
ATOM     87  C   UNL A   1      47.004  24.207  34.189  1.00  0.00     0.022 A 
BRANCH  85  88
ATOM     88  S   UNL A   1      44.839  22.864  35.273  1.00  0.00     0.127 S 
ATOM     89  O   UNL A   1      45.233  21.609  34.637  1.00  0.00    -0.237 OA
ATOM     90  O   UNL A   1      45.414  23.135  36.586  1.00  0.00    -0.237 OA
ATOM     91  O   UNL A   1      43.413  23.171  35.163  1.00  0.00    -0.744 OA
ENDBRANCH  85  88
ENDBRANCH  58  81
ENDBRANCH  32  33
ENDBRANCH  25  27
ENDBRANCH  24  25
ENDBRANCH  23  24
ENDBRANCH   1  23
TORSDOF 17
ENDMDL
MODEL 2
REMARK VINA RESULT:     -11.8      4.752     10.436
REMARK SMILES Cc1ccc([C@@H](C)Nc2ccccc2C(=O)OCCOC(=O)c2ccc(-c3c4nc(c(-c5cccc(S(=O)(=O)[O-])c5F)c5ccc([nH]5)c(-c5cccc(S(=O)(=O)[O-])c5F)c5nc(c(-c6cccc(S(=O)(=O)[O-])c6F)c6ccc3[nH]6)C=C5)C=C4)cc2)cc1F
REMARK SMILES IDX 18 1 17 2 15 3 16 4 14 5 9 6 10 7 11 8 13 9 12 10 8 11 6 13
REMARK SMILES IDX 7 14 5 15 1 16 2 17 3 18 87 19 4 20 86 21 88 22 19 23 20 24
REMARK SMILES IDX 21 25 22 26 23 27 24 28 85 29 25 30 84 31 26 32 27 33 28 34
REMARK SMILES IDX 78 35 29 36 83 37 77 38 79 39 30 40 82 41 76 42 75 43 31 45
REMARK SMILES IDX 63 46 43 47 62 48 44 49 47 50 61 51 80 52 45 53 46 54 60 56
REMARK SMILES IDX 81 57 48 58 32 59 33 60 41 61 34 62 36 63 42 64 35 65 37 66
REMARK SMILES IDX 38 67 39 68 40 69 64 70 65 71 73 72 66 73 68 74 74 75 67 76
REMARK SMILES IDX 69 77 70 78 71 79 72 80 49 81 50 82 58 83 51 84 53 85 59 86
REMARK SMILES IDX 52 87 54 88 55 89 56 90 57 91
REMARK H PARENT 8 12 79 44 47 55
REMARK Flexibility Score: inf
ROOT
ATOM      1  C   UNL A   1      43.252  18.960  25.139  1.00  0.00     0.275 C 
ENDROOT
BRANCH   1   2
ATOM      2  O   UNL A   1      42.418  19.238  26.279  1.00  0.00    -0.458 OA
BRANCH   2   3
ATOM      3  C   UNL A   1      41.131  19.598  26.146  1.00  0.00     0.340 C 
ATOM      4  O   UNL A   1      40.244  18.887  25.681  1.00  0.00    -0.246 OA
BRANCH   3   5
ATOM      5  C   UNL A   1      40.879  20.942  26.758  1.00  0.00     0.083 A 
ATOM      6  C   UNL A   1      39.884  21.882  26.401  1.00  0.00     0.049 A 
ATOM      7  C   UNL A   1      39.871  23.096  27.140  1.00  0.00     0.026 A 
ATOM      8  C   UNL A   1      40.792  23.397  28.147  1.00  0.00     0.002 A 
ATOM      9  C   UNL A   1      41.809  21.262  27.783  1.00  0.00     0.018 A 
ATOM     10  C   UNL A   1      41.772  22.477  28.466  1.00  0.00     0.001 A 
BRANCH   6  11
ATOM     11  N   UNL A   1      38.825  21.773  25.509  1.00  0.00    -0.378 N 
ATOM     12  H   UNL A   1      38.974  22.196  24.633  1.00  0.00     0.161 HD
BRANCH  11  13
ATOM     13  C   UNL A   1      37.537  21.134  25.668  1.00  0.00     0.106 C 
ATOM     14  C   UNL A   1      37.359  20.014  24.642  1.00  0.00     0.036 C 
BRANCH  13  15
ATOM     15  C   UNL A   1      36.442  22.177  25.630  1.00  0.00    -0.023 A 
ATOM     16  C   UNL A   1      33.574  25.378  25.534  1.00  0.00     0.047 C 
ATOM     17  C   UNL A   1      34.560  24.255  25.535  1.00  0.00    -0.015 A 
ATOM     18  C   UNL A   1      35.566  24.187  24.570  1.00  0.00     0.007 A 
ATOM     19  C   UNL A   1      34.488  23.260  26.515  1.00  0.00     0.126 A 
ATOM     20  C   UNL A   1      36.492  23.153  24.614  1.00  0.00     0.006 A 
ATOM     21  C   UNL A   1      35.412  22.224  26.569  1.00  0.00     0.045 A 
ATOM     22  F   UNL A   1      33.517  23.310  27.439  1.00  0.00    -0.207 F 
ENDBRANCH  13  15
ENDBRANCH  11  13
ENDBRANCH   6  11
ENDBRANCH   3   5
ENDBRANCH   2   3
ENDBRANCH   1   2
BRANCH   1  23
ATOM     23  C   UNL A   1      44.537  19.759  25.283  1.00  0.00     0.275 C 
BRANCH  23  24
ATOM     24  O   UNL A   1      44.517  20.787  24.292  1.00  0.00    -0.458 OA
BRANCH  24  25
ATOM     25  C   UNL A   1      44.062  21.961  24.777  1.00  0.00     0.338 C 
ATOM     26  O   UNL A   1      42.963  22.471  24.649  1.00  0.00    -0.246 OA
BRANCH  25  27
ATOM     27  C   UNL A   1      45.159  22.723  25.355  1.00  0.00     0.060 A 
ATOM     28  C   UNL A   1      45.250  22.569  26.749  1.00  0.00     0.016 A 
ATOM     29  C   UNL A   1      45.334  23.944  24.704  1.00  0.00     0.016 A 
ATOM     30  C   UNL A   1      45.144  23.700  27.522  1.00  0.00     0.010 A 
ATOM     31  C   UNL A   1      45.199  25.061  25.471  1.00  0.00     0.010 A 
ATOM     32  C   UNL A   1      45.025  24.916  26.853  1.00  0.00    -0.014 A 
BRANCH  32  33
ATOM     33  C   UNL A   1      44.886  26.161  27.551  1.00  0.00     0.031 A 
ATOM     34  C   UNL A   1      43.555  26.771  27.464  1.00  0.00     0.074 A 
ATOM     35  C   UNL A   1      45.907  26.628  28.294  1.00  0.00     0.049 A 
ATOM     36  N   UNL A   1      43.319  28.029  27.531  1.00  0.00    -0.248 NA
ATOM     37  C   UNL A   1      42.358  25.972  27.175  1.00  0.00     0.031 C 
ATOM     38  C   UNL A   1      45.842  27.657  29.319  1.00  0.00     0.029 A 
ATOM     39  N   UNL A   1      47.259  26.343  28.233  1.00  0.00    -0.354 N 
ATOM     40  C   UNL A   1      41.960  28.153  27.700  1.00  0.00     0.074 A 
ATOM     41  C   UNL A   1      41.396  26.889  27.293  1.00  0.00     0.031 C 
ATOM     42  C   UNL A   1      47.086  28.110  29.556  1.00  0.00     0.029 A 
ATOM     43  C   UNL A   1      47.964  27.499  28.571  1.00  0.00     0.049 A 
ATOM     44  H   UNL A   1      47.656  25.475  27.992  1.00  0.00     0.167 HD
ATOM     45  C   UNL A   1      41.477  29.223  28.386  1.00  0.00     0.034 A 
ATOM     46  C   UNL A   1      48.716  28.209  27.672  1.00  0.00     0.034 A 
ATOM     47  C   UNL A   1      42.574  30.078  28.819  1.00  0.00     0.049 A 
ATOM     48  C   UNL A   1      48.157  29.599  27.450  1.00  0.00     0.074 A 
ATOM     49  C   UNL A   1      43.280  30.127  30.012  1.00  0.00     0.029 A 
ATOM     50  N   UNL A   1      43.353  30.729  27.872  1.00  0.00    -0.354 N 
ATOM     51  N   UNL A   1      46.890  29.895  27.568  1.00  0.00    -0.248 NA
ATOM     52  C   UNL A   1      48.977  30.761  27.123  1.00  0.00     0.031 C 
ATOM     53  C   UNL A   1      44.520  30.763  29.761  1.00  0.00     0.029 A 
ATOM     54  C   UNL A   1      44.559  31.113  28.424  1.00  0.00     0.049 A 
ATOM     55  H   UNL A   1      43.084  30.894  26.940  1.00  0.00     0.167 HD
ATOM     56  C   UNL A   1      46.729  31.252  27.440  1.00  0.00     0.074 A 
ATOM     57  C   UNL A   1      48.059  31.745  27.132  1.00  0.00     0.031 C 
ATOM     58  C   UNL A   1      45.526  31.868  27.639  1.00  0.00     0.034 A 
BRANCH  45  59
ATOM     59  C   UNL A   1      40.081  29.248  28.956  1.00  0.00     0.023 A 
ATOM     60  C   UNL A   1      38.942  29.470  28.151  1.00  0.00     0.012 A 
ATOM     61  C   UNL A   1      39.844  29.012  30.326  1.00  0.00     0.148 A 
ATOM     62  C   UNL A   1      37.639  29.327  28.646  1.00  0.00     0.002 A 
ATOM     63  C   UNL A   1      38.546  28.917  30.827  1.00  0.00     0.091 A 
ATOM     64  F   UNL A   1      40.868  28.865  31.173  1.00  0.00    -0.205 F 
ATOM     65  C   UNL A   1      37.439  29.043  29.988  1.00  0.00     0.022 A 
BRANCH  63  66
ATOM     66  S   UNL A   1      38.318  28.643  32.586  1.00  0.00     0.127 S 
ATOM     67  O   UNL A   1      38.724  27.252  32.754  1.00  0.00    -0.237 OA
ATOM     68  O   UNL A   1      39.176  29.657  33.190  1.00  0.00    -0.237 OA
ATOM     69  O   UNL A   1      36.886  28.880  32.777  1.00  0.00    -0.744 OA
ENDBRANCH  63  66
ENDBRANCH  45  59
BRANCH  46  70
ATOM     70  C   UNL A   1      49.369  27.361  26.635  1.00  0.00     0.023 A 
ATOM     71  C   UNL A   1      50.743  27.068  26.717  1.00  0.00     0.012 A 
ATOM     72  C   UNL A   1      48.734  27.303  25.378  1.00  0.00     0.148 A 
ATOM     73  C   UNL A   1      51.488  26.876  25.545  1.00  0.00     0.002 A 
ATOM     74  C   UNL A   1      49.489  27.169  24.216  1.00  0.00     0.091 A 
ATOM     75  F   UNL A   1      47.408  27.507  25.320  1.00  0.00    -0.205 F 
ATOM     76  C   UNL A   1      50.873  26.974  24.293  1.00  0.00     0.022 A 
BRANCH  74  77
ATOM     77  S   UNL A   1      48.703  27.518  22.636  1.00  0.00     0.127 S 
ATOM     78  O   UNL A   1      47.389  28.012  23.033  1.00  0.00    -0.237 OA
ATOM     79  O   UNL A   1      49.601  28.487  22.014  1.00  0.00    -0.237 OA
ATOM     80  O   UNL A   1      48.681  26.223  21.957  1.00  0.00    -0.744 OA
ENDBRANCH  74  77
ENDBRANCH  46  70
BRANCH  58  81
ATOM     81  C   UNL A   1      45.151  33.286  27.271  1.00  0.00     0.023 A 
ATOM     82  C   UNL A   1      44.551  33.512  26.002  1.00  0.00     0.012 A 
ATOM     83  C   UNL A   1      45.452  34.425  28.027  1.00  0.00     0.148 A 
ATOM     84  C   UNL A   1      44.287  34.788  25.504  1.00  0.00     0.002 A 
ATOM     85  C   UNL A   1      45.078  35.692  27.578  1.00  0.00     0.091 A 
ATOM     86  F   UNL A   1      46.158  34.320  29.159  1.00  0.00    -0.205 F 
ATOM     87  C   UNL A   1      44.530  35.886  26.308  1.00  0.00     0.022 A 
BRANCH  85  88
ATOM     88  S   UNL A   1      45.198  37.067  28.721  1.00  0.00     0.127 S 
ATOM     89  O   UNL A   1      44.428  36.589  29.867  1.00  0.00    -0.237 OA
ATOM     90  O   UNL A   1      46.634  37.218  28.922  1.00  0.00    -0.237 OA
ATOM     91  O   UNL A   1      44.570  38.170  27.993  1.00  0.00    -0.744 OA
ENDBRANCH  85  88
ENDBRANCH  58  81
ENDBRANCH  32  33
ENDBRANCH  25  27
ENDBRANCH  24  25
ENDBRANCH  23  24
ENDBRANCH   1  23
TORSDOF 17
ENDMDL
MODEL 3
REMARK VINA RESULT:     -11.5      4.140      9.541
REMARK SMILES Cc1ccc([C@@H](C)Nc2ccccc2C(=O)OCCOC(=O)c2ccc(-c3c4nc(c(-c5cccc(S(=O)(=O)[O-])c5F)c5ccc([nH]5)c(-c5cccc(S(=O)(=O)[O-])c5F)c5nc(c(-c6cccc(S(=O)(=O)[O-])c6F)c6ccc3[nH]6)C=C5)C=C4)cc2)cc1F
REMARK SMILES IDX 18 1 17 2 15 3 16 4 14 5 9 6 10 7 11 8 13 9 12 10 8 11 6 13
REMARK SMILES IDX 7 14 5 15 1 16 2 17 3 18 87 19 4 20 86 21 88 22 19 23 20 24
REMARK SMILES IDX 21 25 22 26 23 27 24 28 85 29 25 30 84 31 26 32 27 33 28 34
REMARK SMILES IDX 78 35 29 36 83 37 77 38 79 39 30 40 82 41 76 42 75 43 31 45
REMARK SMILES IDX 63 46 43 47 62 48 44 49 47 50 61 51 80 52 45 53 46 54 60 56
REMARK SMILES IDX 81 57 48 58 32 59 33 60 41 61 34 62 36 63 42 64 35 65 37 66
REMARK SMILES IDX 38 67 39 68 40 69 64 70 65 71 73 72 66 73 68 74 74 75 67 76
REMARK SMILES IDX 69 77 70 78 71 79 72 80 49 81 50 82 58 83 51 84 53 85 59 86
REMARK SMILES IDX 52 87 54 88 55 89 56 90 57 91
REMARK H PARENT 8 12 79 44 47 55
REMARK Flexibility Score: inf
ROOT
ATOM      1  C   UNL A   1      37.741  21.709  26.089  1.00  0.00     0.275 C 
ENDROOT
BRANCH   1   2
ATOM      2  O   UNL A   1      37.072  21.329  24.873  1.00  0.00    -0.458 OA
BRANCH   2   3
ATOM      3  C   UNL A   1      36.246  22.168  24.225  1.00  0.00     0.340 C 
ATOM      4  O   UNL A   1      36.606  23.122  23.540  1.00  0.00    -0.246 OA
BRANCH   3   5
ATOM      5  C   UNL A   1      34.821  21.718  24.336  1.00  0.00     0.083 A 
ATOM      6  C   UNL A   1      33.653  22.481  24.101  1.00  0.00     0.049 A 
ATOM      7  C   UNL A   1      32.414  21.809  24.292  1.00  0.00     0.026 A 
ATOM      8  C   UNL A   1      32.313  20.483  24.718  1.00  0.00     0.002 A 
ATOM      9  C   UNL A   1      34.703  20.371  24.770  1.00  0.00     0.018 A 
ATOM     10  C   UNL A   1      33.465  19.761  24.966  1.00  0.00     0.001 A 
BRANCH   6  11
ATOM     11  N   UNL A   1      33.507  23.766  23.598  1.00  0.00    -0.378 N 
ATOM     12  H   UNL A   1      33.225  23.815  22.656  1.00  0.00     0.161 HD
BRANCH  11  13
ATOM     13  C   UNL A   1      33.706  25.046  24.242  1.00  0.00     0.106 C 
ATOM     14  C   UNL A   1      34.090  24.858  25.710  1.00  0.00     0.036 C 
BRANCH  13  15
ATOM     15  C   UNL A   1      32.488  25.917  24.035  1.00  0.00    -0.023 A 
ATOM     16  C   UNL A   1      28.971  28.228  23.154  1.00  0.00     0.047 C 
ATOM     17  C   UNL A   1      30.177  27.412  23.489  1.00  0.00    -0.015 A 
ATOM     18  C   UNL A   1      30.103  26.019  23.548  1.00  0.00     0.007 A 
ATOM     19  C   UNL A   1      31.401  28.041  23.741  1.00  0.00     0.126 A 
ATOM     20  C   UNL A   1      31.247  25.282  23.827  1.00  0.00     0.006 A 
ATOM     21  C   UNL A   1      32.551  27.311  24.016  1.00  0.00     0.045 A 
ATOM     22  F   UNL A   1      31.479  29.379  23.699  1.00  0.00    -0.207 F 
ENDBRANCH  13  15
ENDBRANCH  11  13
ENDBRANCH   6  11
ENDBRANCH   3   5
ENDBRANCH   2   3
ENDBRANCH   1   2
BRANCH   1  23
ATOM     23  C   UNL A   1      39.212  21.929  25.775  1.00  0.00     0.275 C 
BRANCH  23  24
ATOM     24  O   UNL A   1      39.860  22.301  26.991  1.00  0.00    -0.458 OA
BRANCH  24  25
ATOM     25  C   UNL A   1      40.693  23.351  26.830  1.00  0.00     0.338 C 
ATOM     26  O   UNL A   1      41.911  23.376  26.857  1.00  0.00    -0.246 OA
BRANCH  25  27
ATOM     27  C   UNL A   1      39.936  24.593  26.813  1.00  0.00     0.060 A 
ATOM     28  C   UNL A   1      40.653  25.658  26.241  1.00  0.00     0.016 A 
ATOM     29  C   UNL A   1      39.143  24.726  27.953  1.00  0.00     0.016 A 
ATOM     30  C   UNL A   1      40.879  26.765  27.022  1.00  0.00     0.010 A 
ATOM     31  C   UNL A   1      39.392  25.812  28.738  1.00  0.00     0.010 A 
ATOM     32  C   UNL A   1      40.314  26.767  28.296  1.00  0.00    -0.014 A 
BRANCH  32  33
ATOM     33  C   UNL A   1      40.498  27.857  29.210  1.00  0.00     0.031 A 
ATOM     34  C   UNL A   1      39.533  28.952  29.067  1.00  0.00     0.074 A 
ATOM     35  C   UNL A   1      41.440  27.773  30.169  1.00  0.00     0.049 A 
ATOM     36  N   UNL A   1      39.767  30.178  29.359  1.00  0.00    -0.248 NA
ATOM     37  C   UNL A   1      38.216  28.743  28.455  1.00  0.00     0.031 C 
ATOM     38  C   UNL A   1      41.544  28.592  31.365  1.00  0.00     0.029 A 
ATOM     39  N   UNL A   1      42.575  26.984  30.240  1.00  0.00    -0.354 N 
ATOM     40  C   UNL A   1      38.545  30.808  29.359  1.00  0.00     0.074 A 
ATOM     41  C   UNL A   1      37.655  29.942  28.625  1.00  0.00     0.031 C 
ATOM     42  C   UNL A   1      42.789  28.475  31.862  1.00  0.00     0.029 A 
ATOM     43  C   UNL A   1      43.566  27.706  30.904  1.00  0.00     0.049 A 
ATOM     44  H   UNL A   1      42.666  26.072  29.882  1.00  0.00     0.167 HD
ATOM     45  C   UNL A   1      38.356  31.878  30.177  1.00  0.00     0.034 A 
ATOM     46  C   UNL A   1      44.696  28.173  30.285  1.00  0.00     0.034 A 
ATOM     47  C   UNL A   1      39.573  32.158  30.926  1.00  0.00     0.049 A 
ATOM     48  C   UNL A   1      44.746  29.686  30.280  1.00  0.00     0.074 A 
ATOM     49  C   UNL A   1      39.982  31.758  32.190  1.00  0.00     0.029 A 
ATOM     50  N   UNL A   1      40.716  32.567  30.253  1.00  0.00    -0.354 N 
ATOM     51  N   UNL A   1      43.680  30.444  30.279  1.00  0.00    -0.248 NA
ATOM     52  C   UNL A   1      45.983  30.459  30.318  1.00  0.00     0.031 C 
ATOM     53  C   UNL A   1      41.392  31.876  32.252  1.00  0.00     0.029 A 
ATOM     54  C   UNL A   1      41.835  32.360  31.035  1.00  0.00     0.049 A 
ATOM     55  H   UNL A   1      40.728  32.951  29.347  1.00  0.00     0.167 HD
ATOM     56  C   UNL A   1      44.059  31.756  30.413  1.00  0.00     0.074 A 
ATOM     57  C   UNL A   1      45.509  31.715  30.403  1.00  0.00     0.031 C 
ATOM     58  C   UNL A   1      43.152  32.767  30.566  1.00  0.00     0.034 A 
BRANCH  45  59
ATOM     59  C   UNL A   1      36.980  32.379  30.539  1.00  0.00     0.023 A 
ATOM     60  C   UNL A   1      36.471  32.299  31.855  1.00  0.00     0.012 A 
ATOM     61  C   UNL A   1      36.146  32.990  29.581  1.00  0.00     0.148 A 
ATOM     62  C   UNL A   1      35.268  32.911  32.228  1.00  0.00     0.002 A 
ATOM     63  C   UNL A   1      34.926  33.558  29.945  1.00  0.00     0.091 A 
ATOM     64  F   UNL A   1      36.517  33.043  28.297  1.00  0.00    -0.205 F 
ATOM     65  C   UNL A   1      34.494  33.551  31.271  1.00  0.00     0.022 A 
BRANCH  63  66
ATOM     66  S   UNL A   1      33.902  34.294  28.668  1.00  0.00     0.127 S 
ATOM     67  O   UNL A   1      34.751  35.357  28.142  1.00  0.00    -0.237 OA
ATOM     68  O   UNL A   1      33.626  33.170  27.780  1.00  0.00    -0.237 OA
ATOM     69  O   UNL A   1      32.733  34.770  29.412  1.00  0.00    -0.744 OA
ENDBRANCH  63  66
ENDBRANCH  45  59
BRANCH  46  70
ATOM     70  C   UNL A   1      45.194  27.285  29.197  1.00  0.00     0.023 A 
ATOM     71  C   UNL A   1      46.285  26.426  29.423  1.00  0.00     0.012 A 
ATOM     72  C   UNL A   1      44.902  27.684  27.877  1.00  0.00     0.148 A 
ATOM     73  C   UNL A   1      47.152  26.104  28.368  1.00  0.00     0.002 A 
ATOM     74  C   UNL A   1      45.797  27.407  26.847  1.00  0.00     0.091 A 
ATOM     75  F   UNL A   1      43.813  28.439  27.662  1.00  0.00    -0.205 F 
ATOM     76  C   UNL A   1      46.937  26.633  27.091  1.00  0.00     0.022 A 
BRANCH  74  77
ATOM     77  S   UNL A   1      45.605  28.280  25.286  1.00  0.00     0.127 S 
ATOM     78  O   UNL A   1      45.809  29.673  25.669  1.00  0.00    -0.237 OA
ATOM     79  O   UNL A   1      46.630  27.684  24.432  1.00  0.00    -0.237 OA
ATOM     80  O   UNL A   1      44.241  27.963  24.868  1.00  0.00    -0.744 OA
ENDBRANCH  74  77
ENDBRANCH  46  70
BRANCH  58  81
ATOM     81  C   UNL A   1      43.409  34.252  30.451  1.00  0.00     0.023 A 
ATOM     82  C   UNL A   1      43.708  34.974  31.640  1.00  0.00     0.012 A 
ATOM     83  C   UNL A   1      43.262  35.012  29.284  1.00  0.00     0.148 A 
ATOM     84  C   UNL A   1      43.831  36.363  31.673  1.00  0.00     0.002 A 
ATOM     85  C   UNL A   1      43.503  36.386  29.298  1.00  0.00     0.091 A 
ATOM     86  F   UNL A   1      42.827  34.441  28.154  1.00  0.00    -0.205 F 
ATOM     87  C   UNL A   1      43.751  37.073  30.489  1.00  0.00     0.022 A 
BRANCH  85  88
ATOM     88  S   UNL A   1      43.614  37.245  27.729  1.00  0.00     0.127 S 
ATOM     89  O   UNL A   1      42.239  37.185  27.241  1.00  0.00    -0.237 OA
ATOM     90  O   UNL A   1      44.115  38.564  28.099  1.00  0.00    -0.237 OA
ATOM     91  O   UNL A   1      44.559  36.432  26.964  1.00  0.00    -0.744 OA
ENDBRANCH  85  88
ENDBRANCH  58  81
ENDBRANCH  32  33
ENDBRANCH  25  27
ENDBRANCH  24  25
ENDBRANCH  23  24
ENDBRANCH   1  23
TORSDOF 17
ENDMDL
