MODEL 1
REMARK VINA RESULT:     -12.9      0.000      0.000
REMARK SMILES C[C@@H](C(=O)OCCOC(=O)c1ccc(-c2c3nc(c(-c4cccc(S(=O)(=O)[O-])c4F)c4ccc([nH]4)c(-c4cccc(S(=O)(=O)[O-])c4F)c4nc(c(-c5cccc(S(=O)(=O)[O-])c5F)c5ccc2[nH]5)C=C4)C=C3)cc1)c1ccc2c(c1)[nH]c1ccc(Cl)cc12
REMARK SMILES IDX 7 1 6 2 5 3 3 4 4 5 2 6 1 7 74 8 75 9 79 10 76 11 78 12
REMARK SMILES IDX 77 13 80 14 87 15 81 16 86 18 82 19 84 20 83 21 85 22 8 23
REMARK SMILES IDX 9 24 10 25 11 26 12 27 73 28 13 29 72 30 14 31 15 32 16 33
REMARK SMILES IDX 66 34 17 35 71 36 65 37 67 38 18 39 70 40 64 41 63 42 19 44
REMARK SMILES IDX 51 45 31 46 50 47 32 48 35 49 49 50 68 51 33 52 34 53 48 55
REMARK SMILES IDX 69 56 36 57 20 58 21 59 29 60 22 61 24 62 30 63 23 64 25 65
REMARK SMILES IDX 26 66 27 67 28 68 52 69 53 70 61 71 54 72 56 73 62 74 55 75
REMARK SMILES IDX 57 76 58 77 59 78 60 79 37 80 38 81 46 82 39 83 41 84 47 85
REMARK SMILES IDX 40 86 42 87 43 88 44 89 45 90
REMARK H PARENT 80 17 67 43 35 54
REMARK Flexibility Score: inf
ROOT
ATOM      1  C   UNL A   1      35.916  20.716  25.156  1.00  0.00     0.275 C 
ENDROOT
BRANCH   1   2
ATOM      2  C   UNL A   1      34.530  21.079  25.685  1.00  0.00     0.274 C 
BRANCH   2   3
ATOM      3  O   UNL A   1      34.156  22.408  25.258  1.00  0.00    -0.462 OA
BRANCH   3   4
ATOM      4  C   UNL A   1      32.823  22.683  25.147  1.00  0.00     0.313 C 
ATOM      5  O   UNL A   1      32.029  22.502  26.063  1.00  0.00    -0.252 OA
BRANCH   4   6
ATOM      6  C   UNL A   1      32.422  23.119  23.714  1.00  0.00     0.126 C 
ATOM      7  C   UNL A   1      33.605  22.941  22.742  1.00  0.00     0.025 C 
BRANCH   6   8
ATOM      8  C   UNL A   1      31.751  24.509  23.614  1.00  0.00    -0.032 A 
ATOM      9  C   UNL A   1      32.519  25.677  23.467  1.00  0.00     0.005 A 
ATOM     10  C   UNL A   1      30.350  24.661  23.720  1.00  0.00     0.031 A 
ATOM     11  C   UNL A   1      31.935  26.945  23.295  1.00  0.00     0.011 A 
ATOM     12  C   UNL A   1      29.782  25.939  23.585  1.00  0.00     0.047 A 
ATOM     13  C   UNL A   1      30.536  27.076  23.322  1.00  0.00     0.007 A 
ATOM     14  N   UNL A   1      28.468  26.341  23.667  1.00  0.00    -0.355 N 
ATOM     15  C   UNL A   1      29.624  28.157  23.103  1.00  0.00     0.009 A 
ATOM     16  C   UNL A   1      28.345  27.683  23.394  1.00  0.00     0.047 A 
ATOM     17  H   UNL A   1      27.717  25.746  23.889  1.00  0.00     0.167 HD
ATOM     18  C   UNL A   1      29.767  29.496  22.683  1.00  0.00     0.031 A 
ATOM     19  C   UNL A   1      27.205  28.498  23.367  1.00  0.00     0.028 A 
ATOM     20  C   UNL A   1      28.633  30.311  22.617  1.00  0.00     0.041 A 
ATOM     21  C   UNL A   1      27.376  29.828  22.975  1.00  0.00     0.022 A 
ATOM     22  Cl  UNL A   1      28.796  31.944  22.098  1.00  0.00    -0.084 Cl
ENDBRANCH   6   8
ENDBRANCH   4   6
ENDBRANCH   3   4
ENDBRANCH   2   3
ENDBRANCH   1   2
BRANCH   1  23
ATOM     23  O   UNL A   1      36.865  21.725  25.540  1.00  0.00    -0.458 OA
BRANCH  23  24
ATOM     24  C   UNL A   1      38.129  21.292  25.743  1.00  0.00     0.338 C 
ATOM     25  O   UNL A   1      38.613  20.220  25.405  1.00  0.00    -0.246 OA
BRANCH  24  26
ATOM     26  C   UNL A   1      38.924  22.412  26.258  1.00  0.00     0.060 A 
ATOM     27  C   UNL A   1      38.478  23.692  25.940  1.00  0.00     0.016 A 
ATOM     28  C   UNL A   1      40.096  22.232  26.994  1.00  0.00     0.016 A 
ATOM     29  C   UNL A   1      39.192  24.804  26.366  1.00  0.00     0.010 A 
ATOM     30  C   UNL A   1      40.816  23.358  27.422  1.00  0.00     0.010 A 
ATOM     31  C   UNL A   1      40.364  24.652  27.109  1.00  0.00    -0.014 A 
BRANCH  31  32
ATOM     32  C   UNL A   1      41.139  25.869  27.451  1.00  0.00     0.031 A 
ATOM     33  C   UNL A   1      40.512  26.918  28.321  1.00  0.00     0.074 A 
ATOM     34  C   UNL A   1      42.425  25.994  27.072  1.00  0.00     0.049 A 
ATOM     35  N   UNL A   1      40.992  28.072  28.700  1.00  0.00    -0.248 NA
ATOM     36  C   UNL A   1      39.169  26.619  28.845  1.00  0.00     0.031 C 
ATOM     37  C   UNL A   1      43.182  25.002  26.308  1.00  0.00     0.029 A 
ATOM     38  N   UNL A   1      43.323  27.012  27.281  1.00  0.00    -0.354 N 
ATOM     39  C   UNL A   1      39.999  28.658  29.472  1.00  0.00     0.074 A 
ATOM     40  C   UNL A   1      38.894  27.726  29.522  1.00  0.00     0.031 C 
ATOM     41  C   UNL A   1      44.425  25.467  26.102  1.00  0.00     0.029 A 
ATOM     42  C   UNL A   1      44.540  26.806  26.676  1.00  0.00     0.049 A 
ATOM     43  H   UNL A   1      43.114  27.814  27.814  1.00  0.00     0.167 HD
ATOM     44  C   UNL A   1      40.006  29.865  30.084  1.00  0.00     0.034 A 
ATOM     45  C   UNL A   1      45.610  27.619  26.568  1.00  0.00     0.034 A 
ATOM     46  C   UNL A   1      41.113  30.780  30.064  1.00  0.00     0.049 A 
ATOM     47  C   UNL A   1      45.563  28.988  27.201  1.00  0.00     0.074 A 
ATOM     48  C   UNL A   1      41.201  32.036  30.641  1.00  0.00     0.029 A 
ATOM     49  N   UNL A   1      42.326  30.541  29.438  1.00  0.00    -0.354 N 
ATOM     50  N   UNL A   1      44.630  29.520  27.951  1.00  0.00    -0.248 NA
ATOM     51  C   UNL A   1      46.722  29.866  26.975  1.00  0.00     0.031 C 
ATOM     52  C   UNL A   1      42.460  32.566  30.343  1.00  0.00     0.029 A 
ATOM     53  C   UNL A   1      43.163  31.634  29.597  1.00  0.00     0.049 A 
ATOM     54  H   UNL A   1      42.560  29.717  28.952  1.00  0.00     0.167 HD
ATOM     55  C   UNL A   1      45.099  30.779  28.312  1.00  0.00     0.074 A 
ATOM     56  C   UNL A   1      46.411  30.922  27.715  1.00  0.00     0.031 C 
ATOM     57  C   UNL A   1      44.490  31.741  29.049  1.00  0.00     0.034 A 
BRANCH  44  58
ATOM     58  C   UNL A   1      38.762  30.271  30.821  1.00  0.00     0.023 A 
ATOM     59  C   UNL A   1      38.617  29.943  32.184  1.00  0.00     0.012 A 
ATOM     60  C   UNL A   1      37.755  31.009  30.170  1.00  0.00     0.148 A 
ATOM     61  C   UNL A   1      37.472  30.328  32.883  1.00  0.00     0.002 A 
ATOM     62  C   UNL A   1      36.635  31.418  30.882  1.00  0.00     0.091 A 
ATOM     63  F   UNL A   1      37.903  31.279  28.865  1.00  0.00    -0.205 F 
ATOM     64  C   UNL A   1      36.489  31.073  32.236  1.00  0.00     0.022 A 
BRANCH  62  65
ATOM     65  S   UNL A   1      35.349  32.433  30.148  1.00  0.00     0.127 S 
ATOM     66  O   UNL A   1      36.109  33.602  29.711  1.00  0.00    -0.237 OA
ATOM     67  O   UNL A   1      34.864  31.581  29.061  1.00  0.00    -0.237 OA
ATOM     68  O   UNL A   1      34.378  32.674  31.206  1.00  0.00    -0.744 OA
ENDBRANCH  62  65
ENDBRANCH  44  58
BRANCH  45  69
ATOM     69  C   UNL A   1      46.826  27.171  25.829  1.00  0.00     0.023 A 
ATOM     70  C   UNL A   1      47.748  26.315  26.466  1.00  0.00     0.012 A 
ATOM     71  C   UNL A   1      47.080  27.589  24.509  1.00  0.00     0.148 A 
ATOM     72  C   UNL A   1      48.912  25.909  25.810  1.00  0.00     0.002 A 
ATOM     73  C   UNL A   1      48.212  27.136  23.842  1.00  0.00     0.091 A 
ATOM     74  F   UNL A   1      46.212  28.430  23.930  1.00  0.00    -0.205 F 
ATOM     75  C   UNL A   1      49.139  26.309  24.495  1.00  0.00     0.022 A 
BRANCH  73  76
ATOM     76  S   UNL A   1      48.512  27.502  22.109  1.00  0.00     0.127 S 
ATOM     77  O   UNL A   1      49.706  28.338  22.180  1.00  0.00    -0.237 OA
ATOM     78  O   UNL A   1      48.726  26.168  21.546  1.00  0.00    -0.237 OA
ATOM     79  O   UNL A   1      47.301  28.161  21.636  1.00  0.00    -0.744 OA
ENDBRANCH  73  76
ENDBRANCH  45  69
BRANCH  57  80
ATOM     80  C   UNL A   1      45.234  33.032  29.273  1.00  0.00     0.023 A 
ATOM     81  C   UNL A   1      46.070  33.164  30.399  1.00  0.00     0.012 A 
ATOM     82  C   UNL A   1      45.178  34.075  28.328  1.00  0.00     0.148 A 
ATOM     83  C   UNL A   1      46.820  34.323  30.596  1.00  0.00     0.002 A 
ATOM     84  C   UNL A   1      45.960  35.211  28.508  1.00  0.00     0.091 A 
ATOM     85  F   UNL A   1      44.364  33.941  27.271  1.00  0.00    -0.205 F 
ATOM     86  C   UNL A   1      46.773  35.341  29.645  1.00  0.00     0.022 A 
BRANCH  84  87
ATOM     87  S   UNL A   1      46.037  36.528  27.287  1.00  0.00     0.127 S 
ATOM     88  O   UNL A   1      47.014  37.435  27.887  1.00  0.00    -0.237 OA
ATOM     89  O   UNL A   1      46.512  35.824  26.094  1.00  0.00    -0.237 OA
ATOM     90  O   UNL A   1      44.681  37.049  27.176  1.00  0.00    -0.744 OA
ENDBRANCH  84  87
ENDBRANCH  57  80
ENDBRANCH  31  32
ENDBRANCH  24  26
ENDBRANCH  23  24
ENDBRANCH   1  23
TORSDOF 15
ENDMDL
MODEL 2
REMARK VINA RESULT:     -12.7      5.510     10.551
REMARK SMILES C[C@@H](C(=O)OCCOC(=O)c1ccc(-c2c3nc(c(-c4cccc(S(=O)(=O)[O-])c4F)c4ccc([nH]4)c(-c4cccc(S(=O)(=O)[O-])c4F)c4nc(c(-c5cccc(S(=O)(=O)[O-])c5F)c5ccc2[nH]5)C=C4)C=C3)cc1)c1ccc2c(c1)[nH]c1ccc(Cl)cc12
REMARK SMILES IDX 7 1 6 2 5 3 3 4 4 5 2 6 1 7 74 8 75 9 79 10 76 11 78 12
REMARK SMILES IDX 77 13 80 14 87 15 81 16 86 18 82 19 84 20 83 21 85 22 8 23
REMARK SMILES IDX 9 24 10 25 11 26 12 27 73 28 13 29 72 30 14 31 15 32 16 33
REMARK SMILES IDX 66 34 17 35 71 36 65 37 67 38 18 39 70 40 64 41 63 42 19 44
REMARK SMILES IDX 51 45 31 46 50 47 32 48 35 49 49 50 68 51 33 52 34 53 48 55
REMARK SMILES IDX 69 56 36 57 20 58 21 59 29 60 22 61 24 62 30 63 23 64 25 65
REMARK SMILES IDX 26 66 27 67 28 68 52 69 53 70 61 71 54 72 56 73 62 74 55 75
REMARK SMILES IDX 57 76 58 77 59 78 60 79 37 80 38 81 46 82 39 83 41 84 47 85
REMARK SMILES IDX 40 86 42 87 43 88 44 89 45 90
REMARK H PARENT 80 17 67 43 35 54
REMARK Flexibility Score: inf
ROOT
ATOM      1  C   UNL A   1      31.446  30.334  25.508  1.00  0.00     0.275 C 
ENDROOT
BRANCH   1   2
ATOM      2  C   UNL A   1      31.613  29.378  24.328  1.00  0.00     0.274 C 
BRANCH   2   3
ATOM      3  O   UNL A   1      30.420  28.584  24.145  1.00  0.00    -0.462 OA
BRANCH   3   4
ATOM      4  C   UNL A   1      30.246  27.977  22.934  1.00  0.00     0.313 C 
ATOM      5  O   UNL A   1      30.278  28.590  21.874  1.00  0.00    -0.252 OA
BRANCH   4   6
ATOM      6  C   UNL A   1      29.884  26.476  23.067  1.00  0.00     0.126 C 
ATOM      7  C   UNL A   1      28.777  26.275  24.122  1.00  0.00     0.025 C 
BRANCH   6   8
ATOM      8  C   UNL A   1      31.088  25.523  23.255  1.00  0.00    -0.032 A 
ATOM      9  C   UNL A   1      32.398  25.941  22.961  1.00  0.00     0.005 A 
ATOM     10  C   UNL A   1      30.910  24.186  23.674  1.00  0.00     0.031 A 
ATOM     11  C   UNL A   1      33.518  25.124  23.195  1.00  0.00     0.011 A 
ATOM     12  C   UNL A   1      32.037  23.368  23.867  1.00  0.00     0.047 A 
ATOM     13  C   UNL A   1      33.338  23.821  23.689  1.00  0.00     0.007 A 
ATOM     14  N   UNL A   1      32.122  22.048  24.248  1.00  0.00    -0.355 N 
ATOM     15  C   UNL A   1      34.221  22.777  24.114  1.00  0.00     0.009 A 
ATOM     16  C   UNL A   1      33.433  21.659  24.390  1.00  0.00     0.047 A 
ATOM     17  H   UNL A   1      31.347  21.461  24.400  1.00  0.00     0.167 HD
ATOM     18  C   UNL A   1      35.617  22.679  24.289  1.00  0.00     0.031 A 
ATOM     19  C   UNL A   1      33.973  20.418  24.756  1.00  0.00     0.028 A 
ATOM     20  C   UNL A   1      36.166  21.456  24.689  1.00  0.00     0.041 A 
ATOM     21  C   UNL A   1      35.361  20.338  24.896  1.00  0.00     0.022 A 
ATOM     22  Cl  UNL A   1      37.867  21.328  24.914  1.00  0.00    -0.084 Cl
ENDBRANCH   6   8
ENDBRANCH   4   6
ENDBRANCH   3   4
ENDBRANCH   2   3
ENDBRANCH   1   2
BRANCH   1  23
ATOM     23  O   UNL A   1      32.600  30.259  26.363  1.00  0.00    -0.458 OA
BRANCH  23  24
ATOM     24  C   UNL A   1      32.973  31.420  26.944  1.00  0.00     0.338 C 
ATOM     25  O   UNL A   1      32.311  32.444  27.057  1.00  0.00    -0.246 OA
BRANCH  24  26
ATOM     26  C   UNL A   1      34.252  31.205  27.630  1.00  0.00     0.060 A 
ATOM     27  C   UNL A   1      34.557  29.892  27.981  1.00  0.00     0.016 A 
ATOM     28  C   UNL A   1      35.117  32.248  27.963  1.00  0.00     0.016 A 
ATOM     29  C   UNL A   1      35.736  29.610  28.659  1.00  0.00     0.010 A 
ATOM     30  C   UNL A   1      36.306  31.959  28.649  1.00  0.00     0.010 A 
ATOM     31  C   UNL A   1      36.622  30.634  28.999  1.00  0.00    -0.014 A 
BRANCH  31  32
ATOM     32  C   UNL A   1      37.814  30.288  29.808  1.00  0.00     0.031 A 
ATOM     33  C   UNL A   1      38.890  29.436  29.204  1.00  0.00     0.074 A 
ATOM     34  C   UNL A   1      37.985  30.810  31.037  1.00  0.00     0.049 A 
ATOM     35  N   UNL A   1      39.986  28.979  29.748  1.00  0.00    -0.248 NA
ATOM     36  C   UNL A   1      38.712  29.059  27.792  1.00  0.00     0.031 C 
ATOM     37  C   UNL A   1      37.063  31.731  31.702  1.00  0.00     0.029 A 
ATOM     38  N   UNL A   1      39.000  30.639  31.948  1.00  0.00    -0.354 N 
ATOM     39  C   UNL A   1      40.610  28.227  28.763  1.00  0.00     0.074 A 
ATOM     40  C   UNL A   1      39.779  28.301  27.581  1.00  0.00     0.031 C 
ATOM     41  C   UNL A   1      37.547  32.033  32.918  1.00  0.00     0.029 A 
ATOM     42  C   UNL A   1      38.788  31.293  33.139  1.00  0.00     0.049 A 
ATOM     43  H   UNL A   1      39.803  30.099  31.764  1.00  0.00     0.167 HD
ATOM     44  C   UNL A   1      41.771  27.536  28.836  1.00  0.00     0.034 A 
ATOM     45  C   UNL A   1      39.495  31.268  34.286  1.00  0.00     0.034 A 
ATOM     46  C   UNL A   1      42.615  27.485  29.997  1.00  0.00     0.049 A 
ATOM     47  C   UNL A   1      40.749  30.432  34.361  1.00  0.00     0.074 A 
ATOM     48  C   UNL A   1      43.802  26.792  30.168  1.00  0.00     0.029 A 
ATOM     49  N   UNL A   1      42.368  28.153  31.186  1.00  0.00    -0.354 N 
ATOM     50  N   UNL A   1      41.345  29.747  33.415  1.00  0.00    -0.248 NA
ATOM     51  C   UNL A   1      41.431  30.370  35.664  1.00  0.00     0.031 C 
ATOM     52  C   UNL A   1      44.259  27.024  31.469  1.00  0.00     0.029 A 
ATOM     53  C   UNL A   1      43.368  27.875  32.102  1.00  0.00     0.049 A 
ATOM     54  H   UNL A   1      41.595  28.740  31.354  1.00  0.00     0.167 HD
ATOM     55  C   UNL A   1      42.483  29.200  33.997  1.00  0.00     0.074 A 
ATOM     56  C   UNL A   1      42.507  29.652  35.373  1.00  0.00     0.031 C 
ATOM     57  C   UNL A   1      43.413  28.378  33.451  1.00  0.00     0.034 A 
BRANCH  44  58
ATOM     58  C   UNL A   1      42.190  26.762  27.619  1.00  0.00     0.023 A 
ATOM     59  C   UNL A   1      42.885  27.412  26.580  1.00  0.00     0.012 A 
ATOM     60  C   UNL A   1      41.925  25.382  27.525  1.00  0.00     0.148 A 
ATOM     61  C   UNL A   1      43.293  26.700  25.452  1.00  0.00     0.002 A 
ATOM     62  C   UNL A   1      42.365  24.673  26.414  1.00  0.00     0.091 A 
ATOM     63  F   UNL A   1      41.233  24.794  28.511  1.00  0.00    -0.205 F 
ATOM     64  C   UNL A   1      43.042  25.332  25.374  1.00  0.00     0.022 A 
BRANCH  62  65
ATOM     65  S   UNL A   1      42.142  22.898  26.257  1.00  0.00     0.127 S 
ATOM     66  O   UNL A   1      42.719  22.644  24.939  1.00  0.00    -0.237 OA
ATOM     67  O   UNL A   1      42.932  22.386  27.378  1.00  0.00    -0.237 OA
ATOM     68  O   UNL A   1      40.710  22.665  26.372  1.00  0.00    -0.744 OA
ENDBRANCH  62  65
ENDBRANCH  44  58
BRANCH  45  69
ATOM     69  C   UNL A   1      39.043  32.057  35.468  1.00  0.00     0.023 A 
ATOM     70  C   UNL A   1      39.311  33.439  35.523  1.00  0.00     0.012 A 
ATOM     71  C   UNL A   1      38.357  31.450  36.538  1.00  0.00     0.148 A 
ATOM     72  C   UNL A   1      38.930  34.195  36.634  1.00  0.00     0.002 A 
ATOM     73  C   UNL A   1      37.930  32.219  37.615  1.00  0.00     0.091 A 
ATOM     74  F   UNL A   1      38.140  30.129  36.487  1.00  0.00    -0.205 F 
ATOM     75  C   UNL A   1      38.230  33.588  37.674  1.00  0.00     0.022 A 
BRANCH  73  76
ATOM     76  S   UNL A   1      36.915  31.538  38.932  1.00  0.00     0.127 S 
ATOM     77  O   UNL A   1      37.848  31.527  40.055  1.00  0.00    -0.237 OA
ATOM     78  O   UNL A   1      35.841  32.527  39.033  1.00  0.00    -0.237 OA
ATOM     79  O   UNL A   1      36.480  30.233  38.452  1.00  0.00    -0.744 OA
ENDBRANCH  73  76
ENDBRANCH  45  69
BRANCH  57  80
ATOM     80  C   UNL A   1      44.550  27.919  34.327  1.00  0.00     0.023 A 
ATOM     81  C   UNL A   1      45.706  28.716  34.435  1.00  0.00     0.012 A 
ATOM     82  C   UNL A   1      44.437  26.754  35.110  1.00  0.00     0.148 A 
ATOM     83  C   UNL A   1      46.745  28.347  35.290  1.00  0.00     0.002 A 
ATOM     84  C   UNL A   1      45.458  26.414  35.992  1.00  0.00     0.091 A 
ATOM     85  F   UNL A   1      43.337  25.998  34.982  1.00  0.00    -0.205 F 
ATOM     86  C   UNL A   1      46.616  27.204  36.075  1.00  0.00     0.022 A 
BRANCH  84  87
ATOM     87  S   UNL A   1      45.335  25.013  37.111  1.00  0.00     0.127 S 
ATOM     88  O   UNL A   1      45.163  23.900  36.179  1.00  0.00    -0.237 OA
ATOM     89  O   UNL A   1      46.631  25.041  37.794  1.00  0.00    -0.237 OA
ATOM     90  O   UNL A   1      44.196  25.292  37.976  1.00  0.00    -0.744 OA
ENDBRANCH  84  87
ENDBRANCH  57  80
ENDBRANCH  31  32
ENDBRANCH  24  26
ENDBRANCH  23  24
ENDBRANCH   1  23
TORSDOF 15
ENDMDL
MODEL 3
REMARK VINA RESULT:     -12.7      1.373      1.904
REMARK SMILES C[C@@H](C(=O)OCCOC(=O)c1ccc(-c2c3nc(c(-c4cccc(S(=O)(=O)[O-])c4F)c4ccc([nH]4)c(-c4cccc(S(=O)(=O)[O-])c4F)c4nc(c(-c5cccc(S(=O)(=O)[O-])c5F)c5ccc2[nH]5)C=C4)C=C3)cc1)c1ccc2c(c1)[nH]c1ccc(Cl)cc12
REMARK SMILES IDX 7 1 6 2 5 3 3 4 4 5 2 6 1 7 74 8 75 9 79 10 76 11 78 12
REMARK SMILES IDX 77 13 80 14 87 15 81 16 86 18 82 19 84 20 83 21 85 22 8 23
REMARK SMILES IDX 9 24 10 25 11 26 12 27 73 28 13 29 72 30 14 31 15 32 16 33
REMARK SMILES IDX 66 34 17 35 71 36 65 37 67 38 18 39 70 40 64 41 63 42 19 44
REMARK SMILES IDX 51 45 31 46 50 47 32 48 35 49 49 50 68 51 33 52 34 53 48 55
REMARK SMILES IDX 69 56 36 57 20 58 21 59 29 60 22 61 24 62 30 63 23 64 25 65
REMARK SMILES IDX 26 66 27 67 28 68 52 69 53 70 61 71 54 72 56 73 62 74 55 75
REMARK SMILES IDX 57 76 58 77 59 78 60 79 37 80 38 81 46 82 39 83 41 84 47 85
REMARK SMILES IDX 40 86 42 87 43 88 44 89 45 90
REMARK H PARENT 80 17 67 43 35 54
REMARK Flexibility Score: inf
ROOT
ATOM      1  C   UNL A   1      36.018  20.759  25.043  1.00  0.00     0.275 C 
ENDROOT
BRANCH   1   2
ATOM      2  C   UNL A   1      34.580  21.011  25.493  1.00  0.00     0.274 C 
BRANCH   2   3
ATOM      3  O   UNL A   1      33.690  21.045  24.356  1.00  0.00    -0.462 OA
BRANCH   3   4
ATOM      4  C   UNL A   1      32.386  21.382  24.585  1.00  0.00     0.313 C 
ATOM      5  O   UNL A   1      31.717  20.876  25.477  1.00  0.00    -0.252 OA
BRANCH   4   6
ATOM      6  C   UNL A   1      31.830  22.365  23.523  1.00  0.00     0.126 C 
ATOM      7  C   UNL A   1      32.432  22.064  22.136  1.00  0.00     0.025 C 
BRANCH   6   8
ATOM      8  C   UNL A   1      31.902  23.861  23.910  1.00  0.00    -0.032 A 
ATOM      9  C   UNL A   1      31.101  24.818  23.263  1.00  0.00     0.005 A 
ATOM     10  C   UNL A   1      32.812  24.327  24.886  1.00  0.00     0.031 A 
ATOM     11  C   UNL A   1      31.088  26.172  23.646  1.00  0.00     0.011 A 
ATOM     12  C   UNL A   1      32.816  25.688  25.232  1.00  0.00     0.047 A 
ATOM     13  C   UNL A   1      31.940  26.611  24.673  1.00  0.00     0.007 A 
ATOM     14  N   UNL A   1      33.606  26.377  26.124  1.00  0.00    -0.355 N 
ATOM     15  C   UNL A   1      32.126  27.854  25.360  1.00  0.00     0.009 A 
ATOM     16  C   UNL A   1      33.221  27.694  26.211  1.00  0.00     0.047 A 
ATOM     17  H   UNL A   1      34.348  25.979  26.633  1.00  0.00     0.167 HD
ATOM     18  C   UNL A   1      31.465  29.099  25.339  1.00  0.00     0.031 A 
ATOM     19  C   UNL A   1      33.744  28.739  26.984  1.00  0.00     0.028 A 
ATOM     20  C   UNL A   1      31.955  30.141  26.133  1.00  0.00     0.041 A 
ATOM     21  C   UNL A   1      33.090  29.972  26.925  1.00  0.00     0.022 A 
ATOM     22  Cl  UNL A   1      31.151  31.663  26.120  1.00  0.00    -0.084 Cl
ENDBRANCH   6   8
ENDBRANCH   4   6
ENDBRANCH   3   4
ENDBRANCH   2   3
ENDBRANCH   1   2
BRANCH   1  23
ATOM     23  O   UNL A   1      36.903  21.682  25.699  1.00  0.00    -0.458 OA
BRANCH  23  24
ATOM     24  C   UNL A   1      38.186  21.276  25.820  1.00  0.00     0.338 C 
ATOM     25  O   UNL A   1      38.679  20.231  25.412  1.00  0.00    -0.246 OA
BRANCH  24  26
ATOM     26  C   UNL A   1      38.979  22.395  26.341  1.00  0.00     0.060 A 
ATOM     27  C   UNL A   1      38.553  23.674  25.996  1.00  0.00     0.016 A 
ATOM     28  C   UNL A   1      40.130  22.213  27.110  1.00  0.00     0.016 A 
ATOM     29  C   UNL A   1      39.267  24.785  26.426  1.00  0.00     0.010 A 
ATOM     30  C   UNL A   1      40.848  23.338  27.543  1.00  0.00     0.010 A 
ATOM     31  C   UNL A   1      40.417  24.632  27.202  1.00  0.00    -0.014 A 
BRANCH  31  32
ATOM     32  C   UNL A   1      41.194  25.846  27.549  1.00  0.00     0.031 A 
ATOM     33  C   UNL A   1      40.575  26.885  28.435  1.00  0.00     0.074 A 
ATOM     34  C   UNL A   1      42.477  25.975  27.160  1.00  0.00     0.049 A 
ATOM     35  N   UNL A   1      41.059  28.036  28.821  1.00  0.00    -0.248 NA
ATOM     36  C   UNL A   1      39.237  26.580  28.968  1.00  0.00     0.031 C 
ATOM     37  C   UNL A   1      43.227  24.992  26.379  1.00  0.00     0.029 A 
ATOM     38  N   UNL A   1      43.376  26.992  27.370  1.00  0.00    -0.354 N 
ATOM     39  C   UNL A   1      40.072  28.614  29.608  1.00  0.00     0.074 A 
ATOM     40  C   UNL A   1      38.967  27.680  29.658  1.00  0.00     0.031 C 
ATOM     41  C   UNL A   1      44.469  25.459  26.166  1.00  0.00     0.029 A 
ATOM     42  C   UNL A   1      44.588  26.793  26.752  1.00  0.00     0.049 A 
ATOM     43  H   UNL A   1      43.172  27.788  27.913  1.00  0.00     0.167 HD
ATOM     44  C   UNL A   1      40.084  29.814  30.231  1.00  0.00     0.034 A 
ATOM     45  C   UNL A   1      45.657  27.607  26.642  1.00  0.00     0.034 A 
ATOM     46  C   UNL A   1      41.190  30.730  30.211  1.00  0.00     0.049 A 
ATOM     47  C   UNL A   1      45.614  28.969  27.289  1.00  0.00     0.074 A 
ATOM     48  C   UNL A   1      41.283  31.980  30.799  1.00  0.00     0.029 A 
ATOM     49  N   UNL A   1      42.398  30.499  29.571  1.00  0.00    -0.354 N 
ATOM     50  N   UNL A   1      44.688  29.494  28.054  1.00  0.00    -0.248 NA
ATOM     51  C   UNL A   1      46.771  29.850  27.062  1.00  0.00     0.031 C 
ATOM     52  C   UNL A   1      42.539  32.514  30.495  1.00  0.00     0.029 A 
ATOM     53  C   UNL A   1      43.235  31.590  29.733  1.00  0.00     0.049 A 
ATOM     54  H   UNL A   1      42.627  29.680  29.075  1.00  0.00     0.167 HD
ATOM     55  C   UNL A   1      45.160  30.749  28.422  1.00  0.00     0.074 A 
ATOM     56  C   UNL A   1      46.467  30.898  27.815  1.00  0.00     0.031 C 
ATOM     57  C   UNL A   1      44.558  31.703  29.174  1.00  0.00     0.034 A 
BRANCH  44  58
ATOM     58  C   UNL A   1      38.846  30.212  30.984  1.00  0.00     0.023 A 
ATOM     59  C   UNL A   1      38.702  29.848  32.338  1.00  0.00     0.012 A 
ATOM     60  C   UNL A   1      37.845  30.978  30.357  1.00  0.00     0.148 A 
ATOM     61  C   UNL A   1      37.564  30.225  33.051  1.00  0.00     0.002 A 
ATOM     62  C   UNL A   1      36.732  31.379  31.084  1.00  0.00     0.091 A 
ATOM     63  F   UNL A   1      37.991  31.283  29.060  1.00  0.00    -0.205 F 
ATOM     64  C   UNL A   1      36.586  30.997  32.428  1.00  0.00     0.022 A 
BRANCH  62  65
ATOM     65  S   UNL A   1      35.453  32.427  30.383  1.00  0.00     0.127 S 
ATOM     66  O   UNL A   1      34.465  32.447  31.459  1.00  0.00    -0.237 OA
ATOM     67  O   UNL A   1      36.163  33.691  30.183  1.00  0.00    -0.237 OA
ATOM     68  O   UNL A   1      35.030  31.771  29.153  1.00  0.00    -0.744 OA
ENDBRANCH  62  65
ENDBRANCH  44  58
BRANCH  45  69
ATOM     69  C   UNL A   1      46.867  27.167  25.889  1.00  0.00     0.023 A 
ATOM     70  C   UNL A   1      47.797  26.310  26.510  1.00  0.00     0.012 A 
ATOM     71  C   UNL A   1      47.105  27.593  24.568  1.00  0.00     0.148 A 
ATOM     72  C   UNL A   1      48.955  25.912  25.840  1.00  0.00     0.002 A 
ATOM     73  C   UNL A   1      48.232  27.148  23.886  1.00  0.00     0.091 A 
ATOM     74  F   UNL A   1      46.228  28.435  24.003  1.00  0.00    -0.205 F 
ATOM     75  C   UNL A   1      49.167  26.320  24.525  1.00  0.00     0.022 A 
BRANCH  73  76
ATOM     76  S   UNL A   1      48.511  27.525  22.152  1.00  0.00     0.127 S 
ATOM     77  O   UNL A   1      49.669  28.412  22.221  1.00  0.00    -0.237 OA
ATOM     78  O   UNL A   1      48.781  26.202  21.590  1.00  0.00    -0.237 OA
ATOM     79  O   UNL A   1      47.272  28.131  21.681  1.00  0.00    -0.744 OA
ENDBRANCH  73  76
ENDBRANCH  45  69
BRANCH  57  80
ATOM     80  C   UNL A   1      45.302  32.993  29.405  1.00  0.00     0.023 A 
ATOM     81  C   UNL A   1      46.173  33.103  30.507  1.00  0.00     0.012 A 
ATOM     82  C   UNL A   1      45.213  34.056  28.486  1.00  0.00     0.148 A 
ATOM     83  C   UNL A   1      46.923  34.261  30.706  1.00  0.00     0.002 A 
ATOM     84  C   UNL A   1      45.995  35.192  28.667  1.00  0.00     0.091 A 
ATOM     85  F   UNL A   1      44.367  33.942  27.452  1.00  0.00    -0.205 F 
ATOM     86  C   UNL A   1      46.843  35.300  29.781  1.00  0.00     0.022 A 
BRANCH  84  87
ATOM     87  S   UNL A   1      46.029  36.536  27.475  1.00  0.00     0.127 S 
ATOM     88  O   UNL A   1      44.617  36.911  27.408  1.00  0.00    -0.237 OA
ATOM     89  O   UNL A   1      46.889  37.521  28.135  1.00  0.00    -0.237 OA
ATOM     90  O   UNL A   1      46.589  35.973  26.254  1.00  0.00    -0.744 OA
ENDBRANCH  84  87
ENDBRANCH  57  80
ENDBRANCH  31  32
ENDBRANCH  24  26
ENDBRANCH  23  24
ENDBRANCH   1  23
TORSDOF 15
ENDMDL
