MODEL 1
REMARK VINA RESULT:     -12.5      0.000      0.000
REMARK SMILES Cc1cc2cc(-c3ccc([C@@H](C)C(=O)OCCOC(=O)c4ccc(-c5c6nc(c(-c7cccc(S(=O)(=O)[O-])c7F)c7ccc([nH]7)c(-c7cccc(S(=O)(=O)[O-])c7F)c7nc(c(-c8cccc(S(=O)(=O)[O-])c8F)c8ccc5[nH]8)C=C7)C=C6)cc4)cc3)ccc2[nH]1
REMARK SMILES IDX 17 1 16 2 15 3 13 4 14 5 11 6 12 7 10 8 7 9 8 10 85 11 9 12
REMARK SMILES IDX 84 13 6 14 1 15 2 16 3 17 89 18 4 19 88 20 5 22 87 23 86 24
REMARK SMILES IDX 18 25 19 26 20 27 21 28 22 29 83 30 23 31 82 32 24 33 25 34
REMARK SMILES IDX 26 35 76 36 27 37 81 38 75 39 77 40 28 41 80 42 74 43 73 44
REMARK SMILES IDX 29 46 61 47 41 48 60 49 42 50 45 51 59 52 78 53 43 54 44 55
REMARK SMILES IDX 58 57 79 58 46 59 30 60 31 61 39 62 32 63 34 64 40 65 33 66
REMARK SMILES IDX 35 67 36 68 37 69 38 70 62 71 63 72 71 73 64 74 66 75 72 76
REMARK SMILES IDX 65 77 67 78 68 79 69 80 70 81 47 82 48 83 56 84 49 85 51 86
REMARK SMILES IDX 57 87 50 88 52 89 53 90 54 91 55 92
REMARK H PARENT 89 21 77 45 45 56
REMARK Flexibility Score: inf
ROOT
ATOM      1  C   UNL A   1      31.422  31.890  26.330  1.00  0.00     0.275 C 
ENDROOT
BRANCH   1   2
ATOM      2  C   UNL A   1      31.026  30.779  25.356  1.00  0.00     0.274 C 
BRANCH   2   3
ATOM      3  O   UNL A   1      31.920  29.656  25.462  1.00  0.00    -0.462 OA
BRANCH   3   4
ATOM      4  C   UNL A   1      31.414  28.436  25.141  1.00  0.00     0.313 C 
ATOM      5  O   UNL A   1      31.021  28.128  24.020  1.00  0.00    -0.252 OA
BRANCH   4   6
ATOM      6  C   UNL A   1      31.307  27.482  26.325  1.00  0.00     0.126 C 
ATOM      7  C   UNL A   1      31.777  28.188  27.596  1.00  0.00     0.025 C 
BRANCH   6   8
ATOM      8  C   UNL A   1      31.965  26.121  26.150  1.00  0.00    -0.034 A 
ATOM      9  C   UNL A   1      33.208  23.603  25.724  1.00  0.00    -0.018 A 
ATOM     10  C   UNL A   1      31.855  23.695  26.087  1.00  0.00     0.009 A 
ATOM     11  C   UNL A   1      33.938  24.790  25.609  1.00  0.00     0.009 A 
ATOM     12  C   UNL A   1      31.240  24.932  26.291  1.00  0.00     0.005 A 
ATOM     13  C   UNL A   1      33.326  26.032  25.814  1.00  0.00     0.005 A 
BRANCH   9  14
ATOM     14  C   UNL A   1      33.805  22.292  25.426  1.00  0.00    -0.018 A 
ATOM     15  C   UNL A   1      33.943  16.343  23.986  1.00  0.00     0.064 C 
ATOM     16  C   UNL A   1      33.969  17.786  24.321  1.00  0.00     0.013 A 
ATOM     17  C   UNL A   1      32.946  18.707  24.400  1.00  0.00     0.031 A 
ATOM     18  N   UNL A   1      35.137  18.447  24.622  1.00  0.00    -0.359 N 
ATOM     19  C   UNL A   1      33.509  19.953  24.782  1.00  0.00     0.000 A 
ATOM     20  C   UNL A   1      34.883  19.768  24.914  1.00  0.00     0.046 A 
ATOM     21  H   UNL A   1      36.031  18.032  24.629  1.00  0.00     0.166 HD
ATOM     22  C   UNL A   1      32.973  21.228  25.032  1.00  0.00     0.019 A 
ATOM     23  C   UNL A   1      35.749  20.804  25.280  1.00  0.00     0.027 A 
ATOM     24  C   UNL A   1      35.185  22.063  25.535  1.00  0.00     0.011 A 
ENDBRANCH   9  14
ENDBRANCH   6   8
ENDBRANCH   4   6
ENDBRANCH   3   4
ENDBRANCH   2   3
ENDBRANCH   1   2
BRANCH   1  25
ATOM     25  O   UNL A   1      32.552  31.497  27.128  1.00  0.00    -0.458 OA
BRANCH  25  26
ATOM     26  C   UNL A   1      33.363  32.511  27.510  1.00  0.00     0.338 C 
ATOM     27  O   UNL A   1      33.101  33.700  27.538  1.00  0.00    -0.246 OA
BRANCH  26  28
ATOM     28  C   UNL A   1      34.630  31.962  28.010  1.00  0.00     0.060 A 
ATOM     29  C   UNL A   1      34.668  30.612  28.365  1.00  0.00     0.016 A 
ATOM     30  C   UNL A   1      35.736  32.784  28.222  1.00  0.00     0.016 A 
ATOM     31  C   UNL A   1      35.804  30.079  28.965  1.00  0.00     0.010 A 
ATOM     32  C   UNL A   1      36.883  32.244  28.813  1.00  0.00     0.010 A 
ATOM     33  C   UNL A   1      36.914  30.895  29.211  1.00  0.00    -0.014 A 
BRANCH  33  34
ATOM     34  C   UNL A   1      38.081  30.346  29.940  1.00  0.00     0.031 A 
ATOM     35  C   UNL A   1      38.351  30.782  31.353  1.00  0.00     0.074 A 
ATOM     36  C   UNL A   1      38.890  29.456  29.337  1.00  0.00     0.049 A 
ATOM     37  N   UNL A   1      39.335  30.446  32.146  1.00  0.00    -0.248 NA
ATOM     38  C   UNL A   1      37.389  31.723  31.952  1.00  0.00     0.031 C 
ATOM     39  C   UNL A   1      38.727  28.961  27.970  1.00  0.00     0.029 A 
ATOM     40  N   UNL A   1      40.019  28.824  29.792  1.00  0.00    -0.354 N 
ATOM     41  C   UNL A   1      39.135  31.160  33.320  1.00  0.00     0.074 A 
ATOM     42  C   UNL A   1      37.937  31.952  33.137  1.00  0.00     0.031 C 
ATOM     43  C   UNL A   1      39.730  28.111  27.693  1.00  0.00     0.029 A 
ATOM     44  C   UNL A   1      40.617  28.022  28.850  1.00  0.00     0.049 A 
ATOM     45  H   UNL A   1      40.369  28.934  30.707  1.00  0.00     0.167 HD
ATOM     46  C   UNL A   1      39.873  31.145  34.456  1.00  0.00     0.034 A 
ATOM     47  C   UNL A   1      41.758  27.307  28.909  1.00  0.00     0.034 A 
ATOM     48  C   UNL A   1      41.038  30.325  34.651  1.00  0.00     0.049 A 
ATOM     49  C   UNL A   1      42.548  27.294  30.190  1.00  0.00     0.074 A 
ATOM     50  C   UNL A   1      41.831  30.211  35.781  1.00  0.00     0.029 A 
ATOM     51  N   UNL A   1      41.577  29.476  33.697  1.00  0.00    -0.354 N 
ATOM     52  N   UNL A   1      42.288  27.894  31.327  1.00  0.00    -0.248 NA
ATOM     53  C   UNL A   1      43.773  26.481  30.207  1.00  0.00     0.031 C 
ATOM     54  C   UNL A   1      42.852  29.295  35.506  1.00  0.00     0.029 A 
ATOM     55  C   UNL A   1      42.691  28.833  34.209  1.00  0.00     0.049 A 
ATOM     56  H   UNL A   1      41.220  29.348  32.789  1.00  0.00     0.167 HD
ATOM     57  C   UNL A   1      43.297  27.511  32.201  1.00  0.00     0.074 A 
ATOM     58  C   UNL A   1      44.162  26.607  31.470  1.00  0.00     0.031 C 
ATOM     59  C   UNL A   1      43.504  27.888  33.487  1.00  0.00     0.034 A 
BRANCH  46  60
ATOM     60  C   UNL A   1      39.415  32.015  35.595  1.00  0.00     0.023 A 
ATOM     61  C   UNL A   1      38.556  31.479  36.573  1.00  0.00     0.012 A 
ATOM     62  C   UNL A   1      39.873  33.342  35.726  1.00  0.00     0.148 A 
ATOM     63  C   UNL A   1      38.136  32.255  37.652  1.00  0.00     0.002 A 
ATOM     64  C   UNL A   1      39.478  34.099  36.823  1.00  0.00     0.091 A 
ATOM     65  F   UNL A   1      40.668  33.843  34.770  1.00  0.00    -0.205 F 
ATOM     66  C   UNL A   1      38.605  33.560  37.783  1.00  0.00     0.022 A 
BRANCH  64  67
ATOM     67  S   UNL A   1      40.083  35.766  37.108  1.00  0.00     0.127 S 
ATOM     68  O   UNL A   1      39.656  36.448  35.887  1.00  0.00    -0.237 OA
ATOM     69  O   UNL A   1      39.354  36.162  38.314  1.00  0.00    -0.237 OA
ATOM     70  O   UNL A   1      41.523  35.639  37.289  1.00  0.00    -0.744 OA
ENDBRANCH  64  67
ENDBRANCH  46  60
BRANCH  47  71
ATOM     71  C   UNL A   1      42.187  26.500  27.733  1.00  0.00     0.023 A 
ATOM     72  C   UNL A   1      42.980  27.100  26.737  1.00  0.00     0.012 A 
ATOM     73  C   UNL A   1      41.846  25.139  27.613  1.00  0.00     0.148 A 
ATOM     74  C   UNL A   1      43.411  26.363  25.632  1.00  0.00     0.002 A 
ATOM     75  C   UNL A   1      42.322  24.398  26.538  1.00  0.00     0.091 A 
ATOM     76  F   UNL A   1      41.069  24.590  28.558  1.00  0.00    -0.205 F 
ATOM     77  C   UNL A   1      43.093  25.011  25.539  1.00  0.00     0.022 A 
BRANCH  75  78
ATOM     78  S   UNL A   1      42.067  22.623  26.416  1.00  0.00     0.127 S 
ATOM     79  O   UNL A   1      40.611  22.525  26.468  1.00  0.00    -0.237 OA
ATOM     80  O   UNL A   1      42.658  22.314  25.113  1.00  0.00    -0.237 OA
ATOM     81  O   UNL A   1      42.788  22.052  27.546  1.00  0.00    -0.744 OA
ENDBRANCH  75  78
ENDBRANCH  47  71
BRANCH  59  82
ATOM     82  C   UNL A   1      44.698  27.312  34.198  1.00  0.00     0.023 A 
ATOM     83  C   UNL A   1      45.913  28.026  34.206  1.00  0.00     0.012 A 
ATOM     84  C   UNL A   1      44.600  26.105  34.917  1.00  0.00     0.148 A 
ATOM     85  C   UNL A   1      47.020  27.534  34.897  1.00  0.00     0.002 A 
ATOM     86  C   UNL A   1      45.695  25.640  35.636  1.00  0.00     0.091 A 
ATOM     87  F   UNL A   1      43.444  25.425  34.880  1.00  0.00    -0.205 F 
ATOM     88  C   UNL A   1      46.908  26.348  35.621  1.00  0.00     0.022 A 
BRANCH  86  89
ATOM     89  S   UNL A   1      45.601  24.168  36.664  1.00  0.00     0.127 S 
ATOM     90  O   UNL A   1      44.438  24.460  37.499  1.00  0.00    -0.237 OA
ATOM     91  O   UNL A   1      45.395  23.105  35.681  1.00  0.00    -0.237 OA
ATOM     92  O   UNL A   1      46.880  24.097  37.360  1.00  0.00    -0.744 OA
ENDBRANCH  86  89
ENDBRANCH  59  82
ENDBRANCH  33  34
ENDBRANCH  26  28
ENDBRANCH  25  26
ENDBRANCH   1  25
TORSDOF 16
ENDMDL
MODEL 2
REMARK VINA RESULT:     -12.3      1.033      7.868
REMARK SMILES Cc1cc2cc(-c3ccc([C@@H](C)C(=O)OCCOC(=O)c4ccc(-c5c6nc(c(-c7cccc(S(=O)(=O)[O-])c7F)c7ccc([nH]7)c(-c7cccc(S(=O)(=O)[O-])c7F)c7nc(c(-c8cccc(S(=O)(=O)[O-])c8F)c8ccc5[nH]8)C=C7)C=C6)cc4)cc3)ccc2[nH]1
REMARK SMILES IDX 17 1 16 2 15 3 13 4 14 5 11 6 12 7 10 8 7 9 8 10 85 11 9 12
REMARK SMILES IDX 84 13 6 14 1 15 2 16 3 17 89 18 4 19 88 20 5 22 87 23 86 24
REMARK SMILES IDX 18 25 19 26 20 27 21 28 22 29 83 30 23 31 82 32 24 33 25 34
REMARK SMILES IDX 26 35 76 36 27 37 81 38 75 39 77 40 28 41 80 42 74 43 73 44
REMARK SMILES IDX 29 46 61 47 41 48 60 49 42 50 45 51 59 52 78 53 43 54 44 55
REMARK SMILES IDX 58 57 79 58 46 59 30 60 31 61 39 62 32 63 34 64 40 65 33 66
REMARK SMILES IDX 35 67 36 68 37 69 38 70 62 71 63 72 71 73 64 74 66 75 72 76
REMARK SMILES IDX 65 77 67 78 68 79 69 80 70 81 47 82 48 83 56 84 49 85 51 86
REMARK SMILES IDX 57 87 50 88 52 89 53 90 54 91 55 92
REMARK H PARENT 89 21 77 45 45 56
REMARK Flexibility Score: inf
ROOT
ATOM      1  C   UNL A   1      31.759  29.805  26.082  1.00  0.00     0.275 C 
ENDROOT
BRANCH   1   2
ATOM      2  C   UNL A   1      31.059  29.736  24.724  1.00  0.00     0.274 C 
BRANCH   2   3
ATOM      3  O   UNL A   1      30.825  28.370  24.332  1.00  0.00    -0.462 OA
BRANCH   3   4
ATOM      4  C   UNL A   1      31.504  27.919  23.245  1.00  0.00     0.313 C 
ATOM      5  O   UNL A   1      30.986  27.684  22.159  1.00  0.00    -0.252 OA
BRANCH   4   6
ATOM      6  C   UNL A   1      32.984  27.658  23.507  1.00  0.00     0.126 C 
ATOM      7  C   UNL A   1      33.822  28.318  22.413  1.00  0.00     0.025 C 
BRANCH   6   8
ATOM      8  C   UNL A   1      33.377  26.205  23.731  1.00  0.00    -0.034 A 
ATOM      9  C   UNL A   1      34.025  23.465  24.105  1.00  0.00    -0.018 A 
ATOM     10  C   UNL A   1      33.808  24.318  25.198  1.00  0.00     0.009 A 
ATOM     11  C   UNL A   1      33.946  24.013  22.820  1.00  0.00     0.009 A 
ATOM     12  C   UNL A   1      33.483  25.663  25.017  1.00  0.00     0.005 A 
ATOM     13  C   UNL A   1      33.621  25.362  22.634  1.00  0.00     0.005 A 
BRANCH   9  14
ATOM     14  C   UNL A   1      34.275  22.032  24.323  1.00  0.00    -0.018 A 
ATOM     15  C   UNL A   1      32.928  16.086  24.892  1.00  0.00     0.064 C 
ATOM     16  C   UNL A   1      33.313  17.510  24.748  1.00  0.00     0.013 A 
ATOM     17  C   UNL A   1      32.562  18.610  24.393  1.00  0.00     0.031 A 
ATOM     18  N   UNL A   1      34.597  17.948  24.974  1.00  0.00    -0.359 N 
ATOM     19  C   UNL A   1      33.411  19.747  24.427  1.00  0.00     0.000 A 
ATOM     20  C   UNL A   1      34.682  19.310  24.792  1.00  0.00     0.046 A 
ATOM     21  H   UNL A   1      35.351  17.368  25.230  1.00  0.00     0.166 HD
ATOM     22  C   UNL A   1      33.213  21.118  24.184  1.00  0.00     0.019 A 
ATOM     23  C   UNL A   1      35.769  20.181  24.918  1.00  0.00     0.027 A 
ATOM     24  C   UNL A   1      35.541  21.545  24.680  1.00  0.00     0.011 A 
ENDBRANCH   9  14
ENDBRANCH   6   8
ENDBRANCH   4   6
ENDBRANCH   3   4
ENDBRANCH   2   3
ENDBRANCH   1   2
BRANCH   1  25
ATOM     25  O   UNL A   1      33.044  30.438  25.967  1.00  0.00    -0.458 OA
BRANCH  25  26
ATOM     26  C   UNL A   1      33.324  31.347  26.930  1.00  0.00     0.338 C 
ATOM     27  O   UNL A   1      32.603  32.241  27.337  1.00  0.00    -0.246 OA
BRANCH  26  28
ATOM     28  C   UNL A   1      34.631  31.043  27.526  1.00  0.00     0.060 A 
ATOM     29  C   UNL A   1      34.915  29.714  27.847  1.00  0.00     0.016 A 
ATOM     30  C   UNL A   1      35.524  32.062  27.858  1.00  0.00     0.016 A 
ATOM     31  C   UNL A   1      36.083  29.395  28.532  1.00  0.00     0.010 A 
ATOM     32  C   UNL A   1      36.704  31.739  28.535  1.00  0.00     0.010 A 
ATOM     33  C   UNL A   1      36.978  30.407  28.897  1.00  0.00    -0.014 A 
BRANCH  33  34
ATOM     34  C   UNL A   1      38.169  30.073  29.713  1.00  0.00     0.031 A 
ATOM     35  C   UNL A   1      39.210  29.137  29.167  1.00  0.00     0.074 A 
ATOM     36  C   UNL A   1      38.317  30.614  30.937  1.00  0.00     0.049 A 
ATOM     37  N   UNL A   1      40.301  28.695  29.735  1.00  0.00    -0.248 NA
ATOM     38  C   UNL A   1      38.993  28.628  27.802  1.00  0.00     0.031 C 
ATOM     39  C   UNL A   1      37.372  31.534  31.571  1.00  0.00     0.029 A 
ATOM     40  N   UNL A   1      39.309  30.454  31.870  1.00  0.00    -0.354 N 
ATOM     41  C   UNL A   1      40.881  27.828  28.818  1.00  0.00     0.074 A 
ATOM     42  C   UNL A   1      40.020  27.802  27.655  1.00  0.00     0.031 C 
ATOM     43  C   UNL A   1      37.825  31.847  32.796  1.00  0.00     0.029 A 
ATOM     44  C   UNL A   1      39.074  31.131  33.043  1.00  0.00     0.049 A 
ATOM     45  H   UNL A   1      40.113  29.907  31.716  1.00  0.00     0.167 HD
ATOM     46  C   UNL A   1      42.036  27.129  28.927  1.00  0.00     0.034 A 
ATOM     47  C   UNL A   1      39.779  31.160  34.191  1.00  0.00     0.034 A 
ATOM     48  C   UNL A   1      42.912  27.189  30.066  1.00  0.00     0.049 A 
ATOM     49  C   UNL A   1      41.069  30.387  34.277  1.00  0.00     0.074 A 
ATOM     50  C   UNL A   1      44.125  26.547  30.254  1.00  0.00     0.029 A 
ATOM     51  N   UNL A   1      42.674  27.936  31.209  1.00  0.00    -0.354 N 
ATOM     52  N   UNL A   1      41.655  29.655  33.361  1.00  0.00    -0.248 NA
ATOM     53  C   UNL A   1      41.809  30.470  35.545  1.00  0.00     0.031 C 
ATOM     54  C   UNL A   1      44.616  26.904  31.514  1.00  0.00     0.029 A 
ATOM     55  C   UNL A   1      43.715  27.774  32.107  1.00  0.00     0.049 A 
ATOM     56  H   UNL A   1      41.881  28.500  31.360  1.00  0.00     0.167 HD
ATOM     57  C   UNL A   1      42.844  29.214  33.928  1.00  0.00     0.074 A 
ATOM     58  C   UNL A   1      42.907  29.780  35.260  1.00  0.00     0.031 C 
ATOM     59  C   UNL A   1      43.790  28.395  33.405  1.00  0.00     0.034 A 
BRANCH  46  60
ATOM     60  C   UNL A   1      42.441  26.267  27.762  1.00  0.00     0.023 A 
ATOM     61  C   UNL A   1      43.333  26.779  26.799  1.00  0.00     0.012 A 
ATOM     62  C   UNL A   1      41.981  24.940  27.645  1.00  0.00     0.148 A 
ATOM     63  C   UNL A   1      43.743  25.994  25.723  1.00  0.00     0.002 A 
ATOM     64  C   UNL A   1      42.423  24.151  26.588  1.00  0.00     0.091 A 
ATOM     65  F   UNL A   1      41.111  24.480  28.555  1.00  0.00    -0.205 F 
ATOM     66  C   UNL A   1      43.298  24.678  25.624  1.00  0.00     0.022 A 
BRANCH  64  67
ATOM     67  S   UNL A   1      41.952  22.427  26.414  1.00  0.00     0.127 S 
ATOM     68  O   UNL A   1      42.650  22.053  25.184  1.00  0.00    -0.237 OA
ATOM     69  O   UNL A   1      42.501  21.828  27.632  1.00  0.00    -0.237 OA
ATOM     70  O   UNL A   1      40.497  22.418  26.342  1.00  0.00    -0.744 OA
ENDBRANCH  64  67
ENDBRANCH  46  60
BRANCH  47  71
ATOM     71  C   UNL A   1      39.305  31.995  35.329  1.00  0.00     0.023 A 
ATOM     72  C   UNL A   1      38.427  31.436  36.276  1.00  0.00     0.012 A 
ATOM     73  C   UNL A   1      39.747  33.321  35.500  1.00  0.00     0.148 A 
ATOM     74  C   UNL A   1      37.979  32.190  37.363  1.00  0.00     0.002 A 
ATOM     75  C   UNL A   1      39.340  34.049  36.612  1.00  0.00     0.091 A 
ATOM     76  F   UNL A   1      40.564  33.845  34.575  1.00  0.00    -0.205 F 
ATOM     77  C   UNL A   1      38.445  33.490  37.537  1.00  0.00     0.022 A 
BRANCH  75  78
ATOM     78  S   UNL A   1      39.998  35.680  36.977  1.00  0.00     0.127 S 
ATOM     79  O   UNL A   1      39.322  36.005  38.229  1.00  0.00    -0.237 OA
ATOM     80  O   UNL A   1      41.432  35.414  37.102  1.00  0.00    -0.237 OA
ATOM     81  O   UNL A   1      39.645  36.504  35.827  1.00  0.00    -0.744 OA
ENDBRANCH  75  78
ENDBRANCH  47  71
BRANCH  59  82
ATOM     82  C   UNL A   1      44.987  28.077  34.260  1.00  0.00     0.023 A 
ATOM     83  C   UNL A   1      46.110  28.926  34.224  1.00  0.00     0.012 A 
ATOM     84  C   UNL A   1      44.973  26.984  35.148  1.00  0.00     0.148 A 
ATOM     85  C   UNL A   1      47.213  28.677  35.040  1.00  0.00     0.002 A 
ATOM     86  C   UNL A   1      46.059  26.765  35.988  1.00  0.00     0.091 A 
ATOM     87  F   UNL A   1      43.905  26.172  35.153  1.00  0.00    -0.205 F 
ATOM     88  C   UNL A   1      47.183  27.605  35.930  1.00  0.00     0.022 A 
BRANCH  86  89
ATOM     89  S   UNL A   1      46.057  25.458  37.221  1.00  0.00     0.127 S 
ATOM     90  O   UNL A   1      47.365  25.636  37.849  1.00  0.00    -0.237 OA
ATOM     91  O   UNL A   1      44.921  25.821  38.068  1.00  0.00    -0.237 OA
ATOM     92  O   UNL A   1      45.874  24.219  36.476  1.00  0.00    -0.744 OA
ENDBRANCH  86  89
ENDBRANCH  59  82
ENDBRANCH  33  34
ENDBRANCH  26  28
ENDBRANCH  25  26
ENDBRANCH   1  25
TORSDOF 16
ENDMDL
MODEL 3
REMARK VINA RESULT:     -12.2      1.529      1.946
REMARK SMILES Cc1cc2cc(-c3ccc([C@@H](C)C(=O)OCCOC(=O)c4ccc(-c5c6nc(c(-c7cccc(S(=O)(=O)[O-])c7F)c7ccc([nH]7)c(-c7cccc(S(=O)(=O)[O-])c7F)c7nc(c(-c8cccc(S(=O)(=O)[O-])c8F)c8ccc5[nH]8)C=C7)C=C6)cc4)cc3)ccc2[nH]1
REMARK SMILES IDX 17 1 16 2 15 3 13 4 14 5 11 6 12 7 10 8 7 9 8 10 85 11 9 12
REMARK SMILES IDX 84 13 6 14 1 15 2 16 3 17 89 18 4 19 88 20 5 22 87 23 86 24
REMARK SMILES IDX 18 25 19 26 20 27 21 28 22 29 83 30 23 31 82 32 24 33 25 34
REMARK SMILES IDX 26 35 76 36 27 37 81 38 75 39 77 40 28 41 80 42 74 43 73 44
REMARK SMILES IDX 29 46 61 47 41 48 60 49 42 50 45 51 59 52 78 53 43 54 44 55
REMARK SMILES IDX 58 57 79 58 46 59 30 60 31 61 39 62 32 63 34 64 40 65 33 66
REMARK SMILES IDX 35 67 36 68 37 69 38 70 62 71 63 72 71 73 64 74 66 75 72 76
REMARK SMILES IDX 65 77 67 78 68 79 69 80 70 81 47 82 48 83 56 84 49 85 51 86
REMARK SMILES IDX 57 87 50 88 52 89 53 90 54 91 55 92
REMARK H PARENT 89 21 77 45 45 56
REMARK Flexibility Score: inf
ROOT
ATOM      1  C   UNL A   1      32.182  33.285  26.934  1.00  0.00     0.275 C 
ENDROOT
BRANCH   1   2
ATOM      2  C   UNL A   1      31.254  32.069  26.919  1.00  0.00     0.274 C 
BRANCH   2   3
ATOM      3  O   UNL A   1      31.521  31.229  25.782  1.00  0.00    -0.462 OA
BRANCH   3   4
ATOM      4  C   UNL A   1      32.199  30.074  26.017  1.00  0.00     0.313 C 
ATOM      5  O   UNL A   1      32.837  29.847  27.040  1.00  0.00    -0.252 OA
BRANCH   4   6
ATOM      6  C   UNL A   1      32.159  29.088  24.854  1.00  0.00     0.126 C 
ATOM      7  C   UNL A   1      30.869  29.285  24.059  1.00  0.00     0.025 C 
BRANCH   6   8
ATOM      8  C   UNL A   1      32.396  27.627  25.207  1.00  0.00    -0.034 A 
ATOM      9  C   UNL A   1      32.841  24.879  25.766  1.00  0.00    -0.018 A 
ATOM     10  C   UNL A   1      31.647  25.514  26.141  1.00  0.00     0.009 A 
ATOM     11  C   UNL A   1      33.824  25.649  25.135  1.00  0.00     0.009 A 
ATOM     12  C   UNL A   1      31.424  26.864  25.862  1.00  0.00     0.005 A 
ATOM     13  C   UNL A   1      33.604  27.002  24.854  1.00  0.00     0.005 A 
BRANCH   9  14
ATOM     14  C   UNL A   1      33.012  23.435  25.990  1.00  0.00    -0.018 A 
ATOM     15  C   UNL A   1      32.541  17.443  24.823  1.00  0.00     0.064 C 
ATOM     16  C   UNL A   1      32.698  18.880  25.148  1.00  0.00     0.013 A 
ATOM     17  C   UNL A   1      32.374  20.004  24.418  1.00  0.00     0.031 A 
ATOM     18  N   UNL A   1      33.241  19.307  26.337  1.00  0.00    -0.359 N 
ATOM     19  C   UNL A   1      32.711  21.142  25.197  1.00  0.00     0.000 A 
ATOM     20  C   UNL A   1      33.253  20.683  26.395  1.00  0.00     0.046 A 
ATOM     21  H   UNL A   1      33.574  18.712  27.048  1.00  0.00     0.166 HD
ATOM     22  C   UNL A   1      32.599  22.528  24.995  1.00  0.00     0.019 A 
ATOM     23  C   UNL A   1      33.697  21.549  27.400  1.00  0.00     0.027 A 
ATOM     24  C   UNL A   1      33.563  22.928  27.176  1.00  0.00     0.011 A 
ENDBRANCH   9  14
ENDBRANCH   6   8
ENDBRANCH   4   6
ENDBRANCH   3   4
ENDBRANCH   2   3
ENDBRANCH   1   2
BRANCH   1  25
ATOM     25  O   UNL A   1      32.996  33.298  28.119  1.00  0.00    -0.458 OA
BRANCH  25  26
ATOM     26  C   UNL A   1      34.126  34.037  28.029  1.00  0.00     0.338 C 
ATOM     27  O   UNL A   1      34.220  35.214  27.731  1.00  0.00    -0.246 OA
BRANCH  26  28
ATOM     28  C   UNL A   1      35.275  33.229  28.459  1.00  0.00     0.060 A 
ATOM     29  C   UNL A   1      35.023  32.007  29.086  1.00  0.00     0.016 A 
ATOM     30  C   UNL A   1      36.578  33.712  28.339  1.00  0.00     0.016 A 
ATOM     31  C   UNL A   1      36.072  31.270  29.626  1.00  0.00     0.010 A 
ATOM     32  C   UNL A   1      37.633  32.964  28.871  1.00  0.00     0.010 A 
ATOM     33  C   UNL A   1      37.383  31.752  29.539  1.00  0.00    -0.014 A 
BRANCH  33  34
ATOM     34  C   UNL A   1      38.481  31.012  30.205  1.00  0.00     0.031 A 
ATOM     35  C   UNL A   1      38.842  31.332  31.628  1.00  0.00     0.074 A 
ATOM     36  C   UNL A   1      39.146  30.054  29.534  1.00  0.00     0.049 A 
ATOM     37  N   UNL A   1      39.790  30.824  32.372  1.00  0.00    -0.248 NA
ATOM     38  C   UNL A   1      38.033  32.361  32.302  1.00  0.00     0.031 C 
ATOM     39  C   UNL A   1      38.885  29.658  28.150  1.00  0.00     0.029 A 
ATOM     40  N   UNL A   1      40.189  29.251  29.922  1.00  0.00    -0.354 N 
ATOM     41  C   UNL A   1      39.718  31.496  33.586  1.00  0.00     0.074 A 
ATOM     42  C   UNL A   1      38.636  32.451  33.479  1.00  0.00     0.031 C 
ATOM     43  C   UNL A   1      39.754  28.696  27.800  1.00  0.00     0.029 A 
ATOM     44  C   UNL A   1      40.648  28.426  28.924  1.00  0.00     0.049 A 
ATOM     45  H   UNL A   1      40.572  29.265  30.829  1.00  0.00     0.167 HD
ATOM     46  C   UNL A   1      40.474  31.321  34.696  1.00  0.00     0.034 A 
ATOM     47  C   UNL A   1      41.682  27.561  28.912  1.00  0.00     0.034 A 
ATOM     48  C   UNL A   1      41.521  30.341  34.815  1.00  0.00     0.049 A 
ATOM     49  C   UNL A   1      42.494  27.374  30.166  1.00  0.00     0.074 A 
ATOM     50  C   UNL A   1      42.317  30.061  35.912  1.00  0.00     0.029 A 
ATOM     51  N   UNL A   1      41.915  29.479  33.804  1.00  0.00    -0.354 N 
ATOM     52  N   UNL A   1      42.345  27.943  31.338  1.00  0.00    -0.248 NA
ATOM     53  C   UNL A   1      43.596  26.403  30.105  1.00  0.00     0.031 C 
ATOM     54  C   UNL A   1      43.197  29.031  35.561  1.00  0.00     0.029 A 
ATOM     55  C   UNL A   1      42.942  28.664  34.249  1.00  0.00     0.049 A 
ATOM     56  H   UNL A   1      41.522  29.449  32.902  1.00  0.00     0.167 HD
ATOM     57  C   UNL A   1      43.313  27.381  32.160  1.00  0.00     0.074 A 
ATOM     58  C   UNL A   1      44.029  26.408  31.359  1.00  0.00     0.031 C 
ATOM     59  C   UNL A   1      43.601  27.658  33.456  1.00  0.00     0.034 A 
BRANCH  46  60
ATOM     60  C   UNL A   1      40.168  32.184  35.890  1.00  0.00     0.023 A 
ATOM     61  C   UNL A   1      40.939  33.339  36.126  1.00  0.00     0.012 A 
ATOM     62  C   UNL A   1      39.091  31.882  36.748  1.00  0.00     0.148 A 
ATOM     63  C   UNL A   1      40.661  34.169  37.210  1.00  0.00     0.002 A 
ATOM     64  C   UNL A   1      38.798  32.734  37.807  1.00  0.00     0.091 A 
ATOM     65  F   UNL A   1      38.386  30.764  36.524  1.00  0.00    -0.205 F 
ATOM     66  C   UNL A   1      39.585  33.873  38.044  1.00  0.00     0.022 A 
BRANCH  64  67
ATOM     67  S   UNL A   1      37.393  32.468  38.894  1.00  0.00     0.127 S 
ATOM     68  O   UNL A   1      37.647  33.446  39.951  1.00  0.00    -0.237 OA
ATOM     69  O   UNL A   1      36.260  32.791  38.026  1.00  0.00    -0.237 OA
ATOM     70  O   UNL A   1      37.463  31.070  39.298  1.00  0.00    -0.744 OA
ENDBRANCH  64  67
ENDBRANCH  46  60
BRANCH  47  71
ATOM     71  C   UNL A   1      41.968  26.768  27.685  1.00  0.00     0.023 A 
ATOM     72  C   UNL A   1      42.627  27.381  26.603  1.00  0.00     0.012 A 
ATOM     73  C   UNL A   1      41.626  25.404  27.597  1.00  0.00     0.148 A 
ATOM     74  C   UNL A   1      42.923  26.657  25.447  1.00  0.00     0.002 A 
ATOM     75  C   UNL A   1      41.971  24.675  26.464  1.00  0.00     0.091 A 
ATOM     76  F   UNL A   1      40.976  24.842  28.626  1.00  0.00    -0.205 F 
ATOM     77  C   UNL A   1      42.607  25.303  25.383  1.00  0.00     0.022 A 
BRANCH  75  78
ATOM     78  S   UNL A   1      41.716  22.900  26.360  1.00  0.00     0.127 S 
ATOM     79  O   UNL A   1      42.445  22.563  25.141  1.00  0.00    -0.237 OA
ATOM     80  O   UNL A   1      42.334  22.425  27.598  1.00  0.00    -0.237 OA
ATOM     81  O   UNL A   1      40.270  22.721  26.310  1.00  0.00    -0.744 OA
ENDBRANCH  75  78
ENDBRANCH  47  71
BRANCH  59  82
ATOM     82  C   UNL A   1      44.722  26.888  34.101  1.00  0.00     0.023 A 
ATOM     83  C   UNL A   1      46.050  27.329  33.937  1.00  0.00     0.012 A 
ATOM     84  C   UNL A   1      44.458  25.777  34.925  1.00  0.00     0.148 A 
ATOM     85  C   UNL A   1      47.101  26.659  34.563  1.00  0.00     0.002 A 
ATOM     86  C   UNL A   1      45.506  25.138  35.577  1.00  0.00     0.091 A 
ATOM     87  F   UNL A   1      43.190  25.356  35.050  1.00  0.00    -0.205 F 
ATOM     88  C   UNL A   1      46.829  25.572  35.391  1.00  0.00     0.022 A 
BRANCH  86  89
ATOM     89  S   UNL A   1      45.224  23.787  36.728  1.00  0.00     0.127 S 
ATOM     90  O   UNL A   1      44.564  22.800  35.876  1.00  0.00    -0.237 OA
ATOM     91  O   UNL A   1      46.582  23.428  37.137  1.00  0.00    -0.237 OA
ATOM     92  O   UNL A   1      44.409  24.349  37.797  1.00  0.00    -0.744 OA
ENDBRANCH  86  89
ENDBRANCH  59  82
ENDBRANCH  33  34
ENDBRANCH  26  28
ENDBRANCH  25  26
ENDBRANCH   1  25
TORSDOF 16
ENDMDL
