MODEL 1
REMARK VINA RESULT:     -13.4      0.000      0.000
REMARK SMILES O=C(OCCOC(=O)[C@@H]1[C@@H](C(=O)N2CCN(c3cccc(Cl)c3)CC2)[C@H]2CC[C@@H]1O2)c1ccc(-c2c3nc(c(-c4cccc(S(=O)(=O)[O-])c4F)c4ccc([nH]4)c(-c4cccc(S(=O)(=O)[O-])c4F)c4nc(c(-c5cccc(S(=O)(=O)[O-])c5F)c5ccc2[nH]5)C=C4)C=C3)cc1
REMARK SMILES IDX 4 1 3 2 2 3 1 4 31 5 32 6 93 7 33 8 92 9 34 10 35 11 36 12
REMARK SMILES IDX 86 13 37 14 91 15 85 16 87 17 38 18 90 19 84 20 83 21 39 23
REMARK SMILES IDX 71 24 51 25 70 26 52 27 55 28 69 29 88 30 53 31 54 32 68 34
REMARK SMILES IDX 89 35 56 36 40 37 41 38 49 39 42 40 44 41 50 42 43 43 45 44
REMARK SMILES IDX 46 45 47 46 48 47 72 48 73 49 81 50 74 51 76 52 82 53 75 54
REMARK SMILES IDX 77 55 78 56 79 57 80 58 57 59 58 60 66 61 59 62 61 63 67 64
REMARK SMILES IDX 60 65 62 66 63 67 64 68 65 69 5 70 6 71 7 72 8 73 9 74 10 75
REMARK SMILES IDX 29 76 26 77 28 78 30 79 27 80 11 81 12 82 13 83 14 84 25 85
REMARK SMILES IDX 15 86 24 87 16 88 17 89 18 90 23 91 19 92 21 93 20 94 22 95
REMARK H PARENT 87 22 55 33
REMARK Flexibility Score: inf
ROOT
ATOM      1  C   UNL A   1      32.126  29.560  27.256  1.00  0.00     0.275 C 
ENDROOT
BRANCH   1   2
ATOM      2  O   UNL A   1      32.795  30.789  26.893  1.00  0.00    -0.458 OA
BRANCH   2   3
ATOM      3  C   UNL A   1      33.658  31.587  27.582  1.00  0.00     0.338 C 
ATOM      4  O   UNL A   1      33.268  32.706  27.915  1.00  0.00    -0.246 OA
BRANCH   3   5
ATOM      5  C   UNL A   1      35.117  31.273  27.785  1.00  0.00     0.060 A 
ATOM      6  C   UNL A   1      36.129  32.196  27.972  1.00  0.00     0.016 A 
ATOM      7  C   UNL A   1      35.519  29.919  27.779  1.00  0.00     0.016 A 
ATOM      8  C   UNL A   1      37.425  31.760  28.342  1.00  0.00     0.010 A 
ATOM      9  C   UNL A   1      36.829  29.499  28.162  1.00  0.00     0.010 A 
ATOM     10  C   UNL A   1      37.788  30.422  28.591  1.00  0.00    -0.014 A 
BRANCH  10  11
ATOM     11  C   UNL A   1      39.232  30.112  29.033  1.00  0.00     0.031 A 
ATOM     12  C   UNL A   1      39.492  30.484  30.448  1.00  0.00     0.074 A 
ATOM     13  C   UNL A   1      40.206  29.358  28.426  1.00  0.00     0.049 A 
ATOM     14  N   UNL A   1      40.264  29.913  31.326  1.00  0.00    -0.248 NA
ATOM     15  C   UNL A   1      38.733  31.646  30.929  1.00  0.00     0.031 C 
ATOM     16  C   UNL A   1      40.251  28.930  27.038  1.00  0.00     0.029 A 
ATOM     17  N   UNL A   1      41.246  28.584  28.973  1.00  0.00    -0.354 N 
ATOM     18  C   UNL A   1      40.112  30.676  32.468  1.00  0.00     0.074 A 
ATOM     19  C   UNL A   1      39.115  31.689  32.190  1.00  0.00     0.031 C 
ATOM     20  C   UNL A   1      41.024  27.842  26.881  1.00  0.00     0.029 A 
ATOM     21  C   UNL A   1      41.659  27.525  28.144  1.00  0.00     0.049 A 
ATOM     22  H   UNL A   1      41.647  28.767  29.852  1.00  0.00     0.167 HD
ATOM     23  C   UNL A   1      40.791  30.604  33.629  1.00  0.00     0.034 A 
ATOM     24  C   UNL A   1      42.402  26.405  28.365  1.00  0.00     0.034 A 
ATOM     25  C   UNL A   1      41.900  29.737  33.874  1.00  0.00     0.049 A 
ATOM     26  C   UNL A   1      43.087  26.282  29.703  1.00  0.00     0.074 A 
ATOM     27  C   UNL A   1      42.779  29.759  34.939  1.00  0.00     0.029 A 
ATOM     28  N   UNL A   1      42.317  28.731  33.023  1.00  0.00    -0.354 N 
ATOM     29  N   UNL A   1      42.876  26.967  30.798  1.00  0.00    -0.248 NA
ATOM     30  C   UNL A   1      44.143  25.259  29.831  1.00  0.00     0.031 C 
ATOM     31  C   UNL A   1      43.752  28.779  34.719  1.00  0.00     0.029 A 
ATOM     32  C   UNL A   1      43.442  28.118  33.542  1.00  0.00     0.049 A 
ATOM     33  H   UNL A   1      41.880  28.488  32.176  1.00  0.00     0.167 HD
ATOM     34  C   UNL A   1      43.804  26.497  31.720  1.00  0.00     0.074 A 
ATOM     35  C   UNL A   1      44.495  25.386  31.103  1.00  0.00     0.031 C 
ATOM     36  C   UNL A   1      44.110  26.998  32.940  1.00  0.00     0.034 A 
BRANCH  23  37
ATOM     37  C   UNL A   1      40.411  31.635  34.638  1.00  0.00     0.023 A 
ATOM     38  C   UNL A   1      41.181  32.806  34.765  1.00  0.00     0.012 A 
ATOM     39  C   UNL A   1      39.378  31.358  35.550  1.00  0.00     0.148 A 
ATOM     40  C   UNL A   1      40.948  33.678  35.826  1.00  0.00     0.002 A 
ATOM     41  C   UNL A   1      39.125  32.253  36.574  1.00  0.00     0.091 A 
ATOM     42  F   UNL A   1      38.714  30.201  35.431  1.00  0.00    -0.205 F 
ATOM     43  C   UNL A   1      39.918  33.404  36.725  1.00  0.00     0.022 A 
BRANCH  41  44
ATOM     44  S   UNL A   1      37.805  32.002  37.758  1.00  0.00     0.127 S 
ATOM     45  O   UNL A   1      38.458  32.377  39.013  1.00  0.00    -0.237 OA
ATOM     46  O   UNL A   1      36.796  32.949  37.283  1.00  0.00    -0.237 OA
ATOM     47  O   UNL A   1      37.429  30.598  37.658  1.00  0.00    -0.744 OA
ENDBRANCH  41  44
ENDBRANCH  23  37
BRANCH  24  48
ATOM     48  C   UNL A   1      42.564  25.260  27.372  1.00  0.00     0.023 A 
ATOM     49  C   UNL A   1      43.539  25.368  26.344  1.00  0.00     0.012 A 
ATOM     50  C   UNL A   1      41.737  24.120  27.351  1.00  0.00     0.148 A 
ATOM     51  C   UNL A   1      43.643  24.419  25.316  1.00  0.00     0.002 A 
ATOM     52  C   UNL A   1      41.912  23.127  26.379  1.00  0.00     0.091 A 
ATOM     53  F   UNL A   1      40.744  24.030  28.246  1.00  0.00    -0.205 F 
ATOM     54  C   UNL A   1      42.841  23.288  25.343  1.00  0.00     0.022 A 
BRANCH  52  55
ATOM     55  S   UNL A   1      41.033  21.559  26.468  1.00  0.00     0.127 S 
ATOM     56  O   UNL A   1      41.863  20.694  25.636  1.00  0.00    -0.237 OA
ATOM     57  O   UNL A   1      41.073  21.253  27.899  1.00  0.00    -0.237 OA
ATOM     58  O   UNL A   1      39.699  21.856  25.961  1.00  0.00    -0.744 OA
ENDBRANCH  52  55
ENDBRANCH  24  48
BRANCH  36  59
ATOM     59  C   UNL A   1      45.265  26.387  33.683  1.00  0.00     0.023 A 
ATOM     60  C   UNL A   1      46.564  26.907  33.504  1.00  0.00     0.012 A 
ATOM     61  C   UNL A   1      45.051  25.369  34.629  1.00  0.00     0.148 A 
ATOM     62  C   UNL A   1      47.638  26.397  34.232  1.00  0.00     0.002 A 
ATOM     63  C   UNL A   1      46.116  24.902  35.388  1.00  0.00     0.091 A 
ATOM     64  F   UNL A   1      43.811  24.878  34.770  1.00  0.00    -0.205 F 
ATOM     65  C   UNL A   1      47.411  25.405  35.182  1.00  0.00     0.022 A 
BRANCH  63  66
ATOM     66  S   UNL A   1      45.898  23.700  36.704  1.00  0.00     0.127 S 
ATOM     67  O   UNL A   1      44.930  24.378  37.565  1.00  0.00    -0.237 OA
ATOM     68  O   UNL A   1      45.369  22.544  35.981  1.00  0.00    -0.237 OA
ATOM     69  O   UNL A   1      47.219  23.498  37.283  1.00  0.00    -0.744 OA
ENDBRANCH  63  66
ENDBRANCH  36  59
ENDBRANCH  10  11
ENDBRANCH   3   5
ENDBRANCH   2   3
ENDBRANCH   1   2
BRANCH   1  70
ATOM     70  C   UNL A   1      31.677  28.752  26.040  1.00  0.00     0.274 C 
BRANCH  70  71
ATOM     71  O   UNL A   1      32.536  28.985  24.927  1.00  0.00    -0.462 OA
BRANCH  71  72
ATOM     72  C   UNL A   1      31.947  29.088  23.707  1.00  0.00     0.312 C 
ATOM     73  O   UNL A   1      32.548  29.318  22.658  1.00  0.00    -0.252 OA
BRANCH  72  74
ATOM     74  C   UNL A   1      30.451  28.962  23.801  1.00  0.00     0.143 C 
ATOM     75  C   UNL A   1      29.900  27.811  22.934  1.00  0.00     0.124 C 
ATOM     76  C   UNL A   1      29.822  30.219  23.157  1.00  0.00     0.133 C 
ATOM     77  C   UNL A   1      28.799  28.592  22.189  1.00  0.00     0.132 C 
ATOM     78  C   UNL A   1      28.390  30.432  23.631  1.00  0.00     0.036 C 
ATOM     79  O   UNL A   1      29.573  29.768  21.808  1.00  0.00    -0.373 OA
ATOM     80  C   UNL A   1      27.669  29.294  22.935  1.00  0.00     0.035 C 
BRANCH  75  81
ATOM     81  C   UNL A   1      29.708  26.482  23.724  1.00  0.00     0.229 C 
ATOM     82  O   UNL A   1      28.693  26.292  24.390  1.00  0.00    -0.274 OA
ATOM     83  N   UNL A   1      30.821  25.574  23.782  1.00  0.00    -0.339 N 
ATOM     84  C   UNL A   1      30.598  24.241  23.205  1.00  0.00     0.141 C 
ATOM     85  C   UNL A   1      31.466  25.386  25.088  1.00  0.00     0.141 C 
ATOM     86  C   UNL A   1      31.793  23.282  23.075  1.00  0.00     0.138 C 
ATOM     87  C   UNL A   1      32.757  24.511  25.036  1.00  0.00     0.138 C 
ATOM     88  N   UNL A   1      32.574  23.260  24.297  1.00  0.00    -0.368 N 
BRANCH  88  89
ATOM     89  C   UNL A   1      33.005  22.008  24.687  1.00  0.00     0.038 A 
ATOM     90  C   UNL A   1      32.076  20.981  24.866  1.00  0.00     0.026 A 
ATOM     91  C   UNL A   1      34.373  21.677  24.710  1.00  0.00     0.046 A 
ATOM     92  C   UNL A   1      32.489  19.655  25.024  1.00  0.00     0.004 A 
ATOM     93  C   UNL A   1      34.786  20.355  24.897  1.00  0.00     0.043 A 
ATOM     94  C   UNL A   1      33.847  19.340  25.039  1.00  0.00     0.020 A 
ATOM     95  Cl  UNL A   1      36.465  19.973  24.924  1.00  0.00    -0.084 Cl
ENDBRANCH  88  89
ENDBRANCH  75  81
ENDBRANCH  72  74
ENDBRANCH  71  72
ENDBRANCH  70  71
ENDBRANCH   1  70
TORSDOF 16
ENDMDL
MODEL 2
REMARK VINA RESULT:     -13.1      1.581      2.671
REMARK SMILES O=C(OCCOC(=O)[C@@H]1[C@@H](C(=O)N2CCN(c3cccc(Cl)c3)CC2)[C@H]2CC[C@@H]1O2)c1ccc(-c2c3nc(c(-c4cccc(S(=O)(=O)[O-])c4F)c4ccc([nH]4)c(-c4cccc(S(=O)(=O)[O-])c4F)c4nc(c(-c5cccc(S(=O)(=O)[O-])c5F)c5ccc2[nH]5)C=C4)C=C3)cc1
REMARK SMILES IDX 4 1 3 2 2 3 1 4 31 5 32 6 93 7 33 8 92 9 34 10 35 11 36 12
REMARK SMILES IDX 86 13 37 14 91 15 85 16 87 17 38 18 90 19 84 20 83 21 39 23
REMARK SMILES IDX 71 24 51 25 70 26 52 27 55 28 69 29 88 30 53 31 54 32 68 34
REMARK SMILES IDX 89 35 56 36 40 37 41 38 49 39 42 40 44 41 50 42 43 43 45 44
REMARK SMILES IDX 46 45 47 46 48 47 72 48 73 49 81 50 74 51 76 52 82 53 75 54
REMARK SMILES IDX 77 55 78 56 79 57 80 58 57 59 58 60 66 61 59 62 61 63 67 64
REMARK SMILES IDX 60 65 62 66 63 67 64 68 65 69 5 70 6 71 7 72 8 73 9 74 10 75
REMARK SMILES IDX 29 76 26 77 28 78 30 79 27 80 11 81 12 82 13 83 14 84 25 85
REMARK SMILES IDX 15 86 24 87 16 88 17 89 18 90 23 91 19 92 21 93 20 94 22 95
REMARK H PARENT 87 22 55 33
REMARK Flexibility Score: inf
ROOT
ATOM      1  C   UNL A   1      32.215  29.653  25.489  1.00  0.00     0.275 C 
ENDROOT
BRANCH   1   2
ATOM      2  O   UNL A   1      32.200  30.272  26.796  1.00  0.00    -0.458 OA
BRANCH   2   3
ATOM      3  C   UNL A   1      33.002  31.219  27.357  1.00  0.00     0.338 C 
ATOM      4  O   UNL A   1      32.539  32.349  27.510  1.00  0.00    -0.246 OA
BRANCH   3   5
ATOM      5  C   UNL A   1      34.475  31.033  27.614  1.00  0.00     0.060 A 
ATOM      6  C   UNL A   1      35.413  32.041  27.737  1.00  0.00     0.016 A 
ATOM      7  C   UNL A   1      34.973  29.717  27.734  1.00  0.00     0.016 A 
ATOM      8  C   UNL A   1      36.727  31.736  28.168  1.00  0.00     0.010 A 
ATOM      9  C   UNL A   1      36.300  29.430  28.177  1.00  0.00     0.010 A 
ATOM     10  C   UNL A   1      37.179  30.455  28.541  1.00  0.00    -0.014 A 
BRANCH  10  11
ATOM     11  C   UNL A   1      38.630  30.292  29.035  1.00  0.00     0.031 A 
ATOM     12  C   UNL A   1      38.802  30.694  30.455  1.00  0.00     0.074 A 
ATOM     13  C   UNL A   1      39.695  29.635  28.468  1.00  0.00     0.049 A 
ATOM     14  N   UNL A   1      39.596  30.207  31.364  1.00  0.00    -0.248 NA
ATOM     15  C   UNL A   1      37.915  31.777  30.900  1.00  0.00     0.031 C 
ATOM     16  C   UNL A   1      39.831  29.208  27.086  1.00  0.00     0.029 A 
ATOM     17  N   UNL A   1      40.786  28.971  29.057  1.00  0.00    -0.354 N 
ATOM     18  C   UNL A   1      39.328  30.956  32.493  1.00  0.00     0.074 A 
ATOM     19  C   UNL A   1      38.246  31.863  32.174  1.00  0.00     0.031 C 
ATOM     20  C   UNL A   1      40.713  28.201  26.964  1.00  0.00     0.029 A 
ATOM     21  C   UNL A   1      41.332  27.954  28.252  1.00  0.00     0.049 A 
ATOM     22  H   UNL A   1      41.136  29.197  29.948  1.00  0.00     0.167 HD
ATOM     23  C   UNL A   1      39.970  30.956  33.679  1.00  0.00     0.034 A 
ATOM     24  C   UNL A   1      42.174  26.915  28.507  1.00  0.00     0.034 A 
ATOM     25  C   UNL A   1      41.150  30.205  33.968  1.00  0.00     0.049 A 
ATOM     26  C   UNL A   1      42.820  26.867  29.869  1.00  0.00     0.074 A 
ATOM     27  C   UNL A   1      41.984  30.319  35.064  1.00  0.00     0.029 A 
ATOM     28  N   UNL A   1      41.694  29.242  33.140  1.00  0.00    -0.354 N 
ATOM     29  N   UNL A   1      42.504  27.532  30.950  1.00  0.00    -0.248 NA
ATOM     30  C   UNL A   1      43.967  25.954  30.042  1.00  0.00     0.031 C 
ATOM     31  C   UNL A   1      43.056  29.440  34.884  1.00  0.00     0.029 A 
ATOM     32  C   UNL A   1      42.856  28.746  33.703  1.00  0.00     0.049 A 
ATOM     33  H   UNL A   1      41.313  28.953  32.280  1.00  0.00     0.167 HD
ATOM     34  C   UNL A   1      43.441  27.161  31.908  1.00  0.00     0.074 A 
ATOM     35  C   UNL A   1      44.259  26.122  31.324  1.00  0.00     0.031 C 
ATOM     36  C   UNL A   1      43.652  27.695  33.133  1.00  0.00     0.034 A 
BRANCH  23  37
ATOM     37  C   UNL A   1      39.454  31.949  34.665  1.00  0.00     0.023 A 
ATOM     38  C   UNL A   1      39.784  33.311  34.526  1.00  0.00     0.012 A 
ATOM     39  C   UNL A   1      38.769  31.495  35.805  1.00  0.00     0.148 A 
ATOM     40  C   UNL A   1      39.468  34.209  35.542  1.00  0.00     0.002 A 
ATOM     41  C   UNL A   1      38.419  32.403  36.788  1.00  0.00     0.091 A 
ATOM     42  F   UNL A   1      38.533  30.182  35.927  1.00  0.00    -0.205 F 
ATOM     43  C   UNL A   1      38.782  33.756  36.668  1.00  0.00     0.022 A 
BRANCH  41  44
ATOM     44  S   UNL A   1      37.511  31.922  38.255  1.00  0.00     0.127 S 
ATOM     45  O   UNL A   1      36.376  32.845  38.217  1.00  0.00    -0.237 OA
ATOM     46  O   UNL A   1      37.181  30.529  37.956  1.00  0.00    -0.237 OA
ATOM     47  O   UNL A   1      38.420  32.113  39.377  1.00  0.00    -0.744 OA
ENDBRANCH  41  44
ENDBRANCH  23  37
BRANCH  24  48
ATOM     48  C   UNL A   1      42.483  25.788  27.529  1.00  0.00     0.023 A 
ATOM     49  C   UNL A   1      43.470  25.992  26.527  1.00  0.00     0.012 A 
ATOM     50  C   UNL A   1      41.783  24.566  27.496  1.00  0.00     0.148 A 
ATOM     51  C   UNL A   1      43.702  25.053  25.510  1.00  0.00     0.002 A 
ATOM     52  C   UNL A   1      42.089  23.591  26.538  1.00  0.00     0.091 A 
ATOM     53  F   UNL A   1      40.780  24.377  28.365  1.00  0.00    -0.205 F 
ATOM     54  C   UNL A   1      43.023  23.843  25.526  1.00  0.00     0.022 A 
BRANCH  52  55
ATOM     55  S   UNL A   1      41.378  21.939  26.619  1.00  0.00     0.127 S 
ATOM     56  O   UNL A   1      42.153  21.223  25.610  1.00  0.00    -0.237 OA
ATOM     57  O   UNL A   1      41.654  21.541  28.000  1.00  0.00    -0.237 OA
ATOM     58  O   UNL A   1      39.963  22.133  26.328  1.00  0.00    -0.744 OA
ENDBRANCH  52  55
ENDBRANCH  24  48
BRANCH  36  59
ATOM     59  C   UNL A   1      44.835  27.206  33.921  1.00  0.00     0.023 A 
ATOM     60  C   UNL A   1      46.066  27.888  33.830  1.00  0.00     0.012 A 
ATOM     61  C   UNL A   1      44.702  26.135  34.823  1.00  0.00     0.148 A 
ATOM     62  C   UNL A   1      47.157  27.489  34.601  1.00  0.00     0.002 A 
ATOM     63  C   UNL A   1      45.777  25.777  35.625  1.00  0.00     0.091 A 
ATOM     64  F   UNL A   1      43.528  25.489  34.880  1.00  0.00    -0.205 F 
ATOM     65  C   UNL A   1      47.008  26.443  35.507  1.00  0.00     0.022 A 
BRANCH  63  66
ATOM     66  S   UNL A   1      45.645  24.510  36.891  1.00  0.00     0.127 S 
ATOM     67  O   UNL A   1      47.034  24.386  37.331  1.00  0.00    -0.237 OA
ATOM     68  O   UNL A   1      44.749  25.137  37.863  1.00  0.00    -0.237 OA
ATOM     69  O   UNL A   1      45.091  23.338  36.227  1.00  0.00    -0.744 OA
ENDBRANCH  63  66
ENDBRANCH  36  59
ENDBRANCH  10  11
ENDBRANCH   3   5
ENDBRANCH   2   3
ENDBRANCH   1   2
BRANCH   1  70
ATOM     70  C   UNL A   1      31.005  28.752  25.249  1.00  0.00     0.274 C 
BRANCH  70  71
ATOM     71  O   UNL A   1      31.273  27.416  25.666  1.00  0.00    -0.462 OA
BRANCH  71  72
ATOM     72  C   UNL A   1      30.704  26.420  24.938  1.00  0.00     0.312 C 
ATOM     73  O   UNL A   1      29.491  26.242  24.824  1.00  0.00    -0.252 OA
BRANCH  72  74
ATOM     74  C   UNL A   1      31.740  25.504  24.347  1.00  0.00     0.143 C 
ATOM     75  C   UNL A   1      32.804  25.073  25.378  1.00  0.00     0.124 C 
ATOM     76  C   UNL A   1      32.559  26.311  23.313  1.00  0.00     0.133 C 
ATOM     77  C   UNL A   1      34.066  25.414  24.562  1.00  0.00     0.132 C 
ATOM     78  C   UNL A   1      33.270  25.393  22.326  1.00  0.00     0.036 C 
ATOM     79  O   UNL A   1      33.687  26.746  24.104  1.00  0.00    -0.373 OA
ATOM     80  C   UNL A   1      34.341  24.776  23.204  1.00  0.00     0.035 C 
BRANCH  75  81
ATOM     81  C   UNL A   1      32.490  23.704  26.052  1.00  0.00     0.229 C 
ATOM     82  O   UNL A   1      31.924  23.659  27.142  1.00  0.00    -0.274 OA
ATOM     83  N   UNL A   1      33.034  22.520  25.443  1.00  0.00    -0.339 N 
ATOM     84  C   UNL A   1      32.056  21.525  24.981  1.00  0.00     0.141 C 
ATOM     85  C   UNL A   1      34.076  21.802  26.186  1.00  0.00     0.141 C 
ATOM     86  C   UNL A   1      32.557  20.321  24.165  1.00  0.00     0.138 C 
ATOM     87  C   UNL A   1      34.722  20.625  25.391  1.00  0.00     0.138 C 
ATOM     88  N   UNL A   1      33.734  19.735  24.777  1.00  0.00    -0.368 N 
BRANCH  88  89
ATOM     89  C   UNL A   1      33.757  18.355  24.787  1.00  0.00     0.038 A 
ATOM     90  C   UNL A   1      34.927  17.679  24.437  1.00  0.00     0.026 A 
ATOM     91  C   UNL A   1      32.699  17.609  25.339  1.00  0.00     0.046 A 
ATOM     92  C   UNL A   1      35.062  16.306  24.664  1.00  0.00     0.004 A 
ATOM     93  C   UNL A   1      32.823  16.231  25.540  1.00  0.00     0.043 A 
ATOM     94  C   UNL A   1      34.009  15.580  25.217  1.00  0.00     0.020 A 
ATOM     95  Cl  UNL A   1      31.515  15.337  26.214  1.00  0.00    -0.084 Cl
ENDBRANCH  88  89
ENDBRANCH  75  81
ENDBRANCH  72  74
ENDBRANCH  71  72
ENDBRANCH  70  71
ENDBRANCH   1  70
TORSDOF 16
ENDMDL
MODEL 3
REMARK VINA RESULT:     -13.1      4.470      7.326
REMARK SMILES O=C(OCCOC(=O)[C@@H]1[C@@H](C(=O)N2CCN(c3cccc(Cl)c3)CC2)[C@H]2CC[C@@H]1O2)c1ccc(-c2c3nc(c(-c4cccc(S(=O)(=O)[O-])c4F)c4ccc([nH]4)c(-c4cccc(S(=O)(=O)[O-])c4F)c4nc(c(-c5cccc(S(=O)(=O)[O-])c5F)c5ccc2[nH]5)C=C4)C=C3)cc1
REMARK SMILES IDX 4 1 3 2 2 3 1 4 31 5 32 6 93 7 33 8 92 9 34 10 35 11 36 12
REMARK SMILES IDX 86 13 37 14 91 15 85 16 87 17 38 18 90 19 84 20 83 21 39 23
REMARK SMILES IDX 71 24 51 25 70 26 52 27 55 28 69 29 88 30 53 31 54 32 68 34
REMARK SMILES IDX 89 35 56 36 40 37 41 38 49 39 42 40 44 41 50 42 43 43 45 44
REMARK SMILES IDX 46 45 47 46 48 47 72 48 73 49 81 50 74 51 76 52 82 53 75 54
REMARK SMILES IDX 77 55 78 56 79 57 80 58 57 59 58 60 66 61 59 62 61 63 67 64
REMARK SMILES IDX 60 65 62 66 63 67 64 68 65 69 5 70 6 71 7 72 8 73 9 74 10 75
REMARK SMILES IDX 29 76 26 77 28 78 30 79 27 80 11 81 12 82 13 83 14 84 25 85
REMARK SMILES IDX 15 86 24 87 16 88 17 89 18 90 23 91 19 92 21 93 20 94 22 95
REMARK H PARENT 87 22 55 33
REMARK Flexibility Score: inf
ROOT
ATOM      1  C   UNL A   1      33.718  32.401  28.489  1.00  0.00     0.275 C 
ENDROOT
BRANCH   1   2
ATOM      2  O   UNL A   1      33.579  31.250  27.623  1.00  0.00    -0.458 OA
BRANCH   2   3
ATOM      3  C   UNL A   1      34.279  30.085  27.548  1.00  0.00     0.338 C 
ATOM      4  O   UNL A   1      33.668  29.065  27.231  1.00  0.00    -0.246 OA
BRANCH   3   5
ATOM      5  C   UNL A   1      35.700  29.922  28.022  1.00  0.00     0.060 A 
ATOM      6  C   UNL A   1      36.097  29.574  29.299  1.00  0.00     0.016 A 
ATOM      7  C   UNL A   1      36.744  30.151  27.099  1.00  0.00     0.016 A 
ATOM      8  C   UNL A   1      37.455  29.269  29.560  1.00  0.00     0.010 A 
ATOM      9  C   UNL A   1      38.108  29.830  27.379  1.00  0.00     0.010 A 
ATOM     10  C   UNL A   1      38.478  29.243  28.593  1.00  0.00    -0.014 A 
BRANCH  10  11
ATOM     11  C   UNL A   1      39.903  28.845  29.026  1.00  0.00     0.031 A 
ATOM     12  C   UNL A   1      40.213  29.251  30.422  1.00  0.00     0.074 A 
ATOM     13  C   UNL A   1      40.809  27.999  28.436  1.00  0.00     0.049 A 
ATOM     14  N   UNL A   1      40.957  28.659  31.311  1.00  0.00    -0.248 NA
ATOM     15  C   UNL A   1      39.549  30.483  30.867  1.00  0.00     0.031 C 
ATOM     16  C   UNL A   1      40.800  27.516  27.066  1.00  0.00     0.029 A 
ATOM     17  N   UNL A   1      41.799  27.172  28.999  1.00  0.00    -0.354 N 
ATOM     18  C   UNL A   1      40.879  29.475  32.423  1.00  0.00     0.074 A 
ATOM     19  C   UNL A   1      39.954  30.547  32.120  1.00  0.00     0.031 C 
ATOM     20  C   UNL A   1      41.489  26.368  26.941  1.00  0.00     0.029 A 
ATOM     21  C   UNL A   1      42.120  26.054  28.207  1.00  0.00     0.049 A 
ATOM     22  H   UNL A   1      42.227  27.359  29.865  1.00  0.00     0.167 HD
ATOM     23  C   UNL A   1      41.571  29.397  33.578  1.00  0.00     0.034 A 
ATOM     24  C   UNL A   1      42.784  24.893  28.462  1.00  0.00     0.034 A 
ATOM     25  C   UNL A   1      42.618  28.462  33.841  1.00  0.00     0.049 A 
ATOM     26  C   UNL A   1      43.480  24.771  29.794  1.00  0.00     0.074 A 
ATOM     27  C   UNL A   1      43.514  28.460  34.892  1.00  0.00     0.029 A 
ATOM     28  N   UNL A   1      42.946  27.396  33.024  1.00  0.00    -0.354 N 
ATOM     29  N   UNL A   1      43.338  25.511  30.863  1.00  0.00    -0.248 NA
ATOM     30  C   UNL A   1      44.461  23.679  29.947  1.00  0.00     0.031 C 
ATOM     31  C   UNL A   1      44.409  27.404  34.697  1.00  0.00     0.029 A 
ATOM     32  C   UNL A   1      44.032  26.723  33.552  1.00  0.00     0.049 A 
ATOM     33  H   UNL A   1      42.478  27.153  32.194  1.00  0.00     0.167 HD
ATOM     34  C   UNL A   1      44.245  25.010  31.790  1.00  0.00     0.074 A 
ATOM     35  C   UNL A   1      44.842  23.829  31.208  1.00  0.00     0.031 C 
ATOM     36  C   UNL A   1      44.607  25.534  32.985  1.00  0.00     0.034 A 
BRANCH  23  37
ATOM     37  C   UNL A   1      41.283  30.492  34.550  1.00  0.00     0.023 A 
ATOM     38  C   UNL A   1      42.320  31.349  34.965  1.00  0.00     0.012 A 
ATOM     39  C   UNL A   1      40.016  30.562  35.154  1.00  0.00     0.148 A 
ATOM     40  C   UNL A   1      42.104  32.244  36.009  1.00  0.00     0.002 A 
ATOM     41  C   UNL A   1      39.798  31.486  36.159  1.00  0.00     0.091 A 
ATOM     42  F   UNL A   1      39.079  29.683  34.773  1.00  0.00    -0.205 F 
ATOM     43  C   UNL A   1      40.844  32.315  36.601  1.00  0.00     0.022 A 
BRANCH  41  44
ATOM     44  S   UNL A   1      38.206  31.672  36.957  1.00  0.00     0.127 S 
ATOM     45  O   UNL A   1      38.556  32.470  38.133  1.00  0.00    -0.237 OA
ATOM     46  O   UNL A   1      37.443  32.386  35.934  1.00  0.00    -0.237 OA
ATOM     47  O   UNL A   1      37.737  30.324  37.249  1.00  0.00    -0.744 OA
ENDBRANCH  41  44
ENDBRANCH  23  37
BRANCH  24  48
ATOM     48  C   UNL A   1      42.845  23.702  27.512  1.00  0.00     0.023 A 
ATOM     49  C   UNL A   1      41.820  22.718  27.569  1.00  0.00     0.012 A 
ATOM     50  C   UNL A   1      43.913  23.460  26.627  1.00  0.00     0.148 A 
ATOM     51  C   UNL A   1      41.890  21.529  26.827  1.00  0.00     0.002 A 
ATOM     52  C   UNL A   1      43.926  22.319  25.815  1.00  0.00     0.091 A 
ATOM     53  F   UNL A   1      44.944  24.317  26.616  1.00  0.00    -0.205 F 
ATOM     54  C   UNL A   1      42.935  21.338  25.936  1.00  0.00     0.022 A 
BRANCH  52  55
ATOM     55  S   UNL A   1      45.152  22.105  24.514  1.00  0.00     0.127 S 
ATOM     56  O   UNL A   1      46.362  21.816  25.278  1.00  0.00    -0.237 OA
ATOM     57  O   UNL A   1      44.619  20.971  23.758  1.00  0.00    -0.237 OA
ATOM     58  O   UNL A   1      45.137  23.366  23.784  1.00  0.00    -0.744 OA
ENDBRANCH  52  55
ENDBRANCH  24  48
BRANCH  36  59
ATOM     59  C   UNL A   1      45.727  24.869  33.736  1.00  0.00     0.023 A 
ATOM     60  C   UNL A   1      47.063  25.210  33.442  1.00  0.00     0.012 A 
ATOM     61  C   UNL A   1      45.454  23.985  34.794  1.00  0.00     0.148 A 
ATOM     62  C   UNL A   1      48.113  24.653  34.171  1.00  0.00     0.002 A 
ATOM     63  C   UNL A   1      46.502  23.475  35.549  1.00  0.00     0.091 A 
ATOM     64  F   UNL A   1      44.177  23.662  35.044  1.00  0.00    -0.205 F 
ATOM     65  C   UNL A   1      47.832  23.797  35.231  1.00  0.00     0.022 A 
BRANCH  63  66
ATOM     66  S   UNL A   1      46.227  22.447  36.996  1.00  0.00     0.127 S 
ATOM     67  O   UNL A   1      45.638  21.249  36.399  1.00  0.00    -0.237 OA
ATOM     68  O   UNL A   1      47.584  22.270  37.511  1.00  0.00    -0.237 OA
ATOM     69  O   UNL A   1      45.345  23.211  37.867  1.00  0.00    -0.744 OA
ENDBRANCH  63  66
ENDBRANCH  36  59
ENDBRANCH  10  11
ENDBRANCH   3   5
ENDBRANCH   2   3
ENDBRANCH   1   2
BRANCH   1  70
ATOM     70  C   UNL A   1      33.468  33.720  27.761  1.00  0.00     0.274 C 
BRANCH  70  71
ATOM     71  O   UNL A   1      34.089  34.805  28.445  1.00  0.00    -0.462 OA
BRANCH  71  72
ATOM     72  C   UNL A   1      33.283  35.601  29.195  1.00  0.00     0.312 C 
ATOM     73  O   UNL A   1      32.229  36.100  28.800  1.00  0.00    -0.252 OA
BRANCH  72  74
ATOM     74  C   UNL A   1      33.873  35.865  30.553  1.00  0.00     0.143 C 
ATOM     75  C   UNL A   1      33.619  34.708  31.542  1.00  0.00     0.124 C 
ATOM     76  C   UNL A   1      33.106  37.047  31.189  1.00  0.00     0.133 C 
ATOM     77  C   UNL A   1      33.054  35.532  32.717  1.00  0.00     0.132 C 
ATOM     78  C   UNL A   1      33.916  37.704  32.300  1.00  0.00     0.036 C 
ATOM     79  O   UNL A   1      32.109  36.363  31.979  1.00  0.00    -0.373 OA
ATOM     80  C   UNL A   1      33.863  36.642  33.381  1.00  0.00     0.035 C 
BRANCH  75  81
ATOM     81  C   UNL A   1      34.796  33.691  31.617  1.00  0.00     0.229 C 
ATOM     82  O   UNL A   1      34.579  32.498  31.816  1.00  0.00    -0.274 OA
ATOM     83  N   UNL A   1      36.134  34.217  31.619  1.00  0.00    -0.339 N 
ATOM     84  C   UNL A   1      36.994  33.796  30.505  1.00  0.00     0.141 C 
ATOM     85  C   UNL A   1      36.911  34.071  32.856  1.00  0.00     0.141 C 
ATOM     86  C   UNL A   1      38.375  34.456  30.347  1.00  0.00     0.138 C 
ATOM     87  C   UNL A   1      38.288  34.804  32.829  1.00  0.00     0.138 C 
ATOM     88  N   UNL A   1      39.067  34.520  31.621  1.00  0.00    -0.368 N 
BRANCH  88  89
ATOM     89  C   UNL A   1      40.411  34.216  31.566  1.00  0.00     0.038 A 
ATOM     90  C   UNL A   1      41.210  34.402  32.696  1.00  0.00     0.026 A 
ATOM     91  C   UNL A   1      40.963  33.527  30.470  1.00  0.00     0.046 A 
ATOM     92  C   UNL A   1      42.509  33.887  32.755  1.00  0.00     0.004 A 
ATOM     93  C   UNL A   1      42.271  33.036  30.518  1.00  0.00     0.043 A 
ATOM     94  C   UNL A   1      43.041  33.201  31.665  1.00  0.00     0.020 A 
ATOM     95  Cl  UNL A   1      42.928  32.199  29.164  1.00  0.00    -0.084 Cl
ENDBRANCH  88  89
ENDBRANCH  75  81
ENDBRANCH  72  74
ENDBRANCH  71  72
ENDBRANCH  70  71
ENDBRANCH   1  70
TORSDOF 16
ENDMDL
