MODEL 1
REMARK VINA RESULT:     -12.3      0.000      0.000
REMARK SMILES O=C(OCCOC(=O)c1ccc(-c2c3nc(c(-c4cccc(S(=O)(=O)[O-])c4F)c4ccc([nH]4)c(-c4cccc(S(=O)(=O)[O-])c4F)c4nc(c(-c5cccc(S(=O)(=O)[O-])c5F)c5ccc2[nH]5)C=C4)C=C3)cc1)c1ccc(NS(=O)(=O)Cc2c(Cl)cccc2Cl)cc1
REMARK SMILES IDX 4 1 3 2 2 3 1 4 72 5 73 6 90 7 74 8 89 9 75 10 76 11 77 13
REMARK SMILES IDX 78 14 79 15 80 16 81 17 82 18 87 19 83 20 84 21 86 22 88 23
REMARK SMILES IDX 85 24 5 25 6 26 7 27 8 28 9 29 10 30 71 31 11 32 70 33 12 34
REMARK SMILES IDX 13 35 14 36 64 37 15 38 69 39 63 40 65 41 16 42 68 43 62 44
REMARK SMILES IDX 61 45 17 47 49 48 29 49 48 50 30 51 33 52 47 53 66 54 31 55
REMARK SMILES IDX 32 56 46 58 67 59 34 60 18 61 19 62 27 63 20 64 22 65 28 66
REMARK SMILES IDX 21 67 23 68 24 69 25 70 26 71 50 72 51 73 59 74 52 75 54 76
REMARK SMILES IDX 60 77 53 78 55 79 56 80 57 81 58 82 35 83 36 84 44 85 37 86
REMARK SMILES IDX 39 87 45 88 38 89 40 90 41 91 42 92 43 93
REMARK H PARENT 76 12 65 46 33 57
REMARK Flexibility Score: inf
ROOT
ATOM      1  C   UNL A   1      35.744  21.125  25.048  1.00  0.00     0.275 C 
ENDROOT
BRANCH   1   2
ATOM      2  O   UNL A   1      34.828  20.078  24.653  1.00  0.00    -0.458 OA
BRANCH   2   3
ATOM      3  C   UNL A   1      33.492  20.022  24.905  1.00  0.00     0.338 C 
ATOM      4  O   UNL A   1      32.984  18.951  25.228  1.00  0.00    -0.246 OA
BRANCH   3   5
ATOM      5  C   UNL A   1      32.593  21.196  24.650  1.00  0.00     0.060 A 
ATOM      6  C   UNL A   1      31.767  21.747  25.610  1.00  0.00     0.018 A 
ATOM      7  C   UNL A   1      32.612  21.833  23.398  1.00  0.00     0.018 A 
ATOM      8  C   UNL A   1      31.041  22.906  25.383  1.00  0.00     0.027 A 
ATOM      9  C   UNL A   1      31.783  22.949  23.131  1.00  0.00     0.027 A 
ATOM     10  C   UNL A   1      30.989  23.495  24.139  1.00  0.00     0.049 A 
BRANCH  10  11
ATOM     11  N   UNL A   1      29.975  24.450  23.830  1.00  0.00    -0.283 N 
ATOM     12  H   UNL A   1      29.249  24.179  23.223  1.00  0.00     0.180 HD
BRANCH  11  13
ATOM     13  S   UNL A   1      29.955  26.008  24.444  1.00  0.00     0.237 S 
ATOM     14  O   UNL A   1      28.811  26.711  23.892  1.00  0.00    -0.206 OA
ATOM     15  O   UNL A   1      30.073  25.853  25.879  1.00  0.00    -0.206 OA
BRANCH  13  16
ATOM     16  C   UNL A   1      31.463  26.883  23.910  1.00  0.00     0.198 C 
BRANCH  16  17
ATOM     17  C   UNL A   1      32.050  27.873  24.895  1.00  0.00     0.006 A 
ATOM     18  C   UNL A   1      33.135  27.545  25.741  1.00  0.00     0.046 A 
ATOM     19  C   UNL A   1      31.556  29.188  24.981  1.00  0.00     0.046 A 
ATOM     20  Cl  UNL A   1      33.911  25.997  25.710  1.00  0.00    -0.084 Cl
ATOM     21  C   UNL A   1      33.631  28.456  26.687  1.00  0.00     0.021 A 
ATOM     22  C   UNL A   1      32.040  30.088  25.941  1.00  0.00     0.021 A 
ATOM     23  Cl  UNL A   1      30.367  29.791  23.883  1.00  0.00    -0.084 Cl
ATOM     24  C   UNL A   1      33.067  29.721  26.804  1.00  0.00     0.003 A 
ENDBRANCH  16  17
ENDBRANCH  13  16
ENDBRANCH  11  13
ENDBRANCH  10  11
ENDBRANCH   3   5
ENDBRANCH   2   3
ENDBRANCH   1   2
BRANCH   1  25
ATOM     25  C   UNL A   1      37.200  20.614  25.112  1.00  0.00     0.275 C 
BRANCH  25  26
ATOM     26  O   UNL A   1      38.154  21.689  25.251  1.00  0.00    -0.458 OA
BRANCH  26  27
ATOM     27  C   UNL A   1      39.200  21.443  26.082  1.00  0.00     0.338 C 
ATOM     28  O   UNL A   1      39.768  20.368  26.204  1.00  0.00    -0.246 OA
BRANCH  27  29
ATOM     29  C   UNL A   1      39.702  22.709  26.690  1.00  0.00     0.060 A 
ATOM     30  C   UNL A   1      39.125  23.908  26.251  1.00  0.00     0.016 A 
ATOM     31  C   UNL A   1      40.670  22.749  27.698  1.00  0.00     0.016 A 
ATOM     32  C   UNL A   1      39.540  25.136  26.781  1.00  0.00     0.010 A 
ATOM     33  C   UNL A   1      41.057  23.981  28.254  1.00  0.00     0.010 A 
ATOM     34  C   UNL A   1      40.528  25.191  27.773  1.00  0.00    -0.014 A 
BRANCH  34  35
ATOM     35  C   UNL A   1      41.091  26.508  28.195  1.00  0.00     0.031 A 
ATOM     36  C   UNL A   1      42.536  26.824  27.895  1.00  0.00     0.074 A 
ATOM     37  C   UNL A   1      40.339  27.445  28.809  1.00  0.00     0.049 A 
ATOM     38  N   UNL A   1      43.193  27.944  28.073  1.00  0.00    -0.248 NA
ATOM     39  C   UNL A   1      43.345  25.743  27.310  1.00  0.00     0.031 C 
ATOM     40  C   UNL A   1      38.935  27.296  29.185  1.00  0.00     0.029 A 
ATOM     41  N   UNL A   1      40.663  28.714  29.234  1.00  0.00    -0.354 N 
ATOM     42  C   UNL A   1      44.486  27.701  27.626  1.00  0.00     0.074 A 
ATOM     43  C   UNL A   1      44.536  26.316  27.212  1.00  0.00     0.031 C 
ATOM     44  C   UNL A   1      38.523  28.419  29.801  1.00  0.00     0.029 A 
ATOM     45  C   UNL A   1      39.631  29.373  29.861  1.00  0.00     0.049 A 
ATOM     46  H   UNL A   1      41.553  29.114  29.100  1.00  0.00     0.167 HD
ATOM     47  C   UNL A   1      45.533  28.554  27.522  1.00  0.00     0.034 A 
ATOM     48  C   UNL A   1      39.577  30.605  30.411  1.00  0.00     0.034 A 
ATOM     49  C   UNL A   1      45.505  29.938  27.905  1.00  0.00     0.049 A 
ATOM     50  C   UNL A   1      40.771  31.525  30.323  1.00  0.00     0.074 A 
ATOM     51  C   UNL A   1      46.503  30.887  27.769  1.00  0.00     0.029 A 
ATOM     52  N   UNL A   1      44.433  30.570  28.510  1.00  0.00    -0.354 N 
ATOM     53  N   UNL A   1      41.921  31.335  29.725  1.00  0.00    -0.248 NA
ATOM     54  C   UNL A   1      40.639  32.854  30.946  1.00  0.00     0.031 C 
ATOM     55  C   UNL A   1      46.041  32.091  28.310  1.00  0.00     0.029 A 
ATOM     56  C   UNL A   1      44.749  31.894  28.768  1.00  0.00     0.049 A 
ATOM     57  H   UNL A   1      43.572  30.143  28.726  1.00  0.00     0.167 HD
ATOM     58  C   UNL A   1      42.625  32.529  29.855  1.00  0.00     0.074 A 
ATOM     59  C   UNL A   1      41.769  33.444  30.578  1.00  0.00     0.031 C 
ATOM     60  C   UNL A   1      43.874  32.833  29.421  1.00  0.00     0.034 A 
BRANCH  47  61
ATOM     61  C   UNL A   1      46.794  28.021  26.898  1.00  0.00     0.023 A 
ATOM     62  C   UNL A   1      47.793  27.478  27.733  1.00  0.00     0.012 A 
ATOM     63  C   UNL A   1      46.974  28.011  25.504  1.00  0.00     0.148 A 
ATOM     64  C   UNL A   1      48.967  26.960  27.189  1.00  0.00     0.002 A 
ATOM     65  C   UNL A   1      48.132  27.459  24.967  1.00  0.00     0.091 A 
ATOM     66  F   UNL A   1      46.023  28.554  24.730  1.00  0.00    -0.205 F 
ATOM     67  C   UNL A   1      49.131  26.942  25.808  1.00  0.00     0.022 A 
BRANCH  65  68
ATOM     68  S   UNL A   1      48.405  27.326  23.196  1.00  0.00     0.127 S 
ATOM     69  O   UNL A   1      47.351  28.192  22.669  1.00  0.00    -0.237 OA
ATOM     70  O   UNL A   1      49.760  27.862  23.051  1.00  0.00    -0.237 OA
ATOM     71  O   UNL A   1      48.278  25.912  22.876  1.00  0.00    -0.744 OA
ENDBRANCH  65  68
ENDBRANCH  47  61
BRANCH  48  72
ATOM     72  C   UNL A   1      38.315  31.090  31.042  1.00  0.00     0.023 A 
ATOM     73  C   UNL A   1      38.105  30.881  32.419  1.00  0.00     0.012 A 
ATOM     74  C   UNL A   1      37.318  31.738  30.287  1.00  0.00     0.148 A 
ATOM     75  C   UNL A   1      36.911  31.273  33.025  1.00  0.00     0.002 A 
ATOM     76  C   UNL A   1      36.151  32.170  30.907  1.00  0.00     0.091 A 
ATOM     77  F   UNL A   1      37.528  31.912  28.974  1.00  0.00    -0.205 F 
ATOM     78  C   UNL A   1      35.937  31.924  32.272  1.00  0.00     0.022 A 
BRANCH  76  79
ATOM     79  S   UNL A   1      34.898  33.120  30.039  1.00  0.00     0.127 S 
ATOM     80  O   UNL A   1      34.028  33.540  31.134  1.00  0.00    -0.237 OA
ATOM     81  O   UNL A   1      35.693  34.193  29.438  1.00  0.00    -0.237 OA
ATOM     82  O   UNL A   1      34.312  32.201  29.073  1.00  0.00    -0.744 OA
ENDBRANCH  76  79
ENDBRANCH  48  72
BRANCH  60  83
ATOM     83  C   UNL A   1      44.400  34.224  29.668  1.00  0.00     0.023 A 
ATOM     84  C   UNL A   1      44.993  34.538  30.907  1.00  0.00     0.012 A 
ATOM     85  C   UNL A   1      44.396  35.192  28.642  1.00  0.00     0.148 A 
ATOM     86  C   UNL A   1      45.551  35.798  31.129  1.00  0.00     0.002 A 
ATOM     87  C   UNL A   1      44.993  36.430  28.856  1.00  0.00     0.091 A 
ATOM     88  F   UNL A   1      43.810  34.885  27.475  1.00  0.00    -0.205 F 
ATOM     89  C   UNL A   1      45.562  36.738  30.102  1.00  0.00     0.022 A 
BRANCH  87  90
ATOM     90  S   UNL A   1      45.137  37.667  27.559  1.00  0.00     0.127 S 
ATOM     91  O   UNL A   1      45.598  36.864  26.429  1.00  0.00    -0.237 OA
ATOM     92  O   UNL A   1      43.762  38.156  27.439  1.00  0.00    -0.237 OA
ATOM     93  O   UNL A   1      46.086  38.656  28.055  1.00  0.00    -0.744 OA
ENDBRANCH  87  90
ENDBRANCH  60  83
ENDBRANCH  34  35
ENDBRANCH  27  29
ENDBRANCH  26  27
ENDBRANCH  25  26
ENDBRANCH   1  25
TORSDOF 18
ENDMDL
MODEL 2
REMARK VINA RESULT:     -12.2      1.634      2.234
REMARK SMILES O=C(OCCOC(=O)c1ccc(-c2c3nc(c(-c4cccc(S(=O)(=O)[O-])c4F)c4ccc([nH]4)c(-c4cccc(S(=O)(=O)[O-])c4F)c4nc(c(-c5cccc(S(=O)(=O)[O-])c5F)c5ccc2[nH]5)C=C4)C=C3)cc1)c1ccc(NS(=O)(=O)Cc2c(Cl)cccc2Cl)cc1
REMARK SMILES IDX 4 1 3 2 2 3 1 4 72 5 73 6 90 7 74 8 89 9 75 10 76 11 77 13
REMARK SMILES IDX 78 14 79 15 80 16 81 17 82 18 87 19 83 20 84 21 86 22 88 23
REMARK SMILES IDX 85 24 5 25 6 26 7 27 8 28 9 29 10 30 71 31 11 32 70 33 12 34
REMARK SMILES IDX 13 35 14 36 64 37 15 38 69 39 63 40 65 41 16 42 68 43 62 44
REMARK SMILES IDX 61 45 17 47 49 48 29 49 48 50 30 51 33 52 47 53 66 54 31 55
REMARK SMILES IDX 32 56 46 58 67 59 34 60 18 61 19 62 27 63 20 64 22 65 28 66
REMARK SMILES IDX 21 67 23 68 24 69 25 70 26 71 50 72 51 73 59 74 52 75 54 76
REMARK SMILES IDX 60 77 53 78 55 79 56 80 57 81 58 82 35 83 36 84 44 85 37 86
REMARK SMILES IDX 39 87 45 88 38 89 40 90 41 91 42 92 43 93
REMARK H PARENT 76 12 65 46 33 57
REMARK Flexibility Score: inf
ROOT
ATOM      1  C   UNL A   1      35.439  19.982  24.829  1.00  0.00     0.275 C 
ENDROOT
BRANCH   1   2
ATOM      2  O   UNL A   1      34.282  19.381  25.456  1.00  0.00    -0.458 OA
BRANCH   2   3
ATOM      3  C   UNL A   1      32.976  19.612  25.151  1.00  0.00     0.338 C 
ATOM      4  O   UNL A   1      32.154  18.713  25.305  1.00  0.00    -0.246 OA
BRANCH   3   5
ATOM      5  C   UNL A   1      32.535  20.883  24.485  1.00  0.00     0.060 A 
ATOM      6  C   UNL A   1      32.297  20.990  23.129  1.00  0.00     0.018 A 
ATOM      7  C   UNL A   1      32.280  22.027  25.259  1.00  0.00     0.018 A 
ATOM      8  C   UNL A   1      31.771  22.140  22.561  1.00  0.00     0.027 A 
ATOM      9  C   UNL A   1      31.853  23.236  24.661  1.00  0.00     0.027 A 
ATOM     10  C   UNL A   1      31.592  23.293  23.293  1.00  0.00     0.049 A 
BRANCH  10  11
ATOM     11  N   UNL A   1      31.403  24.546  22.638  1.00  0.00    -0.283 N 
ATOM     12  H   UNL A   1      30.564  25.035  22.802  1.00  0.00     0.180 HD
BRANCH  11  13
ATOM     13  S   UNL A   1      32.532  25.230  21.607  1.00  0.00     0.237 S 
ATOM     14  O   UNL A   1      33.460  24.199  21.184  1.00  0.00    -0.206 OA
ATOM     15  O   UNL A   1      31.757  25.945  20.615  1.00  0.00    -0.206 OA
BRANCH  13  16
ATOM     16  C   UNL A   1      33.477  26.500  22.512  1.00  0.00     0.198 C 
BRANCH  16  17
ATOM     17  C   UNL A   1      32.960  26.872  23.886  1.00  0.00     0.006 A 
ATOM     18  C   UNL A   1      31.858  27.740  24.069  1.00  0.00     0.046 A 
ATOM     19  C   UNL A   1      33.539  26.333  25.049  1.00  0.00     0.046 A 
ATOM     20  Cl  UNL A   1      30.980  28.432  22.745  1.00  0.00    -0.084 Cl
ATOM     21  C   UNL A   1      31.425  28.118  25.350  1.00  0.00     0.021 A 
ATOM     22  C   UNL A   1      33.119  26.730  26.326  1.00  0.00     0.021 A 
ATOM     23  Cl  UNL A   1      34.764  25.116  24.979  1.00  0.00    -0.084 Cl
ATOM     24  C   UNL A   1      32.072  27.632  26.479  1.00  0.00     0.003 A 
ENDBRANCH  16  17
ENDBRANCH  13  16
ENDBRANCH  11  13
ENDBRANCH  10  11
ENDBRANCH   3   5
ENDBRANCH   2   3
ENDBRANCH   1   2
BRANCH   1  25
ATOM     25  C   UNL A   1      36.062  21.082  25.716  1.00  0.00     0.275 C 
BRANCH  25  26
ATOM     26  O   UNL A   1      37.259  21.644  25.137  1.00  0.00    -0.458 OA
BRANCH  26  27
ATOM     27  C   UNL A   1      38.424  21.298  25.743  1.00  0.00     0.338 C 
ATOM     28  O   UNL A   1      38.960  20.203  25.669  1.00  0.00    -0.246 OA
BRANCH  27  29
ATOM     29  C   UNL A   1      39.075  22.490  26.357  1.00  0.00     0.060 A 
ATOM     30  C   UNL A   1      38.480  23.738  26.132  1.00  0.00     0.016 A 
ATOM     31  C   UNL A   1      40.206  22.414  27.177  1.00  0.00     0.016 A 
ATOM     32  C   UNL A   1      39.030  24.902  26.683  1.00  0.00     0.010 A 
ATOM     33  C   UNL A   1      40.734  23.580  27.758  1.00  0.00     0.010 A 
ATOM     34  C   UNL A   1      40.178  24.842  27.484  1.00  0.00    -0.014 A 
BRANCH  34  35
ATOM     35  C   UNL A   1      40.860  26.101  27.909  1.00  0.00     0.031 A 
ATOM     36  C   UNL A   1      42.296  26.335  27.509  1.00  0.00     0.074 A 
ATOM     37  C   UNL A   1      40.221  27.058  28.615  1.00  0.00     0.049 A 
ATOM     38  N   UNL A   1      43.040  27.401  27.678  1.00  0.00    -0.248 NA
ATOM     39  C   UNL A   1      42.984  25.230  26.823  1.00  0.00     0.031 C 
ATOM     40  C   UNL A   1      38.844  26.984  29.094  1.00  0.00     0.029 A 
ATOM     41  N   UNL A   1      40.663  28.284  29.060  1.00  0.00    -0.354 N 
ATOM     42  C   UNL A   1      44.275  27.094  27.122  1.00  0.00     0.074 A 
ATOM     43  C   UNL A   1      44.200  25.727  26.654  1.00  0.00     0.031 C 
ATOM     44  C   UNL A   1      38.556  28.104  29.781  1.00  0.00     0.029 A 
ATOM     45  C   UNL A   1      39.728  28.981  29.790  1.00  0.00     0.049 A 
ATOM     46  H   UNL A   1      41.564  28.630  28.873  1.00  0.00     0.167 HD
ATOM     47  C   UNL A   1      45.368  27.880  26.969  1.00  0.00     0.034 A 
ATOM     48  C   UNL A   1      39.799  30.190  30.389  1.00  0.00     0.034 A 
ATOM     49  C   UNL A   1      45.462  29.247  27.404  1.00  0.00     0.049 A 
ATOM     50  C   UNL A   1      41.043  31.033  30.242  1.00  0.00     0.074 A 
ATOM     51  C   UNL A   1      46.509  30.134  27.226  1.00  0.00     0.029 A 
ATOM     52  N   UNL A   1      44.484  29.921  28.114  1.00  0.00    -0.354 N 
ATOM     53  N   UNL A   1      42.129  30.794  29.549  1.00  0.00    -0.248 NA
ATOM     54  C   UNL A   1      41.049  32.340  30.922  1.00  0.00     0.031 C 
ATOM     55  C   UNL A   1      46.173  31.341  27.846  1.00  0.00     0.029 A 
ATOM     56  C   UNL A   1      44.908  31.209  28.396  1.00  0.00     0.049 A 
ATOM     57  H   UNL A   1      43.615  29.541  28.380  1.00  0.00     0.167 HD
ATOM     58  C   UNL A   1      42.920  31.934  29.669  1.00  0.00     0.074 A 
ATOM     59  C   UNL A   1      42.185  32.871  30.490  1.00  0.00     0.031 C 
ATOM     60  C   UNL A   1      44.151  32.174  29.150  1.00  0.00     0.034 A 
BRANCH  47  61
ATOM     61  C   UNL A   1      46.539  27.294  26.229  1.00  0.00     0.023 A 
ATOM     62  C   UNL A   1      46.564  27.369  24.821  1.00  0.00     0.012 A 
ATOM     63  C   UNL A   1      47.624  26.719  26.913  1.00  0.00     0.148 A 
ATOM     64  C   UNL A   1      47.640  26.852  24.103  1.00  0.00     0.002 A 
ATOM     65  C   UNL A   1      48.712  26.239  26.191  1.00  0.00     0.091 A 
ATOM     66  F   UNL A   1      47.569  26.636  28.250  1.00  0.00    -0.205 F 
ATOM     67  C   UNL A   1      48.716  26.297  24.787  1.00  0.00     0.022 A 
BRANCH  65  68
ATOM     68  S   UNL A   1      50.176  25.568  26.985  1.00  0.00     0.127 S 
ATOM     69  O   UNL A   1      51.066  25.368  25.842  1.00  0.00    -0.237 OA
ATOM     70  O   UNL A   1      50.571  26.658  27.879  1.00  0.00    -0.237 OA
ATOM     71  O   UNL A   1      49.743  24.356  27.665  1.00  0.00    -0.744 OA
ENDBRANCH  65  68
ENDBRANCH  47  61
BRANCH  48  72
ATOM     72  C   UNL A   1      38.624  30.728  31.134  1.00  0.00     0.023 A 
ATOM     73  C   UNL A   1      38.556  30.562  32.531  1.00  0.00     0.012 A 
ATOM     74  C   UNL A   1      37.571  31.385  30.469  1.00  0.00     0.148 A 
ATOM     75  C   UNL A   1      37.443  31.005  33.247  1.00  0.00     0.002 A 
ATOM     76  C   UNL A   1      36.488  31.867  31.194  1.00  0.00     0.091 A 
ATOM     77  F   UNL A   1      37.645  31.518  29.137  1.00  0.00    -0.205 F 
ATOM     78  C   UNL A   1      36.413  31.664  32.581  1.00  0.00     0.022 A 
BRANCH  76  79
ATOM     79  S   UNL A   1      35.176  32.831  30.436  1.00  0.00     0.127 S 
ATOM     80  O   UNL A   1      34.704  31.928  29.391  1.00  0.00    -0.237 OA
ATOM     81  O   UNL A   1      34.250  33.017  31.556  1.00  0.00    -0.237 OA
ATOM     82  O   UNL A   1      35.810  34.060  29.979  1.00  0.00    -0.744 OA
ENDBRANCH  76  79
ENDBRANCH  48  72
BRANCH  60  83
ATOM     83  C   UNL A   1      44.787  33.517  29.407  1.00  0.00     0.023 A 
ATOM     84  C   UNL A   1      45.545  33.718  30.577  1.00  0.00     0.012 A 
ATOM     85  C   UNL A   1      44.717  34.547  28.446  1.00  0.00     0.148 A 
ATOM     86  C   UNL A   1      46.202  34.930  30.798  1.00  0.00     0.002 A 
ATOM     87  C   UNL A   1      45.410  35.735  28.652  1.00  0.00     0.091 A 
ATOM     88  F   UNL A   1      43.975  34.346  27.346  1.00  0.00    -0.205 F 
ATOM     89  C   UNL A   1      46.145  35.931  29.832  1.00  0.00     0.022 A 
BRANCH  87  90
ATOM     90  S   UNL A   1      45.470  37.042  27.420  1.00  0.00     0.127 S 
ATOM     91  O   UNL A   1      44.056  37.376  27.268  1.00  0.00    -0.237 OA
ATOM     92  O   UNL A   1      46.271  38.068  28.091  1.00  0.00    -0.237 OA
ATOM     93  O   UNL A   1      46.106  36.456  26.247  1.00  0.00    -0.744 OA
ENDBRANCH  87  90
ENDBRANCH  60  83
ENDBRANCH  34  35
ENDBRANCH  27  29
ENDBRANCH  26  27
ENDBRANCH  25  26
ENDBRANCH   1  25
TORSDOF 18
ENDMDL
MODEL 3
REMARK VINA RESULT:     -12.0      5.097     10.352
REMARK SMILES O=C(OCCOC(=O)c1ccc(-c2c3nc(c(-c4cccc(S(=O)(=O)[O-])c4F)c4ccc([nH]4)c(-c4cccc(S(=O)(=O)[O-])c4F)c4nc(c(-c5cccc(S(=O)(=O)[O-])c5F)c5ccc2[nH]5)C=C4)C=C3)cc1)c1ccc(NS(=O)(=O)Cc2c(Cl)cccc2Cl)cc1
REMARK SMILES IDX 4 1 3 2 2 3 1 4 72 5 73 6 90 7 74 8 89 9 75 10 76 11 77 13
REMARK SMILES IDX 78 14 79 15 80 16 81 17 82 18 87 19 83 20 84 21 86 22 88 23
REMARK SMILES IDX 85 24 5 25 6 26 7 27 8 28 9 29 10 30 71 31 11 32 70 33 12 34
REMARK SMILES IDX 13 35 14 36 64 37 15 38 69 39 63 40 65 41 16 42 68 43 62 44
REMARK SMILES IDX 61 45 17 47 49 48 29 49 48 50 30 51 33 52 47 53 66 54 31 55
REMARK SMILES IDX 32 56 46 58 67 59 34 60 18 61 19 62 27 63 20 64 22 65 28 66
REMARK SMILES IDX 21 67 23 68 24 69 25 70 26 71 50 72 51 73 59 74 52 75 54 76
REMARK SMILES IDX 60 77 53 78 55 79 56 80 57 81 58 82 35 83 36 84 44 85 37 86
REMARK SMILES IDX 39 87 45 88 38 89 40 90 41 91 42 92 43 93
REMARK H PARENT 76 12 65 46 33 57
REMARK Flexibility Score: inf
ROOT
ATOM      1  C   UNL A   1      31.334  29.998  25.426  1.00  0.00     0.275 C 
ENDROOT
BRANCH   1   2
ATOM      2  O   UNL A   1      31.942  28.758  25.855  1.00  0.00    -0.458 OA
BRANCH   2   3
ATOM      3  C   UNL A   1      31.407  27.834  26.698  1.00  0.00     0.338 C 
ATOM      4  O   UNL A   1      31.060  28.178  27.826  1.00  0.00    -0.246 OA
BRANCH   3   5
ATOM      5  C   UNL A   1      31.372  26.375  26.349  1.00  0.00     0.060 A 
ATOM      6  C   UNL A   1      30.425  25.813  25.515  1.00  0.00     0.018 A 
ATOM      7  C   UNL A   1      32.376  25.517  26.826  1.00  0.00     0.018 A 
ATOM      8  C   UNL A   1      30.490  24.489  25.110  1.00  0.00     0.027 A 
ATOM      9  C   UNL A   1      32.376  24.139  26.505  1.00  0.00     0.027 A 
ATOM     10  C   UNL A   1      31.421  23.618  25.632  1.00  0.00     0.049 A 
BRANCH  10  11
ATOM     11  N   UNL A   1      31.254  22.208  25.492  1.00  0.00    -0.283 N 
ATOM     12  H   UNL A   1      30.339  21.851  25.442  1.00  0.00     0.180 HD
BRANCH  11  13
ATOM     13  S   UNL A   1      32.533  21.129  25.408  1.00  0.00     0.237 S 
ATOM     14  O   UNL A   1      33.267  21.179  26.659  1.00  0.00    -0.206 OA
ATOM     15  O   UNL A   1      31.947  19.878  24.973  1.00  0.00    -0.206 OA
BRANCH  13  16
ATOM     16  C   UNL A   1      33.664  21.643  24.073  1.00  0.00     0.198 C 
BRANCH  16  17
ATOM     17  C   UNL A   1      35.078  21.990  24.487  1.00  0.00     0.006 A 
ATOM     18  C   UNL A   1      36.029  21.001  24.833  1.00  0.00     0.046 A 
ATOM     19  C   UNL A   1      35.521  23.325  24.508  1.00  0.00     0.046 A 
ATOM     20  Cl  UNL A   1      35.675  19.306  24.787  1.00  0.00    -0.084 Cl
ATOM     21  C   UNL A   1      37.320  21.342  25.267  1.00  0.00     0.021 A 
ATOM     22  C   UNL A   1      36.803  23.663  24.962  1.00  0.00     0.021 A 
ATOM     23  Cl  UNL A   1      34.536  24.622  23.929  1.00  0.00    -0.084 Cl
ATOM     24  C   UNL A   1      37.699  22.676  25.356  1.00  0.00     0.003 A 
ENDBRANCH  16  17
ENDBRANCH  13  16
ENDBRANCH  11  13
ENDBRANCH  10  11
ENDBRANCH   3   5
ENDBRANCH   2   3
ENDBRANCH   1   2
BRANCH   1  25
ATOM     25  C   UNL A   1      31.705  31.170  26.361  1.00  0.00     0.275 C 
BRANCH  25  26
ATOM     26  O   UNL A   1      32.852  30.873  27.186  1.00  0.00    -0.458 OA
BRANCH  26  27
ATOM     27  C   UNL A   1      33.591  31.944  27.573  1.00  0.00     0.338 C 
ATOM     28  O   UNL A   1      33.185  33.094  27.646  1.00  0.00    -0.246 OA
BRANCH  27  29
ATOM     29  C   UNL A   1      34.922  31.510  28.088  1.00  0.00     0.060 A 
ATOM     30  C   UNL A   1      35.074  30.158  28.421  1.00  0.00     0.016 A 
ATOM     31  C   UNL A   1      36.020  32.368  28.204  1.00  0.00     0.016 A 
ATOM     32  C   UNL A   1      36.296  29.675  28.905  1.00  0.00     0.010 A 
ATOM     33  C   UNL A   1      37.257  31.871  28.655  1.00  0.00     0.010 A 
ATOM     34  C   UNL A   1      37.397  30.530  29.051  1.00  0.00    -0.014 A 
BRANCH  34  35
ATOM     35  C   UNL A   1      38.632  30.048  29.738  1.00  0.00     0.031 A 
ATOM     36  C   UNL A   1      38.954  30.557  31.122  1.00  0.00     0.074 A 
ATOM     37  C   UNL A   1      39.458  29.141  29.176  1.00  0.00     0.049 A 
ATOM     38  N   UNL A   1      39.910  30.189  31.939  1.00  0.00    -0.248 NA
ATOM     39  C   UNL A   1      38.082  31.613  31.662  1.00  0.00     0.031 C 
ATOM     40  C   UNL A   1      39.303  28.560  27.844  1.00  0.00     0.029 A 
ATOM     41  N   UNL A   1      40.606  28.555  29.661  1.00  0.00    -0.354 N 
ATOM     42  C   UNL A   1      39.755  30.965  33.081  1.00  0.00     0.074 A 
ATOM     43  C   UNL A   1      38.643  31.858  32.836  1.00  0.00     0.031 C 
ATOM     44  C   UNL A   1      40.324  27.718  27.610  1.00  0.00     0.029 A 
ATOM     45  C   UNL A   1      41.208  27.691  28.776  1.00  0.00     0.049 A 
ATOM     46  H   UNL A   1      40.962  28.737  30.560  1.00  0.00     0.167 HD
ATOM     47  C   UNL A   1      40.438  30.919  34.250  1.00  0.00     0.034 A 
ATOM     48  C   UNL A   1      42.335  26.955  28.890  1.00  0.00     0.034 A 
ATOM     49  C   UNL A   1      41.529  30.028  34.528  1.00  0.00     0.049 A 
ATOM     50  C   UNL A   1      43.107  26.952  30.188  1.00  0.00     0.074 A 
ATOM     51  C   UNL A   1      42.231  29.872  35.711  1.00  0.00     0.029 A 
ATOM     52  N   UNL A   1      42.089  29.153  33.613  1.00  0.00    -0.354 N 
ATOM     53  N   UNL A   1      42.828  27.554  31.318  1.00  0.00    -0.248 NA
ATOM     54  C   UNL A   1      44.325  26.126  30.240  1.00  0.00     0.031 C 
ATOM     55  C   UNL A   1      43.230  28.914  35.507  1.00  0.00     0.029 A 
ATOM     56  C   UNL A   1      43.138  28.464  34.200  1.00  0.00     0.049 A 
ATOM     57  H   UNL A   1      41.787  29.037  32.683  1.00  0.00     0.167 HD
ATOM     58  C   UNL A   1      43.803  27.141  32.224  1.00  0.00     0.074 A 
ATOM     59  C   UNL A   1      44.673  26.227  31.516  1.00  0.00     0.031 C 
ATOM     60  C   UNL A   1      43.964  27.497  33.523  1.00  0.00     0.034 A 
BRANCH  47  61
ATOM     61  C   UNL A   1      39.969  31.826  35.355  1.00  0.00     0.023 A 
ATOM     62  C   UNL A   1      40.459  33.147  35.409  1.00  0.00     0.012 A 
ATOM     63  C   UNL A   1      39.023  31.397  36.303  1.00  0.00     0.148 A 
ATOM     64  C   UNL A   1      40.035  34.020  36.408  1.00  0.00     0.002 A 
ATOM     65  C   UNL A   1      38.576  32.286  37.274  1.00  0.00     0.091 A 
ATOM     66  F   UNL A   1      38.588  30.130  36.248  1.00  0.00    -0.205 F 
ATOM     67  C   UNL A   1      39.088  33.593  37.334  1.00  0.00     0.022 A 
BRANCH  65  68
ATOM     68  S   UNL A   1      37.307  31.851  38.468  1.00  0.00     0.127 S 
ATOM     69  O   UNL A   1      37.069  30.445  38.148  1.00  0.00    -0.237 OA
ATOM     70  O   UNL A   1      37.990  32.077  39.743  1.00  0.00    -0.237 OA
ATOM     71  O   UNL A   1      36.192  32.752  38.214  1.00  0.00    -0.744 OA
ENDBRANCH  65  68
ENDBRANCH  47  61
BRANCH  48  72
ATOM     72  C   UNL A   1      42.781  26.086  27.763  1.00  0.00     0.023 A 
ATOM     73  C   UNL A   1      43.710  26.585  26.830  1.00  0.00     0.012 A 
ATOM     74  C   UNL A   1      42.278  24.780  27.600  1.00  0.00     0.148 A 
ATOM     75  C   UNL A   1      44.102  25.815  25.734  1.00  0.00     0.002 A 
ATOM     76  C   UNL A   1      42.710  24.001  26.534  1.00  0.00     0.091 A 
ATOM     77  F   UNL A   1      41.381  24.329  28.488  1.00  0.00    -0.205 F 
ATOM     78  C   UNL A   1      43.609  24.521  25.590  1.00  0.00     0.022 A 
BRANCH  76  79
ATOM     79  S   UNL A   1      42.219  22.284  26.337  1.00  0.00     0.127 S 
ATOM     80  O   UNL A   1      42.731  21.975  25.006  1.00  0.00    -0.237 OA
ATOM     81  O   UNL A   1      42.934  21.636  27.439  1.00  0.00    -0.237 OA
ATOM     82  O   UNL A   1      40.769  22.275  26.482  1.00  0.00    -0.744 OA
ENDBRANCH  76  79
ENDBRANCH  48  72
BRANCH  60  83
ATOM     83  C   UNL A   1      45.097  26.877  34.301  1.00  0.00     0.023 A 
ATOM     84  C   UNL A   1      46.367  27.485  34.290  1.00  0.00     0.012 A 
ATOM     85  C   UNL A   1      44.880  25.750  35.121  1.00  0.00     0.148 A 
ATOM     86  C   UNL A   1      47.409  26.968  35.061  1.00  0.00     0.002 A 
ATOM     87  C   UNL A   1      45.910  25.267  35.921  1.00  0.00     0.091 A 
ATOM     88  F   UNL A   1      43.670  25.172  35.107  1.00  0.00    -0.205 F 
ATOM     89  C   UNL A   1      47.178  25.870  35.885  1.00  0.00     0.022 A 
BRANCH  87  90
ATOM     90  S   UNL A   1      45.677  23.916  37.083  1.00  0.00     0.127 S 
ATOM     91  O   UNL A   1      46.998  23.820  37.701  1.00  0.00    -0.237 OA
ATOM     92  O   UNL A   1      44.629  24.437  37.963  1.00  0.00    -0.237 OA
ATOM     93  O   UNL A   1      45.273  22.767  36.283  1.00  0.00    -0.744 OA
ENDBRANCH  87  90
ENDBRANCH  60  83
ENDBRANCH  34  35
ENDBRANCH  27  29
ENDBRANCH  26  27
ENDBRANCH  25  26
ENDBRANCH   1  25
TORSDOF 18
ENDMDL
