MODEL 1
REMARK VINA RESULT:     -11.9      0.000      0.000
REMARK SMILES CCOc1ccc(-c2nn(-c3ccccc3)cc2/C=C2/SC(=S)N(CC(=O)OCCOC(=O)c3ccc(-c4c5nc(c(-c6cccc(S(=O)(=O)[O-])c6F)c6ccc([nH]6)c(-c6cccc(S(=O)(=O)[O-])c6F)c6nc(c(-c7cccc(S(=O)(=O)[O-])c7F)c7ccc4[nH]7)C=C6)C=C5)cc3)C2=O)cc1F
REMARK SMILES IDX 29 1 28 2 26 3 27 4 25 5 24 6 19 7 20 8 21 9 97 10 22 11
REMARK SMILES IDX 98 12 23 13 18 14 8 15 9 16 10 17 17 18 7 19 4 20 5 21
REMARK SMILES IDX 100 22 6 23 99 24 101 25 3 26 2 27 1 28 11 29 12 30 16 31
REMARK SMILES IDX 13 32 15 33 14 34 30 35 31 36 32 37 33 38 34 39 35 40 96 41
REMARK SMILES IDX 36 42 95 43 37 44 38 45 39 46 89 47 40 48 94 49 88 50 90 51
REMARK SMILES IDX 41 52 93 53 87 54 86 55 42 57 74 58 54 59 73 60 55 61 58 62
REMARK SMILES IDX 72 63 91 64 56 65 57 66 71 68 92 69 59 70 43 71 44 72 52 73
REMARK SMILES IDX 45 74 47 75 53 76 46 77 48 78 49 79 50 80 51 81 75 82 76 83
REMARK SMILES IDX 84 84 77 85 79 86 85 87 78 88 80 89 81 90 82 91 83 92 60 93
REMARK SMILES IDX 61 94 69 95 62 96 64 97 70 98 63 99 65 100 66 101 67 102
REMARK SMILES IDX 68 103
REMARK H PARENT 90 56 58 67
REMARK Flexibility Score: inf
ROOT
ATOM      1  C   UNL A   1      34.445  34.376  31.102  1.00  0.00     0.274 C 
ENDROOT
BRANCH   1   2
ATOM      2  O   UNL A   1      33.835  33.567  30.070  1.00  0.00    -0.461 OA
BRANCH   2   3
ATOM      3  C   UNL A   1      33.285  34.255  29.030  1.00  0.00     0.326 C 
ATOM      4  O   UNL A   1      32.729  35.344  29.145  1.00  0.00    -0.250 OA
BRANCH   3   5
ATOM      5  C   UNL A   1      33.406  33.554  27.674  1.00  0.00     0.250 C 
BRANCH   5   6
ATOM      6  N   UNL A   1      34.202  32.323  27.611  1.00  0.00    -0.282 N 
ATOM      7  C   UNL A   1      34.299  28.901  26.532  1.00  0.00     0.033 C 
ATOM      8  C   UNL A   1      34.507  30.023  27.237  1.00  0.00     0.081 C 
ATOM      9  S   UNL A   1      36.076  30.547  27.736  1.00  0.00    -0.054 SA
ATOM     10  C   UNL A   1      33.552  31.105  27.572  1.00  0.00     0.266 C 
ATOM     11  C   UNL A   1      35.562  32.242  27.775  1.00  0.00     0.148 C 
ATOM     12  O   UNL A   1      32.428  30.894  28.009  1.00  0.00    -0.268 OA
ATOM     13  S   UNL A   1      36.641  33.489  28.021  1.00  0.00    -0.052 S 
BRANCH   7  14
ATOM     14  C   UNL A   1      33.171  28.599  25.713  1.00  0.00     0.022 A 
ATOM     15  C   UNL A   1      32.646  27.366  25.231  1.00  0.00     0.100 A 
ATOM     16  N   UNL A   1      31.622  27.614  24.390  1.00  0.00    -0.167 NA
ATOM     17  N   UNL A   1      31.522  28.972  24.294  1.00  0.00    -0.240 N 
ATOM     18  C   UNL A   1      32.466  29.592  25.064  1.00  0.00     0.123 A 
BRANCH  15  19
ATOM     19  C   UNL A   1      33.154  25.998  25.471  1.00  0.00     0.006 A 
ATOM     20  C   UNL A   1      34.324  23.517  26.200  1.00  0.00     0.154 A 
ATOM     21  C   UNL A   1      33.035  23.835  26.622  1.00  0.00     0.050 A 
ATOM     22  C   UNL A   1      34.980  24.392  25.338  1.00  0.00     0.165 A 
ATOM     23  C   UNL A   1      32.458  25.068  26.263  1.00  0.00     0.014 A 
ATOM     24  C   UNL A   1      34.408  25.617  24.973  1.00  0.00     0.053 A 
ATOM     25  F   UNL A   1      36.188  24.088  24.851  1.00  0.00    -0.203 F 
BRANCH  20  26
ATOM     26  O   UNL A   1      34.833  22.292  26.540  1.00  0.00    -0.491 OA
BRANCH  26  27
ATOM     27  C   UNL A   1      34.054  21.178  26.082  1.00  0.00     0.226 C 
ATOM     28  C   UNL A   1      34.022  21.044  24.569  1.00  0.00     0.049 C 
ENDBRANCH  26  27
ENDBRANCH  20  26
ENDBRANCH  15  19
BRANCH  17  29
ATOM     29  C   UNL A   1      30.436  29.627  23.639  1.00  0.00     0.065 A 
ATOM     30  C   UNL A   1      30.133  29.239  22.340  1.00  0.00     0.028 A 
ATOM     31  C   UNL A   1      29.780  30.735  24.163  1.00  0.00     0.028 A 
ATOM     32  C   UNL A   1      29.289  29.974  21.503  1.00  0.00     0.002 A 
ATOM     33  C   UNL A   1      28.901  31.469  23.336  1.00  0.00     0.002 A 
ATOM     34  C   UNL A   1      28.681  31.110  22.001  1.00  0.00     0.000 A 
ENDBRANCH  17  29
ENDBRANCH   7  14
ENDBRANCH   5   6
ENDBRANCH   3   5
ENDBRANCH   2   3
ENDBRANCH   1   2
BRANCH   1  35
ATOM     35  C   UNL A   1      34.496  33.647  32.450  1.00  0.00     0.275 C 
BRANCH  35  36
ATOM     36  O   UNL A   1      34.687  32.225  32.309  1.00  0.00    -0.458 OA
BRANCH  36  37
ATOM     37  C   UNL A   1      35.954  31.817  32.585  1.00  0.00     0.338 C 
ATOM     38  O   UNL A   1      36.519  32.019  33.643  1.00  0.00    -0.246 OA
BRANCH  37  39
ATOM     39  C   UNL A   1      36.679  31.291  31.403  1.00  0.00     0.060 A 
ATOM     40  C   UNL A   1      36.639  29.899  31.209  1.00  0.00     0.016 A 
ATOM     41  C   UNL A   1      37.718  32.036  30.865  1.00  0.00     0.016 A 
ATOM     42  C   UNL A   1      37.776  29.212  30.794  1.00  0.00     0.010 A 
ATOM     43  C   UNL A   1      38.849  31.345  30.449  1.00  0.00     0.010 A 
ATOM     44  C   UNL A   1      38.935  29.936  30.558  1.00  0.00    -0.014 A 
BRANCH  44  45
ATOM     45  C   UNL A   1      40.219  29.279  30.262  1.00  0.00     0.031 A 
ATOM     46  C   UNL A   1      40.898  29.019  31.535  1.00  0.00     0.074 A 
ATOM     47  C   UNL A   1      40.732  28.820  29.093  1.00  0.00     0.049 A 
ATOM     48  N   UNL A   1      41.737  29.827  32.096  1.00  0.00    -0.248 NA
ATOM     49  C   UNL A   1      40.360  27.981  32.424  1.00  0.00     0.031 C 
ATOM     50  C   UNL A   1      40.225  28.947  27.741  1.00  0.00     0.029 A 
ATOM     51  N   UNL A   1      41.812  28.006  28.871  1.00  0.00    -0.354 N 
ATOM     52  C   UNL A   1      42.040  29.180  33.277  1.00  0.00     0.074 A 
ATOM     53  C   UNL A   1      40.888  28.382  33.583  1.00  0.00     0.031 C 
ATOM     54  C   UNL A   1      40.719  27.990  26.925  1.00  0.00     0.029 A 
ATOM     55  C   UNL A   1      41.775  27.324  27.645  1.00  0.00     0.049 A 
ATOM     56  H   UNL A   1      42.550  27.909  29.514  1.00  0.00     0.167 HD
ATOM     57  C   UNL A   1      43.339  28.932  33.597  1.00  0.00     0.034 A 
ATOM     58  C   UNL A   1      42.610  26.362  27.175  1.00  0.00     0.034 A 
ATOM     59  C   UNL A   1      44.238  29.728  32.782  1.00  0.00     0.049 A 
ATOM     60  C   UNL A   1      43.883  26.568  27.887  1.00  0.00     0.074 A 
ATOM     61  C   UNL A   1      44.374  31.071  32.489  1.00  0.00     0.029 A 
ATOM     62  N   UNL A   1      44.918  29.051  31.799  1.00  0.00    -0.354 N 
ATOM     63  N   UNL A   1      44.637  27.615  27.706  1.00  0.00    -0.248 NA
ATOM     64  C   UNL A   1      44.084  25.845  29.127  1.00  0.00     0.031 C 
ATOM     65  C   UNL A   1      44.817  31.127  31.135  1.00  0.00     0.029 A 
ATOM     66  C   UNL A   1      45.004  29.824  30.675  1.00  0.00     0.049 A 
ATOM     67  H   UNL A   1      45.289  28.143  31.891  1.00  0.00     0.167 HD
ATOM     68  C   UNL A   1      45.001  27.974  28.996  1.00  0.00     0.074 A 
ATOM     69  C   UNL A   1      44.761  26.776  29.802  1.00  0.00     0.031 C 
ATOM     70  C   UNL A   1      45.150  29.289  29.334  1.00  0.00     0.034 A 
BRANCH  57  71
ATOM     71  C   UNL A   1      43.805  27.675  34.308  1.00  0.00     0.023 A 
ATOM     72  C   UNL A   1      43.726  26.478  33.574  1.00  0.00     0.012 A 
ATOM     73  C   UNL A   1      44.103  27.548  35.691  1.00  0.00     0.148 A 
ATOM     74  C   UNL A   1      43.899  25.231  34.183  1.00  0.00     0.002 A 
ATOM     75  C   UNL A   1      44.371  26.318  36.272  1.00  0.00     0.091 A 
ATOM     76  F   UNL A   1      43.997  28.584  36.520  1.00  0.00    -0.205 F 
ATOM     77  C   UNL A   1      44.238  25.150  35.530  1.00  0.00     0.022 A 
BRANCH  75  78
ATOM     78  S   UNL A   1      44.865  26.190  37.999  1.00  0.00     0.127 S 
ATOM     79  O   UNL A   1      46.102  26.963  38.008  1.00  0.00    -0.237 OA
ATOM     80  O   UNL A   1      43.731  26.820  38.678  1.00  0.00    -0.237 OA
ATOM     81  O   UNL A   1      45.001  24.764  38.272  1.00  0.00    -0.744 OA
ENDBRANCH  75  78
ENDBRANCH  57  71
BRANCH  58  82
ATOM     82  C   UNL A   1      42.353  25.137  26.369  1.00  0.00     0.023 A 
ATOM     83  C   UNL A   1      43.281  24.763  25.371  1.00  0.00     0.012 A 
ATOM     84  C   UNL A   1      41.414  24.168  26.788  1.00  0.00     0.148 A 
ATOM     85  C   UNL A   1      43.327  23.456  24.867  1.00  0.00     0.002 A 
ATOM     86  C   UNL A   1      41.469  22.865  26.289  1.00  0.00     0.091 A 
ATOM     87  F   UNL A   1      40.530  24.495  27.740  1.00  0.00    -0.205 F 
ATOM     88  C   UNL A   1      42.436  22.501  25.342  1.00  0.00     0.022 A 
BRANCH  86  89
ATOM     89  S   UNL A   1      40.384  21.557  26.885  1.00  0.00     0.127 S 
ATOM     90  O   UNL A   1      39.058  22.113  26.614  1.00  0.00    -0.237 OA
ATOM     91  O   UNL A   1      40.762  20.437  26.028  1.00  0.00    -0.237 OA
ATOM     92  O   UNL A   1      40.690  21.402  28.302  1.00  0.00    -0.744 OA
ENDBRANCH  86  89
ENDBRANCH  58  82
BRANCH  70  93
ATOM     93  C   UNL A   1      45.262  30.306  28.219  1.00  0.00     0.023 A 
ATOM     94  C   UNL A   1      44.143  30.836  27.542  1.00  0.00     0.012 A 
ATOM     95  C   UNL A   1      46.526  30.875  27.984  1.00  0.00     0.148 A 
ATOM     96  C   UNL A   1      44.289  31.907  26.652  1.00  0.00     0.002 A 
ATOM     97  C   UNL A   1      46.658  31.972  27.140  1.00  0.00     0.091 A 
ATOM     98  F   UNL A   1      47.580  30.349  28.625  1.00  0.00    -0.205 F 
ATOM     99  C   UNL A   1      45.542  32.489  26.468  1.00  0.00     0.022 A 
BRANCH  97 100
ATOM    100  S   UNL A   1      48.223  32.832  26.959  1.00  0.00     0.127 S 
ATOM    101  O   UNL A   1      49.110  31.761  26.508  1.00  0.00    -0.237 OA
ATOM    102  O   UNL A   1      47.920  33.842  25.944  1.00  0.00    -0.237 OA
ATOM    103  O   UNL A   1      48.534  33.384  28.272  1.00  0.00    -0.744 OA
ENDBRANCH  97 100
ENDBRANCH  70  93
ENDBRANCH  44  45
ENDBRANCH  37  39
ENDBRANCH  36  37
ENDBRANCH  35  36
ENDBRANCH   1  35
TORSDOF 20
ENDMDL
MODEL 2
REMARK VINA RESULT:     -11.1      4.623     11.822
REMARK SMILES CCOc1ccc(-c2nn(-c3ccccc3)cc2/C=C2/SC(=S)N(CC(=O)OCCOC(=O)c3ccc(-c4c5nc(c(-c6cccc(S(=O)(=O)[O-])c6F)c6ccc([nH]6)c(-c6cccc(S(=O)(=O)[O-])c6F)c6nc(c(-c7cccc(S(=O)(=O)[O-])c7F)c7ccc4[nH]7)C=C6)C=C5)cc3)C2=O)cc1F
REMARK SMILES IDX 29 1 28 2 26 3 27 4 25 5 24 6 19 7 20 8 21 9 97 10 22 11
REMARK SMILES IDX 98 12 23 13 18 14 8 15 9 16 10 17 17 18 7 19 4 20 5 21
REMARK SMILES IDX 100 22 6 23 99 24 101 25 3 26 2 27 1 28 11 29 12 30 16 31
REMARK SMILES IDX 13 32 15 33 14 34 30 35 31 36 32 37 33 38 34 39 35 40 96 41
REMARK SMILES IDX 36 42 95 43 37 44 38 45 39 46 89 47 40 48 94 49 88 50 90 51
REMARK SMILES IDX 41 52 93 53 87 54 86 55 42 57 74 58 54 59 73 60 55 61 58 62
REMARK SMILES IDX 72 63 91 64 56 65 57 66 71 68 92 69 59 70 43 71 44 72 52 73
REMARK SMILES IDX 45 74 47 75 53 76 46 77 48 78 49 79 50 80 51 81 75 82 76 83
REMARK SMILES IDX 84 84 77 85 79 86 85 87 78 88 80 89 81 90 82 91 83 92 60 93
REMARK SMILES IDX 61 94 69 95 62 96 64 97 70 98 63 99 65 100 66 101 67 102
REMARK SMILES IDX 68 103
REMARK H PARENT 90 56 58 67
REMARK Flexibility Score: inf
ROOT
ATOM      1  C   UNL A   1      44.338  27.227  25.435  1.00  0.00     0.274 C 
ENDROOT
BRANCH   1   2
ATOM      2  O   UNL A   1      45.664  26.950  24.928  1.00  0.00    -0.461 OA
BRANCH   2   3
ATOM      3  C   UNL A   1      46.449  28.041  24.706  1.00  0.00     0.326 C 
ATOM      4  O   UNL A   1      46.843  28.389  23.595  1.00  0.00    -0.250 OA
BRANCH   3   5
ATOM      5  C   UNL A   1      46.822  28.819  25.971  1.00  0.00     0.250 C 
BRANCH   5   6
ATOM      6  N   UNL A   1      47.730  28.174  26.925  1.00  0.00    -0.282 N 
ATOM      7  C   UNL A   1      48.005  26.428  30.049  1.00  0.00     0.033 C 
ATOM      8  C   UNL A   1      48.281  27.216  29.000  1.00  0.00     0.081 C 
ATOM      9  S   UNL A   1      49.772  27.143  28.130  1.00  0.00    -0.054 SA
ATOM     10  C   UNL A   1      47.383  28.135  28.262  1.00  0.00     0.266 C 
ATOM     11  C   UNL A   1      49.009  27.755  26.653  1.00  0.00     0.148 C 
ATOM     12  O   UNL A   1      46.635  28.929  28.817  1.00  0.00    -0.268 OA
ATOM     13  S   UNL A   1      49.818  27.813  25.197  1.00  0.00    -0.052 S 
BRANCH   7  14
ATOM     14  C   UNL A   1      46.715  26.088  30.551  1.00  0.00     0.022 A 
ATOM     15  C   UNL A   1      45.680  25.257  30.033  1.00  0.00     0.100 A 
ATOM     16  N   UNL A   1      44.595  25.347  30.829  1.00  0.00    -0.167 NA
ATOM     17  N   UNL A   1      44.905  26.249  31.805  1.00  0.00    -0.240 N 
ATOM     18  C   UNL A   1      46.174  26.733  31.644  1.00  0.00     0.123 A 
BRANCH  15  19
ATOM     19  C   UNL A   1      45.670  24.482  28.774  1.00  0.00     0.006 A 
ATOM     20  C   UNL A   1      45.945  22.824  26.487  1.00  0.00     0.154 A 
ATOM     21  C   UNL A   1      45.015  22.507  27.475  1.00  0.00     0.050 A 
ATOM     22  C   UNL A   1      46.659  24.015  26.598  1.00  0.00     0.165 A 
ATOM     23  C   UNL A   1      44.883  23.328  28.611  1.00  0.00     0.014 A 
ATOM     24  C   UNL A   1      46.526  24.838  27.723  1.00  0.00     0.053 A 
ATOM     25  F   UNL A   1      47.507  24.392  25.634  1.00  0.00    -0.203 F 
BRANCH  20  26
ATOM     26  O   UNL A   1      46.016  22.020  25.381  1.00  0.00    -0.491 OA
BRANCH  26  27
ATOM     27  C   UNL A   1      44.753  21.772  24.747  1.00  0.00     0.226 C 
ATOM     28  C   UNL A   1      44.526  22.614  23.502  1.00  0.00     0.049 C 
ENDBRANCH  26  27
ENDBRANCH  20  26
ENDBRANCH  15  19
BRANCH  17  29
ATOM     29  C   UNL A   1      44.078  26.477  32.946  1.00  0.00     0.065 A 
ATOM     30  C   UNL A   1      44.112  25.538  33.969  1.00  0.00     0.028 A 
ATOM     31  C   UNL A   1      43.126  27.487  33.014  1.00  0.00     0.028 A 
ATOM     32  C   UNL A   1      43.166  25.497  34.997  1.00  0.00     0.002 A 
ATOM     33  C   UNL A   1      42.184  27.475  34.067  1.00  0.00     0.002 A 
ATOM     34  C   UNL A   1      42.182  26.466  35.036  1.00  0.00     0.000 A 
ENDBRANCH  17  29
ENDBRANCH   7  14
ENDBRANCH   5   6
ENDBRANCH   3   5
ENDBRANCH   2   3
ENDBRANCH   1   2
BRANCH   1  35
ATOM     35  C   UNL A   1      43.352  26.096  25.116  1.00  0.00     0.275 C 
BRANCH  35  36
ATOM     36  O   UNL A   1      43.359  25.052  26.110  1.00  0.00    -0.458 OA
BRANCH  36  37
ATOM     37  C   UNL A   1      42.123  24.557  26.386  1.00  0.00     0.338 C 
ATOM     38  O   UNL A   1      41.576  23.690  25.733  1.00  0.00    -0.246 OA
BRANCH  37  39
ATOM     39  C   UNL A   1      41.399  25.321  27.430  1.00  0.00     0.060 A 
ATOM     40  C   UNL A   1      40.310  26.100  26.998  1.00  0.00     0.016 A 
ATOM     41  C   UNL A   1      42.058  25.647  28.606  1.00  0.00     0.016 A 
ATOM     42  C   UNL A   1      40.098  27.370  27.525  1.00  0.00     0.010 A 
ATOM     43  C   UNL A   1      41.840  26.915  29.129  1.00  0.00     0.010 A 
ATOM     44  C   UNL A   1      40.970  27.836  28.497  1.00  0.00    -0.014 A 
BRANCH  44  45
ATOM     45  C   UNL A   1      40.911  29.218  29.002  1.00  0.00     0.031 A 
ATOM     46  C   UNL A   1      42.137  29.904  28.582  1.00  0.00     0.074 A 
ATOM     47  C   UNL A   1      39.914  29.893  29.626  1.00  0.00     0.049 A 
ATOM     48  N   UNL A   1      43.219  29.967  29.288  1.00  0.00    -0.248 NA
ATOM     49  C   UNL A   1      42.313  30.233  27.162  1.00  0.00     0.031 C 
ATOM     50  C   UNL A   1      38.630  29.421  30.105  1.00  0.00     0.029 A 
ATOM     51  N   UNL A   1      39.787  31.234  29.874  1.00  0.00    -0.354 N 
ATOM     52  C   UNL A   1      44.086  30.645  28.455  1.00  0.00     0.074 A 
ATOM     53  C   UNL A   1      43.641  30.356  27.122  1.00  0.00     0.031 C 
ATOM     54  C   UNL A   1      37.737  30.428  30.226  1.00  0.00     0.029 A 
ATOM     55  C   UNL A   1      38.464  31.662  30.065  1.00  0.00     0.049 A 
ATOM     56  H   UNL A   1      40.558  31.845  29.917  1.00  0.00     0.167 HD
ATOM     57  C   UNL A   1      44.717  31.764  28.903  1.00  0.00     0.034 A 
ATOM     58  C   UNL A   1      37.984  32.923  30.206  1.00  0.00     0.034 A 
ATOM     59  C   UNL A   1      44.638  31.864  30.348  1.00  0.00     0.049 A 
ATOM     60  C   UNL A   1      39.115  33.716  30.716  1.00  0.00     0.074 A 
ATOM     61  C   UNL A   1      44.950  31.040  31.411  1.00  0.00     0.029 A 
ATOM     62  N   UNL A   1      43.774  32.813  30.839  1.00  0.00    -0.354 N 
ATOM     63  N   UNL A   1      39.624  33.547  31.903  1.00  0.00    -0.248 NA
ATOM     64  C   UNL A   1      39.968  34.373  29.745  1.00  0.00     0.031 C 
ATOM     65  C   UNL A   1      43.967  31.308  32.409  1.00  0.00     0.029 A 
ATOM     66  C   UNL A   1      43.139  32.333  31.951  1.00  0.00     0.049 A 
ATOM     67  H   UNL A   1      43.633  33.706  30.449  1.00  0.00     0.167 HD
ATOM     68  C   UNL A   1      40.992  33.580  31.673  1.00  0.00     0.074 A 
ATOM     69  C   UNL A   1      41.138  34.235  30.372  1.00  0.00     0.031 C 
ATOM     70  C   UNL A   1      41.837  32.791  32.399  1.00  0.00     0.034 A 
BRANCH  57  71
ATOM     71  C   UNL A   1      45.006  32.973  28.031  1.00  0.00     0.023 A 
ATOM     72  C   UNL A   1      43.892  33.589  27.433  1.00  0.00     0.012 A 
ATOM     73  C   UNL A   1      46.282  33.409  27.587  1.00  0.00     0.148 A 
ATOM     74  C   UNL A   1      44.038  34.554  26.431  1.00  0.00     0.002 A 
ATOM     75  C   UNL A   1      46.425  34.435  26.666  1.00  0.00     0.091 A 
ATOM     76  F   UNL A   1      47.392  32.757  27.925  1.00  0.00    -0.205 F 
ATOM     77  C   UNL A   1      45.305  34.990  26.057  1.00  0.00     0.022 A 
BRANCH  75  78
ATOM     78  S   UNL A   1      48.052  35.055  26.205  1.00  0.00     0.127 S 
ATOM     79  O   UNL A   1      48.490  34.044  25.248  1.00  0.00    -0.237 OA
ATOM     80  O   UNL A   1      47.718  36.358  25.626  1.00  0.00    -0.237 OA
ATOM     81  O   UNL A   1      48.816  35.135  27.445  1.00  0.00    -0.744 OA
ENDBRANCH  75  78
ENDBRANCH  57  71
BRANCH  58  82
ATOM     82  C   UNL A   1      36.735  33.566  29.713  1.00  0.00     0.023 A 
ATOM     83  C   UNL A   1      36.243  33.223  28.434  1.00  0.00     0.012 A 
ATOM     84  C   UNL A   1      35.856  34.232  30.597  1.00  0.00     0.148 A 
ATOM     85  C   UNL A   1      34.909  33.459  28.074  1.00  0.00     0.002 A 
ATOM     86  C   UNL A   1      34.525  34.457  30.238  1.00  0.00     0.091 A 
ATOM     87  F   UNL A   1      36.295  34.558  31.820  1.00  0.00    -0.205 F 
ATOM     88  C   UNL A   1      34.044  34.056  28.984  1.00  0.00     0.022 A 
BRANCH  86  89
ATOM     89  S   UNL A   1      33.329  35.181  31.372  1.00  0.00     0.127 S 
ATOM     90  O   UNL A   1      33.949  36.467  31.692  1.00  0.00    -0.237 OA
ATOM     91  O   UNL A   1      32.135  35.270  30.536  1.00  0.00    -0.237 OA
ATOM     92  O   UNL A   1      33.244  34.261  32.500  1.00  0.00    -0.744 OA
ENDBRANCH  86  89
ENDBRANCH  58  82
BRANCH  70  93
ATOM     93  C   UNL A   1      41.312  32.163  33.673  1.00  0.00     0.023 A 
ATOM     94  C   UNL A   1      40.686  30.900  33.709  1.00  0.00     0.012 A 
ATOM     95  C   UNL A   1      41.635  32.793  34.888  1.00  0.00     0.148 A 
ATOM     96  C   UNL A   1      40.388  30.285  34.932  1.00  0.00     0.002 A 
ATOM     97  C   UNL A   1      41.387  32.155  36.098  1.00  0.00     0.091 A 
ATOM     98  F   UNL A   1      42.217  34.000  34.834  1.00  0.00    -0.205 F 
ATOM     99  C   UNL A   1      40.759  30.902  36.125  1.00  0.00     0.022 A 
BRANCH  97 100
ATOM    100  S   UNL A   1      41.947  32.850  37.656  1.00  0.00     0.127 S 
ATOM    101  O   UNL A   1      41.715  31.746  38.585  1.00  0.00    -0.237 OA
ATOM    102  O   UNL A   1      43.357  33.138  37.391  1.00  0.00    -0.237 OA
ATOM    103  O   UNL A   1      41.131  34.036  37.885  1.00  0.00    -0.744 OA
ENDBRANCH  97 100
ENDBRANCH  70  93
ENDBRANCH  44  45
ENDBRANCH  37  39
ENDBRANCH  36  37
ENDBRANCH  35  36
ENDBRANCH   1  35
TORSDOF 20
ENDMDL
MODEL 3
REMARK VINA RESULT:     -10.8      5.747     10.993
REMARK SMILES CCOc1ccc(-c2nn(-c3ccccc3)cc2/C=C2/SC(=S)N(CC(=O)OCCOC(=O)c3ccc(-c4c5nc(c(-c6cccc(S(=O)(=O)[O-])c6F)c6ccc([nH]6)c(-c6cccc(S(=O)(=O)[O-])c6F)c6nc(c(-c7cccc(S(=O)(=O)[O-])c7F)c7ccc4[nH]7)C=C6)C=C5)cc3)C2=O)cc1F
REMARK SMILES IDX 29 1 28 2 26 3 27 4 25 5 24 6 19 7 20 8 21 9 97 10 22 11
REMARK SMILES IDX 98 12 23 13 18 14 8 15 9 16 10 17 17 18 7 19 4 20 5 21
REMARK SMILES IDX 100 22 6 23 99 24 101 25 3 26 2 27 1 28 11 29 12 30 16 31
REMARK SMILES IDX 13 32 15 33 14 34 30 35 31 36 32 37 33 38 34 39 35 40 96 41
REMARK SMILES IDX 36 42 95 43 37 44 38 45 39 46 89 47 40 48 94 49 88 50 90 51
REMARK SMILES IDX 41 52 93 53 87 54 86 55 42 57 74 58 54 59 73 60 55 61 58 62
REMARK SMILES IDX 72 63 91 64 56 65 57 66 71 68 92 69 59 70 43 71 44 72 52 73
REMARK SMILES IDX 45 74 47 75 53 76 46 77 48 78 49 79 50 80 51 81 75 82 76 83
REMARK SMILES IDX 84 84 77 85 79 86 85 87 78 88 80 89 81 90 82 91 83 92 60 93
REMARK SMILES IDX 61 94 69 95 62 96 64 97 70 98 63 99 65 100 66 101 67 102
REMARK SMILES IDX 68 103
REMARK H PARENT 90 56 58 67
REMARK Flexibility Score: inf
ROOT
ATOM      1  C   UNL A   1      44.579  27.484  25.802  1.00  0.00     0.274 C 
ENDROOT
BRANCH   1   2
ATOM      2  O   UNL A   1      46.003  27.339  26.006  1.00  0.00    -0.461 OA
BRANCH   2   3
ATOM      3  C   UNL A   1      46.757  28.428  25.688  1.00  0.00     0.326 C 
ATOM      4  O   UNL A   1      46.704  29.009  24.607  1.00  0.00    -0.250 OA
BRANCH   3   5
ATOM      5  C   UNL A   1      47.706  28.885  26.800  1.00  0.00     0.250 C 
BRANCH   5   6
ATOM      6  N   UNL A   1      48.268  27.857  27.683  1.00  0.00    -0.282 N 
ATOM      7  C   UNL A   1      47.714  25.795  30.568  1.00  0.00     0.033 C 
ATOM      8  C   UNL A   1      48.315  26.543  29.631  1.00  0.00     0.081 C 
ATOM      9  S   UNL A   1      49.735  26.038  28.788  1.00  0.00    -0.054 SA
ATOM     10  C   UNL A   1      47.847  27.798  28.997  1.00  0.00     0.266 C 
ATOM     11  C   UNL A   1      49.331  27.041  27.385  1.00  0.00     0.148 C 
ATOM     12  O   UNL A   1      47.394  28.740  29.634  1.00  0.00    -0.268 OA
ATOM     13  S   UNL A   1      50.198  26.966  25.963  1.00  0.00    -0.052 S 
BRANCH   7  14
ATOM     14  C   UNL A   1      46.358  25.885  30.999  1.00  0.00     0.022 A 
ATOM     15  C   UNL A   1      45.148  25.371  30.452  1.00  0.00     0.100 A 
ATOM     16  N   UNL A   1      44.102  25.828  31.170  1.00  0.00    -0.167 NA
ATOM     17  N   UNL A   1      44.621  26.654  32.124  1.00  0.00    -0.240 N 
ATOM     18  C   UNL A   1      45.983  26.728  32.025  1.00  0.00     0.123 A 
BRANCH  15  19
ATOM     19  C   UNL A   1      44.968  24.558  29.229  1.00  0.00     0.006 A 
ATOM     20  C   UNL A   1      44.847  22.759  27.038  1.00  0.00     0.154 A 
ATOM     21  C   UNL A   1      43.821  22.787  27.979  1.00  0.00     0.050 A 
ATOM     22  C   UNL A   1      45.874  23.695  27.140  1.00  0.00     0.165 A 
ATOM     23  C   UNL A   1      43.885  23.676  29.068  1.00  0.00     0.014 A 
ATOM     24  C   UNL A   1      45.938  24.586  28.218  1.00  0.00     0.053 A 
ATOM     25  F   UNL A   1      46.837  23.750  26.214  1.00  0.00    -0.203 F 
BRANCH  20  26
ATOM     26  O   UNL A   1      44.728  21.905  25.974  1.00  0.00    -0.491 OA
BRANCH  26  27
ATOM     27  C   UNL A   1      43.953  22.421  24.882  1.00  0.00     0.226 C 
ATOM     28  C   UNL A   1      44.781  22.730  23.646  1.00  0.00     0.049 C 
ENDBRANCH  26  27
ENDBRANCH  20  26
ENDBRANCH  15  19
BRANCH  17  29
ATOM     29  C   UNL A   1      43.845  27.187  33.197  1.00  0.00     0.065 A 
ATOM     30  C   UNL A   1      42.851  28.106  32.885  1.00  0.00     0.028 A 
ATOM     31  C   UNL A   1      44.137  26.967  34.538  1.00  0.00     0.028 A 
ATOM     32  C   UNL A   1      42.215  28.896  33.846  1.00  0.00     0.002 A 
ATOM     33  C   UNL A   1      43.478  27.738  35.521  1.00  0.00     0.002 A 
ATOM     34  C   UNL A   1      42.545  28.722  35.176  1.00  0.00     0.000 A 
ENDBRANCH  17  29
ENDBRANCH   7  14
ENDBRANCH   5   6
ENDBRANCH   3   5
ENDBRANCH   2   3
ENDBRANCH   1   2
BRANCH   1  35
ATOM     35  C   UNL A   1      43.921  26.167  25.372  1.00  0.00     0.275 C 
BRANCH  35  36
ATOM     36  O   UNL A   1      42.986  25.665  26.346  1.00  0.00    -0.458 OA
BRANCH  36  37
ATOM     37  C   UNL A   1      41.696  26.008  26.088  1.00  0.00     0.338 C 
ATOM     38  O   UNL A   1      41.174  25.919  24.993  1.00  0.00    -0.246 OA
BRANCH  37  39
ATOM     39  C   UNL A   1      41.034  26.713  27.212  1.00  0.00     0.060 A 
ATOM     40  C   UNL A   1      40.403  27.931  26.906  1.00  0.00     0.016 A 
ATOM     41  C   UNL A   1      41.458  26.460  28.508  1.00  0.00     0.016 A 
ATOM     42  C   UNL A   1      40.500  29.014  27.774  1.00  0.00     0.010 A 
ATOM     43  C   UNL A   1      41.551  27.544  29.372  1.00  0.00     0.010 A 
ATOM     44  C   UNL A   1      41.215  28.854  28.953  1.00  0.00    -0.014 A 
BRANCH  44  45
ATOM     45  C   UNL A   1      41.495  29.982  29.856  1.00  0.00     0.031 A 
ATOM     46  C   UNL A   1      40.219  30.439  30.416  1.00  0.00     0.074 A 
ATOM     47  C   UNL A   1      42.670  30.506  30.284  1.00  0.00     0.049 A 
ATOM     48  N   UNL A   1      39.484  31.370  29.901  1.00  0.00    -0.248 NA
ATOM     49  C   UNL A   1      39.530  29.586  31.393  1.00  0.00     0.031 C 
ATOM     50  C   UNL A   1      44.028  30.194  29.883  1.00  0.00     0.029 A 
ATOM     51  N   UNL A   1      42.915  31.393  31.298  1.00  0.00    -0.354 N 
ATOM     52  C   UNL A   1      38.385  31.387  30.735  1.00  0.00     0.074 A 
ATOM     53  C   UNL A   1      38.287  30.058  31.267  1.00  0.00     0.031 C 
ATOM     54  C   UNL A   1      44.926  30.549  30.828  1.00  0.00     0.029 A 
ATOM     55  C   UNL A   1      44.223  31.342  31.804  1.00  0.00     0.049 A 
ATOM     56  H   UNL A   1      42.234  32.015  31.642  1.00  0.00     0.167 HD
ATOM     57  C   UNL A   1      37.998  32.553  31.319  1.00  0.00     0.034 A 
ATOM     58  C   UNL A   1      44.753  31.987  32.875  1.00  0.00     0.034 A 
ATOM     59  C   UNL A   1      38.618  33.692  30.669  1.00  0.00     0.049 A 
ATOM     60  C   UNL A   1      43.918  33.186  33.061  1.00  0.00     0.074 A 
ATOM     61  C   UNL A   1      38.708  34.158  29.372  1.00  0.00     0.029 A 
ATOM     62  N   UNL A   1      39.627  34.309  31.369  1.00  0.00    -0.354 N 
ATOM     63  N   UNL A   1      43.889  34.171  32.209  1.00  0.00    -0.248 NA
ATOM     64  C   UNL A   1      42.779  33.080  33.951  1.00  0.00     0.031 C 
ATOM     65  C   UNL A   1      40.001  34.750  29.264  1.00  0.00     0.029 A 
ATOM     66  C   UNL A   1      40.622  34.691  30.512  1.00  0.00     0.049 A 
ATOM     67  H   UNL A   1      39.633  34.454  32.343  1.00  0.00     0.167 HD
ATOM     68  C   UNL A   1      42.537  34.460  32.099  1.00  0.00     0.074 A 
ATOM     69  C   UNL A   1      41.928  33.869  33.292  1.00  0.00     0.031 C 
ATOM     70  C   UNL A   1      42.008  34.861  30.906  1.00  0.00     0.034 A 
BRANCH  57  71
ATOM     71  C   UNL A   1      37.433  32.643  32.725  1.00  0.00     0.023 A 
ATOM     72  C   UNL A   1      36.273  33.424  32.881  1.00  0.00     0.012 A 
ATOM     73  C   UNL A   1      38.064  32.207  33.919  1.00  0.00     0.148 A 
ATOM     74  C   UNL A   1      35.793  33.778  34.146  1.00  0.00     0.002 A 
ATOM     75  C   UNL A   1      37.531  32.476  35.170  1.00  0.00     0.091 A 
ATOM     76  F   UNL A   1      39.272  31.646  33.898  1.00  0.00    -0.205 F 
ATOM     77  C   UNL A   1      36.412  33.291  35.293  1.00  0.00     0.022 A 
BRANCH  75  78
ATOM     78  S   UNL A   1      38.281  31.812  36.667  1.00  0.00     0.127 S 
ATOM     79  O   UNL A   1      38.400  30.397  36.332  1.00  0.00    -0.237 OA
ATOM     80  O   UNL A   1      39.546  32.549  36.715  1.00  0.00    -0.237 OA
ATOM     81  O   UNL A   1      37.364  32.137  37.753  1.00  0.00    -0.744 OA
ENDBRANCH  75  78
ENDBRANCH  57  71
BRANCH  58  82
ATOM     82  C   UNL A   1      45.741  31.553  33.901  1.00  0.00     0.023 A 
ATOM     83  C   UNL A   1      45.753  30.202  34.316  1.00  0.00     0.012 A 
ATOM     84  C   UNL A   1      46.867  32.346  34.215  1.00  0.00     0.148 A 
ATOM     85  C   UNL A   1      46.872  29.640  34.946  1.00  0.00     0.002 A 
ATOM     86  C   UNL A   1      47.983  31.779  34.836  1.00  0.00     0.091 A 
ATOM     87  F   UNL A   1      46.884  33.627  33.824  1.00  0.00    -0.205 F 
ATOM     88  C   UNL A   1      47.995  30.423  35.186  1.00  0.00     0.022 A 
BRANCH  86  89
ATOM     89  S   UNL A   1      49.494  32.710  35.140  1.00  0.00     0.127 S 
ATOM     90  O   UNL A   1      50.330  31.721  35.821  1.00  0.00    -0.237 OA
ATOM     91  O   UNL A   1      49.923  33.043  33.784  1.00  0.00    -0.237 OA
ATOM     92  O   UNL A   1      49.103  33.840  35.975  1.00  0.00    -0.744 OA
ENDBRANCH  86  89
ENDBRANCH  58  82
BRANCH  70  93
ATOM     93  C   UNL A   1      42.957  35.322  29.821  1.00  0.00     0.023 A 
ATOM     94  C   UNL A   1      43.550  36.602  29.806  1.00  0.00     0.012 A 
ATOM     95  C   UNL A   1      43.401  34.360  28.896  1.00  0.00     0.148 A 
ATOM     96  C   UNL A   1      44.560  36.910  28.887  1.00  0.00     0.002 A 
ATOM     97  C   UNL A   1      44.441  34.654  28.021  1.00  0.00     0.091 A 
ATOM     98  F   UNL A   1      42.816  33.154  28.915  1.00  0.00    -0.205 F 
ATOM     99  C   UNL A   1      45.021  35.930  28.010  1.00  0.00     0.022 A 
BRANCH  97 100
ATOM    100  S   UNL A   1      45.151  33.397  26.954  1.00  0.00     0.127 S 
ATOM    101  O   UNL A   1      44.012  33.029  26.114  1.00  0.00    -0.237 OA
ATOM    102  O   UNL A   1      46.212  34.125  26.259  1.00  0.00    -0.237 OA
ATOM    103  O   UNL A   1      45.635  32.343  27.839  1.00  0.00    -0.744 OA
ENDBRANCH  97 100
ENDBRANCH  70  93
ENDBRANCH  44  45
ENDBRANCH  37  39
ENDBRANCH  36  37
ENDBRANCH  35  36
ENDBRANCH   1  35
TORSDOF 20
ENDMDL
