MODEL 1
REMARK VINA RESULT:     -12.9      0.000      0.000
REMARK SMILES CCCC(=O)Nc1cccc(C(=O)N[C@@H](C(=O)OCCOC(=O)c2ccc(-c3c4nc(c(-c5cccc(S(=O)(=O)[O-])c5F)c5ccc([nH]5)c(-c5cccc(S(=O)(=O)[O-])c5F)c5nc(c(-c6cccc(S(=O)(=O)[O-])c6F)c6ccc3[nH]6)C=C5)C=C4)cc2)C2=C(C)N=N[C@@H]2C)c1
REMARK SMILES IDX 19 1 18 2 16 3 17 4 15 5 14 6 12 7 13 8 11 10 7 11 8 12
REMARK SMILES IDX 94 13 9 14 10 15 6 16 4 17 5 18 3 20 2 21 1 22 87 23 88 24
REMARK SMILES IDX 92 25 89 26 90 27 91 28 93 29 20 30 21 31 22 32 23 33 24 34
REMARK SMILES IDX 25 35 86 36 26 37 85 38 27 39 28 40 29 41 79 42 30 43 84 44
REMARK SMILES IDX 78 45 80 46 31 47 83 48 77 49 76 50 32 52 64 53 44 54 63 55
REMARK SMILES IDX 45 56 48 57 62 58 81 59 46 60 47 61 61 63 82 64 49 65 33 66
REMARK SMILES IDX 34 67 42 68 35 69 37 70 43 71 36 72 38 73 39 74 40 75 41 76
REMARK SMILES IDX 65 77 66 78 74 79 67 80 69 81 75 82 68 83 70 84 71 85 72 86
REMARK SMILES IDX 73 87 50 88 51 89 59 90 52 91 54 92 60 93 53 94 55 95 56 96
REMARK SMILES IDX 57 97 58 98
REMARK H PARENT 14 9 6 19 80 51 48 62
REMARK Flexibility Score: inf
ROOT
ATOM      1  C   UNL A   1      31.749  28.916  24.716  1.00  0.00     0.274 C 
ENDROOT
BRANCH   1   2
ATOM      2  O   UNL A   1      32.835  28.034  25.061  1.00  0.00    -0.460 OA
BRANCH   2   3
ATOM      3  C   UNL A   1      33.315  27.235  24.063  1.00  0.00     0.333 C 
ATOM      4  O   UNL A   1      33.843  27.662  23.043  1.00  0.00    -0.249 OA
BRANCH   3   5
ATOM      5  C   UNL A   1      33.051  25.722  24.339  1.00  0.00     0.223 C 
BRANCH   5   6
ATOM      6  N   UNL A   1      32.980  24.989  23.073  1.00  0.00    -0.335 N 
ATOM      7  C   UNL A   1      33.648  23.868  22.635  1.00  0.00     0.252 C 
ATOM      8  O   UNL A   1      33.557  23.534  21.457  1.00  0.00    -0.269 OA
ATOM      9  H   UNL A   1      32.344  25.363  22.421  1.00  0.00     0.165 HD
BRANCH   7  10
ATOM     10  C   UNL A   1      34.388  22.985  23.569  1.00  0.00     0.041 A 
ATOM     11  C   UNL A   1      34.470  21.085  25.038  1.00  0.00     0.041 A 
ATOM     12  C   UNL A   1      35.859  21.033  24.918  1.00  0.00     0.026 A 
ATOM     13  C   UNL A   1      33.749  22.132  24.467  1.00  0.00     0.040 A 
ATOM     14  C   UNL A   1      36.523  22.009  24.176  1.00  0.00     0.003 A 
ATOM     15  C   UNL A   1      35.786  22.965  23.474  1.00  0.00     0.014 A 
BRANCH  11  16
ATOM     16  N   UNL A   1      33.739  20.074  25.663  1.00  0.00    -0.326 N 
ATOM     17  C   UNL A   1      33.049  19.060  25.048  1.00  0.00     0.224 C 
ATOM     18  O   UNL A   1      32.304  18.364  25.743  1.00  0.00    -0.275 OA
ATOM     19  H   UNL A   1      33.716  20.089  26.647  1.00  0.00     0.169 HD
BRANCH  17  20
ATOM     20  C   UNL A   1      33.118  18.861  23.541  1.00  0.00     0.100 C 
BRANCH  20  21
ATOM     21  C   UNL A   1      32.939  17.400  23.126  1.00  0.00     0.006 C 
ATOM     22  C   UNL A   1      34.244  16.626  23.016  1.00  0.00     0.004 C 
ENDBRANCH  20  21
ENDBRANCH  17  20
ENDBRANCH  11  16
ENDBRANCH   7  10
ENDBRANCH   5   6
BRANCH   5  23
ATOM     23  C   UNL A   1      31.881  25.447  25.227  1.00  0.00     0.012 C 
ATOM     24  C   UNL A   1      31.826  24.656  26.312  1.00  0.00     0.064 C 
ATOM     25  C   UNL A   1      30.504  26.022  25.112  1.00  0.00     0.156 C 
ATOM     26  C   UNL A   1      32.901  23.873  26.996  1.00  0.00     0.069 C 
ATOM     27  N   UNL A   1      30.579  24.630  26.881  1.00  0.00    -0.160 NA
ATOM     28  N   UNL A   1      29.807  25.420  26.281  1.00  0.00    -0.181 NA
ATOM     29  C   UNL A   1      29.696  25.631  23.881  1.00  0.00     0.040 C 
ENDBRANCH   5  23
ENDBRANCH   3   5
ENDBRANCH   2   3
ENDBRANCH   1   2
BRANCH   1  30
ATOM     30  C   UNL A   1      31.686  30.102  25.674  1.00  0.00     0.275 C 
BRANCH  30  31
ATOM     31  O   UNL A   1      32.651  29.927  26.728  1.00  0.00    -0.458 OA
BRANCH  31  32
ATOM     32  C   UNL A   1      33.223  31.056  27.196  1.00  0.00     0.338 C 
ATOM     33  O   UNL A   1      32.661  32.120  27.440  1.00  0.00    -0.246 OA
BRANCH  32  34
ATOM     34  C   UNL A   1      34.648  30.836  27.480  1.00  0.00     0.060 A 
ATOM     35  C   UNL A   1      35.123  29.532  27.554  1.00  0.00     0.016 A 
ATOM     36  C   UNL A   1      35.466  31.892  27.875  1.00  0.00     0.016 A 
ATOM     37  C   UNL A   1      36.344  29.273  28.172  1.00  0.00     0.010 A 
ATOM     38  C   UNL A   1      36.743  31.626  28.395  1.00  0.00     0.010 A 
ATOM     39  C   UNL A   1      37.166  30.306  28.637  1.00  0.00    -0.014 A 
BRANCH  39  40
ATOM     40  C   UNL A   1      38.359  30.004  29.498  1.00  0.00     0.031 A 
ATOM     41  C   UNL A   1      39.503  29.192  28.927  1.00  0.00     0.074 A 
ATOM     42  C   UNL A   1      38.502  30.493  30.749  1.00  0.00     0.049 A 
ATOM     43  N   UNL A   1      40.493  28.600  29.548  1.00  0.00    -0.248 NA
ATOM     44  C   UNL A   1      39.518  28.996  27.468  1.00  0.00     0.031 C 
ATOM     45  C   UNL A   1      37.557  31.368  31.442  1.00  0.00     0.029 A 
ATOM     46  N   UNL A   1      39.523  30.335  31.660  1.00  0.00    -0.354 N 
ATOM     47  C   UNL A   1      41.156  27.853  28.580  1.00  0.00     0.074 A 
ATOM     48  C   UNL A   1      40.481  28.097  27.324  1.00  0.00     0.031 C 
ATOM     49  C   UNL A   1      38.076  31.737  32.622  1.00  0.00     0.029 A 
ATOM     50  C   UNL A   1      39.333  31.028  32.834  1.00  0.00     0.049 A 
ATOM     51  H   UNL A   1      40.316  29.778  31.486  1.00  0.00     0.167 HD
ATOM     52  C   UNL A   1      42.228  27.038  28.720  1.00  0.00     0.034 A 
ATOM     53  C   UNL A   1      40.060  31.062  33.970  1.00  0.00     0.034 A 
ATOM     54  C   UNL A   1      43.003  26.919  29.926  1.00  0.00     0.049 A 
ATOM     55  C   UNL A   1      41.282  30.194  34.093  1.00  0.00     0.074 A 
ATOM     56  C   UNL A   1      44.113  26.126  30.163  1.00  0.00     0.029 A 
ATOM     57  N   UNL A   1      42.786  27.656  31.079  1.00  0.00    -0.354 N 
ATOM     58  N   UNL A   1      41.849  29.427  33.194  1.00  0.00    -0.248 NA
ATOM     59  C   UNL A   1      41.959  30.185  35.399  1.00  0.00     0.031 C 
ATOM     60  C   UNL A   1      44.573  26.393  31.458  1.00  0.00     0.029 A 
ATOM     61  C   UNL A   1      43.751  27.354  32.023  1.00  0.00     0.049 A 
ATOM     62  H   UNL A   1      42.051  28.299  31.207  1.00  0.00     0.167 HD
ATOM     63  C   UNL A   1      42.953  28.857  33.819  1.00  0.00     0.074 A 
ATOM     64  C   UNL A   1      42.997  29.393  35.162  1.00  0.00     0.031 C 
ATOM     65  C   UNL A   1      43.831  27.946  33.333  1.00  0.00     0.034 A 
BRANCH  52  66
ATOM     66  C   UNL A   1      42.626  26.203  27.532  1.00  0.00     0.023 A 
ATOM     67  C   UNL A   1      43.450  26.740  26.526  1.00  0.00     0.012 A 
ATOM     68  C   UNL A   1      42.194  24.864  27.432  1.00  0.00     0.148 A 
ATOM     69  C   UNL A   1      43.806  25.970  25.417  1.00  0.00     0.002 A 
ATOM     70  C   UNL A   1      42.589  24.091  26.347  1.00  0.00     0.091 A 
ATOM     71  F   UNL A   1      41.386  24.376  28.384  1.00  0.00    -0.205 F 
ATOM     72  C   UNL A   1      43.384  24.645  25.333  1.00  0.00     0.022 A 
BRANCH  70  73
ATOM     73  S   UNL A   1      42.148  22.354  26.215  1.00  0.00     0.127 S 
ATOM     74  O   UNL A   1      42.665  21.818  27.472  1.00  0.00    -0.237 OA
ATOM     75  O   UNL A   1      40.686  22.403  26.131  1.00  0.00    -0.237 OA
ATOM     76  O   UNL A   1      42.799  21.879  25.002  1.00  0.00    -0.744 OA
ENDBRANCH  70  73
ENDBRANCH  52  66
BRANCH  53  77
ATOM     77  C   UNL A   1      39.653  31.959  35.092  1.00  0.00     0.023 A 
ATOM     78  C   UNL A   1      40.005  33.323  35.042  1.00  0.00     0.012 A 
ATOM     79  C   UNL A   1      38.901  31.488  36.185  1.00  0.00     0.148 A 
ATOM     80  C   UNL A   1      39.629  34.194  36.066  1.00  0.00     0.002 A 
ATOM     81  C   UNL A   1      38.471  32.373  37.165  1.00  0.00     0.091 A 
ATOM     82  F   UNL A   1      38.606  30.181  36.236  1.00  0.00    -0.205 F 
ATOM     83  C   UNL A   1      38.849  33.723  37.118  1.00  0.00     0.022 A 
BRANCH  81  84
ATOM     84  S   UNL A   1      37.335  31.878  38.466  1.00  0.00     0.127 S 
ATOM     85  O   UNL A   1      37.041  30.496  38.098  1.00  0.00    -0.237 OA
ATOM     86  O   UNL A   1      38.160  32.034  39.666  1.00  0.00    -0.237 OA
ATOM     87  O   UNL A   1      36.219  32.811  38.385  1.00  0.00    -0.744 OA
ENDBRANCH  81  84
ENDBRANCH  53  77
BRANCH  65  88
ATOM     88  C   UNL A   1      44.940  27.489  34.242  1.00  0.00     0.023 A 
ATOM     89  C   UNL A   1      46.167  28.181  34.243  1.00  0.00     0.012 A 
ATOM     90  C   UNL A   1      44.746  26.423  35.141  1.00  0.00     0.148 A 
ATOM     91  C   UNL A   1      47.194  27.801  35.105  1.00  0.00     0.002 A 
ATOM     92  C   UNL A   1      45.762  26.075  36.027  1.00  0.00     0.091 A 
ATOM     93  F   UNL A   1      43.581  25.759  35.111  1.00  0.00    -0.205 F 
ATOM     94  C   UNL A   1      46.989  26.757  36.004  1.00  0.00     0.022 A 
BRANCH  92  95
ATOM     95  S   UNL A   1      45.539  24.797  37.270  1.00  0.00     0.127 S 
ATOM     96  O   UNL A   1      46.554  25.157  38.257  1.00  0.00    -0.237 OA
ATOM     97  O   UNL A   1      44.159  25.017  37.708  1.00  0.00    -0.237 OA
ATOM     98  O   UNL A   1      45.749  23.534  36.574  1.00  0.00    -0.744 OA
ENDBRANCH  92  95
ENDBRANCH  65  88
ENDBRANCH  39  40
ENDBRANCH  32  34
ENDBRANCH  31  32
ENDBRANCH  30  31
ENDBRANCH   1  30
TORSDOF 20
ENDMDL
MODEL 2
REMARK VINA RESULT:     -12.9      1.703      2.307
REMARK SMILES CCCC(=O)Nc1cccc(C(=O)N[C@@H](C(=O)OCCOC(=O)c2ccc(-c3c4nc(c(-c5cccc(S(=O)(=O)[O-])c5F)c5ccc([nH]5)c(-c5cccc(S(=O)(=O)[O-])c5F)c5nc(c(-c6cccc(S(=O)(=O)[O-])c6F)c6ccc3[nH]6)C=C5)C=C4)cc2)C2=C(C)N=N[C@@H]2C)c1
REMARK SMILES IDX 19 1 18 2 16 3 17 4 15 5 14 6 12 7 13 8 11 10 7 11 8 12
REMARK SMILES IDX 94 13 9 14 10 15 6 16 4 17 5 18 3 20 2 21 1 22 87 23 88 24
REMARK SMILES IDX 92 25 89 26 90 27 91 28 93 29 20 30 21 31 22 32 23 33 24 34
REMARK SMILES IDX 25 35 86 36 26 37 85 38 27 39 28 40 29 41 79 42 30 43 84 44
REMARK SMILES IDX 78 45 80 46 31 47 83 48 77 49 76 50 32 52 64 53 44 54 63 55
REMARK SMILES IDX 45 56 48 57 62 58 81 59 46 60 47 61 61 63 82 64 49 65 33 66
REMARK SMILES IDX 34 67 42 68 35 69 37 70 43 71 36 72 38 73 39 74 40 75 41 76
REMARK SMILES IDX 65 77 66 78 74 79 67 80 69 81 75 82 68 83 70 84 71 85 72 86
REMARK SMILES IDX 73 87 50 88 51 89 59 90 52 91 54 92 60 93 53 94 55 95 56 96
REMARK SMILES IDX 57 97 58 98
REMARK H PARENT 14 9 6 19 80 51 48 62
REMARK Flexibility Score: inf
ROOT
ATOM      1  C   UNL A   1      31.790  27.731  27.406  1.00  0.00     0.274 C 
ENDROOT
BRANCH   1   2
ATOM      2  O   UNL A   1      30.778  27.018  26.668  1.00  0.00    -0.460 OA
BRANCH   2   3
ATOM      3  C   UNL A   1      31.113  25.774  26.215  1.00  0.00     0.333 C 
ATOM      4  O   UNL A   1      30.982  24.750  26.875  1.00  0.00    -0.249 OA
BRANCH   3   5
ATOM      5  C   UNL A   1      31.746  25.817  24.789  1.00  0.00     0.223 C 
BRANCH   5   6
ATOM      6  N   UNL A   1      33.204  25.714  24.887  1.00  0.00    -0.335 N 
ATOM      7  C   UNL A   1      34.054  24.651  24.681  1.00  0.00     0.252 C 
ATOM      8  O   UNL A   1      35.236  24.755  24.999  1.00  0.00    -0.269 OA
ATOM      9  H   UNL A   1      33.654  26.550  25.147  1.00  0.00     0.165 HD
BRANCH   7  10
ATOM     10  C   UNL A   1      33.612  23.421  23.981  1.00  0.00     0.041 A 
ATOM     11  C   UNL A   1      32.660  21.215  24.014  1.00  0.00     0.041 A 
ATOM     12  C   UNL A   1      32.321  21.324  22.665  1.00  0.00     0.026 A 
ATOM     13  C   UNL A   1      33.413  22.209  24.637  1.00  0.00     0.040 A 
ATOM     14  C   UNL A   1      32.697  22.461  21.951  1.00  0.00     0.003 A 
ATOM     15  C   UNL A   1      33.313  23.523  22.615  1.00  0.00     0.014 A 
BRANCH  11  16
ATOM     16  N   UNL A   1      32.209  20.162  24.811  1.00  0.00    -0.326 N 
ATOM     17  C   UNL A   1      32.885  19.003  25.099  1.00  0.00     0.224 C 
ATOM     18  O   UNL A   1      32.264  18.098  25.663  1.00  0.00    -0.275 OA
ATOM     19  H   UNL A   1      31.314  20.260  25.208  1.00  0.00     0.169 HD
BRANCH  17  20
ATOM     20  C   UNL A   1      34.324  18.797  24.647  1.00  0.00     0.100 C 
BRANCH  20  21
ATOM     21  C   UNL A   1      34.619  17.351  24.249  1.00  0.00     0.006 C 
ATOM     22  C   UNL A   1      33.884  16.892  22.999  1.00  0.00     0.004 C 
ENDBRANCH  20  21
ENDBRANCH  17  20
ENDBRANCH  11  16
ENDBRANCH   7  10
ENDBRANCH   5   6
BRANCH   5  23
ATOM     23  C   UNL A   1      31.308  26.972  23.948  1.00  0.00     0.012 C 
ATOM     24  C   UNL A   1      30.072  27.257  23.504  1.00  0.00     0.064 C 
ATOM     25  C   UNL A   1      32.159  28.089  23.433  1.00  0.00     0.156 C 
ATOM     26  C   UNL A   1      28.768  26.569  23.755  1.00  0.00     0.069 C 
ATOM     27  N   UNL A   1      30.037  28.398  22.744  1.00  0.00    -0.160 NA
ATOM     28  N   UNL A   1      31.172  28.938  22.712  1.00  0.00    -0.181 NA
ATOM     29  C   UNL A   1      33.234  27.723  22.418  1.00  0.00     0.040 C 
ENDBRANCH   5  23
ENDBRANCH   3   5
ENDBRANCH   2   3
ENDBRANCH   1   2
BRANCH   1  30
ATOM     30  C   UNL A   1      31.530  29.234  27.374  1.00  0.00     0.275 C 
BRANCH  30  31
ATOM     31  O   UNL A   1      32.506  29.878  26.536  1.00  0.00    -0.458 OA
BRANCH  31  32
ATOM     32  C   UNL A   1      33.025  31.028  27.014  1.00  0.00     0.338 C 
ATOM     33  O   UNL A   1      32.420  32.074  27.235  1.00  0.00    -0.246 OA
BRANCH  32  34
ATOM     34  C   UNL A   1      34.447  30.858  27.344  1.00  0.00     0.060 A 
ATOM     35  C   UNL A   1      34.978  29.575  27.382  1.00  0.00     0.016 A 
ATOM     36  C   UNL A   1      35.202  31.931  27.814  1.00  0.00     0.016 A 
ATOM     37  C   UNL A   1      36.186  29.343  28.035  1.00  0.00     0.010 A 
ATOM     38  C   UNL A   1      36.470  31.699  28.371  1.00  0.00     0.010 A 
ATOM     39  C   UNL A   1      36.943  30.389  28.574  1.00  0.00    -0.014 A 
BRANCH  39  40
ATOM     40  C   UNL A   1      38.116  30.103  29.466  1.00  0.00     0.031 A 
ATOM     41  C   UNL A   1      39.287  29.309  28.926  1.00  0.00     0.074 A 
ATOM     42  C   UNL A   1      38.217  30.590  30.722  1.00  0.00     0.049 A 
ATOM     43  N   UNL A   1      40.268  28.730  29.572  1.00  0.00    -0.248 NA
ATOM     44  C   UNL A   1      39.346  29.117  27.468  1.00  0.00     0.031 C 
ATOM     45  C   UNL A   1      37.241  31.450  31.390  1.00  0.00     0.029 A 
ATOM     46  N   UNL A   1      39.215  30.445  31.660  1.00  0.00    -0.354 N 
ATOM     47  C   UNL A   1      40.968  27.994  28.622  1.00  0.00     0.074 A 
ATOM     48  C   UNL A   1      40.325  28.232  27.348  1.00  0.00     0.031 C 
ATOM     49  C   UNL A   1      37.722  31.824  32.585  1.00  0.00     0.029 A 
ATOM     50  C   UNL A   1      38.983  31.132  32.830  1.00  0.00     0.049 A 
ATOM     51  H   UNL A   1      40.021  29.901  31.507  1.00  0.00     0.167 HD
ATOM     52  C   UNL A   1      42.048  27.195  28.789  1.00  0.00     0.034 A 
ATOM     53  C   UNL A   1      39.678  31.175  33.986  1.00  0.00     0.034 A 
ATOM     54  C   UNL A   1      42.792  27.085  30.016  1.00  0.00     0.049 A 
ATOM     55  C   UNL A   1      40.909  30.324  34.141  1.00  0.00     0.074 A 
ATOM     56  C   UNL A   1      43.906  26.307  30.282  1.00  0.00     0.029 A 
ATOM     57  N   UNL A   1      42.532  27.815  31.164  1.00  0.00    -0.354 N 
ATOM     58  N   UNL A   1      41.511  29.567  33.256  1.00  0.00    -0.248 NA
ATOM     59  C   UNL A   1      41.550  30.322  35.465  1.00  0.00     0.031 C 
ATOM     60  C   UNL A   1      44.326  26.578  31.589  1.00  0.00     0.029 A 
ATOM     61  C   UNL A   1      43.475  27.525  32.133  1.00  0.00     0.049 A 
ATOM     62  H   UNL A   1      41.784  28.447  31.273  1.00  0.00     0.167 HD
ATOM     63  C   UNL A   1      42.605  29.012  33.910  1.00  0.00     0.074 A 
ATOM     64  C   UNL A   1      42.605  29.546  35.255  1.00  0.00     0.031 C 
ATOM     65  C   UNL A   1      43.510  28.115  33.446  1.00  0.00     0.034 A 
BRANCH  52  66
ATOM     66  C   UNL A   1      42.490  26.369  27.611  1.00  0.00     0.023 A 
ATOM     67  C   UNL A   1      43.324  26.925  26.622  1.00  0.00     0.012 A 
ATOM     68  C   UNL A   1      42.092  25.020  27.503  1.00  0.00     0.148 A 
ATOM     69  C   UNL A   1      43.721  26.162  25.522  1.00  0.00     0.002 A 
ATOM     70  C   UNL A   1      42.528  24.256  26.427  1.00  0.00     0.091 A 
ATOM     71  F   UNL A   1      41.276  24.514  28.438  1.00  0.00    -0.205 F 
ATOM     72  C   UNL A   1      43.331  24.828  25.430  1.00  0.00     0.022 A 
BRANCH  70  73
ATOM     73  S   UNL A   1      42.131  22.509  26.288  1.00  0.00     0.127 S 
ATOM     74  O   UNL A   1      42.676  21.978  27.535  1.00  0.00    -0.237 OA
ATOM     75  O   UNL A   1      40.667  22.521  26.220  1.00  0.00    -0.237 OA
ATOM     76  O   UNL A   1      42.780  22.060  25.065  1.00  0.00    -0.744 OA
ENDBRANCH  70  73
ENDBRANCH  52  66
BRANCH  53  77
ATOM     77  C   UNL A   1      39.227  32.063  35.098  1.00  0.00     0.023 A 
ATOM     78  C   UNL A   1      38.267  31.584  36.012  1.00  0.00     0.012 A 
ATOM     79  C   UNL A   1      39.755  33.355  35.277  1.00  0.00     0.148 A 
ATOM     80  C   UNL A   1      37.832  32.381  37.072  1.00  0.00     0.002 A 
ATOM     81  C   UNL A   1      39.371  34.117  36.374  1.00  0.00     0.091 A 
ATOM     82  F   UNL A   1      40.641  33.810  34.378  1.00  0.00    -0.205 F 
ATOM     83  C   UNL A   1      38.396  33.639  37.263  1.00  0.00     0.022 A 
BRANCH  81  84
ATOM     84  S   UNL A   1      40.162  35.678  36.777  1.00  0.00     0.127 S 
ATOM     85  O   UNL A   1      41.577  35.333  36.675  1.00  0.00    -0.237 OA
ATOM     86  O   UNL A   1      39.664  36.555  35.715  1.00  0.00    -0.237 OA
ATOM     87  O   UNL A   1      39.685  36.025  38.109  1.00  0.00    -0.744 OA
ENDBRANCH  81  84
ENDBRANCH  53  77
BRANCH  65  88
ATOM     88  C   UNL A   1      44.600  27.672  34.385  1.00  0.00     0.023 A 
ATOM     89  C   UNL A   1      45.755  28.466  34.532  1.00  0.00     0.012 A 
ATOM     90  C   UNL A   1      44.454  26.512  35.169  1.00  0.00     0.148 A 
ATOM     91  C   UNL A   1      46.759  28.097  35.425  1.00  0.00     0.002 A 
ATOM     92  C   UNL A   1      45.443  26.171  36.087  1.00  0.00     0.091 A 
ATOM     93  F   UNL A   1      43.360  25.754  34.999  1.00  0.00    -0.205 F 
ATOM     94  C   UNL A   1      46.599  26.957  36.210  1.00  0.00     0.022 A 
BRANCH  92  95
ATOM     95  S   UNL A   1      45.265  24.766  37.192  1.00  0.00     0.127 S 
ATOM     96  O   UNL A   1      44.814  23.719  36.277  1.00  0.00    -0.237 OA
ATOM     97  O   UNL A   1      46.628  24.585  37.699  1.00  0.00    -0.237 OA
ATOM     98  O   UNL A   1      44.304  25.182  38.204  1.00  0.00    -0.744 OA
ENDBRANCH  92  95
ENDBRANCH  65  88
ENDBRANCH  39  40
ENDBRANCH  32  34
ENDBRANCH  31  32
ENDBRANCH  30  31
ENDBRANCH   1  30
TORSDOF 20
ENDMDL
MODEL 3
REMARK VINA RESULT:     -12.8      5.078     10.101
REMARK SMILES CCCC(=O)Nc1cccc(C(=O)N[C@@H](C(=O)OCCOC(=O)c2ccc(-c3c4nc(c(-c5cccc(S(=O)(=O)[O-])c5F)c5ccc([nH]5)c(-c5cccc(S(=O)(=O)[O-])c5F)c5nc(c(-c6cccc(S(=O)(=O)[O-])c6F)c6ccc3[nH]6)C=C5)C=C4)cc2)C2=C(C)N=N[C@@H]2C)c1
REMARK SMILES IDX 19 1 18 2 16 3 17 4 15 5 14 6 12 7 13 8 11 10 7 11 8 12
REMARK SMILES IDX 94 13 9 14 10 15 6 16 4 17 5 18 3 20 2 21 1 22 87 23 88 24
REMARK SMILES IDX 92 25 89 26 90 27 91 28 93 29 20 30 21 31 22 32 23 33 24 34
REMARK SMILES IDX 25 35 86 36 26 37 85 38 27 39 28 40 29 41 79 42 30 43 84 44
REMARK SMILES IDX 78 45 80 46 31 47 83 48 77 49 76 50 32 52 64 53 44 54 63 55
REMARK SMILES IDX 45 56 48 57 62 58 81 59 46 60 47 61 61 63 82 64 49 65 33 66
REMARK SMILES IDX 34 67 42 68 35 69 37 70 43 71 36 72 38 73 39 74 40 75 41 76
REMARK SMILES IDX 65 77 66 78 74 79 67 80 69 81 75 82 68 83 70 84 71 85 72 86
REMARK SMILES IDX 73 87 50 88 51 89 59 90 52 91 54 92 60 93 53 94 55 95 56 96
REMARK SMILES IDX 57 97 58 98
REMARK H PARENT 14 9 6 19 80 51 48 62
REMARK Flexibility Score: inf
ROOT
ATOM      1  C   UNL A   1      35.318  21.597  26.089  1.00  0.00     0.274 C 
ENDROOT
BRANCH   1   2
ATOM      2  O   UNL A   1      34.365  22.451  25.426  1.00  0.00    -0.460 OA
BRANCH   2   3
ATOM      3  C   UNL A   1      34.620  23.793  25.459  1.00  0.00     0.333 C 
ATOM      4  O   UNL A   1      35.566  24.292  26.056  1.00  0.00    -0.249 OA
BRANCH   3   5
ATOM      5  C   UNL A   1      33.531  24.619  24.706  1.00  0.00     0.223 C 
BRANCH   5   6
ATOM      6  N   UNL A   1      32.250  24.511  25.407  1.00  0.00    -0.335 N 
ATOM      7  C   UNL A   1      31.500  25.452  26.076  1.00  0.00     0.252 C 
ATOM      8  O   UNL A   1      30.537  25.089  26.746  1.00  0.00    -0.269 OA
ATOM      9  H   UNL A   1      31.857  23.608  25.400  1.00  0.00     0.165 HD
BRANCH   7  10
ATOM     10  C   UNL A   1      31.752  26.905  25.922  1.00  0.00     0.041 A 
ATOM     11  C   UNL A   1      31.644  28.928  24.629  1.00  0.00     0.041 A 
ATOM     12  C   UNL A   1      31.746  29.694  25.790  1.00  0.00     0.026 A 
ATOM     13  C   UNL A   1      31.772  27.541  24.682  1.00  0.00     0.040 A 
ATOM     14  C   UNL A   1      31.927  29.060  27.019  1.00  0.00     0.003 A 
ATOM     15  C   UNL A   1      31.896  27.667  27.090  1.00  0.00     0.014 A 
BRANCH  11  16
ATOM     16  N   UNL A   1      31.342  29.493  23.389  1.00  0.00    -0.326 N 
ATOM     17  C   UNL A   1      30.101  29.596  22.814  1.00  0.00     0.224 C 
ATOM     18  O   UNL A   1      30.039  29.952  21.634  1.00  0.00    -0.275 OA
ATOM     19  H   UNL A   1      32.098  29.856  22.874  1.00  0.00     0.169 HD
BRANCH  17  20
ATOM     20  C   UNL A   1      28.846  29.186  23.571  1.00  0.00     0.100 C 
BRANCH  20  21
ATOM     21  C   UNL A   1      27.712  28.744  22.644  1.00  0.00     0.006 C 
ATOM     22  C   UNL A   1      26.431  28.367  23.373  1.00  0.00     0.004 C 
ENDBRANCH  20  21
ENDBRANCH  17  20
ENDBRANCH  11  16
ENDBRANCH   7  10
ENDBRANCH   5   6
BRANCH   5  23
ATOM     23  C   UNL A   1      33.415  24.312  23.248  1.00  0.00     0.012 C 
ATOM     24  C   UNL A   1      33.393  25.171  22.214  1.00  0.00     0.064 C 
ATOM     25  C   UNL A   1      33.321  22.960  22.614  1.00  0.00     0.156 C 
ATOM     26  C   UNL A   1      33.540  26.659  22.187  1.00  0.00     0.069 C 
ATOM     27  N   UNL A   1      33.265  24.536  21.006  1.00  0.00    -0.160 NA
ATOM     28  N   UNL A   1      33.272  23.289  21.163  1.00  0.00    -0.181 NA
ATOM     29  C   UNL A   1      32.069  22.145  22.913  1.00  0.00     0.040 C 
ENDBRANCH   5  23
ENDBRANCH   3   5
ENDBRANCH   2   3
ENDBRANCH   1   2
BRANCH   1  30
ATOM     30  C   UNL A   1      36.157  20.828  25.073  1.00  0.00     0.275 C 
BRANCH  30  31
ATOM     31  O   UNL A   1      37.367  21.555  24.793  1.00  0.00    -0.458 OA
BRANCH  31  32
ATOM     32  C   UNL A   1      38.454  21.186  25.502  1.00  0.00     0.338 C 
ATOM     33  O   UNL A   1      39.040  20.108  25.445  1.00  0.00    -0.246 OA
BRANCH  32  34
ATOM     34  C   UNL A   1      38.940  22.302  26.325  1.00  0.00     0.060 A 
ATOM     35  C   UNL A   1      38.400  23.567  26.126  1.00  0.00     0.016 A 
ATOM     36  C   UNL A   1      40.060  22.150  27.140  1.00  0.00     0.016 A 
ATOM     37  C   UNL A   1      39.071  24.690  26.604  1.00  0.00     0.010 A 
ATOM     38  C   UNL A   1      40.665  23.283  27.709  1.00  0.00     0.010 A 
ATOM     39  C   UNL A   1      40.234  24.580  27.375  1.00  0.00    -0.014 A 
BRANCH  39  40
ATOM     40  C   UNL A   1      41.064  25.792  27.684  1.00  0.00     0.031 A 
ATOM     41  C   UNL A   1      40.514  26.854  28.613  1.00  0.00     0.074 A 
ATOM     42  C   UNL A   1      42.327  25.950  27.230  1.00  0.00     0.049 A 
ATOM     43  N   UNL A   1      40.930  28.080  28.813  1.00  0.00    -0.248 NA
ATOM     44  C   UNL A   1      39.320  26.500  29.397  1.00  0.00     0.031 C 
ATOM     45  C   UNL A   1      43.067  24.999  26.403  1.00  0.00     0.029 A 
ATOM     46  N   UNL A   1      43.226  26.975  27.428  1.00  0.00    -0.354 N 
ATOM     47  C   UNL A   1      39.974  28.678  29.628  1.00  0.00     0.074 A 
ATOM     48  C   UNL A   1      38.978  27.669  29.917  1.00  0.00     0.031 C 
ATOM     49  C   UNL A   1      44.323  25.438  26.236  1.00  0.00     0.029 A 
ATOM     50  C   UNL A   1      44.449  26.763  26.835  1.00  0.00     0.049 A 
ATOM     51  H   UNL A   1      43.012  27.784  27.947  1.00  0.00     0.167 HD
ATOM     52  C   UNL A   1      39.927  29.948  30.094  1.00  0.00     0.034 A 
ATOM     53  C   UNL A   1      45.538  27.554  26.742  1.00  0.00     0.034 A 
ATOM     54  C   UNL A   1      40.992  30.904  29.949  1.00  0.00     0.049 A 
ATOM     55  C   UNL A   1      45.494  28.944  27.314  1.00  0.00     0.074 A 
ATOM     56  C   UNL A   1      41.041  32.214  30.396  1.00  0.00     0.029 A 
ATOM     57  N   UNL A   1      42.217  30.636  29.361  1.00  0.00    -0.354 N 
ATOM     58  N   UNL A   1      44.547  29.525  28.011  1.00  0.00    -0.248 NA
ATOM     59  C   UNL A   1      46.668  29.797  27.074  1.00  0.00     0.031 C 
ATOM     60  C   UNL A   1      42.304  32.734  30.086  1.00  0.00     0.029 A 
ATOM     61  C   UNL A   1      43.038  31.746  29.451  1.00  0.00     0.049 A 
ATOM     62  H   UNL A   1      42.466  29.782  28.940  1.00  0.00     0.167 HD
ATOM     63  C   UNL A   1      45.015  30.801  28.302  1.00  0.00     0.074 A 
ATOM     64  C   UNL A   1      46.344  30.899  27.738  1.00  0.00     0.031 C 
ATOM     65  C   UNL A   1      44.386  31.812  28.950  1.00  0.00     0.034 A 
BRANCH  52  66
ATOM     66  C   UNL A   1      38.673  30.380  30.807  1.00  0.00     0.023 A 
ATOM     67  C   UNL A   1      38.509  30.124  32.181  1.00  0.00     0.012 A 
ATOM     68  C   UNL A   1      37.662  31.069  30.106  1.00  0.00     0.148 A 
ATOM     69  C   UNL A   1      37.340  30.512  32.838  1.00  0.00     0.002 A 
ATOM     70  C   UNL A   1      36.521  31.490  30.777  1.00  0.00     0.091 A 
ATOM     71  F   UNL A   1      37.821  31.280  28.791  1.00  0.00    -0.205 F 
ATOM     72  C   UNL A   1      36.352  31.202  32.139  1.00  0.00     0.022 A 
BRANCH  70  73
ATOM     73  S   UNL A   1      35.245  32.454  29.957  1.00  0.00     0.127 S 
ATOM     74  O   UNL A   1      34.763  31.514  28.947  1.00  0.00    -0.237 OA
ATOM     75  O   UNL A   1      34.298  32.717  31.044  1.00  0.00    -0.237 OA
ATOM     76  O   UNL A   1      35.919  33.642  29.454  1.00  0.00    -0.744 OA
ENDBRANCH  70  73
ENDBRANCH  52  66
BRANCH  53  77
ATOM     77  C   UNL A   1      46.777  27.047  26.080  1.00  0.00     0.023 A 
ATOM     78  C   UNL A   1      46.931  27.219  24.689  1.00  0.00     0.012 A 
ATOM     79  C   UNL A   1      47.810  26.429  26.810  1.00  0.00     0.148 A 
ATOM     80  C   UNL A   1      48.082  26.771  24.039  1.00  0.00     0.002 A 
ATOM     81  C   UNL A   1      48.982  26.049  26.168  1.00  0.00     0.091 A 
ATOM     82  F   UNL A   1      47.633  26.239  28.126  1.00  0.00    -0.205 F 
ATOM     83  C   UNL A   1      49.114  26.202  24.780  1.00  0.00     0.022 A 
BRANCH  81  84
ATOM     84  S   UNL A   1      50.416  25.453  27.073  1.00  0.00     0.127 S 
ATOM     85  O   UNL A   1      49.893  24.242  27.699  1.00  0.00    -0.237 OA
ATOM     86  O   UNL A   1      51.381  25.222  25.996  1.00  0.00    -0.237 OA
ATOM     87  O   UNL A   1      50.781  26.533  27.979  1.00  0.00    -0.744 OA
ENDBRANCH  81  84
ENDBRANCH  53  77
BRANCH  65  88
ATOM     88  C   UNL A   1      45.134  33.107  29.118  1.00  0.00     0.023 A 
ATOM     89  C   UNL A   1      45.938  33.302  30.258  1.00  0.00     0.012 A 
ATOM     90  C   UNL A   1      45.096  34.101  28.121  1.00  0.00     0.148 A 
ATOM     91  C   UNL A   1      46.672  34.477  30.416  1.00  0.00     0.002 A 
ATOM     92  C   UNL A   1      45.862  35.254  28.266  1.00  0.00     0.091 A 
ATOM     93  F   UNL A   1      44.307  33.911  27.053  1.00  0.00    -0.205 F 
ATOM     94  C   UNL A   1      46.642  35.447  29.417  1.00  0.00     0.022 A 
BRANCH  92  95
ATOM     95  S   UNL A   1      45.941  36.507  26.981  1.00  0.00     0.127 S 
ATOM     96  O   UNL A   1      46.335  35.718  25.816  1.00  0.00    -0.237 OA
ATOM     97  O   UNL A   1      44.565  37.008  26.940  1.00  0.00    -0.237 OA
ATOM     98  O   UNL A   1      46.916  37.483  27.447  1.00  0.00    -0.744 OA
ENDBRANCH  92  95
ENDBRANCH  65  88
ENDBRANCH  39  40
ENDBRANCH  32  34
ENDBRANCH  31  32
ENDBRANCH  30  31
ENDBRANCH   1  30
TORSDOF 20
ENDMDL
