MODEL 1
REMARK VINA RESULT:     -13.7      0.000      0.000
REMARK SMILES CC1(C)Oc2ccc(NC(=O)[C@H]3CC=CC[C@@H]3C(=O)OCCOC(=O)c3ccc(-c4c5nc(c(-c6cccc(S(=O)(=O)[O-])c6F)c6ccc([nH]6)c(-c6cccc(S(=O)(=O)[O-])c6F)c6nc(c(-c7cccc(S(=O)(=O)[O-])c7F)c7ccc4[nH]7)C=C6)C=C5)cc3)cc2NC1=O
REMARK SMILES IDX 22 1 21 2 20 3 18 4 19 5 17 6 12 7 13 8 14 9 16 10 15 11
REMARK SMILES IDX 10 12 9 13 11 15 8 16 1 17 2 18 3 19 4 20 92 21 5 22 91 23
REMARK SMILES IDX 93 24 6 25 90 26 7 28 89 29 23 30 24 31 25 32 26 33 27 34
REMARK SMILES IDX 88 35 28 36 87 37 29 38 30 39 31 40 81 41 32 42 86 43 80 44
REMARK SMILES IDX 82 45 33 46 85 47 79 48 78 49 34 51 66 52 46 53 65 54 47 55
REMARK SMILES IDX 50 56 64 57 83 58 48 59 49 60 63 62 84 63 51 64 35 65 36 66
REMARK SMILES IDX 44 67 37 68 39 69 45 70 38 71 40 72 41 73 42 74 43 75 67 76
REMARK SMILES IDX 68 77 76 78 69 79 71 80 77 81 70 82 72 83 73 84 74 85 75 86
REMARK SMILES IDX 52 87 53 88 61 89 54 90 56 91 62 92 55 93 57 94 58 95 59 96
REMARK SMILES IDX 60 97
REMARK H PARENT 9 14 91 27 82 50 50 61
REMARK Flexibility Score: inf
ROOT
ATOM      1  C   UNL A   1      31.784  28.884  26.418  1.00  0.00     0.275 C 
ENDROOT
BRANCH   1   2
ATOM      2  C   UNL A   1      32.397  27.495  26.279  1.00  0.00     0.274 C 
BRANCH   2   3
ATOM      3  O   UNL A   1      31.368  26.481  26.250  1.00  0.00    -0.462 OA
BRANCH   3   4
ATOM      4  C   UNL A   1      31.794  25.186  26.362  1.00  0.00     0.310 C 
ATOM      5  O   UNL A   1      31.389  24.399  27.206  1.00  0.00    -0.252 OA
BRANCH   4   6
ATOM      6  C   UNL A   1      32.873  24.887  25.327  1.00  0.00     0.116 C 
ATOM      7  C   UNL A   1      32.294  24.127  24.110  1.00  0.00     0.097 C 
ATOM      8  C   UNL A   1      32.293  22.588  24.222  1.00  0.00     0.041 C 
ATOM      9  C   UNL A   1      33.150  21.999  25.292  1.00  0.00    -0.030 C 
ATOM     10  C   UNL A   1      34.079  24.202  25.985  1.00  0.00     0.043 C 
ATOM     11  C   UNL A   1      33.964  22.715  26.073  1.00  0.00    -0.030 C 
BRANCH   7  12
ATOM     12  C   UNL A   1      33.006  24.512  22.816  1.00  0.00     0.228 C 
ATOM     13  N   UNL A   1      32.664  25.650  22.135  1.00  0.00    -0.326 N 
ATOM     14  H   UNL A   1      32.955  25.641  21.194  1.00  0.00     0.169 HD
ATOM     15  O   UNL A   1      33.835  23.763  22.291  1.00  0.00    -0.274 OA
BRANCH  13  16
ATOM     16  C   UNL A   1      31.985  26.830  22.496  1.00  0.00     0.043 A 
ATOM     17  C   UNL A   1      27.628  31.331  23.523  1.00  0.00     0.067 C 
ATOM     18  C   UNL A   1      28.334  30.165  22.826  1.00  0.00     0.182 C 
ATOM     19  C   UNL A   1      28.204  30.341  21.302  1.00  0.00     0.067 C 
ATOM     20  O   UNL A   1      29.724  30.274  23.164  1.00  0.00    -0.476 OA
ATOM     21  C   UNL A   1      27.643  28.837  23.209  1.00  0.00     0.268 C 
ATOM     22  C   UNL A   1      30.428  29.116  22.982  1.00  0.00     0.144 A 
ATOM     23  N   UNL A   1      28.464  27.737  23.205  1.00  0.00    -0.319 N 
ATOM     24  O   UNL A   1      26.429  28.711  23.354  1.00  0.00    -0.270 OA
ATOM     25  C   UNL A   1      31.794  29.239  22.771  1.00  0.00     0.051 A 
ATOM     26  C   UNL A   1      29.838  27.853  22.992  1.00  0.00     0.086 A 
ATOM     27  H   UNL A   1      28.075  26.846  23.357  1.00  0.00     0.170 HD
ATOM     28  C   UNL A   1      32.562  28.102  22.500  1.00  0.00     0.030 A 
ATOM     29  C   UNL A   1      30.611  26.714  22.761  1.00  0.00     0.056 A 
ENDBRANCH  13  16
ENDBRANCH   7  12
ENDBRANCH   4   6
ENDBRANCH   3   4
ENDBRANCH   2   3
ENDBRANCH   1   2
BRANCH   1  30
ATOM     30  O   UNL A   1      32.748  29.857  25.992  1.00  0.00    -0.458 OA
BRANCH  30  31
ATOM     31  C   UNL A   1      33.014  30.858  26.861  1.00  0.00     0.338 C 
ATOM     32  O   UNL A   1      32.269  31.766  27.187  1.00  0.00    -0.246 OA
BRANCH  31  33
ATOM     33  C   UNL A   1      34.376  30.674  27.405  1.00  0.00     0.060 A 
ATOM     34  C   UNL A   1      35.121  31.780  27.806  1.00  0.00     0.016 A 
ATOM     35  C   UNL A   1      34.873  29.391  27.621  1.00  0.00     0.016 A 
ATOM     36  C   UNL A   1      36.373  31.587  28.406  1.00  0.00     0.010 A 
ATOM     37  C   UNL A   1      36.058  29.209  28.336  1.00  0.00     0.010 A 
ATOM     38  C   UNL A   1      36.848  30.296  28.716  1.00  0.00    -0.014 A 
BRANCH  38  39
ATOM     39  C   UNL A   1      38.144  30.101  29.437  1.00  0.00     0.031 A 
ATOM     40  C   UNL A   1      38.359  30.619  30.845  1.00  0.00     0.074 A 
ATOM     41  C   UNL A   1      39.169  29.478  28.813  1.00  0.00     0.049 A 
ATOM     42  N   UNL A   1      39.387  30.430  31.636  1.00  0.00    -0.248 NA
ATOM     43  C   UNL A   1      37.330  31.496  31.429  1.00  0.00     0.031 C 
ATOM     44  C   UNL A   1      39.190  29.071  27.405  1.00  0.00     0.029 A 
ATOM     45  N   UNL A   1      40.387  29.055  29.290  1.00  0.00    -0.354 N 
ATOM     46  C   UNL A   1      39.148  31.200  32.770  1.00  0.00     0.074 A 
ATOM     47  C   UNL A   1      37.908  31.904  32.549  1.00  0.00     0.031 C 
ATOM     48  C   UNL A   1      40.315  28.379  27.159  1.00  0.00     0.029 A 
ATOM     49  C   UNL A   1      41.101  28.300  28.386  1.00  0.00     0.049 A 
ATOM     50  H   UNL A   1      40.718  29.272  30.192  1.00  0.00     0.167 HD
ATOM     51  C   UNL A   1      39.852  31.266  33.924  1.00  0.00     0.034 A 
ATOM     52  C   UNL A   1      42.229  27.577  28.537  1.00  0.00     0.034 A 
ATOM     53  C   UNL A   1      40.993  30.447  34.214  1.00  0.00     0.049 A 
ATOM     54  C   UNL A   1      42.898  27.517  29.883  1.00  0.00     0.074 A 
ATOM     55  C   UNL A   1      41.659  30.302  35.419  1.00  0.00     0.029 A 
ATOM     56  N   UNL A   1      41.614  29.612  33.304  1.00  0.00    -0.354 N 
ATOM     57  N   UNL A   1      42.534  28.087  31.004  1.00  0.00    -0.248 NA
ATOM     58  C   UNL A   1      44.106  26.684  29.996  1.00  0.00     0.031 C 
ATOM     59  C   UNL A   1      42.674  29.359  35.241  1.00  0.00     0.029 A 
ATOM     60  C   UNL A   1      42.648  28.936  33.921  1.00  0.00     0.049 A 
ATOM     61  H   UNL A   1      41.359  29.515  32.357  1.00  0.00     0.167 HD
ATOM     62  C   UNL A   1      43.450  27.663  31.960  1.00  0.00     0.074 A 
ATOM     63  C   UNL A   1      44.379  26.777  31.292  1.00  0.00     0.031 C 
ATOM     64  C   UNL A   1      43.521  27.998  33.269  1.00  0.00     0.034 A 
BRANCH  51  65
ATOM     65  C   UNL A   1      39.327  32.139  35.032  1.00  0.00     0.023 A 
ATOM     66  C   UNL A   1      38.377  31.602  35.922  1.00  0.00     0.012 A 
ATOM     67  C   UNL A   1      39.845  33.429  35.261  1.00  0.00     0.148 A 
ATOM     68  C   UNL A   1      37.930  32.340  37.015  1.00  0.00     0.002 A 
ATOM     69  C   UNL A   1      39.416  34.148  36.371  1.00  0.00     0.091 A 
ATOM     70  F   UNL A   1      40.753  33.915  34.405  1.00  0.00    -0.205 F 
ATOM     71  C   UNL A   1      38.455  33.608  37.243  1.00  0.00     0.022 A 
BRANCH  69  72
ATOM     72  S   UNL A   1      40.062  35.770  36.799  1.00  0.00     0.127 S 
ATOM     73  O   UNL A   1      41.492  35.493  36.935  1.00  0.00    -0.237 OA
ATOM     74  O   UNL A   1      39.703  36.559  35.621  1.00  0.00    -0.237 OA
ATOM     75  O   UNL A   1      39.395  36.160  38.033  1.00  0.00    -0.744 OA
ENDBRANCH  69  72
ENDBRANCH  51  65
BRANCH  52  76
ATOM     76  C   UNL A   1      42.701  26.706  27.425  1.00  0.00     0.023 A 
ATOM     77  C   UNL A   1      43.571  27.259  26.464  1.00  0.00     0.012 A 
ATOM     78  C   UNL A   1      42.335  25.353  27.326  1.00  0.00     0.148 A 
ATOM     79  C   UNL A   1      44.054  26.484  25.411  1.00  0.00     0.002 A 
ATOM     80  C   UNL A   1      42.844  24.577  26.289  1.00  0.00     0.091 A 
ATOM     81  F   UNL A   1      41.496  24.852  28.245  1.00  0.00    -0.205 F 
ATOM     82  C   UNL A   1      43.697  25.142  25.327  1.00  0.00     0.022 A 
BRANCH  80  83
ATOM     83  S   UNL A   1      42.507  22.817  26.151  1.00  0.00     0.127 S 
ATOM     84  O   UNL A   1      41.047  22.792  26.173  1.00  0.00    -0.237 OA
ATOM     85  O   UNL A   1      43.110  22.492  24.858  1.00  0.00    -0.237 OA
ATOM     86  O   UNL A   1      43.171  22.206  27.293  1.00  0.00    -0.744 OA
ENDBRANCH  80  83
ENDBRANCH  52  76
BRANCH  64  87
ATOM     87  C   UNL A   1      44.621  27.415  34.107  1.00  0.00     0.023 A 
ATOM     88  C   UNL A   1      45.819  28.139  34.253  1.00  0.00     0.012 A 
ATOM     89  C   UNL A   1      44.398  26.264  34.888  1.00  0.00     0.148 A 
ATOM     90  C   UNL A   1      46.780  27.731  35.175  1.00  0.00     0.002 A 
ATOM     91  C   UNL A   1      45.347  25.880  35.826  1.00  0.00     0.091 A 
ATOM     92  F   UNL A   1      43.246  25.597  34.725  1.00  0.00    -0.205 F 
ATOM     93  C   UNL A   1      46.539  26.613  35.970  1.00  0.00     0.022 A 
BRANCH  91  94
ATOM     94  S   UNL A   1      45.099  24.506  36.955  1.00  0.00     0.127 S 
ATOM     95  O   UNL A   1      46.371  24.477  37.675  1.00  0.00    -0.237 OA
ATOM     96  O   UNL A   1      43.959  24.963  37.748  1.00  0.00    -0.237 OA
ATOM     97  O   UNL A   1      44.838  23.339  36.123  1.00  0.00    -0.744 OA
ENDBRANCH  91  94
ENDBRANCH  64  87
ENDBRANCH  38  39
ENDBRANCH  31  33
ENDBRANCH  30  31
ENDBRANCH   1  30
TORSDOF 16
ENDMDL
MODEL 2
REMARK VINA RESULT:     -13.3      4.752     10.128
REMARK SMILES CC1(C)Oc2ccc(NC(=O)[C@H]3CC=CC[C@@H]3C(=O)OCCOC(=O)c3ccc(-c4c5nc(c(-c6cccc(S(=O)(=O)[O-])c6F)c6ccc([nH]6)c(-c6cccc(S(=O)(=O)[O-])c6F)c6nc(c(-c7cccc(S(=O)(=O)[O-])c7F)c7ccc4[nH]7)C=C6)C=C5)cc3)cc2NC1=O
REMARK SMILES IDX 22 1 21 2 20 3 18 4 19 5 17 6 12 7 13 8 14 9 16 10 15 11
REMARK SMILES IDX 10 12 9 13 11 15 8 16 1 17 2 18 3 19 4 20 92 21 5 22 91 23
REMARK SMILES IDX 93 24 6 25 90 26 7 28 89 29 23 30 24 31 25 32 26 33 27 34
REMARK SMILES IDX 88 35 28 36 87 37 29 38 30 39 31 40 81 41 32 42 86 43 80 44
REMARK SMILES IDX 82 45 33 46 85 47 79 48 78 49 34 51 66 52 46 53 65 54 47 55
REMARK SMILES IDX 50 56 64 57 83 58 48 59 49 60 63 62 84 63 51 64 35 65 36 66
REMARK SMILES IDX 44 67 37 68 39 69 45 70 38 71 40 72 41 73 42 74 43 75 67 76
REMARK SMILES IDX 68 77 76 78 69 79 71 80 77 81 70 82 72 83 73 84 74 85 75 86
REMARK SMILES IDX 52 87 53 88 61 89 54 90 56 91 62 92 55 93 57 94 58 95 59 96
REMARK SMILES IDX 60 97
REMARK H PARENT 9 14 91 27 82 50 50 61
REMARK Flexibility Score: inf
ROOT
ATOM      1  C   UNL A   1      36.388  21.926  23.954  1.00  0.00     0.275 C 
ENDROOT
BRANCH   1   2
ATOM      2  C   UNL A   1      35.977  23.320  23.496  1.00  0.00     0.274 C 
BRANCH   2   3
ATOM      3  O   UNL A   1      34.552  23.385  23.267  1.00  0.00    -0.462 OA
BRANCH   3   4
ATOM      4  C   UNL A   1      33.997  24.635  23.268  1.00  0.00     0.310 C 
ATOM      5  O   UNL A   1      34.019  25.399  22.313  1.00  0.00    -0.252 OA
BRANCH   4   6
ATOM      6  C   UNL A   1      33.402  24.954  24.636  1.00  0.00     0.116 C 
ATOM      7  C   UNL A   1      31.861  25.074  24.568  1.00  0.00     0.097 C 
ATOM      8  C   UNL A   1      31.315  26.482  24.252  1.00  0.00     0.041 C 
ATOM      9  C   UNL A   1      32.274  27.616  24.402  1.00  0.00    -0.030 C 
ATOM     10  C   UNL A   1      34.104  26.166  25.263  1.00  0.00     0.043 C 
ATOM     11  C   UNL A   1      33.518  27.482  24.868  1.00  0.00    -0.030 C 
BRANCH   7  12
ATOM     12  C   UNL A   1      31.202  24.581  25.852  1.00  0.00     0.228 C 
ATOM     13  N   UNL A   1      31.249  23.258  26.207  1.00  0.00    -0.326 N 
ATOM     14  H   UNL A   1      30.557  23.006  26.861  1.00  0.00     0.169 HD
ATOM     15  O   UNL A   1      30.520  25.333  26.555  1.00  0.00    -0.274 OA
BRANCH  13  16
ATOM     16  C   UNL A   1      32.079  22.183  25.834  1.00  0.00     0.043 A 
ATOM     17  C   UNL A   1      34.453  16.826  23.389  1.00  0.00     0.067 C 
ATOM     18  C   UNL A   1      33.422  17.778  24.003  1.00  0.00     0.182 C 
ATOM     19  C   UNL A   1      32.504  16.978  24.947  1.00  0.00     0.067 C 
ATOM     20  O   UNL A   1      34.160  18.717  24.797  1.00  0.00    -0.476 OA
ATOM     21  C   UNL A   1      32.540  18.378  22.884  1.00  0.00     0.268 C 
ATOM     22  C   UNL A   1      33.470  19.864  25.079  1.00  0.00     0.144 A 
ATOM     23  N   UNL A   1      32.044  19.630  23.149  1.00  0.00    -0.319 N 
ATOM     24  O   UNL A   1      32.162  17.751  21.897  1.00  0.00    -0.270 OA
ATOM     25  C   UNL A   1      33.852  20.562  26.215  1.00  0.00     0.051 A 
ATOM     26  C   UNL A   1      32.422  20.337  24.292  1.00  0.00     0.086 A 
ATOM     27  H   UNL A   1      31.408  20.039  22.519  1.00  0.00     0.170 HD
ATOM     28  C   UNL A   1      33.139  21.700  26.606  1.00  0.00     0.030 A 
ATOM     29  C   UNL A   1      31.735  21.496  24.659  1.00  0.00     0.056 A 
ENDBRANCH  13  16
ENDBRANCH   7  12
ENDBRANCH   4   6
ENDBRANCH   3   4
ENDBRANCH   2   3
ENDBRANCH   1   2
BRANCH   1  30
ATOM     30  O   UNL A   1      36.776  21.990  25.334  1.00  0.00    -0.458 OA
BRANCH  30  31
ATOM     31  C   UNL A   1      38.040  21.601  25.620  1.00  0.00     0.338 C 
ATOM     32  O   UNL A   1      38.557  20.530  25.354  1.00  0.00    -0.246 OA
BRANCH  31  33
ATOM     33  C   UNL A   1      38.743  22.709  26.299  1.00  0.00     0.060 A 
ATOM     34  C   UNL A   1      39.918  22.462  27.004  1.00  0.00     0.016 A 
ATOM     35  C   UNL A   1      38.293  24.019  26.146  1.00  0.00     0.016 A 
ATOM     36  C   UNL A   1      40.626  23.533  27.566  1.00  0.00     0.010 A 
ATOM     37  C   UNL A   1      39.073  25.086  26.596  1.00  0.00     0.010 A 
ATOM     38  C   UNL A   1      40.235  24.869  27.340  1.00  0.00    -0.014 A 
BRANCH  38  39
ATOM     39  C   UNL A   1      41.044  26.011  27.867  1.00  0.00     0.031 A 
ATOM     40  C   UNL A   1      42.482  26.232  27.444  1.00  0.00     0.074 A 
ATOM     41  C   UNL A   1      40.500  26.855  28.772  1.00  0.00     0.049 A 
ATOM     42  N   UNL A   1      43.273  27.237  27.731  1.00  0.00    -0.248 NA
ATOM     43  C   UNL A   1      43.141  25.184  26.645  1.00  0.00     0.031 C 
ATOM     44  C   UNL A   1      39.192  26.689  29.414  1.00  0.00     0.029 A 
ATOM     45  N   UNL A   1      40.969  28.037  29.294  1.00  0.00    -0.354 N 
ATOM     46  C   UNL A   1      44.517  26.914  27.198  1.00  0.00     0.074 A 
ATOM     47  C   UNL A   1      44.400  25.599  26.618  1.00  0.00     0.031 C 
ATOM     48  C   UNL A   1      38.926  27.771  30.166  1.00  0.00     0.029 A 
ATOM     49  C   UNL A   1      40.044  28.703  30.069  1.00  0.00     0.049 A 
ATOM     50  H   UNL A   1      41.879  28.377  29.130  1.00  0.00     0.167 HD
ATOM     51  C   UNL A   1      45.640  27.667  27.129  1.00  0.00     0.034 A 
ATOM     52  C   UNL A   1      40.065  29.945  30.595  1.00  0.00     0.034 A 
ATOM     53  C   UNL A   1      45.716  29.034  27.556  1.00  0.00     0.049 A 
ATOM     54  C   UNL A   1      41.253  30.835  30.350  1.00  0.00     0.074 A 
ATOM     55  C   UNL A   1      46.745  29.937  27.356  1.00  0.00     0.029 A 
ATOM     56  N   UNL A   1      44.715  29.703  28.235  1.00  0.00    -0.354 N 
ATOM     57  N   UNL A   1      42.337  30.583  29.660  1.00  0.00    -0.248 NA
ATOM     58  C   UNL A   1      41.204  32.191  30.920  1.00  0.00     0.031 C 
ATOM     59  C   UNL A   1      46.355  31.164  27.899  1.00  0.00     0.029 A 
ATOM     60  C   UNL A   1      45.093  31.014  28.451  1.00  0.00     0.049 A 
ATOM     61  H   UNL A   1      43.861  29.305  28.523  1.00  0.00     0.167 HD
ATOM     62  C   UNL A   1      43.085  31.754  29.689  1.00  0.00     0.074 A 
ATOM     63  C   UNL A   1      42.328  32.721  30.453  1.00  0.00     0.031 C 
ATOM     64  C   UNL A   1      44.302  31.992  29.146  1.00  0.00     0.034 A 
BRANCH  51  65
ATOM     65  C   UNL A   1      46.842  27.093  26.428  1.00  0.00     0.023 A 
ATOM     66  C   UNL A   1      46.977  27.299  25.041  1.00  0.00     0.012 A 
ATOM     67  C   UNL A   1      47.878  26.460  27.142  1.00  0.00     0.148 A 
ATOM     68  C   UNL A   1      48.116  26.865  24.366  1.00  0.00     0.002 A 
ATOM     69  C   UNL A   1      49.025  26.057  26.466  1.00  0.00     0.091 A 
ATOM     70  F   UNL A   1      47.729  26.283  28.462  1.00  0.00    -0.205 F 
ATOM     71  C   UNL A   1      49.140  26.252  25.080  1.00  0.00     0.022 A 
BRANCH  69  72
ATOM     72  S   UNL A   1      50.435  25.306  27.288  1.00  0.00     0.127 S 
ATOM     73  O   UNL A   1      50.844  26.369  28.207  1.00  0.00    -0.237 OA
ATOM     74  O   UNL A   1      49.826  24.143  27.934  1.00  0.00    -0.237 OA
ATOM     75  O   UNL A   1      51.399  24.999  26.241  1.00  0.00    -0.744 OA
ENDBRANCH  69  72
ENDBRANCH  51  65
BRANCH  52  76
ATOM     76  C   UNL A   1      38.846  30.484  31.258  1.00  0.00     0.023 A 
ATOM     77  C   UNL A   1      38.757  30.405  32.662  1.00  0.00     0.012 A 
ATOM     78  C   UNL A   1      37.808  31.096  30.534  1.00  0.00     0.148 A 
ATOM     79  C   UNL A   1      37.644  30.909  33.334  1.00  0.00     0.002 A 
ATOM     80  C   UNL A   1      36.714  31.622  31.213  1.00  0.00     0.091 A 
ATOM     81  F   UNL A   1      37.909  31.148  29.198  1.00  0.00    -0.205 F 
ATOM     82  C   UNL A   1      36.626  31.524  32.611  1.00  0.00     0.022 A 
BRANCH  80  83
ATOM     83  S   UNL A   1      35.396  32.509  30.372  1.00  0.00     0.127 S 
ATOM     84  O   UNL A   1      35.036  31.569  29.313  1.00  0.00    -0.237 OA
ATOM     85  O   UNL A   1      34.400  32.653  31.434  1.00  0.00    -0.237 OA
ATOM     86  O   UNL A   1      35.992  33.763  29.934  1.00  0.00    -0.744 OA
ENDBRANCH  80  83
ENDBRANCH  52  76
BRANCH  64  87
ATOM     87  C   UNL A   1      44.921  33.347  29.325  1.00  0.00     0.023 A 
ATOM     88  C   UNL A   1      45.779  33.561  30.420  1.00  0.00     0.012 A 
ATOM     89  C   UNL A   1      44.807  34.329  28.322  1.00  0.00     0.148 A 
ATOM     90  C   UNL A   1      46.525  34.735  30.511  1.00  0.00     0.002 A 
ATOM     91  C   UNL A   1      45.577  35.483  28.403  1.00  0.00     0.091 A 
ATOM     92  F   UNL A   1      43.983  34.094  27.291  1.00  0.00    -0.205 F 
ATOM     93  C   UNL A   1      46.435  35.687  29.498  1.00  0.00     0.022 A 
BRANCH  91  94
ATOM     94  S   UNL A   1      45.597  36.732  27.113  1.00  0.00     0.127 S 
ATOM     95  O   UNL A   1      46.594  37.672  27.623  1.00  0.00    -0.237 OA
ATOM     96  O   UNL A   1      46.025  35.961  25.947  1.00  0.00    -0.237 OA
ATOM     97  O   UNL A   1      44.240  37.258  27.036  1.00  0.00    -0.744 OA
ENDBRANCH  91  94
ENDBRANCH  64  87
ENDBRANCH  38  39
ENDBRANCH  31  33
ENDBRANCH  30  31
ENDBRANCH   1  30
TORSDOF 16
ENDMDL
MODEL 3
REMARK VINA RESULT:     -12.7      1.806      2.187
REMARK SMILES CC1(C)Oc2ccc(NC(=O)[C@H]3CC=CC[C@@H]3C(=O)OCCOC(=O)c3ccc(-c4c5nc(c(-c6cccc(S(=O)(=O)[O-])c6F)c6ccc([nH]6)c(-c6cccc(S(=O)(=O)[O-])c6F)c6nc(c(-c7cccc(S(=O)(=O)[O-])c7F)c7ccc4[nH]7)C=C6)C=C5)cc3)cc2NC1=O
REMARK SMILES IDX 22 1 21 2 20 3 18 4 19 5 17 6 12 7 13 8 14 9 16 10 15 11
REMARK SMILES IDX 10 12 9 13 11 15 8 16 1 17 2 18 3 19 4 20 92 21 5 22 91 23
REMARK SMILES IDX 93 24 6 25 90 26 7 28 89 29 23 30 24 31 25 32 26 33 27 34
REMARK SMILES IDX 88 35 28 36 87 37 29 38 30 39 31 40 81 41 32 42 86 43 80 44
REMARK SMILES IDX 82 45 33 46 85 47 79 48 78 49 34 51 66 52 46 53 65 54 47 55
REMARK SMILES IDX 50 56 64 57 83 58 48 59 49 60 63 62 84 63 51 64 35 65 36 66
REMARK SMILES IDX 44 67 37 68 39 69 45 70 38 71 40 72 41 73 42 74 43 75 67 76
REMARK SMILES IDX 68 77 76 78 69 79 71 80 77 81 70 82 72 83 73 84 74 85 75 86
REMARK SMILES IDX 52 87 53 88 61 89 54 90 56 91 62 92 55 93 57 94 58 95 59 96
REMARK SMILES IDX 60 97
REMARK H PARENT 9 14 91 27 82 50 50 61
REMARK Flexibility Score: inf
ROOT
ATOM      1  C   UNL A   1      31.836  29.100  26.544  1.00  0.00     0.275 C 
ENDROOT
BRANCH   1   2
ATOM      2  C   UNL A   1      32.181  27.676  26.964  1.00  0.00     0.274 C 
BRANCH   2   3
ATOM      3  O   UNL A   1      31.373  26.720  26.244  1.00  0.00    -0.462 OA
BRANCH   3   4
ATOM      4  C   UNL A   1      31.850  25.438  26.200  1.00  0.00     0.310 C 
ATOM      5  O   UNL A   1      31.499  24.547  26.961  1.00  0.00    -0.252 OA
BRANCH   4   6
ATOM      6  C   UNL A   1      32.910  25.299  25.113  1.00  0.00     0.116 C 
ATOM      7  C   UNL A   1      32.551  24.173  24.113  1.00  0.00     0.097 C 
ATOM      8  C   UNL A   1      33.066  22.766  24.480  1.00  0.00     0.041 C 
ATOM      9  C   UNL A   1      34.127  22.698  25.528  1.00  0.00    -0.030 C 
ATOM     10  C   UNL A   1      34.308  25.172  25.732  1.00  0.00     0.043 C 
ATOM     11  C   UNL A   1      34.697  23.772  26.080  1.00  0.00    -0.030 C 
BRANCH   7  12
ATOM     12  C   UNL A   1      33.024  24.504  22.701  1.00  0.00     0.228 C 
ATOM     13  N   UNL A   1      32.533  25.592  22.029  1.00  0.00    -0.326 N 
ATOM     14  H   UNL A   1      32.663  25.537  21.054  1.00  0.00     0.169 HD
ATOM     15  O   UNL A   1      33.781  23.749  22.084  1.00  0.00    -0.274 OA
BRANCH  13  16
ATOM     16  C   UNL A   1      31.880  26.771  22.437  1.00  0.00     0.043 A 
ATOM     17  C   UNL A   1      27.625  31.324  23.645  1.00  0.00     0.067 C 
ATOM     18  C   UNL A   1      28.305  30.171  22.902  1.00  0.00     0.182 C 
ATOM     19  C   UNL A   1      28.180  30.412  21.386  1.00  0.00     0.067 C 
ATOM     20  O   UNL A   1      29.697  30.236  23.244  1.00  0.00    -0.476 OA
ATOM     21  C   UNL A   1      27.584  28.845  23.232  1.00  0.00     0.268 C 
ATOM     22  C   UNL A   1      30.375  29.070  23.015  1.00  0.00     0.144 A 
ATOM     23  N   UNL A   1      28.380  27.727  23.184  1.00  0.00    -0.319 N 
ATOM     24  O   UNL A   1      26.367  28.741  23.372  1.00  0.00    -0.270 OA
ATOM     25  C   UNL A   1      31.743  29.170  22.809  1.00  0.00     0.051 A 
ATOM     26  C   UNL A   1      29.756  27.822  22.974  1.00  0.00     0.086 A 
ATOM     27  H   UNL A   1      27.971  26.840  23.300  1.00  0.00     0.170 HD
ATOM     28  C   UNL A   1      32.486  28.029  22.492  1.00  0.00     0.030 A 
ATOM     29  C   UNL A   1      30.504  26.675  22.698  1.00  0.00     0.056 A 
ENDBRANCH  13  16
ENDBRANCH   7  12
ENDBRANCH   4   6
ENDBRANCH   3   4
ENDBRANCH   2   3
ENDBRANCH   1   2
BRANCH   1  30
ATOM     30  O   UNL A   1      33.052  29.802  26.253  1.00  0.00    -0.458 OA
BRANCH  30  31
ATOM     31  C   UNL A   1      33.280  30.929  26.967  1.00  0.00     0.338 C 
ATOM     32  O   UNL A   1      32.577  31.923  27.014  1.00  0.00    -0.246 OA
BRANCH  31  33
ATOM     33  C   UNL A   1      34.533  30.768  27.734  1.00  0.00     0.060 A 
ATOM     34  C   UNL A   1      34.863  29.530  28.279  1.00  0.00     0.016 A 
ATOM     35  C   UNL A   1      35.438  31.823  27.821  1.00  0.00     0.016 A 
ATOM     36  C   UNL A   1      36.096  29.366  28.924  1.00  0.00     0.010 A 
ATOM     37  C   UNL A   1      36.712  31.614  28.349  1.00  0.00     0.010 A 
ATOM     38  C   UNL A   1      37.059  30.396  28.938  1.00  0.00    -0.014 A 
BRANCH  38  39
ATOM     39  C   UNL A   1      38.407  30.186  29.551  1.00  0.00     0.031 A 
ATOM     40  C   UNL A   1      38.762  30.754  30.911  1.00  0.00     0.074 A 
ATOM     41  C   UNL A   1      39.354  29.503  28.869  1.00  0.00     0.049 A 
ATOM     42  N   UNL A   1      39.850  30.563  31.617  1.00  0.00    -0.248 NA
ATOM     43  C   UNL A   1      37.816  31.689  31.543  1.00  0.00     0.031 C 
ATOM     44  C   UNL A   1      39.238  29.038  27.483  1.00  0.00     0.029 A 
ATOM     45  N   UNL A   1      40.597  29.059  29.256  1.00  0.00    -0.354 N 
ATOM     46  C   UNL A   1      39.735  31.387  32.733  1.00  0.00     0.074 A 
ATOM     47  C   UNL A   1      38.503  32.122  32.590  1.00  0.00     0.031 C 
ATOM     48  C   UNL A   1      40.315  28.299  27.171  1.00  0.00     0.029 A 
ATOM     49  C   UNL A   1      41.204  28.243  28.327  1.00  0.00     0.049 A 
ATOM     50  H   UNL A   1      41.012  29.301  30.115  1.00  0.00     0.167 HD
ATOM     51  C   UNL A   1      40.541  31.476  33.817  1.00  0.00     0.034 A 
ATOM     52  C   UNL A   1      42.319  27.489  28.411  1.00  0.00     0.034 A 
ATOM     53  C   UNL A   1      41.678  30.631  34.042  1.00  0.00     0.049 A 
ATOM     54  C   UNL A   1      43.101  27.462  29.695  1.00  0.00     0.074 A 
ATOM     55  C   UNL A   1      42.443  30.513  35.190  1.00  0.00     0.029 A 
ATOM     56  N   UNL A   1      42.190  29.739  33.119  1.00  0.00    -0.354 N 
ATOM     57  N   UNL A   1      42.856  28.090  30.818  1.00  0.00    -0.248 NA
ATOM     58  C   UNL A   1      44.289  26.594  29.738  1.00  0.00     0.031 C 
ATOM     59  C   UNL A   1      43.409  29.530  34.965  1.00  0.00     0.029 A 
ATOM     60  C   UNL A   1      43.254  29.053  33.673  1.00  0.00     0.049 A 
ATOM     61  H   UNL A   1      41.849  29.611  32.204  1.00  0.00     0.167 HD
ATOM     62  C   UNL A   1      43.839  27.674  31.708  1.00  0.00     0.074 A 
ATOM     63  C   UNL A   1      44.678  26.730  31.001  1.00  0.00     0.031 C 
ATOM     64  C   UNL A   1      44.036  28.060  32.990  1.00  0.00     0.034 A 
BRANCH  51  65
ATOM     65  C   UNL A   1      40.143  32.411  34.927  1.00  0.00     0.023 A 
ATOM     66  C   UNL A   1      40.696  33.706  34.949  1.00  0.00     0.012 A 
ATOM     67  C   UNL A   1      39.153  32.060  35.865  1.00  0.00     0.148 A 
ATOM     68  C   UNL A   1      40.289  34.636  35.903  1.00  0.00     0.002 A 
ATOM     69  C   UNL A   1      38.730  33.004  36.795  1.00  0.00     0.091 A 
ATOM     70  F   UNL A   1      38.636  30.825  35.818  1.00  0.00    -0.205 F 
ATOM     71  C   UNL A   1      39.302  34.287  36.820  1.00  0.00     0.022 A 
BRANCH  69  72
ATOM     72  S   UNL A   1      37.426  32.687  37.991  1.00  0.00     0.127 S 
ATOM     73  O   UNL A   1      36.247  33.187  37.282  1.00  0.00    -0.237 OA
ATOM     74  O   UNL A   1      37.485  31.232  38.125  1.00  0.00    -0.237 OA
ATOM     75  O   UNL A   1      37.782  33.435  39.188  1.00  0.00    -0.744 OA
ENDBRANCH  69  72
ENDBRANCH  51  65
BRANCH  52  76
ATOM     76  C   UNL A   1      42.663  26.558  27.302  1.00  0.00     0.023 A 
ATOM     77  C   UNL A   1      43.486  27.032  26.260  1.00  0.00     0.012 A 
ATOM     78  C   UNL A   1      42.225  25.222  27.281  1.00  0.00     0.148 A 
ATOM     79  C   UNL A   1      43.851  26.197  25.205  1.00  0.00     0.002 A 
ATOM     80  C   UNL A   1      42.617  24.386  26.240  1.00  0.00     0.091 A 
ATOM     81  F   UNL A   1      41.433  24.797  28.276  1.00  0.00    -0.205 F 
ATOM     82  C   UNL A   1      43.423  24.873  25.198  1.00  0.00     0.022 A 
BRANCH  80  83
ATOM     83  S   UNL A   1      42.185  22.643  26.193  1.00  0.00     0.127 S 
ATOM     84  O   UNL A   1      42.872  22.200  24.982  1.00  0.00    -0.237 OA
ATOM     85  O   UNL A   1      42.763  22.151  27.444  1.00  0.00    -0.237 OA
ATOM     86  O   UNL A   1      40.730  22.606  26.148  1.00  0.00    -0.744 OA
ENDBRANCH  80  83
ENDBRANCH  52  76
BRANCH  64  87
ATOM     87  C   UNL A   1      45.188  27.474  33.753  1.00  0.00     0.023 A 
ATOM     88  C   UNL A   1      44.994  26.269  34.454  1.00  0.00     0.012 A 
ATOM     89  C   UNL A   1      46.485  28.007  33.619  1.00  0.00     0.148 A 
ATOM     90  C   UNL A   1      46.080  25.593  35.006  1.00  0.00     0.002 A 
ATOM     91  C   UNL A   1      47.566  27.312  34.146  1.00  0.00     0.091 A 
ATOM     92  F   UNL A   1      46.636  29.155  32.945  1.00  0.00    -0.205 F 
ATOM     93  C   UNL A   1      47.365  26.106  34.841  1.00  0.00     0.022 A 
BRANCH  91  94
ATOM     94  S   UNL A   1      49.267  27.842  33.918  1.00  0.00     0.127 S 
ATOM     95  O   UNL A   1      49.277  29.124  34.622  1.00  0.00    -0.237 OA
ATOM     96  O   UNL A   1      50.013  26.775  34.584  1.00  0.00    -0.237 OA
ATOM     97  O   UNL A   1      49.476  27.930  32.479  1.00  0.00    -0.744 OA
ENDBRANCH  91  94
ENDBRANCH  64  87
ENDBRANCH  38  39
ENDBRANCH  31  33
ENDBRANCH  30  31
ENDBRANCH   1  30
TORSDOF 16
ENDMDL
