MODEL 1
REMARK VINA RESULT:     -12.4      0.000      0.000
REMARK SMILES O=C(OCCOC(=O)c1ccc(F)cc1-c1ccc(F)c(Cl)c1)c1ccc(-c2c3nc(c(-c4cccc(S(=O)(=O)[O-])c4F)c4ccc([nH]4)c(-c4cccc(S(=O)(=O)[O-])c4F)c4nc(c(-c5cccc(S(=O)(=O)[O-])c5F)c5ccc2[nH]5)C=C4)C=C3)cc1
REMARK SMILES IDX 4 1 3 2 2 3 1 4 24 5 25 6 86 7 26 8 85 9 27 10 28 11 29 12
REMARK SMILES IDX 79 13 30 14 84 15 78 16 80 17 31 18 83 19 77 20 76 21 32 23
REMARK SMILES IDX 64 24 44 25 63 26 45 27 48 28 62 29 81 30 46 31 47 32 61 34
REMARK SMILES IDX 82 35 49 36 33 37 34 38 42 39 35 40 37 41 43 42 36 43 38 44
REMARK SMILES IDX 39 45 40 46 41 47 65 48 66 49 74 50 67 51 69 52 75 53 68 54
REMARK SMILES IDX 70 55 71 56 72 57 73 58 50 59 51 60 59 61 52 62 54 63 60 64
REMARK SMILES IDX 53 65 55 66 56 67 57 68 58 69 5 70 6 71 7 72 8 73 9 74 10 75
REMARK SMILES IDX 15 76 11 77 14 78 12 79 13 80 16 81 17 82 23 83 18 84 21 85
REMARK SMILES IDX 19 86 22 87 20 88
REMARK H PARENT 80 22 48 33
REMARK Flexibility Score: inf
ROOT
ATOM      1  C   UNL A   1      32.109  30.865  26.789  1.00  0.00     0.275 C 
ENDROOT
BRANCH   1   2
ATOM      2  O   UNL A   1      33.465  31.296  26.707  1.00  0.00    -0.458 OA
BRANCH   2   3
ATOM      3  C   UNL A   1      33.869  32.130  27.693  1.00  0.00     0.338 C 
ATOM      4  O   UNL A   1      33.431  33.243  27.922  1.00  0.00    -0.246 OA
BRANCH   3   5
ATOM      5  C   UNL A   1      35.100  31.534  28.275  1.00  0.00     0.060 A 
ATOM      6  C   UNL A   1      35.157  30.152  28.522  1.00  0.00     0.016 A 
ATOM      7  C   UNL A   1      36.249  32.313  28.423  1.00  0.00     0.016 A 
ATOM      8  C   UNL A   1      36.333  29.557  28.932  1.00  0.00     0.010 A 
ATOM      9  C   UNL A   1      37.454  31.706  28.747  1.00  0.00     0.010 A 
ATOM     10  C   UNL A   1      37.480  30.337  29.055  1.00  0.00    -0.014 A 
BRANCH  10  11
ATOM     11  C   UNL A   1      38.652  29.784  29.746  1.00  0.00     0.031 A 
ATOM     12  C   UNL A   1      38.976  30.367  31.090  1.00  0.00     0.074 A 
ATOM     13  C   UNL A   1      39.380  28.808  29.178  1.00  0.00     0.049 A 
ATOM     14  N   UNL A   1      40.008  30.154  31.853  1.00  0.00    -0.248 NA
ATOM     15  C   UNL A   1      38.013  31.344  31.643  1.00  0.00     0.031 C 
ATOM     16  C   UNL A   1      39.097  28.172  27.890  1.00  0.00     0.029 A 
ATOM     17  N   UNL A   1      40.532  28.207  29.598  1.00  0.00    -0.354 N 
ATOM     18  C   UNL A   1      39.828  30.980  32.955  1.00  0.00     0.074 A 
ATOM     19  C   UNL A   1      38.636  31.758  32.732  1.00  0.00     0.031 C 
ATOM     20  C   UNL A   1      40.096  27.327  27.585  1.00  0.00     0.029 A 
ATOM     21  C   UNL A   1      41.074  27.356  28.664  1.00  0.00     0.049 A 
ATOM     22  H   UNL A   1      40.934  28.367  30.482  1.00  0.00     0.167 HD
ATOM     23  C   UNL A   1      40.560  31.026  34.088  1.00  0.00     0.034 A 
ATOM     24  C   UNL A   1      42.240  26.686  28.695  1.00  0.00     0.034 A 
ATOM     25  C   UNL A   1      41.692  30.176  34.308  1.00  0.00     0.049 A 
ATOM     26  C   UNL A   1      43.050  26.772  29.961  1.00  0.00     0.074 A 
ATOM     27  C   UNL A   1      42.483  30.067  35.432  1.00  0.00     0.029 A 
ATOM     28  N   UNL A   1      42.176  29.269  33.375  1.00  0.00    -0.354 N 
ATOM     29  N   UNL A   1      42.816  27.480  31.042  1.00  0.00    -0.248 NA
ATOM     30  C   UNL A   1      44.237  25.914  30.049  1.00  0.00     0.031 C 
ATOM     31  C   UNL A   1      43.452  29.091  35.178  1.00  0.00     0.029 A 
ATOM     32  C   UNL A   1      43.249  28.581  33.903  1.00  0.00     0.049 A 
ATOM     33  H   UNL A   1      41.809  29.137  32.472  1.00  0.00     0.167 HD
ATOM     34  C   UNL A   1      43.786  27.108  31.961  1.00  0.00     0.074 A 
ATOM     35  C   UNL A   1      44.607  26.105  31.308  1.00  0.00     0.031 C 
ATOM     36  C   UNL A   1      43.990  27.547  33.228  1.00  0.00     0.034 A 
BRANCH  23  37
ATOM     37  C   UNL A   1      40.096  31.942  35.186  1.00  0.00     0.023 A 
ATOM     38  C   UNL A   1      40.545  33.280  35.205  1.00  0.00     0.012 A 
ATOM     39  C   UNL A   1      39.188  31.504  36.167  1.00  0.00     0.148 A 
ATOM     40  C   UNL A   1      40.120  34.160  36.199  1.00  0.00     0.002 A 
ATOM     41  C   UNL A   1      38.731  32.399  37.126  1.00  0.00     0.091 A 
ATOM     42  F   UNL A   1      38.791  30.224  36.143  1.00  0.00    -0.205 F 
ATOM     43  C   UNL A   1      39.205  33.723  37.151  1.00  0.00     0.022 A 
BRANCH  41  44
ATOM     44  S   UNL A   1      37.499  31.966  38.358  1.00  0.00     0.127 S 
ATOM     45  O   UNL A   1      37.185  30.584  37.993  1.00  0.00    -0.237 OA
ATOM     46  O   UNL A   1      38.254  32.113  39.601  1.00  0.00    -0.237 OA
ATOM     47  O   UNL A   1      36.403  32.908  38.183  1.00  0.00    -0.744 OA
ENDBRANCH  41  44
ENDBRANCH  23  37
BRANCH  24  48
ATOM     48  C   UNL A   1      42.645  25.814  27.557  1.00  0.00     0.023 A 
ATOM     49  C   UNL A   1      43.519  26.321  26.576  1.00  0.00     0.012 A 
ATOM     50  C   UNL A   1      42.192  24.484  27.447  1.00  0.00     0.148 A 
ATOM     51  C   UNL A   1      43.899  25.539  25.484  1.00  0.00     0.002 A 
ATOM     52  C   UNL A   1      42.609  23.695  26.378  1.00  0.00     0.091 A 
ATOM     53  F   UNL A   1      41.366  24.013  28.392  1.00  0.00    -0.205 F 
ATOM     54  C   UNL A   1      43.448  24.227  25.387  1.00  0.00     0.022 A 
BRANCH  52  55
ATOM     55  S   UNL A   1      42.173  21.958  26.228  1.00  0.00     0.127 S 
ATOM     56  O   UNL A   1      40.738  22.032  25.962  1.00  0.00    -0.237 OA
ATOM     57  O   UNL A   1      42.990  21.539  25.087  1.00  0.00    -0.237 OA
ATOM     58  O   UNL A   1      42.556  21.348  27.494  1.00  0.00    -0.744 OA
ENDBRANCH  52  55
ENDBRANCH  24  48
BRANCH  36  59
ATOM     59  C   UNL A   1      45.106  26.907  34.004  1.00  0.00     0.023 A 
ATOM     60  C   UNL A   1      46.399  27.458  33.950  1.00  0.00     0.012 A 
ATOM     61  C   UNL A   1      44.842  25.821  34.861  1.00  0.00     0.148 A 
ATOM     62  C   UNL A   1      47.427  26.912  34.715  1.00  0.00     0.002 A 
ATOM     63  C   UNL A   1      45.856  25.323  35.664  1.00  0.00     0.091 A 
ATOM     64  F   UNL A   1      43.605  25.304  34.879  1.00  0.00    -0.205 F 
ATOM     65  C   UNL A   1      47.153  25.857  35.582  1.00  0.00     0.022 A 
BRANCH  63  66
ATOM     66  S   UNL A   1      45.558  24.051  36.895  1.00  0.00     0.127 S 
ATOM     67  O   UNL A   1      45.086  22.941  36.069  1.00  0.00    -0.237 OA
ATOM     68  O   UNL A   1      46.889  23.858  37.474  1.00  0.00    -0.237 OA
ATOM     69  O   UNL A   1      44.577  24.610  37.815  1.00  0.00    -0.744 OA
ENDBRANCH  63  66
ENDBRANCH  36  59
ENDBRANCH  10  11
ENDBRANCH   3   5
ENDBRANCH   2   3
ENDBRANCH   1   2
BRANCH   1  70
ATOM     70  C   UNL A   1      31.764  29.616  25.944  1.00  0.00     0.275 C 
BRANCH  70  71
ATOM     71  O   UNL A   1      32.679  28.509  26.073  1.00  0.00    -0.458 OA
BRANCH  71  72
ATOM     72  C   UNL A   1      32.161  27.279  26.343  1.00  0.00     0.338 C 
ATOM     73  O   UNL A   1      31.421  26.989  27.257  1.00  0.00    -0.246 OA
BRANCH  72  74
ATOM     74  C   UNL A   1      32.693  26.309  25.343  1.00  0.00     0.068 A 
ATOM     75  C   UNL A   1      33.848  25.578  25.688  1.00  0.00     0.019 A 
ATOM     76  C   UNL A   1      32.043  26.069  24.111  1.00  0.00    -0.001 A 
ATOM     77  C   UNL A   1      34.382  24.638  24.802  1.00  0.00     0.040 A 
ATOM     78  C   UNL A   1      32.648  25.163  23.213  1.00  0.00     0.048 A 
ATOM     79  C   UNL A   1      33.798  24.467  23.559  1.00  0.00     0.123 A 
ATOM     80  F   UNL A   1      34.334  23.611  22.681  1.00  0.00    -0.207 F 
BRANCH  76  81
ATOM     81  C   UNL A   1      30.760  26.663  23.704  1.00  0.00    -0.016 A 
ATOM     82  C   UNL A   1      29.533  26.147  24.138  1.00  0.00     0.012 A 
ATOM     83  C   UNL A   1      30.741  27.851  22.955  1.00  0.00     0.032 A 
ATOM     84  C   UNL A   1      28.323  26.781  23.854  1.00  0.00     0.041 A 
ATOM     85  C   UNL A   1      29.533  28.490  22.664  1.00  0.00     0.077 A 
ATOM     86  C   UNL A   1      28.331  27.954  23.117  1.00  0.00     0.141 A 
ATOM     87  Cl  UNL A   1      29.547  29.959  21.765  1.00  0.00    -0.081 Cl
ATOM     88  F   UNL A   1      27.162  28.561  22.862  1.00  0.00    -0.205 F 
ENDBRANCH  76  81
ENDBRANCH  72  74
ENDBRANCH  71  72
ENDBRANCH  70  71
ENDBRANCH   1  70
TORSDOF 15
ENDMDL
MODEL 2
REMARK VINA RESULT:     -12.3      5.687     10.668
REMARK SMILES O=C(OCCOC(=O)c1ccc(F)cc1-c1ccc(F)c(Cl)c1)c1ccc(-c2c3nc(c(-c4cccc(S(=O)(=O)[O-])c4F)c4ccc([nH]4)c(-c4cccc(S(=O)(=O)[O-])c4F)c4nc(c(-c5cccc(S(=O)(=O)[O-])c5F)c5ccc2[nH]5)C=C4)C=C3)cc1
REMARK SMILES IDX 4 1 3 2 2 3 1 4 24 5 25 6 86 7 26 8 85 9 27 10 28 11 29 12
REMARK SMILES IDX 79 13 30 14 84 15 78 16 80 17 31 18 83 19 77 20 76 21 32 23
REMARK SMILES IDX 64 24 44 25 63 26 45 27 48 28 62 29 81 30 46 31 47 32 61 34
REMARK SMILES IDX 82 35 49 36 33 37 34 38 42 39 35 40 37 41 43 42 36 43 38 44
REMARK SMILES IDX 39 45 40 46 41 47 65 48 66 49 74 50 67 51 69 52 75 53 68 54
REMARK SMILES IDX 70 55 71 56 72 57 73 58 50 59 51 60 59 61 52 62 54 63 60 64
REMARK SMILES IDX 53 65 55 66 56 67 57 68 58 69 5 70 6 71 7 72 8 73 9 74 10 75
REMARK SMILES IDX 15 76 11 77 14 78 12 79 13 80 16 81 17 82 23 83 18 84 21 85
REMARK SMILES IDX 19 86 22 87 20 88
REMARK H PARENT 80 22 48 33
REMARK Flexibility Score: inf
ROOT
ATOM      1  C   UNL A   1      37.859  20.709  24.966  1.00  0.00     0.275 C 
ENDROOT
BRANCH   1   2
ATOM      2  O   UNL A   1      38.306  21.582  26.000  1.00  0.00    -0.458 OA
BRANCH   2   3
ATOM      3  C   UNL A   1      39.615  21.475  26.325  1.00  0.00     0.338 C 
ATOM      4  O   UNL A   1      40.246  20.441  26.445  1.00  0.00    -0.246 OA
BRANCH   3   5
ATOM      5  C   UNL A   1      40.061  22.830  26.742  1.00  0.00     0.060 A 
ATOM      6  C   UNL A   1      39.415  23.967  26.226  1.00  0.00     0.016 A 
ATOM      7  C   UNL A   1      41.004  22.970  27.761  1.00  0.00     0.016 A 
ATOM      8  C   UNL A   1      39.719  25.226  26.702  1.00  0.00     0.010 A 
ATOM      9  C   UNL A   1      41.247  24.224  28.305  1.00  0.00     0.010 A 
ATOM     10  C   UNL A   1      40.644  25.356  27.734  1.00  0.00    -0.014 A 
BRANCH  10  11
ATOM     11  C   UNL A   1      41.177  26.686  28.057  1.00  0.00     0.031 A 
ATOM     12  C   UNL A   1      42.621  26.928  27.730  1.00  0.00     0.074 A 
ATOM     13  C   UNL A   1      40.388  27.618  28.618  1.00  0.00     0.049 A 
ATOM     14  N   UNL A   1      43.369  27.954  28.015  1.00  0.00    -0.248 NA
ATOM     15  C   UNL A   1      43.328  25.854  26.999  1.00  0.00     0.031 C 
ATOM     16  C   UNL A   1      38.966  27.458  28.927  1.00  0.00     0.029 A 
ATOM     17  N   UNL A   1      40.685  28.875  29.063  1.00  0.00    -0.354 N 
ATOM     18  C   UNL A   1      44.628  27.640  27.520  1.00  0.00     0.074 A 
ATOM     19  C   UNL A   1      44.572  26.301  26.990  1.00  0.00     0.031 C 
ATOM     20  C   UNL A   1      38.533  28.545  29.587  1.00  0.00     0.029 A 
ATOM     21  C   UNL A   1      39.644  29.476  29.730  1.00  0.00     0.049 A 
ATOM     22  H   UNL A   1      41.557  29.307  28.920  1.00  0.00     0.167 HD
ATOM     23  C   UNL A   1      45.716  28.436  27.450  1.00  0.00     0.034 A 
ATOM     24  C   UNL A   1      39.615  30.652  30.384  1.00  0.00     0.034 A 
ATOM     25  C   UNL A   1      45.709  29.791  27.914  1.00  0.00     0.049 A 
ATOM     26  C   UNL A   1      40.849  31.511  30.310  1.00  0.00     0.074 A 
ATOM     27  C   UNL A   1      46.716  30.731  27.843  1.00  0.00     0.029 A 
ATOM     28  N   UNL A   1      44.618  30.401  28.518  1.00  0.00    -0.354 N 
ATOM     29  N   UNL A   1      42.005  31.244  29.749  1.00  0.00    -0.248 NA
ATOM     30  C   UNL A   1      40.756  32.856  30.887  1.00  0.00     0.031 C 
ATOM     31  C   UNL A   1      46.233  31.915  28.410  1.00  0.00     0.029 A 
ATOM     32  C   UNL A   1      44.918  31.714  28.813  1.00  0.00     0.049 A 
ATOM     33  H   UNL A   1      43.758  29.961  28.707  1.00  0.00     0.167 HD
ATOM     34  C   UNL A   1      42.755  32.407  29.847  1.00  0.00     0.074 A 
ATOM     35  C   UNL A   1      41.916  33.382  30.518  1.00  0.00     0.031 C 
ATOM     36  C   UNL A   1      44.021  32.658  29.426  1.00  0.00     0.034 A 
BRANCH  23  37
ATOM     37  C   UNL A   1      46.941  27.890  26.770  1.00  0.00     0.023 A 
ATOM     38  C   UNL A   1      47.916  27.218  27.539  1.00  0.00     0.012 A 
ATOM     39  C   UNL A   1      47.112  27.997  25.379  1.00  0.00     0.148 A 
ATOM     40  C   UNL A   1      49.054  26.685  26.938  1.00  0.00     0.002 A 
ATOM     41  C   UNL A   1      48.225  27.421  24.779  1.00  0.00     0.091 A 
ATOM     42  F   UNL A   1      46.185  28.657  24.670  1.00  0.00    -0.205 F 
ATOM     43  C   UNL A   1      49.203  26.777  25.557  1.00  0.00     0.022 A 
BRANCH  41  44
ATOM     44  S   UNL A   1      48.485  27.417  23.002  1.00  0.00     0.127 S 
ATOM     45  O   UNL A   1      48.360  25.993  22.686  1.00  0.00    -0.237 OA
ATOM     46  O   UNL A   1      47.376  28.246  22.535  1.00  0.00    -0.237 OA
ATOM     47  O   UNL A   1      49.812  27.975  22.786  1.00  0.00    -0.744 OA
ENDBRANCH  41  44
ENDBRANCH  23  37
BRANCH  24  48
ATOM     48  C   UNL A   1      38.368  31.116  31.055  1.00  0.00     0.023 A 
ATOM     49  C   UNL A   1      38.222  30.928  32.443  1.00  0.00     0.012 A 
ATOM     50  C   UNL A   1      37.339  31.760  30.340  1.00  0.00     0.148 A 
ATOM     51  C   UNL A   1      37.056  31.329  33.099  1.00  0.00     0.002 A 
ATOM     52  C   UNL A   1      36.198  32.196  31.007  1.00  0.00     0.091 A 
ATOM     53  F   UNL A   1      37.497  31.938  29.020  1.00  0.00    -0.205 F 
ATOM     54  C   UNL A   1      36.048  31.966  32.383  1.00  0.00     0.022 A 
BRANCH  52  55
ATOM     55  S   UNL A   1      34.895  33.128  30.192  1.00  0.00     0.127 S 
ATOM     56  O   UNL A   1      34.039  33.493  31.318  1.00  0.00    -0.237 OA
ATOM     57  O   UNL A   1      35.642  34.239  29.600  1.00  0.00    -0.237 OA
ATOM     58  O   UNL A   1      34.311  32.214  29.219  1.00  0.00    -0.744 OA
ENDBRANCH  52  55
ENDBRANCH  24  48
BRANCH  36  59
ATOM     59  C   UNL A   1      44.548  34.050  29.630  1.00  0.00     0.023 A 
ATOM     60  C   UNL A   1      45.192  34.383  30.835  1.00  0.00     0.012 A 
ATOM     61  C   UNL A   1      44.487  34.991  28.585  1.00  0.00     0.148 A 
ATOM     62  C   UNL A   1      45.741  35.650  31.010  1.00  0.00     0.002 A 
ATOM     63  C   UNL A   1      45.089  36.229  28.744  1.00  0.00     0.091 A 
ATOM     64  F   UNL A   1      43.850  34.654  27.453  1.00  0.00    -0.205 F 
ATOM     65  C   UNL A   1      45.704  36.567  29.962  1.00  0.00     0.022 A 
BRANCH  63  66
ATOM     66  S   UNL A   1      45.194  37.418  27.404  1.00  0.00     0.127 S 
ATOM     67  O   UNL A   1      45.882  38.535  28.048  1.00  0.00    -0.237 OA
ATOM     68  O   UNL A   1      45.993  36.699  26.410  1.00  0.00    -0.237 OA
ATOM     69  O   UNL A   1      43.820  37.679  26.995  1.00  0.00    -0.744 OA
ENDBRANCH  63  66
ENDBRANCH  36  59
ENDBRANCH  10  11
ENDBRANCH   3   5
ENDBRANCH   2   3
ENDBRANCH   1   2
BRANCH   1  70
ATOM     70  C   UNL A   1      36.356  20.347  25.014  1.00  0.00     0.275 C 
BRANCH  70  71
ATOM     71  O   UNL A   1      35.497  21.344  25.603  1.00  0.00    -0.458 OA
BRANCH  71  72
ATOM     72  C   UNL A   1      34.895  22.241  24.775  1.00  0.00     0.338 C 
ATOM     73  O   UNL A   1      35.356  22.710  23.757  1.00  0.00    -0.246 OA
BRANCH  72  74
ATOM     74  C   UNL A   1      33.567  22.602  25.348  1.00  0.00     0.068 A 
ATOM     75  C   UNL A   1      33.405  23.906  25.859  1.00  0.00     0.019 A 
ATOM     76  C   UNL A   1      32.475  21.704  25.334  1.00  0.00    -0.001 A 
ATOM     77  C   UNL A   1      32.177  24.310  26.390  1.00  0.00     0.040 A 
ATOM     78  C   UNL A   1      31.271  22.122  25.940  1.00  0.00     0.048 A 
ATOM     79  C   UNL A   1      31.134  23.403  26.459  1.00  0.00     0.123 A 
ATOM     80  F   UNL A   1      29.971  23.763  27.015  1.00  0.00    -0.207 F 
BRANCH  76  81
ATOM     81  C   UNL A   1      32.484  20.375  24.703  1.00  0.00    -0.016 A 
ATOM     82  C   UNL A   1      32.292  20.206  23.327  1.00  0.00     0.012 A 
ATOM     83  C   UNL A   1      32.806  19.238  25.461  1.00  0.00     0.032 A 
ATOM     84  C   UNL A   1      32.421  18.962  22.710  1.00  0.00     0.041 A 
ATOM     85  C   UNL A   1      32.935  17.987  24.851  1.00  0.00     0.077 A 
ATOM     86  C   UNL A   1      32.745  17.856  23.478  1.00  0.00     0.141 A 
ATOM     87  Cl  UNL A   1      33.358  16.618  25.806  1.00  0.00    -0.081 Cl
ATOM     88  F   UNL A   1      32.879  16.668  22.870  1.00  0.00    -0.205 F 
ENDBRANCH  76  81
ENDBRANCH  72  74
ENDBRANCH  71  72
ENDBRANCH  70  71
ENDBRANCH   1  70
TORSDOF 15
ENDMDL
MODEL 3
REMARK VINA RESULT:     -12.0      4.631      7.216
REMARK SMILES O=C(OCCOC(=O)c1ccc(F)cc1-c1ccc(F)c(Cl)c1)c1ccc(-c2c3nc(c(-c4cccc(S(=O)(=O)[O-])c4F)c4ccc([nH]4)c(-c4cccc(S(=O)(=O)[O-])c4F)c4nc(c(-c5cccc(S(=O)(=O)[O-])c5F)c5ccc2[nH]5)C=C4)C=C3)cc1
REMARK SMILES IDX 4 1 3 2 2 3 1 4 24 5 25 6 86 7 26 8 85 9 27 10 28 11 29 12
REMARK SMILES IDX 79 13 30 14 84 15 78 16 80 17 31 18 83 19 77 20 76 21 32 23
REMARK SMILES IDX 64 24 44 25 63 26 45 27 48 28 62 29 81 30 46 31 47 32 61 34
REMARK SMILES IDX 82 35 49 36 33 37 34 38 42 39 35 40 37 41 43 42 36 43 38 44
REMARK SMILES IDX 39 45 40 46 41 47 65 48 66 49 74 50 67 51 69 52 75 53 68 54
REMARK SMILES IDX 70 55 71 56 72 57 73 58 50 59 51 60 59 61 52 62 54 63 60 64
REMARK SMILES IDX 53 65 55 66 56 67 57 68 58 69 5 70 6 71 7 72 8 73 9 74 10 75
REMARK SMILES IDX 15 76 11 77 14 78 12 79 13 80 16 81 17 82 23 83 18 84 21 85
REMARK SMILES IDX 19 86 22 87 20 88
REMARK H PARENT 80 22 48 33
REMARK Flexibility Score: inf
ROOT
ATOM      1  C   UNL A   1      34.333  33.489  29.520  1.00  0.00     0.275 C 
ENDROOT
BRANCH   1   2
ATOM      2  O   UNL A   1      35.233  32.939  28.563  1.00  0.00    -0.458 OA
BRANCH   2   3
ATOM      3  C   UNL A   1      35.024  31.640  28.248  1.00  0.00     0.338 C 
ATOM      4  O   UNL A   1      33.973  31.147  27.878  1.00  0.00    -0.246 OA
BRANCH   3   5
ATOM      5  C   UNL A   1      36.240  30.898  28.674  1.00  0.00     0.060 A 
ATOM      6  C   UNL A   1      36.125  29.839  29.592  1.00  0.00     0.016 A 
ATOM      7  C   UNL A   1      37.461  31.142  28.044  1.00  0.00     0.016 A 
ATOM      8  C   UNL A   1      37.215  29.050  29.895  1.00  0.00     0.010 A 
ATOM      9  C   UNL A   1      38.535  30.295  28.278  1.00  0.00     0.010 A 
ATOM     10  C   UNL A   1      38.424  29.284  29.245  1.00  0.00    -0.014 A 
BRANCH  10  11
ATOM     11  C   UNL A   1      39.646  28.645  29.751  1.00  0.00     0.031 A 
ATOM     12  C   UNL A   1      40.298  29.288  30.940  1.00  0.00     0.074 A 
ATOM     13  C   UNL A   1      40.132  27.542  29.158  1.00  0.00     0.049 A 
ATOM     14  N   UNL A   1      41.434  29.007  31.508  1.00  0.00    -0.248 NA
ATOM     15  C   UNL A   1      39.578  30.419  31.563  1.00  0.00     0.031 C 
ATOM     16  C   UNL A   1      39.527  26.846  28.022  1.00  0.00     0.029 A 
ATOM     17  N   UNL A   1      41.275  26.835  29.408  1.00  0.00    -0.354 N 
ATOM     18  C   UNL A   1      41.572  29.935  32.532  1.00  0.00     0.074 A 
ATOM     19  C   UNL A   1      40.451  30.838  32.463  1.00  0.00     0.031 C 
ATOM     20  C   UNL A   1      40.345  25.860  27.619  1.00  0.00     0.029 A 
ATOM     21  C   UNL A   1      41.520  25.851  28.481  1.00  0.00     0.049 A 
ATOM     22  H   UNL A   1      41.863  27.013  30.177  1.00  0.00     0.167 HD
ATOM     23  C   UNL A   1      42.520  29.979  33.492  1.00  0.00     0.034 A 
ATOM     24  C   UNL A   1      42.589  25.044  28.356  1.00  0.00     0.034 A 
ATOM     25  C   UNL A   1      43.575  29.013  33.576  1.00  0.00     0.049 A 
ATOM     26  C   UNL A   1      43.643  25.127  29.427  1.00  0.00     0.074 A 
ATOM     27  C   UNL A   1      44.561  28.895  34.533  1.00  0.00     0.029 A 
ATOM     28  N   UNL A   1      43.758  27.981  32.667  1.00  0.00    -0.354 N 
ATOM     29  N   UNL A   1      43.712  25.944  30.453  1.00  0.00    -0.248 NA
ATOM     30  C   UNL A   1      44.724  24.136  29.373  1.00  0.00     0.031 C 
ATOM     31  C   UNL A   1      45.347  27.788  34.200  1.00  0.00     0.029 A 
ATOM     32  C   UNL A   1      44.835  27.206  33.047  1.00  0.00     0.049 A 
ATOM     33  H   UNL A   1      43.203  27.823  31.870  1.00  0.00     0.167 HD
ATOM     34  C   UNL A   1      44.803  25.526  31.202  1.00  0.00     0.074 A 
ATOM     35  C   UNL A   1      45.361  24.379  30.511  1.00  0.00     0.031 C 
ATOM     36  C   UNL A   1      45.307  26.036  32.353  1.00  0.00     0.034 A 
BRANCH  23  37
ATOM     37  C   UNL A   1      42.391  31.032  34.558  1.00  0.00     0.023 A 
ATOM     38  C   UNL A   1      41.769  30.703  35.781  1.00  0.00     0.012 A 
ATOM     39  C   UNL A   1      42.918  32.322  34.375  1.00  0.00     0.148 A 
ATOM     40  C   UNL A   1      41.649  31.650  36.796  1.00  0.00     0.002 A 
ATOM     41  C   UNL A   1      42.837  33.247  35.409  1.00  0.00     0.091 A 
ATOM     42  F   UNL A   1      43.485  32.620  33.198  1.00  0.00    -0.205 F 
ATOM     43  C   UNL A   1      42.193  32.918  36.615  1.00  0.00     0.022 A 
BRANCH  41  44
ATOM     44  S   UNL A   1      43.565  34.886  35.312  1.00  0.00     0.127 S 
ATOM     45  O   UNL A   1      42.874  35.451  34.152  1.00  0.00    -0.237 OA
ATOM     46  O   UNL A   1      43.174  35.464  36.597  1.00  0.00    -0.237 OA
ATOM     47  O   UNL A   1      44.995  34.684  35.133  1.00  0.00    -0.744 OA
ENDBRANCH  41  44
ENDBRANCH  23  37
BRANCH  24  48
ATOM     48  C   UNL A   1      42.656  24.039  27.258  1.00  0.00     0.023 A 
ATOM     49  C   UNL A   1      43.338  24.362  26.068  1.00  0.00     0.012 A 
ATOM     50  C   UNL A   1      42.075  22.762  27.387  1.00  0.00     0.148 A 
ATOM     51  C   UNL A   1      43.399  23.454  25.010  1.00  0.00     0.002 A 
ATOM     52  C   UNL A   1      42.177  21.844  26.345  1.00  0.00     0.091 A 
ATOM     53  F   UNL A   1      41.436  22.466  28.528  1.00  0.00    -0.205 F 
ATOM     54  C   UNL A   1      42.823  22.195  25.150  1.00  0.00     0.022 A 
BRANCH  52  55
ATOM     55  S   UNL A   1      41.567  20.159  26.474  1.00  0.00     0.127 S 
ATOM     56  O   UNL A   1      40.120  20.360  26.428  1.00  0.00    -0.237 OA
ATOM     57  O   UNL A   1      42.140  19.536  25.279  1.00  0.00    -0.237 OA
ATOM     58  O   UNL A   1      42.099  19.646  27.730  1.00  0.00    -0.744 OA
ENDBRANCH  52  55
ENDBRANCH  24  48
BRANCH  36  59
ATOM     59  C   UNL A   1      46.482  25.325  32.962  1.00  0.00     0.023 A 
ATOM     60  C   UNL A   1      47.787  25.768  32.683  1.00  0.00     0.012 A 
ATOM     61  C   UNL A   1      46.278  24.282  33.885  1.00  0.00     0.148 A 
ATOM     62  C   UNL A   1      48.881  25.157  33.291  1.00  0.00     0.002 A 
ATOM     63  C   UNL A   1      47.368  23.720  34.532  1.00  0.00     0.091 A 
ATOM     64  F   UNL A   1      45.024  23.866  34.119  1.00  0.00    -0.205 F 
ATOM     65  C   UNL A   1      48.671  24.145  34.226  1.00  0.00     0.022 A 
BRANCH  63  66
ATOM     66  S   UNL A   1      47.177  22.502  35.837  1.00  0.00     0.127 S 
ATOM     67  O   UNL A   1      48.563  22.282  36.245  1.00  0.00    -0.237 OA
ATOM     68  O   UNL A   1      46.358  23.218  36.816  1.00  0.00    -0.237 OA
ATOM     69  O   UNL A   1      46.515  21.359  35.221  1.00  0.00    -0.744 OA
ENDBRANCH  63  66
ENDBRANCH  36  59
ENDBRANCH  10  11
ENDBRANCH   3   5
ENDBRANCH   2   3
ENDBRANCH   1   2
BRANCH   1  70
ATOM     70  C   UNL A   1      34.670  33.176  30.997  1.00  0.00     0.275 C 
BRANCH  70  71
ATOM     71  O   UNL A   1      36.075  33.074  31.303  1.00  0.00    -0.458 OA
BRANCH  71  72
ATOM     72  C   UNL A   1      36.691  34.158  31.852  1.00  0.00     0.338 C 
ATOM     73  O   UNL A   1      36.202  34.959  32.617  1.00  0.00    -0.246 OA
BRANCH  72  74
ATOM     74  C   UNL A   1      38.082  34.235  31.320  1.00  0.00     0.068 A 
ATOM     75  C   UNL A   1      38.243  34.424  29.932  1.00  0.00     0.019 A 
ATOM     76  C   UNL A   1      39.213  34.183  32.166  1.00  0.00    -0.001 A 
ATOM     77  C   UNL A   1      39.522  34.525  29.376  1.00  0.00     0.040 A 
ATOM     78  C   UNL A   1      40.489  34.221  31.562  1.00  0.00     0.048 A 
ATOM     79  C   UNL A   1      40.631  34.386  30.191  1.00  0.00     0.123 A 
ATOM     80  F   UNL A   1      41.859  34.426  29.661  1.00  0.00    -0.207 F 
BRANCH  76  81
ATOM     81  C   UNL A   1      39.166  34.132  33.635  1.00  0.00    -0.016 A 
ATOM     82  C   UNL A   1      39.485  35.241  34.427  1.00  0.00     0.012 A 
ATOM     83  C   UNL A   1      38.679  32.985  34.283  1.00  0.00     0.032 A 
ATOM     84  C   UNL A   1      39.323  35.231  35.812  1.00  0.00     0.041 A 
ATOM     85  C   UNL A   1      38.517  32.966  35.671  1.00  0.00     0.077 A 
ATOM     86  C   UNL A   1      38.836  34.090  36.428  1.00  0.00     0.141 A 
ATOM     87  Cl  UNL A   1      37.892  31.553  36.432  1.00  0.00    -0.081 Cl
ATOM     88  F   UNL A   1      38.673  34.098  37.760  1.00  0.00    -0.205 F 
ENDBRANCH  76  81
ENDBRANCH  72  74
ENDBRANCH  71  72
ENDBRANCH  70  71
ENDBRANCH   1  70
TORSDOF 15
ENDMDL
