MODEL 1
REMARK VINA RESULT:     -13.8      0.000      0.000
REMARK SMILES C[C@@H](Oc1ccc(/C=C2\C(=O)[NH+]=C(OCCOC(=O)c3ccc(-c4c5nc(c(-c6cccc(S(=O)(=O)[O-])c6F)c6ccc([nH]6)c(-c6cccc(S(=O)(=O)[O-])c6F)c6nc(c(-c7cccc(S(=O)(=O)[O-])c7F)c7ccc4[nH]7)C=C6)C=C5)cc3)N(c3ccc4c(c3)OCO4)C2=O)cc1)C(=O)[O-]
REMARK SMILES IDX 15 1 14 2 13 3 8 4 9 5 10 6 93 7 11 8 12 9 83 10 94 11 7 13
REMARK SMILES IDX 4 14 5 15 96 16 6 17 95 18 3 19 2 20 1 21 97 22 98 23 99 24
REMARK SMILES IDX 84 25 85 26 89 27 86 28 88 29 87 30 90 31 92 32 91 33 16 34
REMARK SMILES IDX 17 35 18 36 19 37 20 38 21 39 82 40 22 41 81 42 23 43 24 44
REMARK SMILES IDX 25 45 75 46 26 47 80 48 74 49 76 50 27 51 79 52 73 53 72 54
REMARK SMILES IDX 28 56 60 57 40 58 59 59 41 60 44 61 58 62 77 63 42 64 43 65
REMARK SMILES IDX 57 67 78 68 45 69 29 70 30 71 38 72 31 73 33 74 39 75 32 76
REMARK SMILES IDX 34 77 35 78 36 79 37 80 61 81 62 82 70 83 63 84 65 85 71 86
REMARK SMILES IDX 64 87 66 88 67 89 68 90 69 91 46 92 47 93 55 94 48 95 50 96
REMARK SMILES IDX 56 97 49 98 51 99 52 100 53 101 54 102
REMARK H PARENT 12 12 76 55 44 66
REMARK Flexibility Score: inf
ROOT
ATOM      1  C   UNL A   1      32.687  30.465  26.081  1.00  0.00     0.279 C 
ENDROOT
BRANCH   1   2
ATOM      2  O   UNL A   1      32.091  30.070  24.823  1.00  0.00    -0.427 OA
BRANCH   2   3
ATOM      3  C   UNL A   1      31.834  28.767  24.543  1.00  0.00     0.465 C 
ATOM      4  C   UNL A   1      30.613  24.899  24.054  1.00  0.00     0.032 C 
ATOM      5  C   UNL A   1      31.063  26.158  24.281  1.00  0.00     0.155 C 
ATOM      6  C   UNL A   1      32.424  26.541  24.741  1.00  0.00     0.349 C 
ATOM      7  C   UNL A   1      30.109  27.243  23.896  1.00  0.00     0.357 C 
ATOM      8  O   UNL A   1      33.312  25.720  24.917  1.00  0.00    -0.240 OA
ATOM      9  N   UNL A   1      32.655  27.874  24.957  1.00  0.00    -0.171 N 
ATOM     10  N   UNL A   1      30.620  28.526  23.946  1.00  0.00    -0.123 N 
ATOM     11  O   UNL A   1      28.965  26.982  23.526  1.00  0.00    -0.240 OA
ATOM     12  H   UNL A   1      33.468  28.151  25.438  1.00  0.00     0.319 HD
BRANCH   4  13
ATOM     13  C   UNL A   1      31.219  23.553  24.147  1.00  0.00    -0.024 A 
ATOM     14  C   UNL A   1      32.250  20.916  24.054  1.00  0.00     0.120 A 
ATOM     15  C   UNL A   1      31.688  21.422  25.226  1.00  0.00     0.047 A 
ATOM     16  C   UNL A   1      32.284  21.715  22.919  1.00  0.00     0.047 A 
ATOM     17  C   UNL A   1      31.169  22.727  25.271  1.00  0.00     0.012 A 
ATOM     18  C   UNL A   1      31.772  23.017  22.969  1.00  0.00     0.012 A 
BRANCH  14  19
ATOM     19  O   UNL A   1      32.552  19.585  24.033  1.00  0.00    -0.485 OA
BRANCH  19  20
ATOM     20  C   UNL A   1      33.625  19.152  24.882  1.00  0.00     0.216 C 
ATOM     21  C   UNL A   1      34.823  20.097  24.875  1.00  0.00     0.059 C 
BRANCH  20  22
ATOM     22  C   UNL A   1      34.091  17.814  24.315  1.00  0.00     0.082 C 
ATOM     23  O   UNL A   1      35.194  17.308  24.466  1.00  0.00    -0.546 OA
ATOM     24  O   UNL A   1      33.170  17.191  23.545  1.00  0.00    -0.546 OA
ENDBRANCH  20  22
ENDBRANCH  19  20
ENDBRANCH  14  19
ENDBRANCH   4  13
BRANCH  10  25
ATOM     25  C   UNL A   1      29.842  29.595  23.408  1.00  0.00     0.144 A 
ATOM     26  C   UNL A   1      29.529  30.711  24.219  1.00  0.00     0.056 A 
ATOM     27  C   UNL A   1      29.435  29.579  22.072  1.00  0.00     0.103 A 
ATOM     28  C   UNL A   1      28.804  31.797  23.730  1.00  0.00     0.055 A 
ATOM     29  C   UNL A   1      28.736  30.674  21.607  1.00  0.00     0.170 A 
ATOM     30  C   UNL A   1      28.431  31.750  22.412  1.00  0.00     0.166 A 
ATOM     31  O   UNL A   1      28.289  30.851  20.334  1.00  0.00    -0.453 OA
ATOM     32  O   UNL A   1      27.772  32.731  21.740  1.00  0.00    -0.454 OA
ATOM     33  C   UNL A   1      27.906  32.241  20.390  1.00  0.00     0.468 C 
ENDBRANCH  10  25
ENDBRANCH   2   3
ENDBRANCH   1   2
BRANCH   1  34
ATOM     34  C   UNL A   1      32.157  31.728  26.764  1.00  0.00     0.275 C 
BRANCH  34  35
ATOM     35  O   UNL A   1      32.867  31.959  27.995  1.00  0.00    -0.458 OA
BRANCH  35  36
ATOM     36  C   UNL A   1      33.776  32.963  27.953  1.00  0.00     0.338 C 
ATOM     37  O   UNL A   1      33.533  34.145  27.788  1.00  0.00    -0.246 OA
BRANCH  36  38
ATOM     38  C   UNL A   1      35.109  32.433  28.330  1.00  0.00     0.060 A 
ATOM     39  C   UNL A   1      35.164  31.111  28.776  1.00  0.00     0.016 A 
ATOM     40  C   UNL A   1      36.287  33.190  28.263  1.00  0.00     0.016 A 
ATOM     41  C   UNL A   1      36.384  30.545  29.145  1.00  0.00     0.010 A 
ATOM     42  C   UNL A   1      37.515  32.619  28.643  1.00  0.00     0.010 A 
ATOM     43  C   UNL A   1      37.569  31.291  29.094  1.00  0.00    -0.014 A 
BRANCH  43  44
ATOM     44  C   UNL A   1      38.785  30.695  29.707  1.00  0.00     0.031 A 
ATOM     45  C   UNL A   1      39.128  31.084  31.119  1.00  0.00     0.074 A 
ATOM     46  C   UNL A   1      39.509  29.741  29.092  1.00  0.00     0.049 A 
ATOM     47  N   UNL A   1      39.989  30.544  31.941  1.00  0.00    -0.248 NA
ATOM     48  C   UNL A   1      38.375  32.214  31.686  1.00  0.00     0.031 C 
ATOM     49  C   UNL A   1      39.286  29.241  27.738  1.00  0.00     0.029 A 
ATOM     50  N   UNL A   1      40.579  29.006  29.549  1.00  0.00    -0.354 N 
ATOM     51  C   UNL A   1      39.866  31.251  33.130  1.00  0.00     0.074 A 
ATOM     52  C   UNL A   1      38.861  32.270  32.917  1.00  0.00     0.031 C 
ATOM     53  C   UNL A   1      40.195  28.284  27.472  1.00  0.00     0.029 A 
ATOM     54  C   UNL A   1      41.069  28.105  28.633  1.00  0.00     0.049 A 
ATOM     55  H   UNL A   1      40.960  29.117  30.451  1.00  0.00     0.167 HD
ATOM     56  C   UNL A   1      40.515  31.067  34.304  1.00  0.00     0.034 A 
ATOM     57  C   UNL A   1      42.100  27.237  28.722  1.00  0.00     0.034 A 
ATOM     58  C   UNL A   1      41.551  30.097  34.522  1.00  0.00     0.049 A 
ATOM     59  C   UNL A   1      42.873  27.118  30.016  1.00  0.00     0.074 A 
ATOM     60  C   UNL A   1      42.277  29.863  35.677  1.00  0.00     0.029 A 
ATOM     61  N   UNL A   1      42.036  29.227  33.561  1.00  0.00    -0.354 N 
ATOM     62  N   UNL A   1      42.646  27.689  31.174  1.00  0.00    -0.248 NA
ATOM     63  C   UNL A   1      44.029  26.205  30.021  1.00  0.00     0.031 C 
ATOM     64  C   UNL A   1      43.223  28.870  35.404  1.00  0.00     0.029 A 
ATOM     65  C   UNL A   1      43.066  28.467  34.089  1.00  0.00     0.049 A 
ATOM     66  H   UNL A   1      41.698  29.158  32.639  1.00  0.00     0.167 HD
ATOM     67  C   UNL A   1      43.604  27.179  32.048  1.00  0.00     0.074 A 
ATOM     68  C   UNL A   1      44.399  26.234  31.294  1.00  0.00     0.031 C 
ATOM     69  C   UNL A   1      43.815  27.480  33.354  1.00  0.00     0.034 A 
BRANCH  56  70
ATOM     70  C   UNL A   1      40.106  31.947  35.449  1.00  0.00     0.023 A 
ATOM     71  C   UNL A   1      40.786  33.162  35.665  1.00  0.00     0.012 A 
ATOM     72  C   UNL A   1      39.049  31.578  36.301  1.00  0.00     0.148 A 
ATOM     73  C   UNL A   1      40.436  33.988  36.732  1.00  0.00     0.002 A 
ATOM     74  C   UNL A   1      38.685  32.422  37.343  1.00  0.00     0.091 A 
ATOM     75  F   UNL A   1      38.440  30.403  36.092  1.00  0.00    -0.205 F 
ATOM     76  C   UNL A   1      39.381  33.622  37.564  1.00  0.00     0.022 A 
BRANCH  74  77
ATOM     77  S   UNL A   1      37.312  32.057  38.439  1.00  0.00     0.127 S 
ATOM     78  O   UNL A   1      37.157  30.616  38.247  1.00  0.00    -0.237 OA
ATOM     79  O   UNL A   1      37.847  32.446  39.744  1.00  0.00    -0.237 OA
ATOM     80  O   UNL A   1      36.200  32.874  37.973  1.00  0.00    -0.744 OA
ENDBRANCH  74  77
ENDBRANCH  56  70
BRANCH  57  81
ATOM     81  C   UNL A   1      42.464  26.371  27.561  1.00  0.00     0.023 A 
ATOM     82  C   UNL A   1      43.186  26.917  26.481  1.00  0.00     0.012 A 
ATOM     83  C   UNL A   1      42.055  25.025  27.500  1.00  0.00     0.148 A 
ATOM     84  C   UNL A   1      43.461  26.149  25.348  1.00  0.00     0.002 A 
ATOM     85  C   UNL A   1      42.377  24.251  26.390  1.00  0.00     0.091 A 
ATOM     86  F   UNL A   1      41.342  24.530  28.522  1.00  0.00    -0.205 F 
ATOM     87  C   UNL A   1      43.064  24.816  25.305  1.00  0.00     0.022 A 
BRANCH  85  88
ATOM     88  S   UNL A   1      41.991  22.500  26.295  1.00  0.00     0.127 S 
ATOM     89  O   UNL A   1      42.596  21.992  27.523  1.00  0.00    -0.237 OA
ATOM     90  O   UNL A   1      40.529  22.511  26.286  1.00  0.00    -0.237 OA
ATOM     91  O   UNL A   1      42.594  22.032  25.053  1.00  0.00    -0.744 OA
ENDBRANCH  85  88
ENDBRANCH  57  81
BRANCH  69  92
ATOM     92  C   UNL A   1      44.931  26.769  34.081  1.00  0.00     0.023 A 
ATOM     93  C   UNL A   1      46.181  27.400  34.236  1.00  0.00     0.012 A 
ATOM     94  C   UNL A   1      44.710  25.521  34.699  1.00  0.00     0.148 A 
ATOM     95  C   UNL A   1      47.200  26.791  34.969  1.00  0.00     0.002 A 
ATOM     96  C   UNL A   1      45.714  24.941  35.468  1.00  0.00     0.091 A 
ATOM     97  F   UNL A   1      43.521  24.923  34.527  1.00  0.00    -0.205 F 
ATOM     98  C   UNL A   1      46.963  25.569  35.595  1.00  0.00     0.022 A 
BRANCH  96  99
ATOM     99  S   UNL A   1      45.460  23.421  36.393  1.00  0.00     0.127 S 
ATOM    100  O   UNL A   1      44.298  22.848  35.714  1.00  0.00    -0.237 OA
ATOM    101  O   UNL A   1      46.715  22.702  36.166  1.00  0.00    -0.237 OA
ATOM    102  O   UNL A   1      45.242  23.827  37.775  1.00  0.00    -0.744 OA
ENDBRANCH  96  99
ENDBRANCH  69  92
ENDBRANCH  43  44
ENDBRANCH  36  38
ENDBRANCH  35  36
ENDBRANCH  34  35
ENDBRANCH   1  34
TORSDOF 18
ENDMDL
MODEL 2
REMARK VINA RESULT:     -13.2      2.293      7.477
REMARK SMILES C[C@@H](Oc1ccc(/C=C2\C(=O)[NH+]=C(OCCOC(=O)c3ccc(-c4c5nc(c(-c6cccc(S(=O)(=O)[O-])c6F)c6ccc([nH]6)c(-c6cccc(S(=O)(=O)[O-])c6F)c6nc(c(-c7cccc(S(=O)(=O)[O-])c7F)c7ccc4[nH]7)C=C6)C=C5)cc3)N(c3ccc4c(c3)OCO4)C2=O)cc1)C(=O)[O-]
REMARK SMILES IDX 15 1 14 2 13 3 8 4 9 5 10 6 93 7 11 8 12 9 83 10 94 11 7 13
REMARK SMILES IDX 4 14 5 15 96 16 6 17 95 18 3 19 2 20 1 21 97 22 98 23 99 24
REMARK SMILES IDX 84 25 85 26 89 27 86 28 88 29 87 30 90 31 92 32 91 33 16 34
REMARK SMILES IDX 17 35 18 36 19 37 20 38 21 39 82 40 22 41 81 42 23 43 24 44
REMARK SMILES IDX 25 45 75 46 26 47 80 48 74 49 76 50 27 51 79 52 73 53 72 54
REMARK SMILES IDX 28 56 60 57 40 58 59 59 41 60 44 61 58 62 77 63 42 64 43 65
REMARK SMILES IDX 57 67 78 68 45 69 29 70 30 71 38 72 31 73 33 74 39 75 32 76
REMARK SMILES IDX 34 77 35 78 36 79 37 80 61 81 62 82 70 83 63 84 65 85 71 86
REMARK SMILES IDX 64 87 66 88 67 89 68 90 69 91 46 92 47 93 55 94 48 95 50 96
REMARK SMILES IDX 56 97 49 98 51 99 52 100 53 101 54 102
REMARK H PARENT 12 12 76 55 44 66
REMARK Flexibility Score: inf
ROOT
ATOM      1  C   UNL A   1      31.732  29.010  26.936  1.00  0.00     0.279 C 
ENDROOT
BRANCH   1   2
ATOM      2  O   UNL A   1      31.190  28.530  25.684  1.00  0.00    -0.427 OA
BRANCH   2   3
ATOM      3  C   UNL A   1      31.369  27.244  25.285  1.00  0.00     0.465 C 
ATOM      4  C   UNL A   1      31.364  23.290  24.259  1.00  0.00     0.032 C 
ATOM      5  C   UNL A   1      31.390  24.580  24.675  1.00  0.00     0.155 C 
ATOM      6  C   UNL A   1      32.376  25.189  25.607  1.00  0.00     0.349 C 
ATOM      7  C   UNL A   1      30.392  25.473  24.010  1.00  0.00     0.357 C 
ATOM      8  O   UNL A   1      33.321  24.563  26.063  1.00  0.00    -0.240 OA
ATOM      9  N   UNL A   1      32.190  26.505  25.936  1.00  0.00    -0.171 N 
ATOM     10  N   UNL A   1      30.528  26.821  24.284  1.00  0.00    -0.123 N 
ATOM     11  O   UNL A   1      29.543  25.018  23.244  1.00  0.00    -0.240 OA
ATOM     12  H   UNL A   1      32.696  26.891  26.687  1.00  0.00     0.319 HD
BRANCH   4  13
ATOM     13  C   UNL A   1      32.209  22.103  24.518  1.00  0.00    -0.024 A 
ATOM     14  C   UNL A   1      33.852  19.803  24.710  1.00  0.00     0.120 A 
ATOM     15  C   UNL A   1      32.718  19.941  25.511  1.00  0.00     0.047 A 
ATOM     16  C   UNL A   1      34.160  20.802  23.798  1.00  0.00     0.047 A 
ATOM     17  C   UNL A   1      31.898  21.077  25.411  1.00  0.00     0.012 A 
ATOM     18  C   UNL A   1      33.346  21.937  23.704  1.00  0.00     0.012 A 
BRANCH  14  19
ATOM     19  O   UNL A   1      34.482  18.592  24.726  1.00  0.00    -0.485 OA
BRANCH  19  20
ATOM     20  C   UNL A   1      33.647  17.428  24.651  1.00  0.00     0.216 C 
ATOM     21  C   UNL A   1      34.257  16.200  25.320  1.00  0.00     0.059 C 
BRANCH  20  22
ATOM     22  C   UNL A   1      33.501  17.116  23.164  1.00  0.00     0.082 C 
ATOM     23  O   UNL A   1      32.681  17.603  22.398  1.00  0.00    -0.546 OA
ATOM     24  O   UNL A   1      34.359  16.173  22.712  1.00  0.00    -0.546 OA
ENDBRANCH  20  22
ENDBRANCH  19  20
ENDBRANCH  14  19
ENDBRANCH   4  13
BRANCH  10  25
ATOM     25  C   UNL A   1      29.747  27.754  23.539  1.00  0.00     0.144 A 
ATOM     26  C   UNL A   1      28.349  27.817  23.744  1.00  0.00     0.056 A 
ATOM     27  C   UNL A   1      30.354  28.645  22.650  1.00  0.00     0.103 A 
ATOM     28  C   UNL A   1      27.546  28.736  23.068  1.00  0.00     0.055 A 
ATOM     29  C   UNL A   1      29.541  29.557  22.009  1.00  0.00     0.170 A 
ATOM     30  C   UNL A   1      28.179  29.601  22.213  1.00  0.00     0.166 A 
ATOM     31  O   UNL A   1      29.955  30.519  21.140  1.00  0.00    -0.453 OA
ATOM     32  O   UNL A   1      27.581  30.599  21.510  1.00  0.00    -0.454 OA
ATOM     33  C   UNL A   1      28.747  31.301  21.034  1.00  0.00     0.468 C 
ENDBRANCH  10  25
ENDBRANCH   2   3
ENDBRANCH   1   2
BRANCH   1  34
ATOM     34  C   UNL A   1      32.732  30.168  26.891  1.00  0.00     0.275 C 
BRANCH  34  35
ATOM     35  O   UNL A   1      34.001  29.746  27.425  1.00  0.00    -0.458 OA
BRANCH  35  36
ATOM     36  C   UNL A   1      34.821  30.750  27.818  1.00  0.00     0.338 C 
ATOM     37  O   UNL A   1      34.499  31.909  28.002  1.00  0.00    -0.246 OA
BRANCH  36  38
ATOM     38  C   UNL A   1      36.145  30.187  28.181  1.00  0.00     0.060 A 
ATOM     39  C   UNL A   1      36.251  29.566  29.427  1.00  0.00     0.016 A 
ATOM     40  C   UNL A   1      37.269  30.259  27.346  1.00  0.00     0.016 A 
ATOM     41  C   UNL A   1      37.465  29.011  29.833  1.00  0.00     0.010 A 
ATOM     42  C   UNL A   1      38.493  29.707  27.761  1.00  0.00     0.010 A 
ATOM     43  C   UNL A   1      38.600  29.084  29.014  1.00  0.00    -0.014 A 
BRANCH  43  44
ATOM     44  C   UNL A   1      39.901  28.671  29.603  1.00  0.00     0.031 A 
ATOM     45  C   UNL A   1      40.608  27.489  28.998  1.00  0.00     0.074 A 
ATOM     46  C   UNL A   1      40.515  29.384  30.566  1.00  0.00     0.049 A 
ATOM     47  N   UNL A   1      41.835  27.076  29.179  1.00  0.00    -0.248 NA
ATOM     48  C   UNL A   1      39.832  26.685  28.040  1.00  0.00     0.031 C 
ATOM     49  C   UNL A   1      39.971  30.565  31.232  1.00  0.00     0.029 A 
ATOM     50  N   UNL A   1      41.756  29.218  31.138  1.00  0.00    -0.354 N 
ATOM     51  C   UNL A   1      41.989  25.981  28.339  1.00  0.00     0.074 A 
ATOM     52  C   UNL A   1      40.724  25.781  27.664  1.00  0.00     0.031 C 
ATOM     53  C   UNL A   1      40.872  31.015  32.126  1.00  0.00     0.029 A 
ATOM     54  C   UNL A   1      42.056  30.154  32.101  1.00  0.00     0.049 A 
ATOM     55  H   UNL A   1      42.373  28.494  30.882  1.00  0.00     0.167 HD
ATOM     56  C   UNL A   1      43.084  25.212  28.131  1.00  0.00     0.034 A 
ATOM     57  C   UNL A   1      43.156  30.298  32.871  1.00  0.00     0.034 A 
ATOM     58  C   UNL A   1      44.331  25.360  28.826  1.00  0.00     0.049 A 
ATOM     59  C   UNL A   1      44.331  29.364  32.685  1.00  0.00     0.074 A 
ATOM     60  C   UNL A   1      45.483  24.605  28.690  1.00  0.00     0.029 A 
ATOM     61  N   UNL A   1      44.581  26.298  29.812  1.00  0.00    -0.354 N 
ATOM     62  N   UNL A   1      44.514  28.429  31.785  1.00  0.00    -0.248 NA
ATOM     63  C   UNL A   1      45.469  29.532  33.606  1.00  0.00     0.031 C 
ATOM     64  C   UNL A   1      46.421  25.069  29.618  1.00  0.00     0.029 A 
ATOM     65  C   UNL A   1      45.862  26.130  30.310  1.00  0.00     0.049 A 
ATOM     66  H   UNL A   1      43.943  26.984  30.115  1.00  0.00     0.167 HD
ATOM     67  C   UNL A   1      45.794  27.925  32.009  1.00  0.00     0.074 A 
ATOM     68  C   UNL A   1      46.353  28.675  33.113  1.00  0.00     0.031 C 
ATOM     69  C   UNL A   1      46.441  26.920  31.367  1.00  0.00     0.034 A 
BRANCH  56  70
ATOM     70  C   UNL A   1      42.967  24.136  27.090  1.00  0.00     0.023 A 
ATOM     71  C   UNL A   1      43.498  24.358  25.804  1.00  0.00     0.012 A 
ATOM     72  C   UNL A   1      42.346  22.910  27.387  1.00  0.00     0.148 A 
ATOM     73  C   UNL A   1      43.388  23.381  24.816  1.00  0.00     0.002 A 
ATOM     74  C   UNL A   1      42.268  21.929  26.406  1.00  0.00     0.091 A 
ATOM     75  F   UNL A   1      41.823  22.737  28.608  1.00  0.00    -0.205 F 
ATOM     76  C   UNL A   1      42.781  22.165  25.120  1.00  0.00     0.022 A 
BRANCH  74  77
ATOM     77  S   UNL A   1      41.546  20.315  26.717  1.00  0.00     0.127 S 
ATOM     78  O   UNL A   1      42.333  19.856  27.860  1.00  0.00    -0.237 OA
ATOM     79  O   UNL A   1      40.157  20.654  27.027  1.00  0.00    -0.237 OA
ATOM     80  O   UNL A   1      41.724  19.554  25.488  1.00  0.00    -0.744 OA
ENDBRANCH  74  77
ENDBRANCH  56  70
BRANCH  57  81
ATOM     81  C   UNL A   1      43.234  31.391  33.886  1.00  0.00     0.023 A 
ATOM     82  C   UNL A   1      43.971  32.557  33.602  1.00  0.00     0.012 A 
ATOM     83  C   UNL A   1      42.623  31.257  35.147  1.00  0.00     0.148 A 
ATOM     84  C   UNL A   1      44.130  33.552  34.568  1.00  0.00     0.002 A 
ATOM     85  C   UNL A   1      42.742  32.275  36.087  1.00  0.00     0.091 A 
ATOM     86  F   UNL A   1      41.951  30.128  35.412  1.00  0.00    -0.205 F 
ATOM     87  C   UNL A   1      43.510  33.415  35.807  1.00  0.00     0.022 A 
BRANCH  85  88
ATOM     88  S   UNL A   1      41.895  32.226  37.671  1.00  0.00     0.127 S 
ATOM     89  O   UNL A   1      42.658  31.207  38.387  1.00  0.00    -0.237 OA
ATOM     90  O   UNL A   1      42.082  33.592  38.158  1.00  0.00    -0.237 OA
ATOM     91  O   UNL A   1      40.512  31.882  37.365  1.00  0.00    -0.744 OA
ENDBRANCH  85  88
ENDBRANCH  57  81
BRANCH  69  92
ATOM     92  C   UNL A   1      47.842  26.573  31.808  1.00  0.00     0.023 A 
ATOM     93  C   UNL A   1      48.939  27.281  31.280  1.00  0.00     0.012 A 
ATOM     94  C   UNL A   1      48.064  25.617  32.821  1.00  0.00     0.148 A 
ATOM     95  C   UNL A   1      50.235  27.026  31.730  1.00  0.00     0.002 A 
ATOM     96  C   UNL A   1      49.352  25.403  33.300  1.00  0.00     0.091 A 
ATOM     97  F   UNL A   1      47.012  24.938  33.302  1.00  0.00    -0.205 F 
ATOM     98  C   UNL A   1      50.440  26.098  32.749  1.00  0.00     0.022 A 
BRANCH  96  99
ATOM     99  S   UNL A   1      49.694  24.301  34.679  1.00  0.00     0.127 S 
ATOM    100  O   UNL A   1      49.417  22.992  34.092  1.00  0.00    -0.237 OA
ATOM    101  O   UNL A   1      51.109  24.563  34.947  1.00  0.00    -0.237 OA
ATOM    102  O   UNL A   1      48.795  24.713  35.749  1.00  0.00    -0.744 OA
ENDBRANCH  96  99
ENDBRANCH  69  92
ENDBRANCH  43  44
ENDBRANCH  36  38
ENDBRANCH  35  36
ENDBRANCH  34  35
ENDBRANCH   1  34
TORSDOF 18
ENDMDL
MODEL 3
REMARK VINA RESULT:     -12.8      2.353      2.796
REMARK SMILES C[C@@H](Oc1ccc(/C=C2\C(=O)[NH+]=C(OCCOC(=O)c3ccc(-c4c5nc(c(-c6cccc(S(=O)(=O)[O-])c6F)c6ccc([nH]6)c(-c6cccc(S(=O)(=O)[O-])c6F)c6nc(c(-c7cccc(S(=O)(=O)[O-])c7F)c7ccc4[nH]7)C=C6)C=C5)cc3)N(c3ccc4c(c3)OCO4)C2=O)cc1)C(=O)[O-]
REMARK SMILES IDX 15 1 14 2 13 3 8 4 9 5 10 6 93 7 11 8 12 9 83 10 94 11 7 13
REMARK SMILES IDX 4 14 5 15 96 16 6 17 95 18 3 19 2 20 1 21 97 22 98 23 99 24
REMARK SMILES IDX 84 25 85 26 89 27 86 28 88 29 87 30 90 31 92 32 91 33 16 34
REMARK SMILES IDX 17 35 18 36 19 37 20 38 21 39 82 40 22 41 81 42 23 43 24 44
REMARK SMILES IDX 25 45 75 46 26 47 80 48 74 49 76 50 27 51 79 52 73 53 72 54
REMARK SMILES IDX 28 56 60 57 40 58 59 59 41 60 44 61 58 62 77 63 42 64 43 65
REMARK SMILES IDX 57 67 78 68 45 69 29 70 30 71 38 72 31 73 33 74 39 75 32 76
REMARK SMILES IDX 34 77 35 78 36 79 37 80 61 81 62 82 70 83 63 84 65 85 71 86
REMARK SMILES IDX 64 87 66 88 67 89 68 90 69 91 46 92 47 93 55 94 48 95 50 96
REMARK SMILES IDX 56 97 49 98 51 99 52 100 53 101 54 102
REMARK H PARENT 12 12 76 55 44 66
REMARK Flexibility Score: inf
ROOT
ATOM      1  C   UNL A   1      32.416  30.357  25.813  1.00  0.00     0.279 C 
ENDROOT
BRANCH   1   2
ATOM      2  O   UNL A   1      32.327  29.866  24.455  1.00  0.00    -0.427 OA
BRANCH   2   3
ATOM      3  C   UNL A   1      31.990  28.577  24.192  1.00  0.00     0.465 C 
ATOM      4  C   UNL A   1      30.572  24.765  23.806  1.00  0.00     0.032 C 
ATOM      5  C   UNL A   1      31.094  26.003  23.993  1.00  0.00     0.155 C 
ATOM      6  C   UNL A   1      32.512  26.328  24.297  1.00  0.00     0.349 C 
ATOM      7  C   UNL A   1      30.144  27.128  23.733  1.00  0.00     0.357 C 
ATOM      8  O   UNL A   1      33.382  25.473  24.361  1.00  0.00    -0.240 OA
ATOM      9  N   UNL A   1      32.818  27.648  24.499  1.00  0.00    -0.171 N 
ATOM     10  N   UNL A   1      30.707  28.391  23.737  1.00  0.00    -0.123 N 
ATOM     11  O   UNL A   1      28.956  26.915  23.494  1.00  0.00    -0.240 OA
ATOM     12  H   UNL A   1      33.690  27.888  24.886  1.00  0.00     0.319 HD
BRANCH   4  13
ATOM     13  C   UNL A   1      31.132  23.396  23.814  1.00  0.00    -0.024 A 
ATOM     14  C   UNL A   1      32.381  20.864  24.062  1.00  0.00     0.120 A 
ATOM     15  C   UNL A   1      32.179  21.442  22.809  1.00  0.00     0.047 A 
ATOM     16  C   UNL A   1      31.976  21.554  25.198  1.00  0.00     0.047 A 
ATOM     17  C   UNL A   1      31.568  22.702  22.685  1.00  0.00     0.012 A 
ATOM     18  C   UNL A   1      31.362  22.805  25.071  1.00  0.00     0.012 A 
BRANCH  14  19
ATOM     19  O   UNL A   1      33.151  19.739  24.112  1.00  0.00    -0.485 OA
BRANCH  19  20
ATOM     20  C   UNL A   1      32.463  18.492  24.285  1.00  0.00     0.216 C 
ATOM     21  C   UNL A   1      32.741  17.827  25.630  1.00  0.00     0.059 C 
BRANCH  20  22
ATOM     22  C   UNL A   1      32.999  17.567  23.196  1.00  0.00     0.082 C 
ATOM     23  O   UNL A   1      33.836  16.687  23.339  1.00  0.00    -0.546 OA
ATOM     24  O   UNL A   1      32.494  17.815  21.965  1.00  0.00    -0.546 OA
ENDBRANCH  20  22
ENDBRANCH  19  20
ENDBRANCH  14  19
ENDBRANCH   4  13
BRANCH  10  25
ATOM     25  C   UNL A   1      29.914  29.496  23.304  1.00  0.00     0.144 A 
ATOM     26  C   UNL A   1      29.537  30.494  24.232  1.00  0.00     0.056 A 
ATOM     27  C   UNL A   1      29.554  29.632  21.961  1.00  0.00     0.103 A 
ATOM     28  C   UNL A   1      28.795  31.611  23.851  1.00  0.00     0.055 A 
ATOM     29  C   UNL A   1      28.836  30.756  21.606  1.00  0.00     0.170 A 
ATOM     30  C   UNL A   1      28.470  31.717  22.524  1.00  0.00     0.166 A 
ATOM     31  O   UNL A   1      28.428  31.076  20.348  1.00  0.00    -0.453 OA
ATOM     32  O   UNL A   1      27.803  32.754  21.952  1.00  0.00    -0.454 OA
ATOM     33  C   UNL A   1      27.999  32.438  20.559  1.00  0.00     0.468 C 
ENDBRANCH  10  25
ENDBRANCH   2   3
ENDBRANCH   1   2
BRANCH   1  34
ATOM     34  C   UNL A   1      33.540  29.818  26.701  1.00  0.00     0.275 C 
BRANCH  34  35
ATOM     35  O   UNL A   1      33.539  30.501  27.968  1.00  0.00    -0.458 OA
BRANCH  35  36
ATOM     36  C   UNL A   1      34.378  31.562  28.049  1.00  0.00     0.338 C 
ATOM     37  O   UNL A   1      34.054  32.736  28.052  1.00  0.00    -0.246 OA
BRANCH  36  38
ATOM     38  C   UNL A   1      35.754  31.079  28.327  1.00  0.00     0.060 A 
ATOM     39  C   UNL A   1      35.906  29.718  28.594  1.00  0.00     0.016 A 
ATOM     40  C   UNL A   1      36.878  31.917  28.338  1.00  0.00     0.016 A 
ATOM     41  C   UNL A   1      37.171  29.193  28.861  1.00  0.00     0.010 A 
ATOM     42  C   UNL A   1      38.150  31.387  28.615  1.00  0.00     0.010 A 
ATOM     43  C   UNL A   1      38.302  30.018  28.886  1.00  0.00    -0.014 A 
BRANCH  43  44
ATOM     44  C   UNL A   1      39.572  29.431  29.392  1.00  0.00     0.031 A 
ATOM     45  C   UNL A   1      40.123  29.951  30.691  1.00  0.00     0.074 A 
ATOM     46  C   UNL A   1      40.169  28.382  28.795  1.00  0.00     0.049 A 
ATOM     47  N   UNL A   1      41.072  29.460  31.444  1.00  0.00    -0.248 NA
ATOM     48  C   UNL A   1      39.497  31.172  31.224  1.00  0.00     0.031 C 
ATOM     49  C   UNL A   1      39.741  27.751  27.549  1.00  0.00     0.029 A 
ATOM     50  N   UNL A   1      41.266  27.648  29.183  1.00  0.00    -0.354 N 
ATOM     51  C   UNL A   1      41.141  30.295  32.551  1.00  0.00     0.074 A 
ATOM     52  C   UNL A   1      40.152  31.335  32.363  1.00  0.00     0.031 C 
ATOM     53  C   UNL A   1      40.570  26.727  27.272  1.00  0.00     0.029 A 
ATOM     54  C   UNL A   1      41.591  26.630  28.316  1.00  0.00     0.049 A 
ATOM     55  H   UNL A   1      41.774  27.835  30.006  1.00  0.00     0.167 HD
ATOM     56  C   UNL A   1      41.943  30.206  33.639  1.00  0.00     0.034 A 
ATOM     57  C   UNL A   1      42.594  25.727  28.361  1.00  0.00     0.034 A 
ATOM     58  C   UNL A   1      42.964  29.214  33.823  1.00  0.00     0.049 A 
ATOM     59  C   UNL A   1      43.537  25.708  29.543  1.00  0.00     0.074 A 
ATOM     60  C   UNL A   1      43.837  29.070  34.887  1.00  0.00     0.029 A 
ATOM     61  N   UNL A   1      43.279  28.224  32.909  1.00  0.00    -0.354 N 
ATOM     62  N   UNL A   1      43.495  26.410  30.650  1.00  0.00    -0.248 NA
ATOM     63  C   UNL A   1      44.650  24.745  29.494  1.00  0.00     0.031 C 
ATOM     64  C   UNL A   1      44.701  28.007  34.602  1.00  0.00     0.029 A 
ATOM     65  C   UNL A   1      44.347  27.474  33.373  1.00  0.00     0.049 A 
ATOM     66  H   UNL A   1      42.814  28.074  32.055  1.00  0.00     0.167 HD
ATOM     67  C   UNL A   1      44.548  25.950  31.437  1.00  0.00     0.074 A 
ATOM     68  C   UNL A   1      45.196  24.891  30.694  1.00  0.00     0.031 C 
ATOM     69  C   UNL A   1      44.951  26.378  32.660  1.00  0.00     0.034 A 
BRANCH  56  70
ATOM     70  C   UNL A   1      41.729  31.222  34.723  1.00  0.00     0.023 A 
ATOM     71  C   UNL A   1      40.785  30.964  35.737  1.00  0.00     0.012 A 
ATOM     72  C   UNL A   1      42.465  32.421  34.743  1.00  0.00     0.148 A 
ATOM     73  C   UNL A   1      40.557  31.900  36.744  1.00  0.00     0.002 A 
ATOM     74  C   UNL A   1      42.254  33.334  35.768  1.00  0.00     0.091 A 
ATOM     75  F   UNL A   1      43.333  32.655  33.750  1.00  0.00    -0.205 F 
ATOM     76  C   UNL A   1      41.297  33.080  36.764  1.00  0.00     0.022 A 
BRANCH  74  77
ATOM     77  S   UNL A   1      43.191  34.860  35.903  1.00  0.00     0.127 S 
ATOM     78  O   UNL A   1      42.779  35.565  34.691  1.00  0.00    -0.237 OA
ATOM     79  O   UNL A   1      42.674  35.430  37.148  1.00  0.00    -0.237 OA
ATOM     80  O   UNL A   1      44.592  34.465  35.954  1.00  0.00    -0.744 OA
ENDBRANCH  74  77
ENDBRANCH  56  70
BRANCH  57  81
ATOM     81  C   UNL A   1      42.762  24.725  27.267  1.00  0.00     0.023 A 
ATOM     82  C   UNL A   1      43.449  25.083  26.090  1.00  0.00     0.012 A 
ATOM     83  C   UNL A   1      42.200  23.437  27.366  1.00  0.00     0.148 A 
ATOM     84  C   UNL A   1      43.541  24.191  25.020  1.00  0.00     0.002 A 
ATOM     85  C   UNL A   1      42.340  22.535  26.317  1.00  0.00     0.091 A 
ATOM     86  F   UNL A   1      41.523  23.123  28.480  1.00  0.00    -0.205 F 
ATOM     87  C   UNL A   1      42.994  22.917  25.135  1.00  0.00     0.022 A 
BRANCH  85  88
ATOM     88  S   UNL A   1      41.753  20.841  26.419  1.00  0.00     0.127 S 
ATOM     89  O   UNL A   1      40.328  21.001  26.141  1.00  0.00    -0.237 OA
ATOM     90  O   UNL A   1      42.519  20.190  25.358  1.00  0.00    -0.237 OA
ATOM     91  O   UNL A   1      42.088  20.391  27.764  1.00  0.00    -0.744 OA
ENDBRANCH  85  88
ENDBRANCH  57  81
BRANCH  69  92
ATOM     92  C   UNL A   1      46.133  25.694  33.305  1.00  0.00     0.023 A 
ATOM     93  C   UNL A   1      45.923  24.633  34.206  1.00  0.00     0.012 A 
ATOM     94  C   UNL A   1      47.451  26.036  32.939  1.00  0.00     0.148 A 
ATOM     95  C   UNL A   1      47.003  23.940  34.754  1.00  0.00     0.002 A 
ATOM     96  C   UNL A   1      48.522  25.310  33.451  1.00  0.00     0.091 A 
ATOM     97  F   UNL A   1      47.636  27.061  32.094  1.00  0.00    -0.205 F 
ATOM     98  C   UNL A   1      48.301  24.269  34.367  1.00  0.00     0.022 A 
BRANCH  96  99
ATOM     99  S   UNL A   1      50.217  25.598  32.928  1.00  0.00     0.127 S 
ATOM    100  O   UNL A   1      50.951  24.633  33.746  1.00  0.00    -0.237 OA
ATOM    101  O   UNL A   1      50.165  25.275  31.502  1.00  0.00    -0.237 OA
ATOM    102  O   UNL A   1      50.489  27.000  33.216  1.00  0.00    -0.744 OA
ENDBRANCH  96  99
ENDBRANCH  69  92
ENDBRANCH  43  44
ENDBRANCH  36  38
ENDBRANCH  35  36
ENDBRANCH  34  35
ENDBRANCH   1  34
TORSDOF 18
ENDMDL
