MODEL 1
REMARK VINA RESULT:     -11.4      0.000      0.000
REMARK SMILES O=C(OCCOC(=O)c1cc(-c2ccoc2)n[nH]1)c1ccc(-c2c3nc(c(-c4cccc(S(=O)(=O)[O-])c4F)c4ccc([nH]4)c(-c4cccc(S(=O)(=O)[O-])c4F)c4nc(c(-c5cccc(S(=O)(=O)[O-])c5F)c5ccc2[nH]5)C=C4)C=C3)cc1
REMARK SMILES IDX 4 1 3 2 2 3 1 4 19 5 20 6 81 7 21 8 80 9 22 10 23 11 24 12
REMARK SMILES IDX 74 13 25 14 79 15 73 16 75 17 26 18 78 19 72 20 71 21 27 23
REMARK SMILES IDX 59 24 39 25 58 26 40 27 43 28 57 29 76 30 41 31 42 32 56 34
REMARK SMILES IDX 77 35 44 36 28 37 29 38 37 39 30 40 32 41 38 42 31 43 33 44
REMARK SMILES IDX 34 45 35 46 36 47 60 48 61 49 69 50 62 51 64 52 70 53 63 54
REMARK SMILES IDX 65 55 66 56 67 57 68 58 45 59 46 60 54 61 47 62 49 63 55 64
REMARK SMILES IDX 48 65 50 66 51 67 52 68 53 69 5 70 6 71 7 72 8 73 9 74 10 75
REMARK SMILES IDX 18 76 11 77 17 78 12 80 13 81 16 82 14 83 15 84
REMARK H PARENT 75 22 43 33 18 79
REMARK Flexibility Score: inf
ROOT
ATOM      1  C   UNL A   1      33.309  29.783  25.764  1.00  0.00     0.275 C 
ENDROOT
BRANCH   1   2
ATOM      2  O   UNL A   1      32.918  30.886  26.602  1.00  0.00    -0.458 OA
BRANCH   2   3
ATOM      3  C   UNL A   1      33.627  31.648  27.468  1.00  0.00     0.338 C 
ATOM      4  O   UNL A   1      33.194  32.767  27.745  1.00  0.00    -0.246 OA
BRANCH   3   5
ATOM      5  C   UNL A   1      34.973  31.275  28.004  1.00  0.00     0.060 A 
ATOM      6  C   UNL A   1      36.124  32.061  27.947  1.00  0.00     0.016 A 
ATOM      7  C   UNL A   1      35.076  30.006  28.606  1.00  0.00     0.016 A 
ATOM      8  C   UNL A   1      37.311  31.643  28.556  1.00  0.00     0.010 A 
ATOM      9  C   UNL A   1      36.259  29.582  29.218  1.00  0.00     0.010 A 
ATOM     10  C   UNL A   1      37.383  30.409  29.209  1.00  0.00    -0.014 A 
BRANCH  10  11
ATOM     11  C   UNL A   1      38.660  29.988  29.825  1.00  0.00     0.031 A 
ATOM     12  C   UNL A   1      39.063  30.565  31.147  1.00  0.00     0.074 A 
ATOM     13  C   UNL A   1      39.422  29.057  29.218  1.00  0.00     0.049 A 
ATOM     14  N   UNL A   1      40.050  30.212  31.927  1.00  0.00    -0.248 NA
ATOM     15  C   UNL A   1      38.234  31.660  31.678  1.00  0.00     0.031 C 
ATOM     16  C   UNL A   1      39.118  28.434  27.931  1.00  0.00     0.029 A 
ATOM     17  N   UNL A   1      40.609  28.483  29.589  1.00  0.00    -0.354 N 
ATOM     18  C   UNL A   1      39.940  31.013  33.055  1.00  0.00     0.074 A 
ATOM     19  C   UNL A   1      38.826  31.909  32.837  1.00  0.00     0.031 C 
ATOM     20  C   UNL A   1      40.119  27.603  27.591  1.00  0.00     0.029 A 
ATOM     21  C   UNL A   1      41.118  27.611  28.652  1.00  0.00     0.049 A 
ATOM     22  H   UNL A   1      41.057  28.676  30.444  1.00  0.00     0.167 HD
ATOM     23  C   UNL A   1      40.675  30.969  34.190  1.00  0.00     0.034 A 
ATOM     24  C   UNL A   1      42.256  26.889  28.666  1.00  0.00     0.034 A 
ATOM     25  C   UNL A   1      41.798  30.093  34.380  1.00  0.00     0.049 A 
ATOM     26  C   UNL A   1      43.098  26.915  29.914  1.00  0.00     0.074 A 
ATOM     27  C   UNL A   1      42.613  29.961  35.489  1.00  0.00     0.029 A 
ATOM     28  N   UNL A   1      42.275  29.210  33.422  1.00  0.00    -0.354 N 
ATOM     29  N   UNL A   1      42.884  27.556  31.038  1.00  0.00    -0.248 NA
ATOM     30  C   UNL A   1      44.299  26.072  29.920  1.00  0.00     0.031 C 
ATOM     31  C   UNL A   1      43.593  29.006  35.194  1.00  0.00     0.029 A 
ATOM     32  C   UNL A   1      43.380  28.534  33.908  1.00  0.00     0.049 A 
ATOM     33  H   UNL A   1      41.886  29.084  32.527  1.00  0.00     0.167 HD
ATOM     34  C   UNL A   1      43.898  27.160  31.901  1.00  0.00     0.074 A 
ATOM     35  C   UNL A   1      44.714  26.209  31.173  1.00  0.00     0.031 C 
ATOM     36  C   UNL A   1      44.140  27.553  33.176  1.00  0.00     0.034 A 
BRANCH  23  37
ATOM     37  C   UNL A   1      40.234  31.854  35.323  1.00  0.00     0.023 A 
ATOM     38  C   UNL A   1      40.865  33.105  35.490  1.00  0.00     0.012 A 
ATOM     39  C   UNL A   1      39.212  31.471  36.209  1.00  0.00     0.148 A 
ATOM     40  C   UNL A   1      40.507  33.949  36.540  1.00  0.00     0.002 A 
ATOM     41  C   UNL A   1      38.838  32.330  37.237  1.00  0.00     0.091 A 
ATOM     42  F   UNL A   1      38.640  30.270  36.043  1.00  0.00    -0.205 F 
ATOM     43  C   UNL A   1      39.491  33.563  37.410  1.00  0.00     0.022 A 
BRANCH  41  44
ATOM     44  S   UNL A   1      37.517  31.953  38.392  1.00  0.00     0.127 S 
ATOM     45  O   UNL A   1      38.173  32.186  39.678  1.00  0.00    -0.237 OA
ATOM     46  O   UNL A   1      36.504  32.947  38.034  1.00  0.00    -0.237 OA
ATOM     47  O   UNL A   1      37.135  30.571  38.131  1.00  0.00    -0.744 OA
ENDBRANCH  41  44
ENDBRANCH  23  37
BRANCH  24  48
ATOM     48  C   UNL A   1      42.614  26.015  27.512  1.00  0.00     0.023 A 
ATOM     49  C   UNL A   1      43.419  26.520  26.473  1.00  0.00     0.012 A 
ATOM     50  C   UNL A   1      42.164  24.684  27.435  1.00  0.00     0.148 A 
ATOM     51  C   UNL A   1      43.740  25.727  25.368  1.00  0.00     0.002 A 
ATOM     52  C   UNL A   1      42.531  23.880  26.361  1.00  0.00     0.091 A 
ATOM     53  F   UNL A   1      41.359  24.228  28.403  1.00  0.00    -0.205 F 
ATOM     54  C   UNL A   1      43.306  24.404  25.318  1.00  0.00     0.022 A 
BRANCH  52  55
ATOM     55  S   UNL A   1      42.112  22.134  26.305  1.00  0.00     0.127 S 
ATOM     56  O   UNL A   1      42.524  21.680  27.629  1.00  0.00    -0.237 OA
ATOM     57  O   UNL A   1      40.665  22.165  26.085  1.00  0.00    -0.237 OA
ATOM     58  O   UNL A   1      42.867  21.602  25.177  1.00  0.00    -0.744 OA
ENDBRANCH  52  55
ENDBRANCH  24  48
BRANCH  36  59
ATOM     59  C   UNL A   1      45.322  26.935  33.872  1.00  0.00     0.023 A 
ATOM     60  C   UNL A   1      46.582  27.560  33.792  1.00  0.00     0.012 A 
ATOM     61  C   UNL A   1      45.170  25.777  34.658  1.00  0.00     0.148 A 
ATOM     62  C   UNL A   1      47.680  27.023  34.460  1.00  0.00     0.002 A 
ATOM     63  C   UNL A   1      46.259  25.275  35.361  1.00  0.00     0.091 A 
ATOM     64  F   UNL A   1      43.969  25.182  34.701  1.00  0.00    -0.205 F 
ATOM     65  C   UNL A   1      47.517  25.890  35.254  1.00  0.00     0.022 A 
BRANCH  63  66
ATOM     66  S   UNL A   1      46.105  23.880  36.482  1.00  0.00     0.127 S 
ATOM     67  O   UNL A   1      45.123  24.377  37.444  1.00  0.00    -0.237 OA
ATOM     68  O   UNL A   1      45.614  22.820  35.600  1.00  0.00    -0.237 OA
ATOM     69  O   UNL A   1      47.444  23.648  37.007  1.00  0.00    -0.744 OA
ENDBRANCH  63  66
ENDBRANCH  36  59
ENDBRANCH  10  11
ENDBRANCH   3   5
ENDBRANCH   2   3
ENDBRANCH   1   2
BRANCH   1  70
ATOM     70  C   UNL A   1      32.667  28.433  26.107  1.00  0.00     0.275 C 
BRANCH  70  71
ATOM     71  O   UNL A   1      32.332  27.637  24.965  1.00  0.00    -0.457 OA
BRANCH  71  72
ATOM     72  C   UNL A   1      30.993  27.462  24.769  1.00  0.00     0.356 C 
ATOM     73  O   UNL A   1      30.278  26.719  25.428  1.00  0.00    -0.244 OA
BRANCH  72  74
ATOM     74  C   UNL A   1      30.512  28.397  23.801  1.00  0.00     0.144 A 
ATOM     75  C   UNL A   1      30.039  29.691  23.886  1.00  0.00     0.066 A 
ATOM     76  N   UNL A   1      30.425  28.070  22.477  1.00  0.00    -0.271 N 
ATOM     77  C   UNL A   1      29.598  30.003  22.579  1.00  0.00     0.096 A 
ATOM     78  N   UNL A   1      29.802  28.991  21.728  1.00  0.00    -0.175 NA
ATOM     79  H   UNL A   1      30.788  27.233  22.106  1.00  0.00     0.190 HD
BRANCH  77  80
ATOM     80  C   UNL A   1      28.951  31.242  22.184  1.00  0.00     0.040 A 
ATOM     81  C   UNL A   1      28.376  31.521  20.923  1.00  0.00     0.052 A 
ATOM     82  C   UNL A   1      28.759  32.366  22.956  1.00  0.00     0.205 A 
ATOM     83  C   UNL A   1      27.853  32.792  21.021  1.00  0.00     0.195 A 
ATOM     84  O   UNL A   1      28.084  33.313  22.253  1.00  0.00    -0.472 OA
ENDBRANCH  77  80
ENDBRANCH  72  74
ENDBRANCH  71  72
ENDBRANCH  70  71
ENDBRANCH   1  70
TORSDOF 15
ENDMDL
MODEL 2
REMARK VINA RESULT:     -11.3      3.879      5.440
REMARK SMILES O=C(OCCOC(=O)c1cc(-c2ccoc2)n[nH]1)c1ccc(-c2c3nc(c(-c4cccc(S(=O)(=O)[O-])c4F)c4ccc([nH]4)c(-c4cccc(S(=O)(=O)[O-])c4F)c4nc(c(-c5cccc(S(=O)(=O)[O-])c5F)c5ccc2[nH]5)C=C4)C=C3)cc1
REMARK SMILES IDX 4 1 3 2 2 3 1 4 19 5 20 6 81 7 21 8 80 9 22 10 23 11 24 12
REMARK SMILES IDX 74 13 25 14 79 15 73 16 75 17 26 18 78 19 72 20 71 21 27 23
REMARK SMILES IDX 59 24 39 25 58 26 40 27 43 28 57 29 76 30 41 31 42 32 56 34
REMARK SMILES IDX 77 35 44 36 28 37 29 38 37 39 30 40 32 41 38 42 31 43 33 44
REMARK SMILES IDX 34 45 35 46 36 47 60 48 61 49 69 50 62 51 64 52 70 53 63 54
REMARK SMILES IDX 65 55 66 56 67 57 68 58 45 59 46 60 54 61 47 62 49 63 55 64
REMARK SMILES IDX 48 65 50 66 51 67 52 68 53 69 5 70 6 71 7 72 8 73 9 74 10 75
REMARK SMILES IDX 18 76 11 77 17 78 12 80 13 81 16 82 14 83 15 84
REMARK H PARENT 75 22 43 33 18 79
REMARK Flexibility Score: inf
ROOT
ATOM      1  C   UNL A   1      34.404  35.957  28.377  1.00  0.00     0.275 C 
ENDROOT
BRANCH   1   2
ATOM      2  O   UNL A   1      34.707  34.770  27.621  1.00  0.00    -0.458 OA
BRANCH   2   3
ATOM      3  C   UNL A   1      34.819  33.473  27.995  1.00  0.00     0.338 C 
ATOM      4  O   UNL A   1      33.795  32.793  28.046  1.00  0.00    -0.246 OA
BRANCH   3   5
ATOM      5  C   UNL A   1      36.089  32.852  28.485  1.00  0.00     0.060 A 
ATOM      6  C   UNL A   1      37.282  33.526  28.751  1.00  0.00     0.016 A 
ATOM      7  C   UNL A   1      36.067  31.457  28.679  1.00  0.00     0.016 A 
ATOM      8  C   UNL A   1      38.384  32.852  29.286  1.00  0.00     0.010 A 
ATOM      9  C   UNL A   1      37.166  30.777  29.215  1.00  0.00     0.010 A 
ATOM     10  C   UNL A   1      38.329  31.478  29.536  1.00  0.00    -0.014 A 
BRANCH  10  11
ATOM     11  C   UNL A   1      39.520  30.792  30.083  1.00  0.00     0.031 A 
ATOM     12  C   UNL A   1      40.122  31.278  31.366  1.00  0.00     0.074 A 
ATOM     13  C   UNL A   1      40.020  29.713  29.452  1.00  0.00     0.049 A 
ATOM     14  N   UNL A   1      41.056  30.724  32.093  1.00  0.00    -0.248 NA
ATOM     15  C   UNL A   1      39.588  32.532  31.922  1.00  0.00     0.031 C 
ATOM     16  C   UNL A   1      39.506  29.160  28.200  1.00  0.00     0.029 A 
ATOM     17  N   UNL A   1      41.075  28.895  29.763  1.00  0.00    -0.354 N 
ATOM     18  C   UNL A   1      41.195  31.538  33.207  1.00  0.00     0.074 A 
ATOM     19  C   UNL A   1      40.292  32.655  33.037  1.00  0.00     0.031 C 
ATOM     20  C   UNL A   1      40.278  28.128  27.819  1.00  0.00     0.029 A 
ATOM     21  C   UNL A   1      41.321  27.925  28.817  1.00  0.00     0.049 A 
ATOM     22  H   UNL A   1      41.607  28.993  30.586  1.00  0.00     0.167 HD
ATOM     23  C   UNL A   1      41.973  31.344  34.297  1.00  0.00     0.034 A 
ATOM     24  C   UNL A   1      42.272  26.972  28.778  1.00  0.00     0.034 A 
ATOM     25  C   UNL A   1      42.888  30.245  34.439  1.00  0.00     0.049 A 
ATOM     26  C   UNL A   1      43.177  26.823  29.972  1.00  0.00     0.074 A 
ATOM     27  C   UNL A   1      43.723  29.946  35.499  1.00  0.00     0.029 A 
ATOM     28  N   UNL A   1      43.100  29.271  33.472  1.00  0.00    -0.354 N 
ATOM     29  N   UNL A   1      43.180  27.504  31.094  1.00  0.00    -0.248 NA
ATOM     30  C   UNL A   1      44.163  25.736  29.925  1.00  0.00     0.031 C 
ATOM     31  C   UNL A   1      44.451  28.797  35.167  1.00  0.00     0.029 A 
ATOM     32  C   UNL A   1      44.058  28.373  33.906  1.00  0.00     0.049 A 
ATOM     33  H   UNL A   1      42.635  29.225  32.606  1.00  0.00     0.167 HD
ATOM     34  C   UNL A   1      44.136  26.903  31.902  1.00  0.00     0.074 A 
ATOM     35  C   UNL A   1      44.677  25.790  31.147  1.00  0.00     0.031 C 
ATOM     36  C   UNL A   1      44.539  27.243  33.152  1.00  0.00     0.034 A 
BRANCH  23  37
ATOM     37  C   UNL A   1      41.809  32.314  35.435  1.00  0.00     0.023 A 
ATOM     38  C   UNL A   1      42.730  33.376  35.558  1.00  0.00     0.012 A 
ATOM     39  C   UNL A   1      40.765  32.191  36.368  1.00  0.00     0.148 A 
ATOM     40  C   UNL A   1      42.632  34.285  36.610  1.00  0.00     0.002 A 
ATOM     41  C   UNL A   1      40.655  33.119  37.399  1.00  0.00     0.091 A 
ATOM     42  F   UNL A   1      39.913  31.163  36.243  1.00  0.00    -0.205 F 
ATOM     43  C   UNL A   1      41.593  34.159  37.526  1.00  0.00     0.022 A 
BRANCH  41  44
ATOM     44  S   UNL A   1      39.333  33.076  38.613  1.00  0.00     0.127 S 
ATOM     45  O   UNL A   1      39.964  32.342  39.710  1.00  0.00    -0.237 OA
ATOM     46  O   UNL A   1      39.114  34.498  38.877  1.00  0.00    -0.237 OA
ATOM     47  O   UNL A   1      38.217  32.394  37.971  1.00  0.00    -0.744 OA
ENDBRANCH  41  44
ENDBRANCH  23  37
BRANCH  24  48
ATOM     48  C   UNL A   1      42.357  26.031  27.624  1.00  0.00     0.023 A 
ATOM     49  C   UNL A   1      43.075  26.399  26.471  1.00  0.00     0.012 A 
ATOM     50  C   UNL A   1      41.732  24.771  27.661  1.00  0.00     0.148 A 
ATOM     51  C   UNL A   1      43.139  25.545  25.367  1.00  0.00     0.002 A 
ATOM     52  C   UNL A   1      41.846  23.900  26.581  1.00  0.00     0.091 A 
ATOM     53  F   UNL A   1      41.011  24.449  28.742  1.00  0.00    -0.205 F 
ATOM     54  C   UNL A   1      42.535  24.291  25.426  1.00  0.00     0.022 A 
BRANCH  52  55
ATOM     55  S   UNL A   1      41.200  22.224  26.651  1.00  0.00     0.127 S 
ATOM     56  O   UNL A   1      41.796  21.721  27.885  1.00  0.00    -0.237 OA
ATOM     57  O   UNL A   1      39.754  22.447  26.710  1.00  0.00    -0.237 OA
ATOM     58  O   UNL A   1      41.649  21.597  25.415  1.00  0.00    -0.744 OA
ENDBRANCH  52  55
ENDBRANCH  24  48
BRANCH  36  59
ATOM     59  C   UNL A   1      45.599  26.387  33.788  1.00  0.00     0.023 A 
ATOM     60  C   UNL A   1      46.954  26.750  33.664  1.00  0.00     0.012 A 
ATOM     61  C   UNL A   1      45.248  25.265  34.563  1.00  0.00     0.148 A 
ATOM     62  C   UNL A   1      47.948  25.991  34.278  1.00  0.00     0.002 A 
ATOM     63  C   UNL A   1      46.242  24.541  35.213  1.00  0.00     0.091 A 
ATOM     64  F   UNL A   1      43.955  24.920  34.648  1.00  0.00    -0.205 F 
ATOM     65  C   UNL A   1      47.592  24.896  35.062  1.00  0.00     0.022 A 
BRANCH  63  66
ATOM     66  S   UNL A   1      45.855  23.180  36.319  1.00  0.00     0.127 S 
ATOM     67  O   UNL A   1      45.016  23.836  37.319  1.00  0.00    -0.237 OA
ATOM     68  O   UNL A   1      45.143  22.251  35.438  1.00  0.00    -0.237 OA
ATOM     69  O   UNL A   1      47.139  22.685  36.796  1.00  0.00    -0.744 OA
ENDBRANCH  63  66
ENDBRANCH  36  59
ENDBRANCH  10  11
ENDBRANCH   3   5
ENDBRANCH   2   3
ENDBRANCH   1   2
BRANCH   1  70
ATOM     70  C   UNL A   1      32.933  36.133  28.771  1.00  0.00     0.275 C 
BRANCH  70  71
ATOM     71  O   UNL A   1      32.539  35.375  29.920  1.00  0.00    -0.457 OA
BRANCH  71  72
ATOM     72  C   UNL A   1      32.822  35.968  31.116  1.00  0.00     0.356 C 
ATOM     73  O   UNL A   1      32.138  36.831  31.651  1.00  0.00    -0.244 OA
BRANCH  72  74
ATOM     74  C   UNL A   1      33.934  35.320  31.735  1.00  0.00     0.144 A 
ATOM     75  C   UNL A   1      34.291  33.995  31.897  1.00  0.00     0.066 A 
ATOM     76  N   UNL A   1      34.919  36.034  32.358  1.00  0.00    -0.271 N 
ATOM     77  C   UNL A   1      35.441  34.026  32.719  1.00  0.00     0.096 A 
ATOM     78  N   UNL A   1      35.799  35.277  33.030  1.00  0.00    -0.175 NA
ATOM     79  H   UNL A   1      34.977  37.016  32.318  1.00  0.00     0.190 HD
BRANCH  77  80
ATOM     80  C   UNL A   1      36.144  32.860  33.225  1.00  0.00     0.040 A 
ATOM     81  C   UNL A   1      36.256  31.607  32.582  1.00  0.00     0.052 A 
ATOM     82  C   UNL A   1      36.842  32.754  34.406  1.00  0.00     0.205 A 
ATOM     83  C   UNL A   1      37.036  30.828  33.408  1.00  0.00     0.195 A 
ATOM     84  O   UNL A   1      37.394  31.518  34.521  1.00  0.00    -0.472 OA
ENDBRANCH  77  80
ENDBRANCH  72  74
ENDBRANCH  71  72
ENDBRANCH  70  71
ENDBRANCH   1  70
TORSDOF 15
ENDMDL
MODEL 3
REMARK VINA RESULT:     -11.3      6.089     12.012
REMARK SMILES O=C(OCCOC(=O)c1cc(-c2ccoc2)n[nH]1)c1ccc(-c2c3nc(c(-c4cccc(S(=O)(=O)[O-])c4F)c4ccc([nH]4)c(-c4cccc(S(=O)(=O)[O-])c4F)c4nc(c(-c5cccc(S(=O)(=O)[O-])c5F)c5ccc2[nH]5)C=C4)C=C3)cc1
REMARK SMILES IDX 4 1 3 2 2 3 1 4 19 5 20 6 81 7 21 8 80 9 22 10 23 11 24 12
REMARK SMILES IDX 74 13 25 14 79 15 73 16 75 17 26 18 78 19 72 20 71 21 27 23
REMARK SMILES IDX 59 24 39 25 58 26 40 27 43 28 57 29 76 30 41 31 42 32 56 34
REMARK SMILES IDX 77 35 44 36 28 37 29 38 37 39 30 40 32 41 38 42 31 43 33 44
REMARK SMILES IDX 34 45 35 46 36 47 60 48 61 49 69 50 62 51 64 52 70 53 63 54
REMARK SMILES IDX 65 55 66 56 67 57 68 58 45 59 46 60 54 61 47 62 49 63 55 64
REMARK SMILES IDX 48 65 50 66 51 67 52 68 53 69 5 70 6 71 7 72 8 73 9 74 10 75
REMARK SMILES IDX 18 76 11 77 17 78 12 80 13 81 16 82 14 83 15 84
REMARK H PARENT 75 22 43 33 18 79
REMARK Flexibility Score: inf
ROOT
ATOM      1  C   UNL A   1      40.648  19.837  26.173  1.00  0.00     0.275 C 
ENDROOT
BRANCH   1   2
ATOM      2  O   UNL A   1      40.799  21.266  26.275  1.00  0.00    -0.458 OA
BRANCH   2   3
ATOM      3  C   UNL A   1      39.900  22.245  26.531  1.00  0.00     0.338 C 
ATOM      4  O   UNL A   1      38.745  22.091  26.134  1.00  0.00    -0.246 OA
BRANCH   3   5
ATOM      5  C   UNL A   1      40.251  23.564  27.142  1.00  0.00     0.060 A 
ATOM      6  C   UNL A   1      40.977  23.754  28.320  1.00  0.00     0.016 A 
ATOM      7  C   UNL A   1      39.791  24.710  26.465  1.00  0.00     0.016 A 
ATOM      8  C   UNL A   1      41.319  25.039  28.754  1.00  0.00     0.010 A 
ATOM      9  C   UNL A   1      40.131  25.997  26.893  1.00  0.00     0.010 A 
ATOM     10  C   UNL A   1      40.912  26.168  28.037  1.00  0.00    -0.014 A 
BRANCH  10  11
ATOM     11  C   UNL A   1      41.273  27.512  28.535  1.00  0.00     0.031 A 
ATOM     12  C   UNL A   1      42.716  27.907  28.604  1.00  0.00     0.074 A 
ATOM     13  C   UNL A   1      40.303  28.383  28.875  1.00  0.00     0.049 A 
ATOM     14  N   UNL A   1      43.232  29.080  28.853  1.00  0.00    -0.248 NA
ATOM     15  C   UNL A   1      43.710  26.855  28.330  1.00  0.00     0.031 C 
ATOM     16  C   UNL A   1      38.870  28.097  28.842  1.00  0.00     0.029 A 
ATOM     17  N   UNL A   1      40.370  29.675  29.326  1.00  0.00    -0.354 N 
ATOM     18  C   UNL A   1      44.605  28.920  28.729  1.00  0.00     0.074 A 
ATOM     19  C   UNL A   1      44.849  27.524  28.439  1.00  0.00     0.031 C 
ATOM     20  C   UNL A   1      38.193  29.161  29.306  1.00  0.00     0.029 A 
ATOM     21  C   UNL A   1      39.143  30.216  29.638  1.00  0.00     0.049 A 
ATOM     22  H   UNL A   1      41.216  30.170  29.418  1.00  0.00     0.167 HD
ATOM     23  C   UNL A   1      45.571  29.865  28.803  1.00  0.00     0.034 A 
ATOM     24  C   UNL A   1      38.828  31.435  30.118  1.00  0.00     0.034 A 
ATOM     25  C   UNL A   1      45.316  31.242  29.122  1.00  0.00     0.049 A 
ATOM     26  C   UNL A   1      39.933  32.447  30.264  1.00  0.00     0.074 A 
ATOM     27  C   UNL A   1      46.217  32.287  29.223  1.00  0.00     0.029 A 
ATOM     28  N   UNL A   1      44.063  31.762  29.414  1.00  0.00    -0.354 N 
ATOM     29  N   UNL A   1      41.207  32.322  29.980  1.00  0.00    -0.248 NA
ATOM     30  C   UNL A   1      39.549  33.784  30.734  1.00  0.00     0.031 C 
ATOM     31  C   UNL A   1      45.507  33.437  29.589  1.00  0.00     0.029 A 
ATOM     32  C   UNL A   1      44.163  33.110  29.703  1.00  0.00     0.049 A 
ATOM     33  H   UNL A   1      43.225  31.246  29.415  1.00  0.00     0.167 HD
ATOM     34  C   UNL A   1      41.771  33.573  30.194  1.00  0.00     0.074 A 
ATOM     35  C   UNL A   1      40.692  34.447  30.613  1.00  0.00     0.031 C 
ATOM     36  C   UNL A   1      43.062  33.966  30.066  1.00  0.00     0.034 A 
BRANCH  23  37
ATOM     37  C   UNL A   1      46.973  29.435  28.471  1.00  0.00     0.023 A 
ATOM     38  C   UNL A   1      47.394  29.476  27.125  1.00  0.00     0.012 A 
ATOM     39  C   UNL A   1      47.870  29.001  29.464  1.00  0.00     0.148 A 
ATOM     40  C   UNL A   1      48.676  29.064  26.767  1.00  0.00     0.002 A 
ATOM     41  C   UNL A   1      49.158  28.619  29.104  1.00  0.00     0.091 A 
ATOM     42  F   UNL A   1      47.442  28.951  30.733  1.00  0.00    -0.205 F 
ATOM     43  C   UNL A   1      49.559  28.641  27.756  1.00  0.00     0.022 A 
BRANCH  41  44
ATOM     44  S   UNL A   1      50.390  28.093  30.299  1.00  0.00     0.127 S 
ATOM     45  O   UNL A   1      50.013  26.697  30.516  1.00  0.00    -0.237 OA
ATOM     46  O   UNL A   1      51.636  28.281  29.557  1.00  0.00    -0.237 OA
ATOM     47  O   UNL A   1      50.229  28.966  31.454  1.00  0.00    -0.744 OA
ENDBRANCH  41  44
ENDBRANCH  23  37
BRANCH  24  48
ATOM     48  C   UNL A   1      37.409  31.796  30.403  1.00  0.00     0.023 A 
ATOM     49  C   UNL A   1      36.910  31.694  31.715  1.00  0.00     0.012 A 
ATOM     50  C   UNL A   1      36.549  32.240  29.382  1.00  0.00     0.148 A 
ATOM     51  C   UNL A   1      35.575  31.997  31.996  1.00  0.00     0.002 A 
ATOM     52  C   UNL A   1      35.236  32.594  29.676  1.00  0.00     0.091 A 
ATOM     53  F   UNL A   1      37.019  32.287  28.129  1.00  0.00    -0.205 F 
ATOM     54  C   UNL A   1      34.741  32.458  30.980  1.00  0.00     0.022 A 
BRANCH  52  55
ATOM     55  S   UNL A   1      34.155  33.317  28.436  1.00  0.00     0.127 S 
ATOM     56  O   UNL A   1      35.091  34.104  27.638  1.00  0.00    -0.237 OA
ATOM     57  O   UNL A   1      33.613  32.135  27.763  1.00  0.00    -0.237 OA
ATOM     58  O   UNL A   1      33.163  34.070  29.194  1.00  0.00    -0.744 OA
ENDBRANCH  52  55
ENDBRANCH  24  48
BRANCH  36  59
ATOM     59  C   UNL A   1      43.374  35.408  30.359  1.00  0.00     0.023 A 
ATOM     60  C   UNL A   1      43.853  35.771  31.632  1.00  0.00     0.012 A 
ATOM     61  C   UNL A   1      43.258  36.388  29.354  1.00  0.00     0.148 A 
ATOM     62  C   UNL A   1      44.183  37.096  31.911  1.00  0.00     0.002 A 
ATOM     63  C   UNL A   1      43.635  37.698  29.626  1.00  0.00     0.091 A 
ATOM     64  F   UNL A   1      42.776  36.027  28.156  1.00  0.00    -0.205 F 
ATOM     65  C   UNL A   1      44.087  38.056  30.906  1.00  0.00     0.022 A 
BRANCH  63  66
ATOM     66  S   UNL A   1      43.635  38.968  28.355  1.00  0.00     0.127 S 
ATOM     67  O   UNL A   1      44.174  40.116  29.080  1.00  0.00    -0.237 OA
ATOM     68  O   UNL A   1      44.534  38.405  27.346  1.00  0.00    -0.237 OA
ATOM     69  O   UNL A   1      42.250  39.087  27.920  1.00  0.00    -0.744 OA
ENDBRANCH  63  66
ENDBRANCH  36  59
ENDBRANCH  10  11
ENDBRANCH   3   5
ENDBRANCH   2   3
ENDBRANCH   1   2
BRANCH   1  70
ATOM     70  C   UNL A   1      41.953  19.032  26.189  1.00  0.00     0.275 C 
BRANCH  70  71
ATOM     71  O   UNL A   1      42.717  19.130  24.982  1.00  0.00    -0.457 OA
BRANCH  71  72
ATOM     72  C   UNL A   1      44.066  19.218  25.171  1.00  0.00     0.356 C 
ATOM     73  O   UNL A   1      44.852  18.287  25.064  1.00  0.00    -0.244 OA
BRANCH  72  74
ATOM     74  C   UNL A   1      44.450  20.584  25.342  1.00  0.00     0.144 A 
ATOM     75  C   UNL A   1      43.786  21.784  25.181  1.00  0.00     0.066 A 
ATOM     76  N   UNL A   1      45.718  20.925  25.722  1.00  0.00    -0.271 N 
ATOM     77  C   UNL A   1      44.773  22.775  25.382  1.00  0.00     0.096 A 
ATOM     78  N   UNL A   1      45.965  22.242  25.676  1.00  0.00    -0.175 NA
ATOM     79  H   UNL A   1      46.390  20.263  26.003  1.00  0.00     0.190 HD
BRANCH  77  80
ATOM     80  C   UNL A   1      44.567  24.207  25.245  1.00  0.00     0.040 A 
ATOM     81  C   UNL A   1      43.320  24.869  25.172  1.00  0.00     0.052 A 
ATOM     82  C   UNL A   1      45.531  25.186  25.178  1.00  0.00     0.205 A 
ATOM     83  C   UNL A   1      43.612  26.213  25.086  1.00  0.00     0.195 A 
ATOM     84  O   UNL A   1      44.955  26.413  25.086  1.00  0.00    -0.472 OA
ENDBRANCH  77  80
ENDBRANCH  72  74
ENDBRANCH  71  72
ENDBRANCH  70  71
ENDBRANCH   1  70
TORSDOF 15
ENDMDL
