MODEL 1
REMARK VINA RESULT:     -10.7      0.000      0.000
REMARK SMILES Cc1cc(Br)cc([N+](=O)[O-])c1OCCC(=O)OCCOC(=O)c1ccc(-c2c3nc(c(-c4cccc(S(=O)(=O)[O-])c4F)c4ccc([nH]4)c(-c4cccc(S(=O)(=O)[O-])c4F)c4nc(c(-c5cccc(S(=O)(=O)[O-])c5F)c5ccc2[nH]5)C=C4)C=C3)cc1
REMARK SMILES IDX 18 1 17 2 15 3 16 4 14 5 13 6 12 7 11 8 1 9 2 10 3 11 4 12
REMARK SMILES IDX 7 13 5 14 6 15 8 16 9 17 10 18 19 19 20 20 21 21 22 22 23 23
REMARK SMILES IDX 24 24 85 25 25 26 84 27 26 28 27 29 28 30 78 31 29 32 83 33
REMARK SMILES IDX 77 34 79 35 30 36 82 37 76 38 75 39 31 41 63 42 43 43 62 44
REMARK SMILES IDX 44 45 47 46 61 47 80 48 45 49 46 50 60 52 81 53 48 54 32 55
REMARK SMILES IDX 33 56 41 57 34 58 36 59 42 60 35 61 37 62 38 63 39 64 40 65
REMARK SMILES IDX 64 66 65 67 73 68 66 69 68 70 74 71 67 72 69 73 70 74 71 75
REMARK SMILES IDX 72 76 49 77 50 78 58 79 51 80 53 81 59 82 52 83 54 84 55 85
REMARK SMILES IDX 56 86 57 87
REMARK H PARENT 79 40 47 51
REMARK Flexibility Score: inf
ROOT
ATOM      1  C   UNL A   1      36.532  22.477  23.963  1.00  0.00     0.274 C 
ENDROOT
BRANCH   1   2
ATOM      2  O   UNL A   1      35.135  22.253  23.668  1.00  0.00    -0.462 OA
BRANCH   2   3
ATOM      3  C   UNL A   1      34.286  23.281  23.936  1.00  0.00     0.309 C 
ATOM      4  O   UNL A   1      33.521  23.785  23.123  1.00  0.00    -0.252 OA
BRANCH   3   5
ATOM      5  C   UNL A   1      34.448  23.804  25.343  1.00  0.00     0.164 C 
BRANCH   5   6
ATOM      6  C   UNL A   1      34.353  25.323  25.461  1.00  0.00     0.241 C 
BRANCH   6   7
ATOM      7  O   UNL A   1      33.233  25.835  26.220  1.00  0.00    -0.486 OA
BRANCH   7   8
ATOM      8  C   UNL A   1      32.387  26.637  25.509  1.00  0.00     0.200 A 
ATOM      9  C   UNL A   1      33.859  28.712  25.880  1.00  0.00     0.049 C 
ATOM     10  C   UNL A   1      32.711  27.979  25.233  1.00  0.00    -0.001 A 
ATOM     11  C   UNL A   1      31.857  28.735  24.407  1.00  0.00     0.023 A 
ATOM     12  C   UNL A   1      30.668  28.195  23.927  1.00  0.00     0.025 A 
ATOM     13  C   UNL A   1      31.123  26.155  25.123  1.00  0.00     0.312 A 
ATOM     14  Br  UNL A   1      29.551  29.227  22.806  1.00  0.00    -0.051 Br
ATOM     15  C   UNL A   1      30.273  26.921  24.311  1.00  0.00     0.105 A 
BRANCH  13  16
ATOM     16  N   UNL A   1      30.596  24.880  25.626  1.00  0.00     0.066 N 
ATOM     17  O   UNL A   1      29.845  24.938  26.613  1.00  0.00    -0.258 OA
ATOM     18  O   UNL A   1      30.892  23.828  25.048  1.00  0.00    -0.258 OA
ENDBRANCH  13  16
ENDBRANCH   7   8
ENDBRANCH   6   7
ENDBRANCH   5   6
ENDBRANCH   3   5
ENDBRANCH   2   3
ENDBRANCH   1   2
BRANCH   1  19
ATOM     19  C   UNL A   1      37.236  21.238  24.526  1.00  0.00     0.275 C 
BRANCH  19  20
ATOM     20  O   UNL A   1      37.631  21.397  25.901  1.00  0.00    -0.458 OA
BRANCH  20  21
ATOM     21  C   UNL A   1      38.951  21.248  26.118  1.00  0.00     0.338 C 
ATOM     22  O   UNL A   1      39.602  20.220  25.981  1.00  0.00    -0.246 OA
BRANCH  21  23
ATOM     23  C   UNL A   1      39.595  22.491  26.522  1.00  0.00     0.060 A 
ATOM     24  C   UNL A   1      40.634  22.427  27.456  1.00  0.00     0.016 A 
ATOM     25  C   UNL A   1      39.073  23.713  26.095  1.00  0.00     0.016 A 
ATOM     26  C   UNL A   1      41.176  23.606  27.955  1.00  0.00     0.010 A 
ATOM     27  C   UNL A   1      39.625  24.892  26.588  1.00  0.00     0.010 A 
ATOM     28  C   UNL A   1      40.682  24.843  27.512  1.00  0.00    -0.014 A 
BRANCH  28  29
ATOM     29  C   UNL A   1      41.369  26.092  27.896  1.00  0.00     0.031 A 
ATOM     30  C   UNL A   1      40.659  27.169  28.652  1.00  0.00     0.074 A 
ATOM     31  C   UNL A   1      42.635  26.251  27.469  1.00  0.00     0.049 A 
ATOM     32  N   UNL A   1      41.103  28.341  29.020  1.00  0.00    -0.248 NA
ATOM     33  C   UNL A   1      39.264  26.904  29.039  1.00  0.00     0.031 C 
ATOM     34  C   UNL A   1      43.381  25.263  26.683  1.00  0.00     0.029 A 
ATOM     35  N   UNL A   1      43.505  27.299  27.602  1.00  0.00    -0.354 N 
ATOM     36  C   UNL A   1      40.041  28.969  29.656  1.00  0.00     0.074 A 
ATOM     37  C   UNL A   1      38.925  28.047  29.625  1.00  0.00     0.031 C 
ATOM     38  C   UNL A   1      44.591  25.758  26.392  1.00  0.00     0.029 A 
ATOM     39  C   UNL A   1      44.696  27.102  26.946  1.00  0.00     0.049 A 
ATOM     40  H   UNL A   1      43.298  28.111  28.117  1.00  0.00     0.167 HD
ATOM     41  C   UNL A   1      40.013  30.200  30.222  1.00  0.00     0.034 A 
ATOM     42  C   UNL A   1      45.753  27.923  26.799  1.00  0.00     0.034 A 
ATOM     43  C   UNL A   1      41.143  31.093  30.247  1.00  0.00     0.049 A 
ATOM     44  C   UNL A   1      45.706  29.264  27.470  1.00  0.00     0.074 A 
ATOM     45  C   UNL A   1      41.246  32.341  30.833  1.00  0.00     0.029 A 
ATOM     46  N   UNL A   1      42.369  30.830  29.648  1.00  0.00    -0.354 N 
ATOM     47  N   UNL A   1      44.741  29.791  28.184  1.00  0.00    -0.248 NA
ATOM     48  C   UNL A   1      46.900  30.109  27.347  1.00  0.00     0.031 C 
ATOM     49  C   UNL A   1      42.531  32.838  30.577  1.00  0.00     0.029 A 
ATOM     50  C   UNL A   1      43.232  31.895  29.843  1.00  0.00     0.049 A 
ATOM     51  H   UNL A   1      42.592  30.007  29.156  1.00  0.00     0.167 HD
ATOM     52  C   UNL A   1      45.215  31.023  28.615  1.00  0.00     0.074 A 
ATOM     53  C   UNL A   1      46.566  31.149  28.100  1.00  0.00     0.031 C 
ATOM     54  C   UNL A   1      44.585  31.972  29.350  1.00  0.00     0.034 A 
BRANCH  41  55
ATOM     55  C   UNL A   1      38.734  30.635  30.889  1.00  0.00     0.023 A 
ATOM     56  C   UNL A   1      38.577  30.439  32.277  1.00  0.00     0.012 A 
ATOM     57  C   UNL A   1      37.708  31.272  30.164  1.00  0.00     0.148 A 
ATOM     58  C   UNL A   1      37.410  30.844  32.926  1.00  0.00     0.002 A 
ATOM     59  C   UNL A   1      36.560  31.701  30.823  1.00  0.00     0.091 A 
ATOM     60  F   UNL A   1      37.861  31.429  28.842  1.00  0.00    -0.205 F 
ATOM     61  C   UNL A   1      36.407  31.481  32.202  1.00  0.00     0.022 A 
BRANCH  59  62
ATOM     62  S   UNL A   1      35.235  32.580  29.985  1.00  0.00     0.127 S 
ATOM     63  O   UNL A   1      34.304  32.828  31.083  1.00  0.00    -0.237 OA
ATOM     64  O   UNL A   1      35.920  33.774  29.485  1.00  0.00    -0.237 OA
ATOM     65  O   UNL A   1      34.758  31.679  28.944  1.00  0.00    -0.744 OA
ENDBRANCH  59  62
ENDBRANCH  41  55
BRANCH  42  66
ATOM     66  C   UNL A   1      46.949  27.442  26.054  1.00  0.00     0.023 A 
ATOM     67  C   UNL A   1      47.792  26.489  26.654  1.00  0.00     0.012 A 
ATOM     68  C   UNL A   1      47.195  27.839  24.725  1.00  0.00     0.148 A 
ATOM     69  C   UNL A   1      48.867  25.948  25.948  1.00  0.00     0.002 A 
ATOM     70  C   UNL A   1      48.235  27.256  24.009  1.00  0.00     0.091 A 
ATOM     71  F   UNL A   1      46.389  28.759  24.175  1.00  0.00    -0.205 F 
ATOM     72  C   UNL A   1      49.079  26.319  24.622  1.00  0.00     0.022 A 
BRANCH  70  73
ATOM     73  S   UNL A   1      48.474  27.568  22.255  1.00  0.00     0.127 S 
ATOM     74  O   UNL A   1      49.632  28.458  22.264  1.00  0.00    -0.237 OA
ATOM     75  O   UNL A   1      48.733  26.225  21.733  1.00  0.00    -0.237 OA
ATOM     76  O   UNL A   1      47.222  28.152  21.793  1.00  0.00    -0.744 OA
ENDBRANCH  70  73
ENDBRANCH  42  66
BRANCH  54  77
ATOM     77  C   UNL A   1      45.356  33.231  29.638  1.00  0.00     0.023 A 
ATOM     78  C   UNL A   1      46.189  33.285  30.773  1.00  0.00     0.012 A 
ATOM     79  C   UNL A   1      45.305  34.328  28.760  1.00  0.00     0.148 A 
ATOM     80  C   UNL A   1      46.942  34.425  31.043  1.00  0.00     0.002 A 
ATOM     81  C   UNL A   1      46.089  35.447  29.013  1.00  0.00     0.091 A 
ATOM     82  F   UNL A   1      44.485  34.265  27.700  1.00  0.00    -0.205 F 
ATOM     83  C   UNL A   1      46.901  35.501  30.158  1.00  0.00     0.022 A 
BRANCH  81  84
ATOM     84  S   UNL A   1      46.160  36.838  27.879  1.00  0.00     0.127 S 
ATOM     85  O   UNL A   1      44.797  37.359  27.961  1.00  0.00    -0.237 OA
ATOM     86  O   UNL A   1      47.178  37.692  28.491  1.00  0.00    -0.237 OA
ATOM     87  O   UNL A   1      46.545  36.276  26.590  1.00  0.00    -0.744 OA
ENDBRANCH  81  84
ENDBRANCH  54  77
ENDBRANCH  28  29
ENDBRANCH  21  23
ENDBRANCH  20  21
ENDBRANCH  19  20
ENDBRANCH   1  19
TORSDOF 18
ENDMDL
MODEL 2
REMARK VINA RESULT:     -10.6      5.312     10.069
REMARK SMILES Cc1cc(Br)cc([N+](=O)[O-])c1OCCC(=O)OCCOC(=O)c1ccc(-c2c3nc(c(-c4cccc(S(=O)(=O)[O-])c4F)c4ccc([nH]4)c(-c4cccc(S(=O)(=O)[O-])c4F)c4nc(c(-c5cccc(S(=O)(=O)[O-])c5F)c5ccc2[nH]5)C=C4)C=C3)cc1
REMARK SMILES IDX 18 1 17 2 15 3 16 4 14 5 13 6 12 7 11 8 1 9 2 10 3 11 4 12
REMARK SMILES IDX 7 13 5 14 6 15 8 16 9 17 10 18 19 19 20 20 21 21 22 22 23 23
REMARK SMILES IDX 24 24 85 25 25 26 84 27 26 28 27 29 28 30 78 31 29 32 83 33
REMARK SMILES IDX 77 34 79 35 30 36 82 37 76 38 75 39 31 41 63 42 43 43 62 44
REMARK SMILES IDX 44 45 47 46 61 47 80 48 45 49 46 50 60 52 81 53 48 54 32 55
REMARK SMILES IDX 33 56 41 57 34 58 36 59 42 60 35 61 37 62 38 63 39 64 40 65
REMARK SMILES IDX 64 66 65 67 73 68 66 69 68 70 74 71 67 72 69 73 70 74 71 75
REMARK SMILES IDX 72 76 49 77 50 78 58 79 51 80 53 81 59 82 52 83 54 84 55 85
REMARK SMILES IDX 56 86 57 87
REMARK H PARENT 79 40 47 51
REMARK Flexibility Score: inf
ROOT
ATOM      1  C   UNL A   1      31.562  29.161  24.597  1.00  0.00     0.274 C 
ENDROOT
BRANCH   1   2
ATOM      2  O   UNL A   1      31.015  27.900  25.039  1.00  0.00    -0.462 OA
BRANCH   2   3
ATOM      3  C   UNL A   1      31.626  27.313  26.102  1.00  0.00     0.309 C 
ATOM      4  O   UNL A   1      31.083  27.068  27.172  1.00  0.00    -0.252 OA
BRANCH   3   5
ATOM      5  C   UNL A   1      33.094  27.066  25.852  1.00  0.00     0.164 C 
BRANCH   5   6
ATOM      6  C   UNL A   1      33.399  25.733  25.173  1.00  0.00     0.241 C 
BRANCH   6   7
ATOM      7  O   UNL A   1      32.271  25.042  24.588  1.00  0.00    -0.486 OA
BRANCH   7   8
ATOM      8  C   UNL A   1      32.379  23.681  24.587  1.00  0.00     0.200 A 
ATOM      9  C   UNL A   1      31.462  23.492  26.981  1.00  0.00     0.049 C 
ATOM     10  C   UNL A   1      31.898  22.908  25.662  1.00  0.00    -0.001 A 
ATOM     11  C   UNL A   1      31.936  21.504  25.568  1.00  0.00     0.023 A 
ATOM     12  C   UNL A   1      32.508  20.879  24.464  1.00  0.00     0.025 A 
ATOM     13  C   UNL A   1      33.067  23.034  23.545  1.00  0.00     0.312 A 
ATOM     14  Br  UNL A   1      32.529  18.992  24.357  1.00  0.00    -0.051 Br
ATOM     15  C   UNL A   1      33.111  21.633  23.467  1.00  0.00     0.105 A 
BRANCH  13  16
ATOM     16  N   UNL A   1      33.848  23.783  22.553  1.00  0.00     0.066 N 
ATOM     17  O   UNL A   1      35.072  23.857  22.746  1.00  0.00    -0.258 OA
ATOM     18  O   UNL A   1      33.275  24.276  21.574  1.00  0.00    -0.258 OA
ENDBRANCH  13  16
ENDBRANCH   7   8
ENDBRANCH   6   7
ENDBRANCH   5   6
ENDBRANCH   3   5
ENDBRANCH   2   3
ENDBRANCH   1   2
BRANCH   1  19
ATOM     19  C   UNL A   1      31.760  30.167  25.736  1.00  0.00     0.275 C 
BRANCH  19  20
ATOM     20  O   UNL A   1      33.140  30.522  25.934  1.00  0.00    -0.458 OA
BRANCH  20  21
ATOM     21  C   UNL A   1      33.358  31.331  26.988  1.00  0.00     0.338 C 
ATOM     22  O   UNL A   1      32.639  32.249  27.364  1.00  0.00    -0.246 OA
BRANCH  21  23
ATOM     23  C   UNL A   1      34.574  30.989  27.713  1.00  0.00     0.060 A 
ATOM     24  C   UNL A   1      35.576  31.959  27.823  1.00  0.00     0.016 A 
ATOM     25  C   UNL A   1      34.778  29.679  28.146  1.00  0.00     0.016 A 
ATOM     26  C   UNL A   1      36.796  31.617  28.395  1.00  0.00     0.010 A 
ATOM     27  C   UNL A   1      35.997  29.342  28.729  1.00  0.00     0.010 A 
ATOM     28  C   UNL A   1      37.005  30.311  28.863  1.00  0.00    -0.014 A 
BRANCH  28  29
ATOM     29  C   UNL A   1      38.223  29.988  29.633  1.00  0.00     0.031 A 
ATOM     30  C   UNL A   1      39.239  29.022  29.112  1.00  0.00     0.074 A 
ATOM     31  C   UNL A   1      38.340  30.541  30.853  1.00  0.00     0.049 A 
ATOM     32  N   UNL A   1      40.333  28.596  29.684  1.00  0.00    -0.248 NA
ATOM     33  C   UNL A   1      38.994  28.450  27.778  1.00  0.00     0.031 C 
ATOM     34  C   UNL A   1      37.364  31.457  31.452  1.00  0.00     0.029 A 
ATOM     35  N   UNL A   1      39.299  30.395  31.819  1.00  0.00    -0.354 N 
ATOM     36  C   UNL A   1      40.896  27.685  28.801  1.00  0.00     0.074 A 
ATOM     37  C   UNL A   1      40.021  27.619  27.649  1.00  0.00     0.031 C 
ATOM     38  C   UNL A   1      37.767  31.780  32.688  1.00  0.00     0.029 A 
ATOM     39  C   UNL A   1      39.011  31.078  32.977  1.00  0.00     0.049 A 
ATOM     40  H   UNL A   1      40.113  29.857  31.696  1.00  0.00     0.167 HD
ATOM     41  C   UNL A   1      42.045  26.982  28.942  1.00  0.00     0.034 A 
ATOM     42  C   UNL A   1      39.674  31.121  34.147  1.00  0.00     0.034 A 
ATOM     43  C   UNL A   1      42.902  27.076  30.097  1.00  0.00     0.049 A 
ATOM     44  C   UNL A   1      40.963  30.361  34.259  1.00  0.00     0.074 A 
ATOM     45  C   UNL A   1      44.113  26.450  30.328  1.00  0.00     0.029 A 
ATOM     46  N   UNL A   1      42.628  27.844  31.221  1.00  0.00    -0.354 N 
ATOM     47  N   UNL A   1      41.552  29.608  33.362  1.00  0.00    -0.248 NA
ATOM     48  C   UNL A   1      41.697  30.482  35.525  1.00  0.00     0.031 C 
ATOM     49  C   UNL A   1      44.564  26.830  31.599  1.00  0.00     0.029 A 
ATOM     50  C   UNL A   1      43.642  27.703  32.153  1.00  0.00     0.049 A 
ATOM     51  H   UNL A   1      41.829  28.407  31.339  1.00  0.00     0.167 HD
ATOM     52  C   UNL A   1      42.737  29.178  33.943  1.00  0.00     0.074 A 
ATOM     53  C   UNL A   1      42.792  29.779  35.263  1.00  0.00     0.031 C 
ATOM     54  C   UNL A   1      43.684  28.346  33.443  1.00  0.00     0.034 A 
BRANCH  41  55
ATOM     55  C   UNL A   1      42.458  26.080  27.808  1.00  0.00     0.023 A 
ATOM     56  C   UNL A   1      43.346  26.566  26.827  1.00  0.00     0.012 A 
ATOM     57  C   UNL A   1      42.010  24.747  27.730  1.00  0.00     0.148 A 
ATOM     58  C   UNL A   1      43.758  25.751  25.772  1.00  0.00     0.002 A 
ATOM     59  C   UNL A   1      42.449  23.930  26.693  1.00  0.00     0.091 A 
ATOM     60  F   UNL A   1      41.147  24.306  28.657  1.00  0.00    -0.205 F 
ATOM     61  C   UNL A   1      43.317  24.432  25.709  1.00  0.00     0.022 A 
BRANCH  59  62
ATOM     62  S   UNL A   1      41.978  22.200  26.558  1.00  0.00     0.127 S 
ATOM     63  O   UNL A   1      42.438  21.668  27.839  1.00  0.00    -0.237 OA
ATOM     64  O   UNL A   1      40.523  22.282  26.421  1.00  0.00    -0.237 OA
ATOM     65  O   UNL A   1      42.667  21.692  25.380  1.00  0.00    -0.744 OA
ENDBRANCH  59  62
ENDBRANCH  41  55
BRANCH  42  66
ATOM     66  C   UNL A   1      39.153  31.977  35.248  1.00  0.00     0.023 A 
ATOM     67  C   UNL A   1      38.227  31.435  36.158  1.00  0.00     0.012 A 
ATOM     68  C   UNL A   1      39.644  33.280  35.461  1.00  0.00     0.148 A 
ATOM     69  C   UNL A   1      37.790  32.179  37.255  1.00  0.00     0.002 A 
ATOM     70  C   UNL A   1      39.247  33.996  36.585  1.00  0.00     0.091 A 
ATOM     71  F   UNL A   1      40.515  33.785  34.575  1.00  0.00    -0.205 F 
ATOM     72  C   UNL A   1      38.312  33.452  37.477  1.00  0.00     0.022 A 
BRANCH  70  73
ATOM     73  S   UNL A   1      39.990  35.574  37.019  1.00  0.00     0.127 S 
ATOM     74  O   UNL A   1      39.649  36.395  35.860  1.00  0.00    -0.237 OA
ATOM     75  O   UNL A   1      39.280  35.923  38.250  1.00  0.00    -0.237 OA
ATOM     76  O   UNL A   1      41.406  35.294  37.210  1.00  0.00    -0.744 OA
ENDBRANCH  70  73
ENDBRANCH  42  66
BRANCH  54  77
ATOM     77  C   UNL A   1      44.857  28.040  34.332  1.00  0.00     0.023 A 
ATOM     78  C   UNL A   1      45.974  28.901  34.321  1.00  0.00     0.012 A 
ATOM     79  C   UNL A   1      44.831  26.946  35.214  1.00  0.00     0.148 A 
ATOM     80  C   UNL A   1      47.058  28.659  35.161  1.00  0.00     0.002 A 
ATOM     81  C   UNL A   1      45.899  26.735  36.078  1.00  0.00     0.091 A 
ATOM     82  F   UNL A   1      43.770  26.125  35.188  1.00  0.00    -0.205 F 
ATOM     83  C   UNL A   1      47.017  27.585  36.046  1.00  0.00     0.022 A 
BRANCH  81  84
ATOM     84  S   UNL A   1      45.886  25.425  37.307  1.00  0.00     0.127 S 
ATOM     85  O   UNL A   1      45.882  24.229  36.469  1.00  0.00    -0.237 OA
ATOM     86  O   UNL A   1      47.137  25.660  38.030  1.00  0.00    -0.237 OA
ATOM     87  O   UNL A   1      44.684  25.644  38.103  1.00  0.00    -0.744 OA
ENDBRANCH  81  84
ENDBRANCH  54  77
ENDBRANCH  28  29
ENDBRANCH  21  23
ENDBRANCH  20  21
ENDBRANCH  19  20
ENDBRANCH   1  19
TORSDOF 18
ENDMDL
MODEL 3
REMARK VINA RESULT:     -10.5      1.700      2.312
REMARK SMILES Cc1cc(Br)cc([N+](=O)[O-])c1OCCC(=O)OCCOC(=O)c1ccc(-c2c3nc(c(-c4cccc(S(=O)(=O)[O-])c4F)c4ccc([nH]4)c(-c4cccc(S(=O)(=O)[O-])c4F)c4nc(c(-c5cccc(S(=O)(=O)[O-])c5F)c5ccc2[nH]5)C=C4)C=C3)cc1
REMARK SMILES IDX 18 1 17 2 15 3 16 4 14 5 13 6 12 7 11 8 1 9 2 10 3 11 4 12
REMARK SMILES IDX 7 13 5 14 6 15 8 16 9 17 10 18 19 19 20 20 21 21 22 22 23 23
REMARK SMILES IDX 24 24 85 25 25 26 84 27 26 28 27 29 28 30 78 31 29 32 83 33
REMARK SMILES IDX 77 34 79 35 30 36 82 37 76 38 75 39 31 41 63 42 43 43 62 44
REMARK SMILES IDX 44 45 47 46 61 47 80 48 45 49 46 50 60 52 81 53 48 54 32 55
REMARK SMILES IDX 33 56 41 57 34 58 36 59 42 60 35 61 37 62 38 63 39 64 40 65
REMARK SMILES IDX 64 66 65 67 73 68 66 69 68 70 74 71 67 72 69 73 70 74 71 75
REMARK SMILES IDX 72 76 49 77 50 78 58 79 51 80 53 81 59 82 52 83 54 84 55 85
REMARK SMILES IDX 56 86 57 87
REMARK H PARENT 79 40 47 51
REMARK Flexibility Score: inf
ROOT
ATOM      1  C   UNL A   1      35.751  20.019  25.033  1.00  0.00     0.274 C 
ENDROOT
BRANCH   1   2
ATOM      2  O   UNL A   1      34.555  20.677  24.559  1.00  0.00    -0.462 OA
BRANCH   2   3
ATOM      3  C   UNL A   1      33.596  20.935  25.488  1.00  0.00     0.309 C 
ATOM      4  O   UNL A   1      33.758  20.859  26.699  1.00  0.00    -0.252 OA
BRANCH   3   5
ATOM      5  C   UNL A   1      32.260  21.246  24.857  1.00  0.00     0.164 C 
BRANCH   5   6
ATOM      6  C   UNL A   1      31.607  22.526  25.371  1.00  0.00     0.241 C 
BRANCH   6   7
ATOM      7  O   UNL A   1      31.575  23.640  24.450  1.00  0.00    -0.486 OA
BRANCH   7   8
ATOM      8  C   UNL A   1      32.086  24.804  24.950  1.00  0.00     0.200 A 
ATOM      9  C   UNL A   1      29.785  25.587  25.788  1.00  0.00     0.049 C 
ATOM     10  C   UNL A   1      31.285  25.695  25.690  1.00  0.00    -0.001 A 
ATOM     11  C   UNL A   1      31.882  26.829  26.275  1.00  0.00     0.023 A 
ATOM     12  C   UNL A   1      33.229  27.113  26.067  1.00  0.00     0.025 A 
ATOM     13  C   UNL A   1      33.407  25.176  24.645  1.00  0.00     0.312 A 
ATOM     14  Br  UNL A   1      34.006  28.631  26.879  1.00  0.00    -0.051 Br
ATOM     15  C   UNL A   1      33.989  26.316  25.223  1.00  0.00     0.105 A 
BRANCH  13  16
ATOM     16  N   UNL A   1      34.202  24.455  23.644  1.00  0.00     0.066 N 
ATOM     17  O   UNL A   1      35.237  23.900  24.048  1.00  0.00    -0.258 OA
ATOM     18  O   UNL A   1      33.808  24.407  22.473  1.00  0.00    -0.258 OA
ENDBRANCH  13  16
ENDBRANCH   7   8
ENDBRANCH   6   7
ENDBRANCH   5   6
ENDBRANCH   3   5
ENDBRANCH   2   3
ENDBRANCH   1   2
BRANCH   1  19
ATOM     19  C   UNL A   1      37.037  20.772  24.674  1.00  0.00     0.275 C 
BRANCH  19  20
ATOM     20  O   UNL A   1      37.462  21.676  25.709  1.00  0.00    -0.458 OA
BRANCH  20  21
ATOM     21  C   UNL A   1      38.725  21.481  26.130  1.00  0.00     0.338 C 
ATOM     22  O   UNL A   1      39.314  20.410  26.197  1.00  0.00    -0.246 OA
BRANCH  21  23
ATOM     23  C   UNL A   1      39.392  22.724  26.491  1.00  0.00     0.060 A 
ATOM     24  C   UNL A   1      40.447  22.670  27.408  1.00  0.00     0.016 A 
ATOM     25  C   UNL A   1      38.879  23.942  26.044  1.00  0.00     0.016 A 
ATOM     26  C   UNL A   1      41.013  23.853  27.869  1.00  0.00     0.010 A 
ATOM     27  C   UNL A   1      39.455  25.126  26.498  1.00  0.00     0.010 A 
ATOM     28  C   UNL A   1      40.528  25.085  27.404  1.00  0.00    -0.014 A 
BRANCH  28  29
ATOM     29  C   UNL A   1      41.238  26.334  27.745  1.00  0.00     0.031 A 
ATOM     30  C   UNL A   1      40.565  27.426  28.513  1.00  0.00     0.074 A 
ATOM     31  C   UNL A   1      42.487  26.477  27.268  1.00  0.00     0.049 A 
ATOM     32  N   UNL A   1      41.031  28.599  28.848  1.00  0.00    -0.248 NA
ATOM     33  C   UNL A   1      39.184  27.176  28.957  1.00  0.00     0.031 C 
ATOM     34  C   UNL A   1      43.196  25.474  26.467  1.00  0.00     0.029 A 
ATOM     35  N   UNL A   1      43.369  27.520  27.353  1.00  0.00    -0.354 N 
ATOM     36  C   UNL A   1      39.999  29.243  29.517  1.00  0.00     0.074 A 
ATOM     37  C   UNL A   1      38.876  28.329  29.540  1.00  0.00     0.031 C 
ATOM     38  C   UNL A   1      44.397  25.956  26.123  1.00  0.00     0.029 A 
ATOM     39  C   UNL A   1      44.533  27.306  26.655  1.00  0.00     0.049 A 
ATOM     40  H   UNL A   1      43.188  28.341  27.865  1.00  0.00     0.167 HD
ATOM     41  C   UNL A   1      40.001  30.482  30.067  1.00  0.00     0.034 A 
ATOM     42  C   UNL A   1      45.589  28.117  26.457  1.00  0.00     0.034 A 
ATOM     43  C   UNL A   1      41.138  31.366  30.037  1.00  0.00     0.049 A 
ATOM     44  C   UNL A   1      45.578  29.467  27.111  1.00  0.00     0.074 A 
ATOM     45  C   UNL A   1      41.272  32.621  30.602  1.00  0.00     0.029 A 
ATOM     46  N   UNL A   1      42.338  31.086  29.395  1.00  0.00    -0.354 N 
ATOM     47  N   UNL A   1      44.645  30.011  27.854  1.00  0.00    -0.248 NA
ATOM     48  C   UNL A   1      46.772  30.301  26.931  1.00  0.00     0.031 C 
ATOM     49  C   UNL A   1      42.549  33.105  30.291  1.00  0.00     0.029 A 
ATOM     50  C   UNL A   1      43.215  32.147  29.542  1.00  0.00     0.049 A 
ATOM     51  H   UNL A   1      42.536  30.255  28.905  1.00  0.00     0.167 HD
ATOM     52  C   UNL A   1      45.143  31.244  28.251  1.00  0.00     0.074 A 
ATOM     53  C   UNL A   1      46.474  31.353  27.684  1.00  0.00     0.031 C 
ATOM     54  C   UNL A   1      44.549  32.208  28.997  1.00  0.00     0.034 A 
BRANCH  41  55
ATOM     55  C   UNL A   1      38.752  30.934  30.777  1.00  0.00     0.023 A 
ATOM     56  C   UNL A   1      38.668  30.804  32.178  1.00  0.00     0.012 A 
ATOM     57  C   UNL A   1      37.683  31.526  30.076  1.00  0.00     0.148 A 
ATOM     58  C   UNL A   1      37.530  31.227  32.866  1.00  0.00     0.002 A 
ATOM     59  C   UNL A   1      36.564  31.973  30.771  1.00  0.00     0.091 A 
ATOM     60  F   UNL A   1      37.767  31.621  28.741  1.00  0.00    -0.205 F 
ATOM     61  C   UNL A   1      36.483  31.819  32.165  1.00  0.00     0.022 A 
BRANCH  59  62
ATOM     62  S   UNL A   1      35.188  32.798  29.960  1.00  0.00     0.127 S 
ATOM     63  O   UNL A   1      34.676  31.738  29.095  1.00  0.00    -0.237 OA
ATOM     64  O   UNL A   1      34.318  33.136  31.088  1.00  0.00    -0.237 OA
ATOM     65  O   UNL A   1      35.763  33.949  29.276  1.00  0.00    -0.744 OA
ENDBRANCH  59  62
ENDBRANCH  41  55
BRANCH  42  66
ATOM     66  C   UNL A   1      46.752  27.618  25.673  1.00  0.00     0.023 A 
ATOM     67  C   UNL A   1      46.790  27.841  24.284  1.00  0.00     0.012 A 
ATOM     68  C   UNL A   1      47.862  27.023  26.304  1.00  0.00     0.148 A 
ATOM     69  C   UNL A   1      47.907  27.471  23.535  1.00  0.00     0.002 A 
ATOM     70  C   UNL A   1      48.994  26.706  25.561  1.00  0.00     0.091 A 
ATOM     71  F   UNL A   1      47.803  26.805  27.626  1.00  0.00    -0.205 F 
ATOM     72  C   UNL A   1      49.014  26.919  24.175  1.00  0.00     0.022 A 
BRANCH  70  73
ATOM     73  S   UNL A   1      50.513  26.136  26.337  1.00  0.00     0.127 S 
ATOM     74  O   UNL A   1      51.449  26.160  25.217  1.00  0.00    -0.237 OA
ATOM     75  O   UNL A   1      50.745  27.162  27.356  1.00  0.00    -0.237 OA
ATOM     76  O   UNL A   1      50.198  24.822  26.880  1.00  0.00    -0.744 OA
ENDBRANCH  70  73
ENDBRANCH  42  66
BRANCH  54  77
ATOM     77  C   UNL A   1      45.339  33.464  29.238  1.00  0.00     0.023 A 
ATOM     78  C   UNL A   1      46.170  33.548  30.374  1.00  0.00     0.012 A 
ATOM     79  C   UNL A   1      45.308  34.527  28.319  1.00  0.00     0.148 A 
ATOM     80  C   UNL A   1      46.940  34.686  30.601  1.00  0.00     0.002 A 
ATOM     81  C   UNL A   1      46.110  35.642  28.531  1.00  0.00     0.091 A 
ATOM     82  F   UNL A   1      44.490  34.436  27.259  1.00  0.00    -0.205 F 
ATOM     83  C   UNL A   1      46.919  35.727  29.676  1.00  0.00     0.022 A 
BRANCH  81  84
ATOM     84  S   UNL A   1      46.205  36.987  27.344  1.00  0.00     0.127 S 
ATOM     85  O   UNL A   1      44.839  37.505  27.369  1.00  0.00    -0.237 OA
ATOM     86  O   UNL A   1      47.204  37.870  27.948  1.00  0.00    -0.237 OA
ATOM     87  O   UNL A   1      46.627  36.376  26.090  1.00  0.00    -0.744 OA
ENDBRANCH  81  84
ENDBRANCH  54  77
ENDBRANCH  28  29
ENDBRANCH  21  23
ENDBRANCH  20  21
ENDBRANCH  19  20
ENDBRANCH   1  19
TORSDOF 18
ENDMDL
