MODEL 1
REMARK VINA RESULT:     -11.8      0.000      0.000
REMARK SMILES CCc1ccc(C(=O)OCCOC(=O)c2ccc(-c3c4nc(c(-c5cccc(S(=O)(=O)[O-])c5F)c5ccc([nH]5)c(-c5cccc(S(=O)(=O)[O-])c5F)c5nc(c(-c6cccc(S(=O)(=O)[O-])c6F)c6ccc3[nH]6)C=C5)C=C4)cc2)cc1S(=O)(=O)Nc1ccc(F)c(F)c1F
REMARK SMILES IDX 10 1 9 2 7 3 8 4 6 5 3 6 4 7 79 8 5 9 78 10 2 11 1 12 80 13
REMARK SMILES IDX 81 14 82 15 83 16 84 18 85 19 91 20 86 21 89 22 92 23 87 24
REMARK SMILES IDX 90 25 88 26 11 27 12 28 13 29 14 30 15 31 16 32 77 33 17 34
REMARK SMILES IDX 76 35 18 36 19 37 20 38 70 39 21 40 75 41 69 42 71 43 22 44
REMARK SMILES IDX 74 45 68 46 67 47 23 49 55 50 35 51 54 52 36 53 39 54 53 55
REMARK SMILES IDX 72 56 37 57 38 58 52 60 73 61 40 62 24 63 25 64 33 65 26 66
REMARK SMILES IDX 28 67 34 68 27 69 29 70 30 71 31 72 32 73 56 74 57 75 65 76
REMARK SMILES IDX 58 77 60 78 66 79 59 80 61 81 62 82 63 83 64 84 41 85 42 86
REMARK SMILES IDX 50 87 43 88 45 89 51 90 44 91 46 92 47 93 48 94 49 95
REMARK H PARENT 83 17 71 48 39 59
REMARK Flexibility Score: inf
ROOT
ATOM      1  C   UNL A   1      31.444  29.896  25.483  1.00  0.00     0.275 C 
ENDROOT
BRANCH   1   2
ATOM      2  O   UNL A   1      32.535  29.047  25.907  1.00  0.00    -0.458 OA
BRANCH   2   3
ATOM      3  C   UNL A   1      32.135  28.038  26.713  1.00  0.00     0.338 C 
ATOM      4  O   UNL A   1      31.501  28.167  27.753  1.00  0.00    -0.246 OA
BRANCH   3   5
ATOM      5  C   UNL A   1      32.545  26.687  26.271  1.00  0.00     0.061 A 
ATOM      6  C   UNL A   1      32.811  24.526  24.520  1.00  0.00    -0.028 A 
ATOM      7  C   UNL A   1      33.742  25.567  24.503  1.00  0.00     0.006 A 
ATOM      8  C   UNL A   1      31.997  24.406  25.661  1.00  0.00     0.091 A 
ATOM      9  C   UNL A   1      33.595  26.642  25.356  1.00  0.00     0.016 A 
ATOM     10  C   UNL A   1      31.814  25.527  26.510  1.00  0.00     0.038 A 
BRANCH   6  11
ATOM     11  C   UNL A   1      32.694  23.804  23.198  1.00  0.00     0.033 C 
ATOM     12  C   UNL A   1      33.917  23.013  22.767  1.00  0.00     0.009 C 
ENDBRANCH   6  11
BRANCH   8  13
ATOM     13  S   UNL A   1      31.227  22.899  26.232  1.00  0.00     0.262 S 
ATOM     14  O   UNL A   1      30.280  23.254  27.272  1.00  0.00    -0.201 OA
ATOM     15  O   UNL A   1      30.771  22.209  25.046  1.00  0.00    -0.201 OA
BRANCH  13  16
ATOM     16  N   UNL A   1      32.364  21.876  26.903  1.00  0.00    -0.277 N 
ATOM     17  H   UNL A   1      32.093  21.405  27.725  1.00  0.00     0.180 HD
BRANCH  16  18
ATOM     18  C   UNL A   1      33.681  21.605  26.429  1.00  0.00     0.088 A 
ATOM     19  C   UNL A   1      33.798  20.460  25.618  1.00  0.00     0.033 A 
ATOM     20  C   UNL A   1      34.801  22.425  26.604  1.00  0.00     0.185 A 
ATOM     21  C   UNL A   1      34.970  20.211  24.902  1.00  0.00     0.045 A 
ATOM     22  C   UNL A   1      35.973  22.167  25.898  1.00  0.00     0.196 A 
ATOM     23  F   UNL A   1      34.746  23.512  27.383  1.00  0.00    -0.201 F 
ATOM     24  C   UNL A   1      36.047  21.081  25.034  1.00  0.00     0.162 A 
ATOM     25  F   UNL A   1      37.019  22.998  26.010  1.00  0.00    -0.200 F 
ATOM     26  F   UNL A   1      37.146  20.869  24.300  1.00  0.00    -0.204 F 
ENDBRANCH  16  18
ENDBRANCH  13  16
ENDBRANCH   8  13
ENDBRANCH   3   5
ENDBRANCH   2   3
ENDBRANCH   1   2
BRANCH   1  27
ATOM     27  C   UNL A   1      31.524  31.304  26.082  1.00  0.00     0.275 C 
BRANCH  27  28
ATOM     28  O   UNL A   1      32.248  31.314  27.328  1.00  0.00    -0.458 OA
BRANCH  28  29
ATOM     29  C   UNL A   1      33.149  32.315  27.462  1.00  0.00     0.338 C 
ATOM     30  O   UNL A   1      32.918  33.514  27.409  1.00  0.00    -0.246 OA
BRANCH  29  31
ATOM     31  C   UNL A   1      34.509  31.805  27.734  1.00  0.00     0.060 A 
ATOM     32  C   UNL A   1      34.699  30.457  28.000  1.00  0.00     0.016 A 
ATOM     33  C   UNL A   1      35.551  32.700  27.964  1.00  0.00     0.016 A 
ATOM     34  C   UNL A   1      35.835  30.035  28.696  1.00  0.00     0.010 A 
ATOM     35  C   UNL A   1      36.759  32.243  28.512  1.00  0.00     0.010 A 
ATOM     36  C   UNL A   1      36.892  30.921  28.973  1.00  0.00    -0.014 A 
BRANCH  36  37
ATOM     37  C   UNL A   1      38.086  30.490  29.780  1.00  0.00     0.031 A 
ATOM     38  C   UNL A   1      39.143  29.578  29.181  1.00  0.00     0.074 A 
ATOM     39  C   UNL A   1      38.254  30.905  31.056  1.00  0.00     0.049 A 
ATOM     40  N   UNL A   1      40.139  28.963  29.774  1.00  0.00    -0.248 NA
ATOM     41  C   UNL A   1      39.056  29.298  27.739  1.00  0.00     0.031 C 
ATOM     42  C   UNL A   1      37.337  31.774  31.795  1.00  0.00     0.029 A 
ATOM     43  N   UNL A   1      39.260  30.652  31.962  1.00  0.00    -0.354 N 
ATOM     44  C   UNL A   1      40.723  28.149  28.805  1.00  0.00     0.074 A 
ATOM     45  C   UNL A   1      39.981  28.359  27.582  1.00  0.00     0.031 C 
ATOM     46  C   UNL A   1      37.845  32.029  33.008  1.00  0.00     0.029 A 
ATOM     47  C   UNL A   1      39.074  31.265  33.181  1.00  0.00     0.049 A 
ATOM     48  H   UNL A   1      40.038  30.086  31.757  1.00  0.00     0.167 HD
ATOM     49  C   UNL A   1      41.787  27.315  28.912  1.00  0.00     0.034 A 
ATOM     50  C   UNL A   1      39.782  31.201  34.328  1.00  0.00     0.034 A 
ATOM     51  C   UNL A   1      42.613  27.193  30.085  1.00  0.00     0.049 A 
ATOM     52  C   UNL A   1      41.004  30.332  34.397  1.00  0.00     0.074 A 
ATOM     53  C   UNL A   1      43.742  26.411  30.266  1.00  0.00     0.029 A 
ATOM     54  N   UNL A   1      42.426  27.896  31.265  1.00  0.00    -0.354 N 
ATOM     55  N   UNL A   1      41.546  29.594  33.460  1.00  0.00    -0.248 NA
ATOM     56  C   UNL A   1      41.720  30.293  35.682  1.00  0.00     0.031 C 
ATOM     57  C   UNL A   1      44.240  26.642  31.552  1.00  0.00     0.029 A 
ATOM     58  C   UNL A   1      43.426  27.577  32.170  1.00  0.00     0.049 A 
ATOM     59  H   UNL A   1      41.692  28.528  31.434  1.00  0.00     0.167 HD
ATOM     60  C   UNL A   1      42.673  29.018  34.033  1.00  0.00     0.074 A 
ATOM     61  C   UNL A   1      42.757  29.519  35.389  1.00  0.00     0.031 C 
ATOM     62  C   UNL A   1      43.542  28.129  33.493  1.00  0.00     0.034 A 
BRANCH  49  63
ATOM     63  C   UNL A   1      42.160  26.482  27.709  1.00  0.00     0.023 A 
ATOM     64  C   UNL A   1      43.010  27.017  26.720  1.00  0.00     0.012 A 
ATOM     65  C   UNL A   1      41.733  25.143  27.600  1.00  0.00     0.148 A 
ATOM     66  C   UNL A   1      43.402  26.243  25.627  1.00  0.00     0.002 A 
ATOM     67  C   UNL A   1      42.163  24.365  26.530  1.00  0.00     0.091 A 
ATOM     68  F   UNL A   1      40.909  24.654  28.540  1.00  0.00    -0.205 F 
ATOM     69  C   UNL A   1      42.988  24.915  25.539  1.00  0.00     0.022 A 
BRANCH  67  70
ATOM     70  S   UNL A   1      41.752  22.621  26.380  1.00  0.00     0.127 S 
ATOM     71  O   UNL A   1      42.473  22.250  25.164  1.00  0.00    -0.237 OA
ATOM     72  O   UNL A   1      42.310  22.060  27.612  1.00  0.00    -0.237 OA
ATOM     73  O   UNL A   1      40.299  22.560  26.297  1.00  0.00    -0.744 OA
ENDBRANCH  67  70
ENDBRANCH  49  63
BRANCH  50  74
ATOM     74  C   UNL A   1      39.358  32.019  35.502  1.00  0.00     0.023 A 
ATOM     75  C   UNL A   1      38.438  31.480  36.422  1.00  0.00     0.012 A 
ATOM     76  C   UNL A   1      39.899  33.296  35.744  1.00  0.00     0.148 A 
ATOM     77  C   UNL A   1      38.055  32.204  37.553  1.00  0.00     0.002 A 
ATOM     78  C   UNL A   1      39.568  33.981  36.906  1.00  0.00     0.091 A 
ATOM     79  F   UNL A   1      40.750  33.808  34.843  1.00  0.00    -0.205 F 
ATOM     80  C   UNL A   1      38.634  33.445  37.804  1.00  0.00     0.022 A 
BRANCH  78  81
ATOM     81  S   UNL A   1      40.402  35.501  37.379  1.00  0.00     0.127 S 
ATOM     82  O   UNL A   1      39.813  36.467  36.458  1.00  0.00    -0.237 OA
ATOM     83  O   UNL A   1      39.994  35.654  38.777  1.00  0.00    -0.237 OA
ATOM     84  O   UNL A   1      41.822  35.229  37.202  1.00  0.00    -0.744 OA
ENDBRANCH  78  81
ENDBRANCH  50  74
BRANCH  62  85
ATOM     85  C   UNL A   1      44.686  27.665  34.355  1.00  0.00     0.023 A 
ATOM     86  C   UNL A   1      45.900  28.381  34.345  1.00  0.00     0.012 A 
ATOM     87  C   UNL A   1      44.546  26.554  35.208  1.00  0.00     0.148 A 
ATOM     88  C   UNL A   1      46.966  27.980  35.149  1.00  0.00     0.002 A 
ATOM     89  C   UNL A   1      45.600  26.184  36.036  1.00  0.00     0.091 A 
ATOM     90  F   UNL A   1      43.393  25.869  35.186  1.00  0.00    -0.205 F 
ATOM     91  C   UNL A   1      46.813  26.888  36.001  1.00  0.00     0.022 A 
BRANCH  89  92
ATOM     92  S   UNL A   1      45.451  24.838  37.218  1.00  0.00     0.127 S 
ATOM     93  O   UNL A   1      44.332  25.287  38.045  1.00  0.00    -0.237 OA
ATOM     94  O   UNL A   1      45.150  23.693  36.357  1.00  0.00    -0.237 OA
ATOM     95  O   UNL A   1      46.742  24.760  37.888  1.00  0.00    -0.744 OA
ENDBRANCH  89  92
ENDBRANCH  62  85
ENDBRANCH  36  37
ENDBRANCH  29  31
ENDBRANCH  28  29
ENDBRANCH  27  28
ENDBRANCH   1  27
TORSDOF 18
ENDMDL
MODEL 2
REMARK VINA RESULT:     -11.7      4.914      9.976
REMARK SMILES CCc1ccc(C(=O)OCCOC(=O)c2ccc(-c3c4nc(c(-c5cccc(S(=O)(=O)[O-])c5F)c5ccc([nH]5)c(-c5cccc(S(=O)(=O)[O-])c5F)c5nc(c(-c6cccc(S(=O)(=O)[O-])c6F)c6ccc3[nH]6)C=C5)C=C4)cc2)cc1S(=O)(=O)Nc1ccc(F)c(F)c1F
REMARK SMILES IDX 10 1 9 2 7 3 8 4 6 5 3 6 4 7 79 8 5 9 78 10 2 11 1 12 80 13
REMARK SMILES IDX 81 14 82 15 83 16 84 18 85 19 91 20 86 21 89 22 92 23 87 24
REMARK SMILES IDX 90 25 88 26 11 27 12 28 13 29 14 30 15 31 16 32 77 33 17 34
REMARK SMILES IDX 76 35 18 36 19 37 20 38 70 39 21 40 75 41 69 42 71 43 22 44
REMARK SMILES IDX 74 45 68 46 67 47 23 49 55 50 35 51 54 52 36 53 39 54 53 55
REMARK SMILES IDX 72 56 37 57 38 58 52 60 73 61 40 62 24 63 25 64 33 65 26 66
REMARK SMILES IDX 28 67 34 68 27 69 29 70 30 71 31 72 32 73 56 74 57 75 65 76
REMARK SMILES IDX 58 77 60 78 66 79 59 80 61 81 62 82 63 83 64 84 41 85 42 86
REMARK SMILES IDX 50 87 43 88 45 89 51 90 44 91 46 92 47 93 48 94 49 95
REMARK H PARENT 83 17 71 48 39 59
REMARK Flexibility Score: inf
ROOT
ATOM      1  C   UNL A   1      35.668  19.557  24.985  1.00  0.00     0.275 C 
ENDROOT
BRANCH   1   2
ATOM      2  O   UNL A   1      34.396  19.509  24.299  1.00  0.00    -0.458 OA
BRANCH   2   3
ATOM      3  C   UNL A   1      33.350  19.791  25.107  1.00  0.00     0.338 C 
ATOM      4  O   UNL A   1      33.041  19.167  26.115  1.00  0.00    -0.246 OA
BRANCH   3   5
ATOM      5  C   UNL A   1      32.525  20.943  24.681  1.00  0.00     0.061 A 
ATOM      6  C   UNL A   1      31.964  23.386  23.447  1.00  0.00    -0.028 A 
ATOM      7  C   UNL A   1      31.917  22.197  22.714  1.00  0.00     0.006 A 
ATOM      8  C   UNL A   1      31.916  23.283  24.849  1.00  0.00     0.091 A 
ATOM      9  C   UNL A   1      32.215  20.996  23.324  1.00  0.00     0.016 A 
ATOM     10  C   UNL A   1      32.265  22.058  25.472  1.00  0.00     0.038 A 
BRANCH   6  11
ATOM     11  C   UNL A   1      32.265  24.601  22.601  1.00  0.00     0.033 C 
ATOM     12  C   UNL A   1      33.598  25.279  22.869  1.00  0.00     0.009 C 
ENDBRANCH   6  11
BRANCH   8  13
ATOM     13  S   UNL A   1      31.332  24.551  25.962  1.00  0.00     0.262 S 
ATOM     14  O   UNL A   1      30.016  24.962  25.512  1.00  0.00    -0.201 OA
ATOM     15  O   UNL A   1      31.505  24.022  27.297  1.00  0.00    -0.201 OA
BRANCH  13  16
ATOM     16  N   UNL A   1      32.331  25.888  25.907  1.00  0.00    -0.277 N 
ATOM     17  H   UNL A   1      33.296  25.706  25.828  1.00  0.00     0.180 HD
BRANCH  16  18
ATOM     18  C   UNL A   1      31.953  27.262  25.961  1.00  0.00     0.088 A 
ATOM     19  C   UNL A   1      32.339  27.940  27.133  1.00  0.00     0.033 A 
ATOM     20  C   UNL A   1      31.356  27.990  24.926  1.00  0.00     0.185 A 
ATOM     21  C   UNL A   1      32.242  29.331  27.215  1.00  0.00     0.045 A 
ATOM     22  C   UNL A   1      31.250  29.376  25.016  1.00  0.00     0.196 A 
ATOM     23  F   UNL A   1      30.953  27.386  23.801  1.00  0.00    -0.201 F 
ATOM     24  C   UNL A   1      31.713  30.041  26.144  1.00  0.00     0.162 A 
ATOM     25  F   UNL A   1      30.747  30.076  23.991  1.00  0.00    -0.200 F 
ATOM     26  F   UNL A   1      31.678  31.378  26.207  1.00  0.00    -0.204 F 
ENDBRANCH  16  18
ENDBRANCH  13  16
ENDBRANCH   8  13
ENDBRANCH   3   5
ENDBRANCH   2   3
ENDBRANCH   1   2
BRANCH   1  27
ATOM     27  C   UNL A   1      36.083  20.984  25.359  1.00  0.00     0.275 C 
BRANCH  27  28
ATOM     28  O   UNL A   1      37.332  21.356  24.743  1.00  0.00    -0.458 OA
BRANCH  28  29
ATOM     29  C   UNL A   1      38.440  21.057  25.462  1.00  0.00     0.338 C 
ATOM     30  O   UNL A   1      39.058  20.005  25.442  1.00  0.00    -0.246 OA
BRANCH  29  31
ATOM     31  C   UNL A   1      38.887  22.197  26.290  1.00  0.00     0.060 A 
ATOM     32  C   UNL A   1      38.310  23.446  26.113  1.00  0.00     0.016 A 
ATOM     33  C   UNL A   1      40.038  22.080  27.065  1.00  0.00     0.016 A 
ATOM     34  C   UNL A   1      38.996  24.595  26.516  1.00  0.00     0.010 A 
ATOM     35  C   UNL A   1      40.635  23.226  27.611  1.00  0.00     0.010 A 
ATOM     36  C   UNL A   1      40.179  24.512  27.272  1.00  0.00    -0.014 A 
BRANCH  36  37
ATOM     37  C   UNL A   1      40.956  25.743  27.650  1.00  0.00     0.031 A 
ATOM     38  C   UNL A   1      40.336  26.818  28.525  1.00  0.00     0.074 A 
ATOM     39  C   UNL A   1      42.228  25.924  27.227  1.00  0.00     0.049 A 
ATOM     40  N   UNL A   1      40.783  28.019  28.806  1.00  0.00    -0.248 NA
ATOM     41  C   UNL A   1      39.033  26.520  29.143  1.00  0.00     0.031 C 
ATOM     42  C   UNL A   1      42.980  25.002  26.374  1.00  0.00     0.029 A 
ATOM     43  N   UNL A   1      43.118  26.949  27.459  1.00  0.00    -0.354 N 
ATOM     44  C   UNL A   1      39.777  28.648  29.536  1.00  0.00     0.074 A 
ATOM     45  C   UNL A   1      38.700  27.691  29.669  1.00  0.00     0.031 C 
ATOM     46  C   UNL A   1      44.225  25.467  26.204  1.00  0.00     0.029 A 
ATOM     47  C   UNL A   1      44.339  26.770  26.848  1.00  0.00     0.049 A 
ATOM     48  H   UNL A   1      42.902  27.735  28.009  1.00  0.00     0.167 HD
ATOM     49  C   UNL A   1      39.749  29.897  30.063  1.00  0.00     0.034 A 
ATOM     50  C   UNL A   1      45.425  27.568  26.773  1.00  0.00     0.034 A 
ATOM     51  C   UNL A   1      40.862  30.812  30.050  1.00  0.00     0.049 A 
ATOM     52  C   UNL A   1      45.400  28.916  27.434  1.00  0.00     0.074 A 
ATOM     53  C   UNL A   1      40.940  32.079  30.605  1.00  0.00     0.029 A 
ATOM     54  N   UNL A   1      42.100  30.549  29.487  1.00  0.00    -0.354 N 
ATOM     55  N   UNL A   1      44.445  29.473  28.137  1.00  0.00    -0.248 NA
ATOM     56  C   UNL A   1      46.608  29.744  27.301  1.00  0.00     0.031 C 
ATOM     57  C   UNL A   1      42.227  32.581  30.380  1.00  0.00     0.029 A 
ATOM     58  C   UNL A   1      42.952  31.622  29.693  1.00  0.00     0.049 A 
ATOM     59  H   UNL A   1      42.339  29.722  29.010  1.00  0.00     0.167 HD
ATOM     60  C   UNL A   1      44.941  30.706  28.544  1.00  0.00     0.074 A 
ATOM     61  C   UNL A   1      46.294  30.801  28.038  1.00  0.00     0.031 C 
ATOM     62  C   UNL A   1      44.318  31.683  29.246  1.00  0.00     0.034 A 
BRANCH  49  63
ATOM     63  C   UNL A   1      38.482  30.352  30.745  1.00  0.00     0.023 A 
ATOM     64  C   UNL A   1      38.303  30.117  32.123  1.00  0.00     0.012 A 
ATOM     65  C   UNL A   1      37.506  31.084  30.039  1.00  0.00     0.148 A 
ATOM     66  C   UNL A   1      37.158  30.574  32.778  1.00  0.00     0.002 A 
ATOM     67  C   UNL A   1      36.389  31.574  30.707  1.00  0.00     0.091 A 
ATOM     68  F   UNL A   1      37.683  31.285  28.724  1.00  0.00    -0.205 F 
ATOM     69  C   UNL A   1      36.209  31.311  32.074  1.00  0.00     0.022 A 
BRANCH  67  70
ATOM     70  S   UNL A   1      35.159  32.607  29.901  1.00  0.00     0.127 S 
ATOM     71  O   UNL A   1      34.267  32.930  31.014  1.00  0.00    -0.237 OA
ATOM     72  O   UNL A   1      35.961  33.734  29.420  1.00  0.00    -0.237 OA
ATOM     73  O   UNL A   1      34.580  31.787  28.846  1.00  0.00    -0.744 OA
ENDBRANCH  67  70
ENDBRANCH  49  63
BRANCH  50  74
ATOM     74  C   UNL A   1      46.645  27.089  26.061  1.00  0.00     0.023 A 
ATOM     75  C   UNL A   1      46.779  27.331  24.680  1.00  0.00     0.012 A 
ATOM     76  C   UNL A   1      47.694  26.448  26.748  1.00  0.00     0.148 A 
ATOM     77  C   UNL A   1      47.928  26.932  23.995  1.00  0.00     0.002 A 
ATOM     78  C   UNL A   1      48.864  26.117  26.075  1.00  0.00     0.091 A 
ATOM     79  F   UNL A   1      47.540  26.196  28.056  1.00  0.00    -0.205 F 
ATOM     80  C   UNL A   1      48.977  26.343  24.695  1.00  0.00     0.022 A 
BRANCH  78  81
ATOM     81  S   UNL A   1      50.318  25.515  26.943  1.00  0.00     0.127 S 
ATOM     82  O   UNL A   1      51.270  25.343  25.851  1.00  0.00    -0.237 OA
ATOM     83  O   UNL A   1      50.614  26.624  27.853  1.00  0.00    -0.237 OA
ATOM     84  O   UNL A   1      49.884  24.297  27.614  1.00  0.00    -0.744 OA
ENDBRANCH  78  81
ENDBRANCH  50  74
BRANCH  62  85
ATOM     85  C   UNL A   1      45.104  32.932  29.546  1.00  0.00     0.023 A 
ATOM     86  C   UNL A   1      45.884  32.999  30.718  1.00  0.00     0.012 A 
ATOM     87  C   UNL A   1      45.112  34.016  28.648  1.00  0.00     0.148 A 
ATOM     88  C   UNL A   1      46.634  34.138  31.006  1.00  0.00     0.002 A 
ATOM     89  C   UNL A   1      45.894  35.133  28.922  1.00  0.00     0.091 A 
ATOM     90  F   UNL A   1      44.344  33.945  27.550  1.00  0.00    -0.205 F 
ATOM     91  C   UNL A   1      46.647  35.200  30.104  1.00  0.00     0.022 A 
BRANCH  89  92
ATOM     92  S   UNL A   1      46.025  36.506  27.770  1.00  0.00     0.127 S 
ATOM     93  O   UNL A   1      46.938  37.403  28.475  1.00  0.00    -0.237 OA
ATOM     94  O   UNL A   1      46.595  35.869  26.582  1.00  0.00    -0.237 OA
ATOM     95  O   UNL A   1      44.666  36.999  27.591  1.00  0.00    -0.744 OA
ENDBRANCH  89  92
ENDBRANCH  62  85
ENDBRANCH  36  37
ENDBRANCH  29  31
ENDBRANCH  28  29
ENDBRANCH  27  28
ENDBRANCH   1  27
TORSDOF 18
ENDMDL
MODEL 3
REMARK VINA RESULT:     -11.4      1.579      2.210
REMARK SMILES CCc1ccc(C(=O)OCCOC(=O)c2ccc(-c3c4nc(c(-c5cccc(S(=O)(=O)[O-])c5F)c5ccc([nH]5)c(-c5cccc(S(=O)(=O)[O-])c5F)c5nc(c(-c6cccc(S(=O)(=O)[O-])c6F)c6ccc3[nH]6)C=C5)C=C4)cc2)cc1S(=O)(=O)Nc1ccc(F)c(F)c1F
REMARK SMILES IDX 10 1 9 2 7 3 8 4 6 5 3 6 4 7 79 8 5 9 78 10 2 11 1 12 80 13
REMARK SMILES IDX 81 14 82 15 83 16 84 18 85 19 91 20 86 21 89 22 92 23 87 24
REMARK SMILES IDX 90 25 88 26 11 27 12 28 13 29 14 30 15 31 16 32 77 33 17 34
REMARK SMILES IDX 76 35 18 36 19 37 20 38 70 39 21 40 75 41 69 42 71 43 22 44
REMARK SMILES IDX 74 45 68 46 67 47 23 49 55 50 35 51 54 52 36 53 39 54 53 55
REMARK SMILES IDX 72 56 37 57 38 58 52 60 73 61 40 62 24 63 25 64 33 65 26 66
REMARK SMILES IDX 28 67 34 68 27 69 29 70 30 71 31 72 32 73 56 74 57 75 65 76
REMARK SMILES IDX 58 77 60 78 66 79 59 80 61 81 62 82 63 83 64 84 41 85 42 86
REMARK SMILES IDX 50 87 43 88 45 89 51 90 44 91 46 92 47 93 48 94 49 95
REMARK H PARENT 83 17 71 48 39 59
REMARK Flexibility Score: inf
ROOT
ATOM      1  C   UNL A   1      31.159  29.722  24.779  1.00  0.00     0.275 C 
ENDROOT
BRANCH   1   2
ATOM      2  O   UNL A   1      31.740  28.458  25.174  1.00  0.00    -0.458 OA
BRANCH   2   3
ATOM      3  C   UNL A   1      31.799  27.565  24.160  1.00  0.00     0.338 C 
ATOM      4  O   UNL A   1      32.029  27.835  22.987  1.00  0.00    -0.246 OA
BRANCH   3   5
ATOM      5  C   UNL A   1      31.532  26.162  24.547  1.00  0.00     0.061 A 
ATOM      6  C   UNL A   1      31.779  23.818  26.048  1.00  0.00    -0.028 A 
ATOM      7  C   UNL A   1      30.895  24.823  26.449  1.00  0.00     0.006 A 
ATOM      8  C   UNL A   1      32.229  23.847  24.715  1.00  0.00     0.091 A 
ATOM      9  C   UNL A   1      30.792  25.988  25.714  1.00  0.00     0.016 A 
ATOM     10  C   UNL A   1      32.160  25.057  23.980  1.00  0.00     0.038 A 
BRANCH   6  11
ATOM     11  C   UNL A   1      32.272  22.962  27.190  1.00  0.00     0.033 C 
ATOM     12  C   UNL A   1      33.778  22.929  27.390  1.00  0.00     0.009 C 
ENDBRANCH   6  11
BRANCH   8  13
ATOM     13  S   UNL A   1      32.797  22.434  23.782  1.00  0.00     0.262 S 
ATOM     14  O   UNL A   1      32.482  22.671  22.386  1.00  0.00    -0.201 OA
ATOM     15  O   UNL A   1      34.168  22.214  24.185  1.00  0.00    -0.201 OA
BRANCH  13  16
ATOM     16  N   UNL A   1      31.991  21.051  24.259  1.00  0.00    -0.277 N 
ATOM     17  H   UNL A   1      31.136  21.187  24.729  1.00  0.00     0.180 HD
BRANCH  16  18
ATOM     18  C   UNL A   1      32.395  19.697  24.068  1.00  0.00     0.088 A 
ATOM     19  C   UNL A   1      32.292  19.226  22.746  1.00  0.00     0.033 A 
ATOM     20  C   UNL A   1      32.976  18.870  25.036  1.00  0.00     0.185 A 
ATOM     21  C   UNL A   1      32.867  18.008  22.377  1.00  0.00     0.045 A 
ATOM     22  C   UNL A   1      33.538  17.650  24.667  1.00  0.00     0.196 A 
ATOM     23  F   UNL A   1      33.076  19.264  26.312  1.00  0.00    -0.201 F 
ATOM     24  C   UNL A   1      33.504  17.236  23.342  1.00  0.00     0.162 A 
ATOM     25  F   UNL A   1      34.160  16.896  25.584  1.00  0.00    -0.200 F 
ATOM     26  F   UNL A   1      34.105  16.099  22.969  1.00  0.00    -0.204 F 
ENDBRANCH  16  18
ENDBRANCH  13  16
ENDBRANCH   8  13
ENDBRANCH   3   5
ENDBRANCH   2   3
ENDBRANCH   1   2
BRANCH   1  27
ATOM     27  C   UNL A   1      31.353  30.815  25.833  1.00  0.00     0.275 C 
BRANCH  27  28
ATOM     28  O   UNL A   1      32.370  30.462  26.790  1.00  0.00    -0.458 OA
BRANCH  28  29
ATOM     29  C   UNL A   1      33.095  31.500  27.269  1.00  0.00     0.338 C 
ATOM     30  O   UNL A   1      32.689  32.631  27.489  1.00  0.00    -0.246 OA
BRANCH  29  31
ATOM     31  C   UNL A   1      34.492  31.114  27.559  1.00  0.00     0.060 A 
ATOM     32  C   UNL A   1      34.794  29.794  27.861  1.00  0.00     0.016 A 
ATOM     33  C   UNL A   1      35.453  32.100  27.770  1.00  0.00     0.016 A 
ATOM     34  C   UNL A   1      35.958  29.489  28.572  1.00  0.00     0.010 A 
ATOM     35  C   UNL A   1      36.692  31.762  28.334  1.00  0.00     0.010 A 
ATOM     36  C   UNL A   1      36.934  30.468  28.829  1.00  0.00    -0.014 A 
BRANCH  36  37
ATOM     37  C   UNL A   1      38.156  30.161  29.652  1.00  0.00     0.031 A 
ATOM     38  C   UNL A   1      39.272  29.294  29.096  1.00  0.00     0.074 A 
ATOM     39  C   UNL A   1      38.296  30.651  30.904  1.00  0.00     0.049 A 
ATOM     40  N   UNL A   1      40.308  28.778  29.714  1.00  0.00    -0.248 NA
ATOM     41  C   UNL A   1      39.203  28.935  27.670  1.00  0.00     0.031 C 
ATOM     42  C   UNL A   1      37.323  31.492  31.603  1.00  0.00     0.029 A 
ATOM     43  N   UNL A   1      39.319  30.513  31.817  1.00  0.00    -0.354 N 
ATOM     44  C   UNL A   1      40.945  27.958  28.785  1.00  0.00     0.074 A 
ATOM     45  C   UNL A   1      40.188  28.054  27.556  1.00  0.00     0.031 C 
ATOM     46  C   UNL A   1      37.814  31.843  32.799  1.00  0.00     0.029 A 
ATOM     47  C   UNL A   1      39.093  31.174  33.004  1.00  0.00     0.049 A 
ATOM     48  H   UNL A   1      40.133  29.992  31.638  1.00  0.00     0.167 HD
ATOM     49  C   UNL A   1      42.063  27.204  28.930  1.00  0.00     0.034 A 
ATOM     50  C   UNL A   1      39.805  31.217  34.150  1.00  0.00     0.034 A 
ATOM     51  C   UNL A   1      42.897  27.199  30.103  1.00  0.00     0.049 A 
ATOM     52  C   UNL A   1      41.084  30.437  34.258  1.00  0.00     0.074 A 
ATOM     53  C   UNL A   1      44.077  26.505  30.318  1.00  0.00     0.029 A 
ATOM     54  N   UNL A   1      42.665  27.946  31.246  1.00  0.00    -0.354 N 
ATOM     55  N   UNL A   1      41.673  29.691  33.357  1.00  0.00    -0.248 NA
ATOM     56  C   UNL A   1      41.802  30.512  35.539  1.00  0.00     0.031 C 
ATOM     57  C   UNL A   1      44.559  26.835  31.589  1.00  0.00     0.029 A 
ATOM     58  C   UNL A   1      43.684  27.743  32.162  1.00  0.00     0.049 A 
ATOM     59  H   UNL A   1      41.889  28.535  31.387  1.00  0.00     0.167 HD
ATOM     60  C   UNL A   1      42.838  29.223  33.953  1.00  0.00     0.074 A 
ATOM     61  C   UNL A   1      42.889  29.797  35.281  1.00  0.00     0.031 C 
ATOM     62  C   UNL A   1      43.764  28.369  33.455  1.00  0.00     0.034 A 
BRANCH  49  63
ATOM     63  C   UNL A   1      42.490  26.338  27.769  1.00  0.00     0.023 A 
ATOM     64  C   UNL A   1      43.442  26.818  26.846  1.00  0.00     0.012 A 
ATOM     65  C   UNL A   1      42.009  25.019  27.638  1.00  0.00     0.148 A 
ATOM     66  C   UNL A   1      43.882  26.012  25.796  1.00  0.00     0.002 A 
ATOM     67  C   UNL A   1      42.485  24.207  26.615  1.00  0.00     0.091 A 
ATOM     68  F   UNL A   1      41.091  24.583  28.514  1.00  0.00    -0.205 F 
ATOM     69  C   UNL A   1      43.413  24.704  25.687  1.00  0.00     0.022 A 
BRANCH  67  70
ATOM     70  S   UNL A   1      42.004  22.483  26.449  1.00  0.00     0.127 S 
ATOM     71  O   UNL A   1      42.487  21.917  27.708  1.00  0.00    -0.237 OA
ATOM     72  O   UNL A   1      40.546  22.572  26.344  1.00  0.00    -0.237 OA
ATOM     73  O   UNL A   1      42.665  21.999  25.245  1.00  0.00    -0.744 OA
ENDBRANCH  67  70
ENDBRANCH  49  63
BRANCH  50  74
ATOM     74  C   UNL A   1      39.328  32.063  35.283  1.00  0.00     0.023 A 
ATOM     75  C   UNL A   1      38.475  31.500  36.253  1.00  0.00     0.012 A 
ATOM     76  C   UNL A   1      39.756  33.395  35.438  1.00  0.00     0.148 A 
ATOM     77  C   UNL A   1      38.046  32.255  37.346  1.00  0.00     0.002 A 
ATOM     78  C   UNL A   1      39.383  34.117  36.565  1.00  0.00     0.091 A 
ATOM     79  F   UNL A   1      40.542  33.926  34.490  1.00  0.00    -0.205 F 
ATOM     80  C   UNL A   1      38.515  33.555  37.512  1.00  0.00     0.022 A 
BRANCH  78  81
ATOM     81  S   UNL A   1      40.083  35.731  36.930  1.00  0.00     0.127 S 
ATOM     82  O   UNL A   1      41.510  35.433  36.988  1.00  0.00    -0.237 OA
ATOM     83  O   UNL A   1      39.663  36.519  35.769  1.00  0.00    -0.237 OA
ATOM     84  O   UNL A   1      39.462  36.142  38.182  1.00  0.00    -0.744 OA
ENDBRANCH  78  81
ENDBRANCH  50  74
BRANCH  62  85
ATOM     85  C   UNL A   1      44.939  28.028  34.333  1.00  0.00     0.023 A 
ATOM     86  C   UNL A   1      46.099  28.825  34.284  1.00  0.00     0.012 A 
ATOM     87  C   UNL A   1      44.877  26.953  35.241  1.00  0.00     0.148 A 
ATOM     88  C   UNL A   1      47.191  28.539  35.102  1.00  0.00     0.002 A 
ATOM     89  C   UNL A   1      45.954  26.697  36.082  1.00  0.00     0.091 A 
ATOM     90  F   UNL A   1      43.774  26.189  35.256  1.00  0.00    -0.205 F 
ATOM     91  C   UNL A   1      47.115  27.482  36.007  1.00  0.00     0.022 A 
BRANCH  89  92
ATOM     92  S   UNL A   1      45.900  25.405  37.328  1.00  0.00     0.127 S 
ATOM     93  O   UNL A   1      45.835  24.197  36.506  1.00  0.00    -0.237 OA
ATOM     94  O   UNL A   1      47.168  25.592  38.034  1.00  0.00    -0.237 OA
ATOM     95  O   UNL A   1      44.719  25.686  38.135  1.00  0.00    -0.744 OA
ENDBRANCH  89  92
ENDBRANCH  62  85
ENDBRANCH  36  37
ENDBRANCH  29  31
ENDBRANCH  28  29
ENDBRANCH  27  28
ENDBRANCH   1  27
TORSDOF 18
ENDMDL
