MODEL 1
REMARK VINA RESULT:     -11.2      0.000      0.000
REMARK SMILES O=C(OCCOC(=O)c1cc(SCc2csc(-c3ccsc3)n2)ccn1)c1ccc(-c2c3nc(c(-c4cccc(S(=O)(=O)[O-])c4F)c4ccc([nH]4)c(-c4cccc(S(=O)(=O)[O-])c4F)c4nc(c(-c5cccc(S(=O)(=O)[O-])c5F)c5ccc2[nH]5)C=C4)C=C3)cc1
REMARK SMILES IDX 5 1 4 2 3 3 2 4 1 5 27 6 28 7 89 8 29 9 88 10 30 11 31 12
REMARK SMILES IDX 32 13 82 14 33 15 87 16 81 17 83 18 34 19 86 20 80 21 79 22
REMARK SMILES IDX 35 24 67 25 47 26 66 27 48 28 51 29 65 30 84 31 49 32 50 33
REMARK SMILES IDX 64 35 85 36 52 37 36 38 37 39 45 40 38 41 40 42 46 43 39 44
REMARK SMILES IDX 41 45 42 46 43 47 44 48 68 49 69 50 77 51 70 52 72 53 78 54
REMARK SMILES IDX 71 55 73 56 74 57 75 58 76 59 53 60 54 61 62 62 55 63 57 64
REMARK SMILES IDX 63 65 56 66 58 67 59 68 60 69 61 70 6 71 7 72 8 73 9 74
REMARK SMILES IDX 10 75 26 76 11 77 25 78 24 79 12 80 13 81 14 82 15 83 23 84
REMARK SMILES IDX 16 85 17 86 18 87 19 88 22 89 20 90 21 91
REMARK H PARENT 83 23 51 34
REMARK Flexibility Score: inf
ROOT
ATOM      1  C   UNL A   1      32.354  30.678  26.361  1.00  0.00     0.275 C 
ENDROOT
BRANCH   1   2
ATOM      2  C   UNL A   1      31.522  31.866  26.847  1.00  0.00     0.275 C 
BRANCH   2   3
ATOM      3  O   UNL A   1      32.306  33.071  26.960  1.00  0.00    -0.458 OA
BRANCH   3   4
ATOM      4  C   UNL A   1      33.083  33.555  27.958  1.00  0.00     0.338 C 
ATOM      5  O   UNL A   1      32.750  34.631  28.459  1.00  0.00    -0.246 OA
BRANCH   4   6
ATOM      6  C   UNL A   1      34.324  32.896  28.501  1.00  0.00     0.060 A 
ATOM      7  C   UNL A   1      34.399  31.655  29.127  1.00  0.00     0.016 A 
ATOM      8  C   UNL A   1      35.536  33.612  28.365  1.00  0.00     0.016 A 
ATOM      9  C   UNL A   1      35.609  31.171  29.634  1.00  0.00     0.010 A 
ATOM     10  C   UNL A   1      36.759  33.115  28.850  1.00  0.00     0.010 A 
ATOM     11  C   UNL A   1      36.798  31.890  29.511  1.00  0.00    -0.014 A 
BRANCH  11  12
ATOM     12  C   UNL A   1      38.016  31.346  30.166  1.00  0.00     0.031 A 
ATOM     13  C   UNL A   1      38.246  31.613  31.612  1.00  0.00     0.074 A 
ATOM     14  C   UNL A   1      38.864  30.541  29.500  1.00  0.00     0.049 A 
ATOM     15  N   UNL A   1      39.138  31.086  32.405  1.00  0.00    -0.248 NA
ATOM     16  C   UNL A   1      37.369  32.607  32.245  1.00  0.00     0.031 C 
ATOM     17  C   UNL A   1      38.743  30.255  28.084  1.00  0.00     0.029 A 
ATOM     18  N   UNL A   1      39.954  29.799  29.893  1.00  0.00    -0.354 N 
ATOM     19  C   UNL A   1      38.991  31.746  33.613  1.00  0.00     0.074 A 
ATOM     20  C   UNL A   1      37.883  32.667  33.465  1.00  0.00     0.031 C 
ATOM     21  C   UNL A   1      39.676  29.362  27.728  1.00  0.00     0.029 A 
ATOM     22  C   UNL A   1      40.442  28.973  28.900  1.00  0.00     0.049 A 
ATOM     23  H   UNL A   1      40.347  29.852  30.794  1.00  0.00     0.167 HD
ATOM     24  C   UNL A   1      39.748  31.624  34.727  1.00  0.00     0.034 A 
ATOM     25  C   UNL A   1      41.349  27.974  28.939  1.00  0.00     0.034 A 
ATOM     26  C   UNL A   1      40.866  30.730  34.848  1.00  0.00     0.049 A 
ATOM     27  C   UNL A   1      42.065  27.743  30.237  1.00  0.00     0.074 A 
ATOM     28  C   UNL A   1      41.735  30.577  35.912  1.00  0.00     0.029 A 
ATOM     29  N   UNL A   1      41.285  29.848  33.861  1.00  0.00    -0.354 N 
ATOM     30  N   UNL A   1      41.859  28.318  31.397  1.00  0.00    -0.248 NA
ATOM     31  C   UNL A   1      43.143  26.743  30.239  1.00  0.00     0.031 C 
ATOM     32  C   UNL A   1      42.695  29.622  35.559  1.00  0.00     0.029 A 
ATOM     33  C   UNL A   1      42.402  29.151  34.289  1.00  0.00     0.049 A 
ATOM     34  H   UNL A   1      40.850  29.733  32.985  1.00  0.00     0.167 HD
ATOM     35  C   UNL A   1      42.802  27.778  32.258  1.00  0.00     0.074 A 
ATOM     36  C   UNL A   1      43.521  26.764  31.511  1.00  0.00     0.031 C 
ATOM     37  C   UNL A   1      43.087  28.132  33.535  1.00  0.00     0.034 A 
BRANCH  24  38
ATOM     38  C   UNL A   1      39.427  32.562  35.854  1.00  0.00     0.023 A 
ATOM     39  C   UNL A   1      40.005  33.845  35.902  1.00  0.00     0.012 A 
ATOM     40  C   UNL A   1      38.579  32.139  36.895  1.00  0.00     0.148 A 
ATOM     41  C   UNL A   1      39.778  34.679  36.995  1.00  0.00     0.002 A 
ATOM     42  C   UNL A   1      38.322  32.993  37.958  1.00  0.00     0.091 A 
ATOM     43  F   UNL A   1      38.071  30.900  36.842  1.00  0.00    -0.205 F 
ATOM     44  C   UNL A   1      38.932  34.256  38.018  1.00  0.00     0.022 A 
BRANCH  42  45
ATOM     45  S   UNL A   1      37.202  32.561  39.293  1.00  0.00     0.127 S 
ATOM     46  O   UNL A   1      37.486  33.612  40.268  1.00  0.00    -0.237 OA
ATOM     47  O   UNL A   1      35.898  32.668  38.639  1.00  0.00    -0.237 OA
ATOM     48  O   UNL A   1      37.568  31.213  39.706  1.00  0.00    -0.744 OA
ENDBRANCH  42  45
ENDBRANCH  24  38
BRANCH  25  49
ATOM     49  C   UNL A   1      41.541  27.043  27.777  1.00  0.00     0.023 A 
ATOM     50  C   UNL A   1      42.301  27.482  26.669  1.00  0.00     0.012 A 
ATOM     51  C   UNL A   1      41.033  25.730  27.758  1.00  0.00     0.148 A 
ATOM     52  C   UNL A   1      42.533  26.649  25.572  1.00  0.00     0.002 A 
ATOM     53  C   UNL A   1      41.333  24.879  26.696  1.00  0.00     0.091 A 
ATOM     54  F   UNL A   1      40.272  25.325  28.784  1.00  0.00    -0.205 F 
ATOM     55  C   UNL A   1      42.065  25.341  25.594  1.00  0.00     0.022 A 
BRANCH  53  56
ATOM     56  S   UNL A   1      40.916  23.131  26.740  1.00  0.00     0.127 S 
ATOM     57  O   UNL A   1      39.478  23.159  26.493  1.00  0.00    -0.237 OA
ATOM     58  O   UNL A   1      41.720  22.593  25.642  1.00  0.00    -0.237 OA
ATOM     59  O   UNL A   1      41.333  22.677  28.061  1.00  0.00    -0.744 OA
ENDBRANCH  53  56
ENDBRANCH  25  49
BRANCH  37  60
ATOM     60  C   UNL A   1      44.250  27.440  34.188  1.00  0.00     0.023 A 
ATOM     61  C   UNL A   1      45.544  27.986  34.059  1.00  0.00     0.012 A 
ATOM     62  C   UNL A   1      44.052  26.295  34.978  1.00  0.00     0.148 A 
ATOM     63  C   UNL A   1      46.631  27.378  34.683  1.00  0.00     0.002 A 
ATOM     64  C   UNL A   1      45.134  25.723  35.636  1.00  0.00     0.091 A 
ATOM     65  F   UNL A   1      42.816  25.784  35.066  1.00  0.00    -0.205 F 
ATOM     66  C   UNL A   1      46.425  26.255  35.479  1.00  0.00     0.022 A 
BRANCH  64  67
ATOM     67  S   UNL A   1      44.950  24.330  36.753  1.00  0.00     0.127 S 
ATOM     68  O   UNL A   1      43.989  24.853  37.722  1.00  0.00    -0.237 OA
ATOM     69  O   UNL A   1      44.422  23.293  35.867  1.00  0.00    -0.237 OA
ATOM     70  O   UNL A   1      46.281  24.058  37.279  1.00  0.00    -0.744 OA
ENDBRANCH  64  67
ENDBRANCH  37  60
ENDBRANCH  11  12
ENDBRANCH   4   6
ENDBRANCH   3   4
ENDBRANCH   2   3
ENDBRANCH   1   2
BRANCH   1  71
ATOM     71  O   UNL A   1      31.617  29.843  25.460  1.00  0.00    -0.457 OA
BRANCH  71  72
ATOM     72  C   UNL A   1      32.367  28.991  24.710  1.00  0.00     0.357 C 
ATOM     73  O   UNL A   1      33.569  29.067  24.506  1.00  0.00    -0.244 OA
BRANCH  72  74
ATOM     74  C   UNL A   1      31.485  27.896  24.238  1.00  0.00     0.149 A 
ATOM     75  C   UNL A   1      32.036  26.658  23.930  1.00  0.00     0.051 A 
ATOM     76  N   UNL A   1      30.168  28.203  24.133  1.00  0.00    -0.249 NA
ATOM     77  C   UNL A   1      31.183  25.656  23.497  1.00  0.00     0.012 A 
ATOM     78  C   UNL A   1      29.360  27.219  23.698  1.00  0.00     0.113 A 
ATOM     79  C   UNL A   1      29.812  25.943  23.401  1.00  0.00     0.035 A 
BRANCH  77  80
ATOM     80  S   UNL A   1      31.705  24.003  23.084  1.00  0.00    -0.120 SA
BRANCH  80  81
ATOM     81  C   UNL A   1      31.204  22.924  24.461  1.00  0.00     0.132 C 
BRANCH  81  82
ATOM     82  C   UNL A   1      32.220  21.946  24.974  1.00  0.00     0.062 A 
ATOM     83  C   UNL A   1      33.405  22.240  25.622  1.00  0.00     0.091 A 
ATOM     84  N   UNL A   1      32.078  20.596  24.651  1.00  0.00    -0.240 NA
ATOM     85  S   UNL A   1      34.269  20.809  25.986  1.00  0.00    -0.122 S 
ATOM     86  C   UNL A   1      33.079  19.897  25.151  1.00  0.00     0.124 A 
BRANCH  86  87
ATOM     87  C   UNL A   1      33.161  18.411  24.943  1.00  0.00     0.021 A 
ATOM     88  C   UNL A   1      33.781  17.812  23.805  1.00  0.00     0.023 A 
ATOM     89  C   UNL A   1      32.663  17.463  25.812  1.00  0.00     0.076 A 
ATOM     90  C   UNL A   1      33.763  16.437  23.864  1.00  0.00     0.065 A 
ATOM     91  S   UNL A   1      32.919  15.867  25.239  1.00  0.00    -0.152 S 
ENDBRANCH  86  87
ENDBRANCH  81  82
ENDBRANCH  80  81
ENDBRANCH  77  80
ENDBRANCH  72  74
ENDBRANCH  71  72
ENDBRANCH   1  71
TORSDOF 18
ENDMDL
MODEL 2
REMARK VINA RESULT:     -11.0      2.760      8.723
REMARK SMILES O=C(OCCOC(=O)c1cc(SCc2csc(-c3ccsc3)n2)ccn1)c1ccc(-c2c3nc(c(-c4cccc(S(=O)(=O)[O-])c4F)c4ccc([nH]4)c(-c4cccc(S(=O)(=O)[O-])c4F)c4nc(c(-c5cccc(S(=O)(=O)[O-])c5F)c5ccc2[nH]5)C=C4)C=C3)cc1
REMARK SMILES IDX 5 1 4 2 3 3 2 4 1 5 27 6 28 7 89 8 29 9 88 10 30 11 31 12
REMARK SMILES IDX 32 13 82 14 33 15 87 16 81 17 83 18 34 19 86 20 80 21 79 22
REMARK SMILES IDX 35 24 67 25 47 26 66 27 48 28 51 29 65 30 84 31 49 32 50 33
REMARK SMILES IDX 64 35 85 36 52 37 36 38 37 39 45 40 38 41 40 42 46 43 39 44
REMARK SMILES IDX 41 45 42 46 43 47 44 48 68 49 69 50 77 51 70 52 72 53 78 54
REMARK SMILES IDX 71 55 73 56 74 57 75 58 76 59 53 60 54 61 62 62 55 63 57 64
REMARK SMILES IDX 63 65 56 66 58 67 59 68 60 69 61 70 6 71 7 72 8 73 9 74
REMARK SMILES IDX 10 75 26 76 11 77 25 78 24 79 12 80 13 81 14 82 15 83 23 84
REMARK SMILES IDX 16 85 17 86 18 87 19 88 22 89 20 90 21 91
REMARK H PARENT 83 23 51 34
REMARK Flexibility Score: inf
ROOT
ATOM      1  C   UNL A   1      32.958  34.667  28.985  1.00  0.00     0.275 C 
ENDROOT
BRANCH   1   2
ATOM      2  C   UNL A   1      33.092  36.164  29.273  1.00  0.00     0.275 C 
BRANCH   2   3
ATOM      3  O   UNL A   1      32.555  36.522  30.562  1.00  0.00    -0.458 OA
BRANCH   3   4
ATOM      4  C   UNL A   1      32.682  35.955  31.785  1.00  0.00     0.338 C 
ATOM      5  O   UNL A   1      31.807  36.207  32.616  1.00  0.00    -0.246 OA
BRANCH   4   6
ATOM      6  C   UNL A   1      33.807  35.053  32.220  1.00  0.00     0.060 A 
ATOM      7  C   UNL A   1      33.685  33.773  32.753  1.00  0.00     0.016 A 
ATOM      8  C   UNL A   1      35.120  35.558  32.078  1.00  0.00     0.016 A 
ATOM      9  C   UNL A   1      34.809  33.050  33.166  1.00  0.00     0.010 A 
ATOM     10  C   UNL A   1      36.253  34.822  32.468  1.00  0.00     0.010 A 
ATOM     11  C   UNL A   1      36.099  33.561  33.038  1.00  0.00    -0.014 A 
BRANCH  11  12
ATOM     12  C   UNL A   1      37.226  32.766  33.595  1.00  0.00     0.031 A 
ATOM     13  C   UNL A   1      37.893  31.748  32.738  1.00  0.00     0.074 A 
ATOM     14  C   UNL A   1      37.711  33.015  34.825  1.00  0.00     0.049 A 
ATOM     15  N   UNL A   1      38.994  31.087  32.967  1.00  0.00    -0.248 NA
ATOM     16  C   UNL A   1      37.233  31.425  31.466  1.00  0.00     0.031 C 
ATOM     17  C   UNL A   1      37.105  33.958  35.744  1.00  0.00     0.029 A 
ATOM     18  N   UNL A   1      38.809  32.548  35.510  1.00  0.00    -0.354 N 
ATOM     19  C   UNL A   1      39.117  30.202  31.910  1.00  0.00     0.074 A 
ATOM     20  C   UNL A   1      38.012  30.455  31.009  1.00  0.00     0.031 C 
ATOM     21  C   UNL A   1      37.857  34.051  36.849  1.00  0.00     0.029 A 
ATOM     22  C   UNL A   1      39.029  33.203  36.706  1.00  0.00     0.049 A 
ATOM     23  H   UNL A   1      39.381  31.818  35.180  1.00  0.00     0.167 HD
ATOM     24  C   UNL A   1      40.045  29.234  31.738  1.00  0.00     0.034 A 
ATOM     25  C   UNL A   1      40.079  33.179  37.554  1.00  0.00     0.034 A 
ATOM     26  C   UNL A   1      41.117  28.971  32.659  1.00  0.00     0.049 A 
ATOM     27  C   UNL A   1      41.185  32.210  37.255  1.00  0.00     0.074 A 
ATOM     28  C   UNL A   1      42.072  27.973  32.606  1.00  0.00     0.029 A 
ATOM     29  N   UNL A   1      41.365  29.701  33.813  1.00  0.00    -0.354 N 
ATOM     30  N   UNL A   1      41.332  31.436  36.208  1.00  0.00    -0.248 NA
ATOM     31  C   UNL A   1      42.261  32.094  38.250  1.00  0.00     0.031 C 
ATOM     32  C   UNL A   1      42.881  28.083  33.743  1.00  0.00     0.029 A 
ATOM     33  C   UNL A   1      42.455  29.173  34.484  1.00  0.00     0.049 A 
ATOM     34  H   UNL A   1      40.843  30.481  34.111  1.00  0.00     0.167 HD
ATOM     35  C   UNL A   1      42.495  30.715  36.431  1.00  0.00     0.074 A 
ATOM     36  C   UNL A   1      43.062  31.209  37.670  1.00  0.00     0.031 C 
ATOM     37  C   UNL A   1      43.013  29.695  35.706  1.00  0.00     0.034 A 
BRANCH  24  38
ATOM     38  C   UNL A   1      39.859  28.339  30.547  1.00  0.00     0.023 A 
ATOM     39  C   UNL A   1      38.925  27.286  30.585  1.00  0.00     0.012 A 
ATOM     40  C   UNL A   1      40.656  28.525  29.402  1.00  0.00     0.148 A 
ATOM     41  C   UNL A   1      38.819  26.401  29.513  1.00  0.00     0.002 A 
ATOM     42  C   UNL A   1      40.512  27.667  28.321  1.00  0.00     0.091 A 
ATOM     43  F   UNL A   1      41.562  29.514  29.407  1.00  0.00    -0.205 F 
ATOM     44  C   UNL A   1      39.607  26.596  28.380  1.00  0.00     0.022 A 
BRANCH  42  45
ATOM     45  S   UNL A   1      41.440  27.871  26.798  1.00  0.00     0.127 S 
ATOM     46  O   UNL A   1      42.815  27.706  27.265  1.00  0.00    -0.237 OA
ATOM     47  O   UNL A   1      40.932  26.766  25.986  1.00  0.00    -0.237 OA
ATOM     48  O   UNL A   1      41.107  29.198  26.298  1.00  0.00    -0.744 OA
ENDBRANCH  42  45
ENDBRANCH  24  38
BRANCH  25  49
ATOM     49  C   UNL A   1      40.205  34.170  38.674  1.00  0.00     0.023 A 
ATOM     50  C   UNL A   1      40.976  35.336  38.469  1.00  0.00     0.012 A 
ATOM     51  C   UNL A   1      39.552  34.011  39.912  1.00  0.00     0.148 A 
ATOM     52  C   UNL A   1      41.108  36.304  39.469  1.00  0.00     0.002 A 
ATOM     53  C   UNL A   1      39.624  35.016  40.875  1.00  0.00     0.091 A 
ATOM     54  F   UNL A   1      38.860  32.884  40.129  1.00  0.00    -0.205 F 
ATOM     55  C   UNL A   1      40.416  36.153  40.664  1.00  0.00     0.022 A 
BRANCH  53  56
ATOM     56  S   UNL A   1      38.617  34.971  42.364  1.00  0.00     0.127 S 
ATOM     57  O   UNL A   1      38.991  36.221  43.017  1.00  0.00    -0.237 OA
ATOM     58  O   UNL A   1      37.260  34.942  41.817  1.00  0.00    -0.237 OA
ATOM     59  O   UNL A   1      39.010  33.745  43.047  1.00  0.00    -0.744 OA
ENDBRANCH  53  56
ENDBRANCH  25  49
BRANCH  37  60
ATOM     60  C   UNL A   1      44.239  29.023  36.258  1.00  0.00     0.023 A 
ATOM     61  C   UNL A   1      45.511  29.564  35.983  1.00  0.00     0.012 A 
ATOM     62  C   UNL A   1      44.126  27.902  37.098  1.00  0.00     0.148 A 
ATOM     63  C   UNL A   1      46.658  28.976  36.510  1.00  0.00     0.002 A 
ATOM     64  C   UNL A   1      45.270  27.350  37.660  1.00  0.00     0.091 A 
ATOM     65  F   UNL A   1      42.907  27.394  37.326  1.00  0.00    -0.205 F 
ATOM     66  C   UNL A   1      46.537  27.877  37.357  1.00  0.00     0.022 A 
BRANCH  64  67
ATOM     67  S   UNL A   1      45.205  25.992  38.831  1.00  0.00     0.127 S 
ATOM     68  O   UNL A   1      44.713  24.901  37.992  1.00  0.00    -0.237 OA
ATOM     69  O   UNL A   1      46.605  25.868  39.237  1.00  0.00    -0.237 OA
ATOM     70  O   UNL A   1      44.302  26.419  39.892  1.00  0.00    -0.744 OA
ENDBRANCH  64  67
ENDBRANCH  37  60
ENDBRANCH  11  12
ENDBRANCH   4   6
ENDBRANCH   3   4
ENDBRANCH   2   3
ENDBRANCH   1   2
BRANCH   1  71
ATOM     71  O   UNL A   1      33.839  34.243  27.939  1.00  0.00    -0.457 OA
BRANCH  71  72
ATOM     72  C   UNL A   1      34.989  33.646  28.353  1.00  0.00     0.357 C 
ATOM     73  O   UNL A   1      35.901  34.173  28.969  1.00  0.00    -0.244 OA
BRANCH  72  74
ATOM     74  C   UNL A   1      34.916  32.209  27.993  1.00  0.00     0.149 A 
ATOM     75  C   UNL A   1      33.679  31.632  27.729  1.00  0.00     0.051 A 
ATOM     76  N   UNL A   1      36.100  31.548  27.955  1.00  0.00    -0.249 NA
ATOM     77  C   UNL A   1      33.647  30.289  27.391  1.00  0.00     0.012 A 
ATOM     78  C   UNL A   1      36.043  30.242  27.636  1.00  0.00     0.113 A 
ATOM     79  C   UNL A   1      34.862  29.589  27.323  1.00  0.00     0.035 A 
BRANCH  77  80
ATOM     80  S   UNL A   1      32.160  29.389  26.996  1.00  0.00    -0.120 SA
BRANCH  80  81
ATOM     81  C   UNL A   1      32.538  28.335  25.561  1.00  0.00     0.132 C 
BRANCH  81  82
ATOM     82  C   UNL A   1      32.162  26.885  25.654  1.00  0.00     0.062 A 
ATOM     83  C   UNL A   1      30.925  26.366  25.989  1.00  0.00     0.091 A 
ATOM     84  N   UNL A   1      33.165  25.921  25.556  1.00  0.00    -0.240 NA
ATOM     85  S   UNL A   1      30.970  24.656  26.012  1.00  0.00    -0.122 S 
ATOM     86  C   UNL A   1      32.657  24.713  25.701  1.00  0.00     0.124 A 
BRANCH  86  87
ATOM     87  C   UNL A   1      33.534  23.495  25.636  1.00  0.00     0.021 A 
ATOM     88  C   UNL A   1      33.459  22.530  24.586  1.00  0.00     0.023 A 
ATOM     89  C   UNL A   1      34.504  23.169  26.561  1.00  0.00     0.076 A 
ATOM     90  C   UNL A   1      34.391  21.528  24.730  1.00  0.00     0.065 A 
ATOM     91  S   UNL A   1      35.293  21.696  26.175  1.00  0.00    -0.152 S 
ENDBRANCH  86  87
ENDBRANCH  81  82
ENDBRANCH  80  81
ENDBRANCH  77  80
ENDBRANCH  72  74
ENDBRANCH  71  72
ENDBRANCH   1  71
TORSDOF 18
ENDMDL
MODEL 3
REMARK VINA RESULT:     -10.9      5.461      8.262
REMARK SMILES O=C(OCCOC(=O)c1cc(SCc2csc(-c3ccsc3)n2)ccn1)c1ccc(-c2c3nc(c(-c4cccc(S(=O)(=O)[O-])c4F)c4ccc([nH]4)c(-c4cccc(S(=O)(=O)[O-])c4F)c4nc(c(-c5cccc(S(=O)(=O)[O-])c5F)c5ccc2[nH]5)C=C4)C=C3)cc1
REMARK SMILES IDX 5 1 4 2 3 3 2 4 1 5 27 6 28 7 89 8 29 9 88 10 30 11 31 12
REMARK SMILES IDX 32 13 82 14 33 15 87 16 81 17 83 18 34 19 86 20 80 21 79 22
REMARK SMILES IDX 35 24 67 25 47 26 66 27 48 28 51 29 65 30 84 31 49 32 50 33
REMARK SMILES IDX 64 35 85 36 52 37 36 38 37 39 45 40 38 41 40 42 46 43 39 44
REMARK SMILES IDX 41 45 42 46 43 47 44 48 68 49 69 50 77 51 70 52 72 53 78 54
REMARK SMILES IDX 71 55 73 56 74 57 75 58 76 59 53 60 54 61 62 62 55 63 57 64
REMARK SMILES IDX 63 65 56 66 58 67 59 68 60 69 61 70 6 71 7 72 8 73 9 74
REMARK SMILES IDX 10 75 26 76 11 77 25 78 24 79 12 80 13 81 14 82 15 83 23 84
REMARK SMILES IDX 16 85 17 86 18 87 19 88 22 89 20 90 21 91
REMARK H PARENT 83 23 51 34
REMARK Flexibility Score: inf
ROOT
ATOM      1  C   UNL A   1      36.053  21.328  24.304  1.00  0.00     0.275 C 
ENDROOT
BRANCH   1   2
ATOM      2  C   UNL A   1      36.692  21.332  25.694  1.00  0.00     0.275 C 
BRANCH   2   3
ATOM      3  O   UNL A   1      37.911  20.564  25.736  1.00  0.00    -0.458 OA
BRANCH   3   4
ATOM      4  C   UNL A   1      39.171  20.884  26.116  1.00  0.00     0.338 C 
ATOM      5  O   UNL A   1      39.975  19.959  26.242  1.00  0.00    -0.246 OA
BRANCH   4   6
ATOM      6  C   UNL A   1      39.671  22.275  26.409  1.00  0.00     0.060 A 
ATOM      7  C   UNL A   1      39.086  23.470  25.998  1.00  0.00     0.016 A 
ATOM      8  C   UNL A   1      40.855  22.379  27.174  1.00  0.00     0.016 A 
ATOM      9  C   UNL A   1      39.675  24.703  26.294  1.00  0.00     0.010 A 
ATOM     10  C   UNL A   1      41.434  23.619  27.497  1.00  0.00     0.010 A 
ATOM     11  C   UNL A   1      40.852  24.798  27.036  1.00  0.00    -0.014 A 
BRANCH  11  12
ATOM     12  C   UNL A   1      41.460  26.142  27.217  1.00  0.00     0.031 A 
ATOM     13  C   UNL A   1      40.838  27.100  28.171  1.00  0.00     0.074 A 
ATOM     14  C   UNL A   1      42.612  26.473  26.604  1.00  0.00     0.049 A 
ATOM     15  N   UNL A   1      41.308  28.237  28.605  1.00  0.00    -0.248 NA
ATOM     16  C   UNL A   1      39.515  26.740  28.697  1.00  0.00     0.031 C 
ATOM     17  C   UNL A   1      43.269  25.622  25.632  1.00  0.00     0.029 A 
ATOM     18  N   UNL A   1      43.449  27.560  26.709  1.00  0.00    -0.354 N 
ATOM     19  C   UNL A   1      40.302  28.776  29.389  1.00  0.00     0.074 A 
ATOM     20  C   UNL A   1      39.222  27.811  29.420  1.00  0.00     0.031 C 
ATOM     21  C   UNL A   1      44.430  26.179  25.264  1.00  0.00     0.029 A 
ATOM     22  C   UNL A   1      44.629  27.413  26.006  1.00  0.00     0.049 A 
ATOM     23  H   UNL A   1      43.228  28.363  27.234  1.00  0.00     0.167 HD
ATOM     24  C   UNL A   1      40.269  29.989  29.985  1.00  0.00     0.034 A 
ATOM     25  C   UNL A   1      45.763  28.145  26.009  1.00  0.00     0.034 A 
ATOM     26  C   UNL A   1      41.335  30.950  29.917  1.00  0.00     0.049 A 
ATOM     27  C   UNL A   1      45.765  29.410  26.815  1.00  0.00     0.074 A 
ATOM     28  C   UNL A   1      41.374  32.231  30.435  1.00  0.00     0.029 A 
ATOM     29  N   UNL A   1      42.547  30.744  29.272  1.00  0.00    -0.354 N 
ATOM     30  N   UNL A   1      44.838  29.868  27.619  1.00  0.00    -0.248 NA
ATOM     31  C   UNL A   1      46.954  30.269  26.710  1.00  0.00     0.031 C 
ATOM     32  C   UNL A   1      42.598  32.809  30.081  1.00  0.00     0.029 A 
ATOM     33  C   UNL A   1      43.339  31.874  29.375  1.00  0.00     0.049 A 
ATOM     34  H   UNL A   1      42.807  29.913  28.810  1.00  0.00     0.167 HD
ATOM     35  C   UNL A   1      45.312  31.084  28.089  1.00  0.00     0.074 A 
ATOM     36  C   UNL A   1      46.648  31.248  27.551  1.00  0.00     0.031 C 
ATOM     37  C   UNL A   1      44.674  32.007  28.849  1.00  0.00     0.034 A 
BRANCH  24  38
ATOM     38  C   UNL A   1      38.989  30.354  30.676  1.00  0.00     0.023 A 
ATOM     39  C   UNL A   1      38.769  29.980  32.016  1.00  0.00     0.012 A 
ATOM     40  C   UNL A   1      37.981  31.035  29.968  1.00  0.00     0.148 A 
ATOM     41  C   UNL A   1      37.543  30.241  32.627  1.00  0.00     0.002 A 
ATOM     42  C   UNL A   1      36.780  31.331  30.597  1.00  0.00     0.091 A 
ATOM     43  F   UNL A   1      38.203  31.348  28.683  1.00  0.00    -0.205 F 
ATOM     44  C   UNL A   1      36.553  30.921  31.921  1.00  0.00     0.022 A 
BRANCH  42  45
ATOM     45  S   UNL A   1      35.469  32.252  29.790  1.00  0.00     0.127 S 
ATOM     46  O   UNL A   1      35.078  31.335  28.722  1.00  0.00    -0.237 OA
ATOM     47  O   UNL A   1      34.490  32.390  30.868  1.00  0.00    -0.237 OA
ATOM     48  O   UNL A   1      36.068  33.504  29.348  1.00  0.00    -0.744 OA
ENDBRANCH  42  45
ENDBRANCH  24  38
BRANCH  25  49
ATOM     49  C   UNL A   1      47.016  27.652  25.346  1.00  0.00     0.023 A 
ATOM     50  C   UNL A   1      47.858  26.764  26.054  1.00  0.00     0.012 A 
ATOM     51  C   UNL A   1      47.372  27.999  24.028  1.00  0.00     0.148 A 
ATOM     52  C   UNL A   1      49.024  26.254  25.476  1.00  0.00     0.002 A 
ATOM     53  C   UNL A   1      48.493  27.427  23.432  1.00  0.00     0.091 A 
ATOM     54  F   UNL A   1      46.602  28.878  23.371  1.00  0.00    -0.205 F 
ATOM     55  C   UNL A   1      49.332  26.570  24.159  1.00  0.00     0.022 A 
BRANCH  53  56
ATOM     56  S   UNL A   1      48.850  27.649  21.684  1.00  0.00     0.127 S 
ATOM     57  O   UNL A   1      49.465  28.972  21.669  1.00  0.00    -0.237 OA
ATOM     58  O   UNL A   1      49.765  26.540  21.412  1.00  0.00    -0.237 OA
ATOM     59  O   UNL A   1      47.559  27.532  21.019  1.00  0.00    -0.744 OA
ENDBRANCH  53  56
ENDBRANCH  25  49
BRANCH  37  60
ATOM     60  C   UNL A   1      45.405  33.293  29.110  1.00  0.00     0.023 A 
ATOM     61  C   UNL A   1      46.232  33.403  30.247  1.00  0.00     0.012 A 
ATOM     62  C   UNL A   1      45.324  34.363  28.202  1.00  0.00     0.148 A 
ATOM     63  C   UNL A   1      46.944  34.575  30.492  1.00  0.00     0.002 A 
ATOM     64  C   UNL A   1      46.074  35.510  28.427  1.00  0.00     0.091 A 
ATOM     65  F   UNL A   1      44.514  34.241  27.141  1.00  0.00    -0.205 F 
ATOM     66  C   UNL A   1      46.873  35.624  29.577  1.00  0.00     0.022 A 
BRANCH  64  67
ATOM     67  S   UNL A   1      46.117  36.873  27.260  1.00  0.00     0.127 S 
ATOM     68  O   UNL A   1      46.587  36.209  26.046  1.00  0.00    -0.237 OA
ATOM     69  O   UNL A   1      44.715  37.291  27.225  1.00  0.00    -0.237 OA
ATOM     70  O   UNL A   1      47.029  37.858  27.826  1.00  0.00    -0.744 OA
ENDBRANCH  64  67
ENDBRANCH  37  60
ENDBRANCH  11  12
ENDBRANCH   4   6
ENDBRANCH   3   4
ENDBRANCH   2   3
ENDBRANCH   1   2
BRANCH   1  71
ATOM     71  O   UNL A   1      35.053  22.345  24.173  1.00  0.00    -0.457 OA
BRANCH  71  72
ATOM     72  C   UNL A   1      35.369  23.369  23.334  1.00  0.00     0.357 C 
ATOM     73  O   UNL A   1      36.377  23.466  22.653  1.00  0.00    -0.244 OA
BRANCH  72  74
ATOM     74  C   UNL A   1      34.234  24.324  23.327  1.00  0.00     0.149 A 
ATOM     75  C   UNL A   1      33.482  24.502  24.483  1.00  0.00     0.051 A 
ATOM     76  N   UNL A   1      34.007  24.963  22.152  1.00  0.00    -0.249 NA
ATOM     77  C   UNL A   1      32.433  25.405  24.443  1.00  0.00     0.012 A 
ATOM     78  C   UNL A   1      32.975  25.825  22.133  1.00  0.00     0.113 A 
ATOM     79  C   UNL A   1      32.192  26.096  23.244  1.00  0.00     0.035 A 
BRANCH  77  80
ATOM     80  S   UNL A   1      31.381  25.782  25.831  1.00  0.00    -0.120 SA
BRANCH  80  81
ATOM     81  C   UNL A   1      30.632  24.214  26.376  1.00  0.00     0.132 C 
BRANCH  81  82
ATOM     82  C   UNL A   1      31.545  23.033  26.532  1.00  0.00     0.062 A 
ATOM     83  C   UNL A   1      32.597  22.906  27.419  1.00  0.00     0.091 A 
ATOM     84  N   UNL A   1      31.467  21.995  25.604  1.00  0.00    -0.240 NA
ATOM     85  S   UNL A   1      33.388  21.403  27.212  1.00  0.00    -0.122 S 
ATOM     86  C   UNL A   1      32.367  21.069  25.874  1.00  0.00     0.124 A 
BRANCH  86  87
ATOM     87  C   UNL A   1      32.488  19.839  25.019  1.00  0.00     0.021 A 
ATOM     88  C   UNL A   1      32.708  18.533  25.552  1.00  0.00     0.023 A 
ATOM     89  C   UNL A   1      32.398  19.822  23.643  1.00  0.00     0.076 A 
ATOM     90  C   UNL A   1      32.744  17.568  24.570  1.00  0.00     0.065 A 
ATOM     91  S   UNL A   1      32.606  18.243  23.004  1.00  0.00    -0.152 S 
ENDBRANCH  86  87
ENDBRANCH  81  82
ENDBRANCH  80  81
ENDBRANCH  77  80
ENDBRANCH  72  74
ENDBRANCH  71  72
ENDBRANCH   1  71
TORSDOF 18
ENDMDL
