MODEL 1
REMARK VINA RESULT:     -12.4      0.000      0.000
REMARK SMILES COc1ccc(-c2cnc(N)c(C(=O)OCCOC(=O)c3ccc(-c4c5nc(c(-c6cccc(S(=O)(=O)[O-])c6F)c6ccc([nH]6)c(-c6cccc(S(=O)(=O)[O-])c6F)c6nc(c(-c7cccc(S(=O)(=O)[O-])c7F)c7ccc4[nH]7)C=C6)C=C5)cc3)c2)c(C)c1
REMARK SMILES IDX 17 1 16 2 15 3 13 4 14 5 12 6 7 7 8 8 84 9 9 10 10 11 6 12
REMARK SMILES IDX 3 13 4 14 87 15 5 16 85 17 86 18 2 19 1 20 11 21 18 24 19 25
REMARK SMILES IDX 20 26 21 27 22 28 83 29 23 30 82 31 24 32 25 33 26 34 76 35
REMARK SMILES IDX 27 36 81 37 75 38 77 39 28 40 80 41 74 42 73 43 29 45 61 46
REMARK SMILES IDX 41 47 60 48 42 49 45 50 59 51 78 52 43 53 44 54 58 56 79 57
REMARK SMILES IDX 46 58 30 59 31 60 39 61 32 62 34 63 40 64 33 65 35 66 36 67
REMARK SMILES IDX 37 68 38 69 62 70 63 71 71 72 64 73 66 74 72 75 65 76 67 77
REMARK SMILES IDX 68 78 69 79 70 80 47 81 48 82 56 83 49 84 51 85 57 86 50 87
REMARK SMILES IDX 52 88 53 89 54 90 55 91
REMARK H PARENT 11 22 11 23 77 44 45 55
REMARK Flexibility Score: inf
ROOT
ATOM      1  C   UNL A   1      34.054  29.329  26.798  1.00  0.00     0.275 C 
ENDROOT
BRANCH   1   2
ATOM      2  C   UNL A   1      33.059  28.148  26.798  1.00  0.00     0.275 C 
BRANCH   2   3
ATOM      3  O   UNL A   1      33.494  26.869  26.342  1.00  0.00    -0.458 OA
BRANCH   3   4
ATOM      4  C   UNL A   1      32.539  25.964  26.033  1.00  0.00     0.342 C 
ATOM      5  O   UNL A   1      31.444  25.859  26.558  1.00  0.00    -0.246 OA
BRANCH   4   6
ATOM      6  C   UNL A   1      33.031  25.095  24.953  1.00  0.00     0.102 A 
ATOM      7  C   UNL A   1      33.338  22.841  24.059  1.00  0.00     0.001 A 
ATOM      8  C   UNL A   1      33.664  23.518  22.873  1.00  0.00     0.122 A 
ATOM      9  C   UNL A   1      32.976  23.696  25.106  1.00  0.00     0.030 A 
ATOM     10  N   UNL A   1      33.756  24.865  22.701  1.00  0.00    -0.238 NA
ATOM     11  C   UNL A   1      33.497  25.639  23.763  1.00  0.00     0.138 A 
BRANCH   7  12
ATOM     12  C   UNL A   1      33.429  21.345  24.134  1.00  0.00    -0.014 A 
ATOM     13  C   UNL A   1      33.339  18.476  24.142  1.00  0.00     0.119 A 
ATOM     14  C   UNL A   1      32.352  19.195  23.498  1.00  0.00     0.047 A 
ATOM     15  C   UNL A   1      34.367  19.165  24.776  1.00  0.00     0.050 A 
ATOM     16  C   UNL A   1      32.416  20.593  23.480  1.00  0.00     0.013 A 
ATOM     17  C   UNL A   1      34.437  20.584  24.783  1.00  0.00    -0.040 A 
ATOM     18  C   UNL A   1      35.683  21.155  25.403  1.00  0.00     0.045 C 
BRANCH  13  19
ATOM     19  O   UNL A   1      33.360  17.110  24.230  1.00  0.00    -0.497 OA
ATOM     20  C   UNL A   1      34.657  16.587  24.518  1.00  0.00     0.278 C 
ENDBRANCH  13  19
ENDBRANCH   7  12
BRANCH  11  21
ATOM     21  N   UNL A   1      33.695  26.994  23.551  1.00  0.00    -0.383 N 
ATOM     22  H   UNL A   1      34.102  27.548  24.255  1.00  0.00     0.158 HD
ATOM     23  H   UNL A   1      33.427  27.403  22.696  1.00  0.00     0.158 HD
ENDBRANCH  11  21
ENDBRANCH   4   6
ENDBRANCH   3   4
ENDBRANCH   2   3
ENDBRANCH   1   2
BRANCH   1  24
ATOM     24  O   UNL A   1      35.067  29.492  27.820  1.00  0.00    -0.458 OA
BRANCH  24  25
ATOM     25  C   UNL A   1      36.182  30.289  27.857  1.00  0.00     0.338 C 
ATOM     26  O   UNL A   1      36.117  31.498  27.830  1.00  0.00    -0.246 OA
BRANCH  25  27
ATOM     27  C   UNL A   1      37.460  29.601  28.009  1.00  0.00     0.060 A 
ATOM     28  C   UNL A   1      38.364  29.561  26.934  1.00  0.00     0.016 A 
ATOM     29  C   UNL A   1      37.793  29.089  29.254  1.00  0.00     0.016 A 
ATOM     30  C   UNL A   1      39.658  29.087  27.131  1.00  0.00     0.010 A 
ATOM     31  C   UNL A   1      39.102  28.756  29.495  1.00  0.00     0.010 A 
ATOM     32  C   UNL A   1      40.008  28.679  28.418  1.00  0.00    -0.014 A 
BRANCH  32  33
ATOM     33  C   UNL A   1      41.071  27.723  28.680  1.00  0.00     0.031 A 
ATOM     34  C   UNL A   1      40.964  26.277  28.490  1.00  0.00     0.074 A 
ATOM     35  C   UNL A   1      42.243  28.358  28.912  1.00  0.00     0.049 A 
ATOM     36  N   UNL A   1      41.857  25.459  28.926  1.00  0.00    -0.248 NA
ATOM     37  C   UNL A   1      39.835  25.616  27.848  1.00  0.00     0.031 C 
ATOM     38  C   UNL A   1      43.608  27.909  28.755  1.00  0.00     0.029 A 
ATOM     39  N   UNL A   1      42.365  29.648  29.453  1.00  0.00    -0.354 N 
ATOM     40  C   UNL A   1      41.593  24.224  28.376  1.00  0.00     0.074 A 
ATOM     41  C   UNL A   1      40.255  24.342  27.848  1.00  0.00     0.031 C 
ATOM     42  C   UNL A   1      44.411  28.778  29.402  1.00  0.00     0.029 A 
ATOM     43  C   UNL A   1      43.552  29.675  30.171  1.00  0.00     0.049 A 
ATOM     44  H   UNL A   1      41.728  30.392  29.344  1.00  0.00     0.167 HD
ATOM     45  C   UNL A   1      42.618  23.328  28.300  1.00  0.00     0.034 A 
ATOM     46  C   UNL A   1      43.552  29.851  31.527  1.00  0.00     0.034 A 
ATOM     47  C   UNL A   1      43.790  23.835  29.040  1.00  0.00     0.049 A 
ATOM     48  C   UNL A   1      44.150  28.648  32.223  1.00  0.00     0.074 A 
ATOM     49  C   UNL A   1      44.942  24.477  28.620  1.00  0.00     0.029 A 
ATOM     50  N   UNL A   1      43.730  23.997  30.423  1.00  0.00    -0.354 N 
ATOM     51  N   UNL A   1      44.357  27.502  31.640  1.00  0.00    -0.248 NA
ATOM     52  C   UNL A   1      44.508  28.629  33.636  1.00  0.00     0.031 C 
ATOM     53  C   UNL A   1      45.498  25.148  29.745  1.00  0.00     0.029 A 
ATOM     54  C   UNL A   1      44.723  24.866  30.858  1.00  0.00     0.049 A 
ATOM     55  H   UNL A   1      43.076  23.556  31.010  1.00  0.00     0.167 HD
ATOM     56  C   UNL A   1      44.732  26.576  32.565  1.00  0.00     0.074 A 
ATOM     57  C   UNL A   1      44.885  27.347  33.790  1.00  0.00     0.031 C 
ATOM     58  C   UNL A   1      44.812  25.245  32.267  1.00  0.00     0.034 A 
BRANCH  45  59
ATOM     59  C   UNL A   1      42.723  22.128  27.361  1.00  0.00     0.023 A 
ATOM     60  C   UNL A   1      41.809  21.069  27.583  1.00  0.00     0.012 A 
ATOM     61  C   UNL A   1      43.702  21.888  26.365  1.00  0.00     0.148 A 
ATOM     62  C   UNL A   1      41.891  19.841  26.912  1.00  0.00     0.002 A 
ATOM     63  C   UNL A   1      43.766  20.674  25.670  1.00  0.00     0.091 A 
ATOM     64  F   UNL A   1      44.630  22.807  26.099  1.00  0.00    -0.205 F 
ATOM     65  C   UNL A   1      42.872  19.640  25.954  1.00  0.00     0.022 A 
BRANCH  63  66
ATOM     66  S   UNL A   1      44.997  20.346  24.390  1.00  0.00     0.127 S 
ATOM     67  O   UNL A   1      44.750  18.937  24.081  1.00  0.00    -0.237 OA
ATOM     68  O   UNL A   1      44.607  21.279  23.334  1.00  0.00    -0.237 OA
ATOM     69  O   UNL A   1      46.297  20.621  24.990  1.00  0.00    -0.744 OA
ENDBRANCH  63  66
ENDBRANCH  45  59
BRANCH  46  70
ATOM     70  C   UNL A   1      42.370  30.622  32.061  1.00  0.00     0.023 A 
ATOM     71  C   UNL A   1      42.162  31.940  31.578  1.00  0.00     0.012 A 
ATOM     72  C   UNL A   1      41.300  29.975  32.706  1.00  0.00     0.148 A 
ATOM     73  C   UNL A   1      40.900  32.543  31.631  1.00  0.00     0.002 A 
ATOM     74  C   UNL A   1      40.042  30.578  32.745  1.00  0.00     0.091 A 
ATOM     75  F   UNL A   1      41.489  28.751  33.217  1.00  0.00    -0.205 F 
ATOM     76  C   UNL A   1      39.835  31.850  32.193  1.00  0.00     0.022 A 
BRANCH  74  77
ATOM     77  S   UNL A   1      38.607  29.649  33.306  1.00  0.00     0.127 S 
ATOM     78  O   UNL A   1      38.896  28.306  32.810  1.00  0.00    -0.237 OA
ATOM     79  O   UNL A   1      38.656  29.764  34.758  1.00  0.00    -0.237 OA
ATOM     80  O   UNL A   1      37.512  30.340  32.631  1.00  0.00    -0.744 OA
ENDBRANCH  74  77
ENDBRANCH  46  70
BRANCH  58  81
ATOM     81  C   UNL A   1      44.987  24.180  33.314  1.00  0.00     0.023 A 
ATOM     82  C   UNL A   1      43.980  23.233  33.585  1.00  0.00     0.012 A 
ATOM     83  C   UNL A   1      46.234  24.007  33.957  1.00  0.00     0.148 A 
ATOM     84  C   UNL A   1      44.167  22.214  34.522  1.00  0.00     0.002 A 
ATOM     85  C   UNL A   1      46.451  22.925  34.802  1.00  0.00     0.091 A 
ATOM     86  F   UNL A   1      47.213  24.903  33.763  1.00  0.00    -0.205 F 
ATOM     87  C   UNL A   1      45.409  22.048  35.117  1.00  0.00     0.022 A 
BRANCH  85  88
ATOM     88  S   UNL A   1      48.106  22.544  35.382  1.00  0.00     0.127 S 
ATOM     89  O   UNL A   1      47.920  21.235  36.002  1.00  0.00    -0.237 OA
ATOM     90  O   UNL A   1      48.884  22.524  34.142  1.00  0.00    -0.237 OA
ATOM     91  O   UNL A   1      48.450  23.640  36.279  1.00  0.00    -0.744 OA
ENDBRANCH  85  88
ENDBRANCH  58  81
ENDBRANCH  32  33
ENDBRANCH  25  27
ENDBRANCH  24  25
ENDBRANCH   1  24
TORSDOF 17
ENDMDL
MODEL 2
REMARK VINA RESULT:     -12.4      2.482      3.151
REMARK SMILES COc1ccc(-c2cnc(N)c(C(=O)OCCOC(=O)c3ccc(-c4c5nc(c(-c6cccc(S(=O)(=O)[O-])c6F)c6ccc([nH]6)c(-c6cccc(S(=O)(=O)[O-])c6F)c6nc(c(-c7cccc(S(=O)(=O)[O-])c7F)c7ccc4[nH]7)C=C6)C=C5)cc3)c2)c(C)c1
REMARK SMILES IDX 17 1 16 2 15 3 13 4 14 5 12 6 7 7 8 8 84 9 9 10 10 11 6 12
REMARK SMILES IDX 3 13 4 14 87 15 5 16 85 17 86 18 2 19 1 20 11 21 18 24 19 25
REMARK SMILES IDX 20 26 21 27 22 28 83 29 23 30 82 31 24 32 25 33 26 34 76 35
REMARK SMILES IDX 27 36 81 37 75 38 77 39 28 40 80 41 74 42 73 43 29 45 61 46
REMARK SMILES IDX 41 47 60 48 42 49 45 50 59 51 78 52 43 53 44 54 58 56 79 57
REMARK SMILES IDX 46 58 30 59 31 60 39 61 32 62 34 63 40 64 33 65 35 66 36 67
REMARK SMILES IDX 37 68 38 69 62 70 63 71 71 72 64 73 66 74 72 75 65 76 67 77
REMARK SMILES IDX 68 78 69 79 70 80 47 81 48 82 56 83 49 84 51 85 57 86 50 87
REMARK SMILES IDX 52 88 53 89 54 90 55 91
REMARK H PARENT 11 22 11 23 77 44 45 55
REMARK Flexibility Score: inf
ROOT
ATOM      1  C   UNL A   1      33.841  29.839  26.895  1.00  0.00     0.275 C 
ENDROOT
BRANCH   1   2
ATOM      2  C   UNL A   1      32.473  29.890  26.178  1.00  0.00     0.275 C 
BRANCH   2   3
ATOM      3  O   UNL A   1      31.908  28.685  25.667  1.00  0.00    -0.458 OA
BRANCH   3   4
ATOM      4  C   UNL A   1      31.651  27.697  26.554  1.00  0.00     0.342 C 
ATOM      5  O   UNL A   1      31.347  27.837  27.725  1.00  0.00    -0.246 OA
BRANCH   4   6
ATOM      6  C   UNL A   1      31.808  26.397  25.884  1.00  0.00     0.102 A 
ATOM      7  C   UNL A   1      33.143  24.383  25.516  1.00  0.00     0.001 A 
ATOM      8  C   UNL A   1      31.977  23.906  24.894  1.00  0.00     0.122 A 
ATOM      9  C   UNL A   1      33.001  25.668  26.052  1.00  0.00     0.030 A 
ATOM     10  N   UNL A   1      30.822  24.595  24.689  1.00  0.00    -0.238 NA
ATOM     11  C   UNL A   1      30.771  25.857  25.133  1.00  0.00     0.138 A 
BRANCH   7  12
ATOM     12  C   UNL A   1      34.394  23.555  25.530  1.00  0.00    -0.014 A 
ATOM     13  C   UNL A   1      36.879  22.132  25.325  1.00  0.00     0.119 A 
ATOM     14  C   UNL A   1      36.643  23.228  24.517  1.00  0.00     0.047 A 
ATOM     15  C   UNL A   1      35.899  21.741  26.230  1.00  0.00     0.050 A 
ATOM     16  C   UNL A   1      35.437  23.928  24.640  1.00  0.00     0.013 A 
ATOM     17  C   UNL A   1      34.663  22.431  26.354  1.00  0.00    -0.040 A 
ATOM     18  C   UNL A   1      33.777  21.950  27.471  1.00  0.00     0.045 C 
BRANCH  13  19
ATOM     19  O   UNL A   1      38.016  21.372  25.273  1.00  0.00    -0.497 OA
ATOM     20  C   UNL A   1      39.074  21.890  26.081  1.00  0.00     0.278 C 
ENDBRANCH  13  19
ENDBRANCH   7  12
BRANCH  11  21
ATOM     21  N   UNL A   1      29.606  26.535  24.815  1.00  0.00    -0.383 N 
ATOM     22  H   UNL A   1      28.781  26.362  25.323  1.00  0.00     0.158 HD
ATOM     23  H   UNL A   1      29.602  27.190  24.080  1.00  0.00     0.158 HD
ENDBRANCH  11  21
ENDBRANCH   4   6
ENDBRANCH   3   4
ENDBRANCH   2   3
ENDBRANCH   1   2
BRANCH   1  24
ATOM     24  O   UNL A   1      34.494  31.025  27.407  1.00  0.00    -0.458 OA
BRANCH  24  25
ATOM     25  C   UNL A   1      35.218  31.224  28.555  1.00  0.00     0.338 C 
ATOM     26  O   UNL A   1      34.852  31.975  29.431  1.00  0.00    -0.246 OA
BRANCH  25  27
ATOM     27  C   UNL A   1      36.423  30.415  28.703  1.00  0.00     0.060 A 
ATOM     28  C   UNL A   1      36.647  29.710  29.898  1.00  0.00     0.016 A 
ATOM     29  C   UNL A   1      37.272  30.282  27.615  1.00  0.00     0.016 A 
ATOM     30  C   UNL A   1      37.684  28.783  29.973  1.00  0.00     0.010 A 
ATOM     31  C   UNL A   1      38.200  29.273  27.629  1.00  0.00     0.010 A 
ATOM     32  C   UNL A   1      38.457  28.583  28.831  1.00  0.00    -0.014 A 
BRANCH  32  33
ATOM     33  C   UNL A   1      39.820  28.082  28.879  1.00  0.00     0.031 A 
ATOM     34  C   UNL A   1      40.219  26.706  28.584  1.00  0.00     0.074 A 
ATOM     35  C   UNL A   1      40.702  29.099  29.015  1.00  0.00     0.049 A 
ATOM     36  N   UNL A   1      41.402  26.264  28.835  1.00  0.00    -0.248 NA
ATOM     37  C   UNL A   1      39.326  25.694  28.034  1.00  0.00     0.031 C 
ATOM     38  C   UNL A   1      42.099  29.194  28.653  1.00  0.00     0.029 A 
ATOM     39  N   UNL A   1      40.426  30.324  29.643  1.00  0.00    -0.354 N 
ATOM     40  C   UNL A   1      41.526  25.038  28.221  1.00  0.00     0.074 A 
ATOM     41  C   UNL A   1      40.175  24.667  27.876  1.00  0.00     0.031 C 
ATOM     42  C   UNL A   1      42.617  30.277  29.265  1.00  0.00     0.029 A 
ATOM     43  C   UNL A   1      41.614  30.767  30.207  1.00  0.00     0.049 A 
ATOM     44  H   UNL A   1      39.554  30.782  29.676  1.00  0.00     0.167 HD
ATOM     45  C   UNL A   1      42.783  24.589  27.944  1.00  0.00     0.034 A 
ATOM     46  C   UNL A   1      41.748  30.887  31.563  1.00  0.00     0.034 A 
ATOM     47  C   UNL A   1      43.786  25.471  28.572  1.00  0.00     0.049 A 
ATOM     48  C   UNL A   1      42.837  29.971  32.077  1.00  0.00     0.074 A 
ATOM     49  C   UNL A   1      44.552  26.507  28.068  1.00  0.00     0.029 A 
ATOM     50  N   UNL A   1      43.875  25.555  29.961  1.00  0.00    -0.354 N 
ATOM     51  N   UNL A   1      43.357  29.002  31.379  1.00  0.00    -0.248 NA
ATOM     52  C   UNL A   1      43.380  30.041  33.428  1.00  0.00     0.031 C 
ATOM     53  C   UNL A   1      44.984  27.301  29.167  1.00  0.00     0.029 A 
ATOM     54  C   UNL A   1      44.536  26.716  30.341  1.00  0.00     0.049 A 
ATOM     55  H   UNL A   1      43.518  24.884  30.586  1.00  0.00     0.167 HD
ATOM     56  C   UNL A   1      44.174  28.252  32.170  1.00  0.00     0.074 A 
ATOM     57  C   UNL A   1      44.214  28.986  33.426  1.00  0.00     0.031 C 
ATOM     58  C   UNL A   1      44.687  27.057  31.754  1.00  0.00     0.034 A 
BRANCH  45  59
ATOM     59  C   UNL A   1      43.178  23.543  26.903  1.00  0.00     0.023 A 
ATOM     60  C   UNL A   1      43.875  24.016  25.764  1.00  0.00     0.012 A 
ATOM     61  C   UNL A   1      42.831  22.169  26.878  1.00  0.00     0.148 A 
ATOM     62  C   UNL A   1      44.156  23.206  24.655  1.00  0.00     0.002 A 
ATOM     63  C   UNL A   1      43.141  21.350  25.785  1.00  0.00     0.091 A 
ATOM     64  F   UNL A   1      42.147  21.630  27.886  1.00  0.00    -0.205 F 
ATOM     65  C   UNL A   1      43.788  21.870  24.662  1.00  0.00     0.022 A 
BRANCH  63  66
ATOM     66  S   UNL A   1      42.718  19.595  25.730  1.00  0.00     0.127 S 
ATOM     67  O   UNL A   1      41.283  19.634  25.450  1.00  0.00    -0.237 OA
ATOM     68  O   UNL A   1      43.542  19.109  24.623  1.00  0.00    -0.237 OA
ATOM     69  O   UNL A   1      43.073  19.046  27.033  1.00  0.00    -0.744 OA
ENDBRANCH  63  66
ENDBRANCH  45  59
BRANCH  46  70
ATOM     70  C   UNL A   1      40.459  31.148  32.301  1.00  0.00     0.023 A 
ATOM     71  C   UNL A   1      39.756  30.033  32.829  1.00  0.00     0.012 A 
ATOM     72  C   UNL A   1      40.138  32.427  32.792  1.00  0.00     0.148 A 
ATOM     73  C   UNL A   1      38.854  30.178  33.888  1.00  0.00     0.002 A 
ATOM     74  C   UNL A   1      39.245  32.562  33.856  1.00  0.00     0.091 A 
ATOM     75  F   UNL A   1      40.750  33.499  32.271  1.00  0.00    -0.205 F 
ATOM     76  C   UNL A   1      38.617  31.440  34.417  1.00  0.00     0.022 A 
BRANCH  74  77
ATOM     77  S   UNL A   1      39.044  34.150  34.678  1.00  0.00     0.127 S 
ATOM     78  O   UNL A   1      38.213  33.799  35.827  1.00  0.00    -0.237 OA
ATOM     79  O   UNL A   1      40.403  34.540  35.031  1.00  0.00    -0.237 OA
ATOM     80  O   UNL A   1      38.381  34.946  33.649  1.00  0.00    -0.744 OA
ENDBRANCH  74  77
ENDBRANCH  46  70
BRANCH  58  81
ATOM     81  C   UNL A   1      45.388  26.100  32.679  1.00  0.00     0.023 A 
ATOM     82  C   UNL A   1      46.792  26.055  32.777  1.00  0.00     0.012 A 
ATOM     83  C   UNL A   1      44.646  25.314  33.589  1.00  0.00     0.148 A 
ATOM     84  C   UNL A   1      47.436  25.201  33.675  1.00  0.00     0.002 A 
ATOM     85  C   UNL A   1      45.291  24.552  34.556  1.00  0.00     0.091 A 
ATOM     86  F   UNL A   1      43.307  25.290  33.512  1.00  0.00    -0.205 F 
ATOM     87  C   UNL A   1      46.686  24.462  34.578  1.00  0.00     0.022 A 
BRANCH  85  88
ATOM     88  S   UNL A   1      44.356  23.792  35.887  1.00  0.00     0.127 S 
ATOM     89  O   UNL A   1      45.404  23.130  36.660  1.00  0.00    -0.237 OA
ATOM     90  O   UNL A   1      43.748  24.947  36.551  1.00  0.00    -0.237 OA
ATOM     91  O   UNL A   1      43.397  22.919  35.220  1.00  0.00    -0.744 OA
ENDBRANCH  85  88
ENDBRANCH  58  81
ENDBRANCH  32  33
ENDBRANCH  25  27
ENDBRANCH  24  25
ENDBRANCH   1  24
TORSDOF 17
ENDMDL
MODEL 3
REMARK VINA RESULT:     -12.3      4.624     10.694
REMARK SMILES COc1ccc(-c2cnc(N)c(C(=O)OCCOC(=O)c3ccc(-c4c5nc(c(-c6cccc(S(=O)(=O)[O-])c6F)c6ccc([nH]6)c(-c6cccc(S(=O)(=O)[O-])c6F)c6nc(c(-c7cccc(S(=O)(=O)[O-])c7F)c7ccc4[nH]7)C=C6)C=C5)cc3)c2)c(C)c1
REMARK SMILES IDX 17 1 16 2 15 3 13 4 14 5 12 6 7 7 8 8 84 9 9 10 10 11 6 12
REMARK SMILES IDX 3 13 4 14 87 15 5 16 85 17 86 18 2 19 1 20 11 21 18 24 19 25
REMARK SMILES IDX 20 26 21 27 22 28 83 29 23 30 82 31 24 32 25 33 26 34 76 35
REMARK SMILES IDX 27 36 81 37 75 38 77 39 28 40 80 41 74 42 73 43 29 45 61 46
REMARK SMILES IDX 41 47 60 48 42 49 45 50 59 51 78 52 43 53 44 54 58 56 79 57
REMARK SMILES IDX 46 58 30 59 31 60 39 61 32 62 34 63 40 64 33 65 35 66 36 67
REMARK SMILES IDX 37 68 38 69 62 70 63 71 71 72 64 73 66 74 72 75 65 76 67 77
REMARK SMILES IDX 68 78 69 79 70 80 47 81 48 82 56 83 49 84 51 85 57 86 50 87
REMARK SMILES IDX 52 88 53 89 54 90 55 91
REMARK H PARENT 11 22 11 23 77 44 45 55
REMARK Flexibility Score: inf
ROOT
ATOM      1  C   UNL A   1      37.787  22.769  25.516  1.00  0.00     0.275 C 
ENDROOT
BRANCH   1   2
ATOM      2  C   UNL A   1      36.414  22.090  25.719  1.00  0.00     0.275 C 
BRANCH   2   3
ATOM      3  O   UNL A   1      35.353  22.828  26.322  1.00  0.00    -0.458 OA
BRANCH   3   4
ATOM      4  C   UNL A   1      34.135  22.745  25.743  1.00  0.00     0.342 C 
ATOM      5  O   UNL A   1      33.349  21.819  25.841  1.00  0.00    -0.246 OA
BRANCH   4   6
ATOM      6  C   UNL A   1      33.896  23.959  24.948  1.00  0.00     0.102 A 
ATOM      7  C   UNL A   1      33.542  26.377  24.877  1.00  0.00     0.001 A 
ATOM      8  C   UNL A   1      33.745  26.215  23.497  1.00  0.00     0.122 A 
ATOM      9  C   UNL A   1      33.669  25.185  25.601  1.00  0.00     0.030 A 
ATOM     10  N   UNL A   1      33.937  25.043  22.833  1.00  0.00    -0.238 NA
ATOM     11  C   UNL A   1      33.949  23.918  23.560  1.00  0.00     0.138 A 
BRANCH   7  12
ATOM     12  C   UNL A   1      33.189  27.720  25.445  1.00  0.00    -0.014 A 
ATOM     13  C   UNL A   1      32.763  30.272  26.689  1.00  0.00     0.119 A 
ATOM     14  C   UNL A   1      33.936  29.580  26.918  1.00  0.00     0.047 A 
ATOM     15  C   UNL A   1      31.805  29.712  25.850  1.00  0.00     0.050 A 
ATOM     16  C   UNL A   1      34.144  28.347  26.289  1.00  0.00     0.013 A 
ATOM     17  C   UNL A   1      31.994  28.453  25.219  1.00  0.00    -0.040 A 
ATOM     18  C   UNL A   1      30.914  28.063  24.246  1.00  0.00     0.045 C 
BRANCH  13  19
ATOM     19  O   UNL A   1      32.457  31.475  27.266  1.00  0.00    -0.497 OA
ATOM     20  C   UNL A   1      31.407  32.169  26.590  1.00  0.00     0.278 C 
ENDBRANCH  13  19
ENDBRANCH   7  12
BRANCH  11  21
ATOM     21  N   UNL A   1      34.057  22.753  22.819  1.00  0.00    -0.383 N 
ATOM     22  H   UNL A   1      33.308  22.116  22.791  1.00  0.00     0.158 HD
ATOM     23  H   UNL A   1      34.885  22.561  22.321  1.00  0.00     0.158 HD
ENDBRANCH  11  21
ENDBRANCH   4   6
ENDBRANCH   3   4
ENDBRANCH   2   3
ENDBRANCH   1   2
BRANCH   1  24
ATOM     24  O   UNL A   1      38.211  23.912  26.298  1.00  0.00    -0.458 OA
BRANCH  24  25
ATOM     25  C   UNL A   1      39.366  24.134  27.004  1.00  0.00     0.338 C 
ATOM     26  O   UNL A   1      40.285  23.345  27.012  1.00  0.00    -0.246 OA
BRANCH  25  27
ATOM     27  C   UNL A   1      39.464  25.419  27.689  1.00  0.00     0.060 A 
ATOM     28  C   UNL A   1      38.932  25.562  28.982  1.00  0.00     0.016 A 
ATOM     29  C   UNL A   1      40.174  26.443  27.081  1.00  0.00     0.016 A 
ATOM     30  C   UNL A   1      39.196  26.714  29.718  1.00  0.00     0.010 A 
ATOM     31  C   UNL A   1      40.559  27.514  27.846  1.00  0.00     0.010 A 
ATOM     32  C   UNL A   1      40.005  27.685  29.130  1.00  0.00    -0.014 A 
BRANCH  32  33
ATOM     33  C   UNL A   1      39.955  29.088  29.509  1.00  0.00     0.031 A 
ATOM     34  C   UNL A   1      38.932  30.038  29.071  1.00  0.00     0.074 A 
ATOM     35  C   UNL A   1      40.845  29.354  30.492  1.00  0.00     0.049 A 
ATOM     36  N   UNL A   1      39.044  31.306  29.267  1.00  0.00    -0.248 NA
ATOM     37  C   UNL A   1      37.730  29.668  28.337  1.00  0.00     0.031 C 
ATOM     38  C   UNL A   1      40.863  30.395  31.495  1.00  0.00     0.029 A 
ATOM     39  N   UNL A   1      42.046  28.655  30.700  1.00  0.00    -0.354 N 
ATOM     40  C   UNL A   1      37.828  31.880  28.972  1.00  0.00     0.074 A 
ATOM     41  C   UNL A   1      37.106  30.853  28.259  1.00  0.00     0.031 C 
ATOM     42  C   UNL A   1      42.096  30.430  32.039  1.00  0.00     0.029 A 
ATOM     43  C   UNL A   1      42.951  29.559  31.237  1.00  0.00     0.049 A 
ATOM     44  H   UNL A   1      42.213  27.705  30.501  1.00  0.00     0.167 HD
ATOM     45  C   UNL A   1      37.545  33.094  29.524  1.00  0.00     0.034 A 
ATOM     46  C   UNL A   1      44.079  29.918  30.552  1.00  0.00     0.034 A 
ATOM     47  C   UNL A   1      38.745  33.639  30.190  1.00  0.00     0.049 A 
ATOM     48  C   UNL A   1      44.076  31.401  30.255  1.00  0.00     0.074 A 
ATOM     49  C   UNL A   1      39.141  33.652  31.515  1.00  0.00     0.029 A 
ATOM     50  N   UNL A   1      39.868  33.985  29.439  1.00  0.00    -0.354 N 
ATOM     51  N   UNL A   1      43.024  32.161  30.371  1.00  0.00    -0.248 NA
ATOM     52  C   UNL A   1      45.237  32.127  29.755  1.00  0.00     0.031 C 
ATOM     53  C   UNL A   1      40.547  33.869  31.545  1.00  0.00     0.029 A 
ATOM     54  C   UNL A   1      40.996  34.050  30.246  1.00  0.00     0.049 A 
ATOM     55  H   UNL A   1      39.861  34.160  28.471  1.00  0.00     0.167 HD
ATOM     56  C   UNL A   1      43.290  33.396  29.863  1.00  0.00     0.074 A 
ATOM     57  C   UNL A   1      44.712  33.349  29.557  1.00  0.00     0.031 C 
ATOM     58  C   UNL A   1      42.309  34.326  29.667  1.00  0.00     0.034 A 
BRANCH  45  59
ATOM     59  C   UNL A   1      36.164  33.709  29.738  1.00  0.00     0.023 A 
ATOM     60  C   UNL A   1      35.532  34.260  28.596  1.00  0.00     0.012 A 
ATOM     61  C   UNL A   1      35.481  33.903  30.965  1.00  0.00     0.148 A 
ATOM     62  C   UNL A   1      34.343  34.999  28.667  1.00  0.00     0.002 A 
ATOM     63  C   UNL A   1      34.275  34.614  31.034  1.00  0.00     0.091 A 
ATOM     64  F   UNL A   1      36.003  33.453  32.104  1.00  0.00    -0.205 F 
ATOM     65  C   UNL A   1      33.712  35.179  29.888  1.00  0.00     0.022 A 
BRANCH  63  66
ATOM     66  S   UNL A   1      33.380  34.868  32.581  1.00  0.00     0.127 S 
ATOM     67  O   UNL A   1      34.252  35.806  33.289  1.00  0.00    -0.237 OA
ATOM     68  O   UNL A   1      32.116  35.441  32.121  1.00  0.00    -0.237 OA
ATOM     69  O   UNL A   1      33.257  33.557  33.206  1.00  0.00    -0.744 OA
ENDBRANCH  63  66
ENDBRANCH  45  59
BRANCH  46  70
ATOM     70  C   UNL A   1      44.588  28.875  29.588  1.00  0.00     0.023 A 
ATOM     71  C   UNL A   1      44.975  27.615  30.114  1.00  0.00     0.012 A 
ATOM     72  C   UNL A   1      44.347  28.971  28.205  1.00  0.00     0.148 A 
ATOM     73  C   UNL A   1      45.004  26.470  29.311  1.00  0.00     0.002 A 
ATOM     74  C   UNL A   1      44.367  27.822  27.412  1.00  0.00     0.091 A 
ATOM     75  F   UNL A   1      44.032  30.162  27.679  1.00  0.00    -0.205 F 
ATOM     76  C   UNL A   1      44.677  26.571  27.964  1.00  0.00     0.022 A 
BRANCH  74  77
ATOM     77  S   UNL A   1      43.784  27.882  25.712  1.00  0.00     0.127 S 
ATOM     78  O   UNL A   1      43.271  26.528  25.514  1.00  0.00    -0.237 OA
ATOM     79  O   UNL A   1      42.749  28.908  25.728  1.00  0.00    -0.237 OA
ATOM     80  O   UNL A   1      45.007  28.198  24.979  1.00  0.00    -0.744 OA
ENDBRANCH  74  77
ENDBRANCH  46  70
BRANCH  58  81
ATOM     81  C   UNL A   1      42.527  35.597  28.893  1.00  0.00     0.023 A 
ATOM     82  C   UNL A   1      41.877  35.841  27.667  1.00  0.00     0.012 A 
ATOM     83  C   UNL A   1      43.283  36.652  29.451  1.00  0.00     0.148 A 
ATOM     84  C   UNL A   1      42.043  37.044  26.978  1.00  0.00     0.002 A 
ATOM     85  C   UNL A   1      43.352  37.887  28.816  1.00  0.00     0.091 A 
ATOM     86  F   UNL A   1      43.953  36.459  30.597  1.00  0.00    -0.205 F 
ATOM     87  C   UNL A   1      42.766  38.075  27.561  1.00  0.00     0.022 A 
BRANCH  85  88
ATOM     88  S   UNL A   1      44.061  39.304  29.660  1.00  0.00     0.127 S 
ATOM     89  O   UNL A   1      43.840  40.378  28.694  1.00  0.00    -0.237 OA
ATOM     90  O   UNL A   1      43.243  39.398  30.871  1.00  0.00    -0.237 OA
ATOM     91  O   UNL A   1      45.449  38.936  29.909  1.00  0.00    -0.744 OA
ENDBRANCH  85  88
ENDBRANCH  58  81
ENDBRANCH  32  33
ENDBRANCH  25  27
ENDBRANCH  24  25
ENDBRANCH   1  24
TORSDOF 17
ENDMDL
