MODEL 1
REMARK VINA RESULT:     -11.6      0.000      0.000
REMARK SMILES COCCCN1C(=O)CC[C@@H](C(=O)OCCOC(=O)c2ccc(-c3c4nc(c(-c5cccc(S(=O)(=O)[O-])c5F)c5ccc([nH]5)c(-c5cccc(S(=O)(=O)[O-])c5F)c5nc(c(-c6cccc(S(=O)(=O)[O-])c6F)c6ccc3[nH]6)C=C5)C=C4)cc2)[C@@H]1c1ccc(F)cc1
REMARK SMILES IDX 15 1 14 2 12 3 13 4 11 5 6 6 7 7 83 8 8 9 9 10 10 11 5 12
REMARK SMILES IDX 4 13 3 14 2 15 1 16 84 17 85 18 90 19 86 20 89 21 87 22
REMARK SMILES IDX 88 23 16 24 17 25 18 26 19 27 20 28 21 29 82 30 22 31 81 32
REMARK SMILES IDX 23 33 24 34 25 35 75 36 26 37 80 38 74 39 76 40 27 41 79 42
REMARK SMILES IDX 73 43 72 44 28 46 60 47 40 48 59 49 41 50 44 51 58 52 77 53
REMARK SMILES IDX 42 54 43 55 57 57 78 58 45 59 29 60 30 61 38 62 31 63 33 64
REMARK SMILES IDX 39 65 32 66 34 67 35 68 36 69 37 70 61 71 62 72 70 73 63 74
REMARK SMILES IDX 65 75 71 76 64 77 66 78 67 79 68 80 69 81 46 82 47 83 55 84
REMARK SMILES IDX 48 85 50 86 56 87 49 88 51 89 52 90 53 91 54 92
REMARK H PARENT 76 45 44 56
REMARK Flexibility Score: inf
ROOT
ATOM      1  C   UNL A   1      31.213  29.038  25.391  1.00  0.00     0.274 C 
ENDROOT
BRANCH   1   2
ATOM      2  O   UNL A   1      32.279  28.185  24.907  1.00  0.00    -0.462 OA
BRANCH   2   3
ATOM      3  C   UNL A   1      32.493  27.061  25.651  1.00  0.00     0.311 C 
ATOM      4  O   UNL A   1      31.810  26.754  26.609  1.00  0.00    -0.252 OA
BRANCH   3   5
ATOM      5  C   UNL A   1      33.694  26.257  25.148  1.00  0.00     0.127 C 
ATOM      6  N   UNL A   1      32.336  24.201  24.731  1.00  0.00    -0.335 N 
ATOM      7  C   UNL A   1      31.916  24.816  23.557  1.00  0.00     0.223 C 
ATOM      8  C   UNL A   1      33.515  24.748  25.449  1.00  0.00     0.129 C 
ATOM      9  O   UNL A   1      30.786  24.738  23.089  1.00  0.00    -0.275 OA
ATOM     10  C   UNL A   1      32.992  25.564  22.797  1.00  0.00     0.101 C 
ATOM     11  C   UNL A   1      33.940  26.409  23.644  1.00  0.00     0.028 C 
BRANCH   6  12
ATOM     12  C   UNL A   1      31.565  23.144  25.404  1.00  0.00     0.122 C 
BRANCH  12  13
ATOM     13  C   UNL A   1      32.173  21.760  25.683  1.00  0.00     0.050 C 
BRANCH  13  14
ATOM     14  C   UNL A   1      32.258  20.737  24.546  1.00  0.00     0.161 C 
BRANCH  14  15
ATOM     15  O   UNL A   1      32.190  19.388  25.007  1.00  0.00    -0.385 OA
ATOM     16  C   UNL A   1      32.414  18.434  23.981  1.00  0.00     0.194 C 
ENDBRANCH  14  15
ENDBRANCH  13  14
ENDBRANCH  12  13
ENDBRANCH   6  12
BRANCH   8  17
ATOM     17  C   UNL A   1      34.829  24.009  25.146  1.00  0.00    -0.024 A 
ATOM     18  C   UNL A   1      35.924  24.036  26.025  1.00  0.00     0.009 A 
ATOM     19  C   UNL A   1      34.907  23.160  24.025  1.00  0.00     0.009 A 
ATOM     20  C   UNL A   1      37.046  23.235  25.816  1.00  0.00     0.039 A 
ATOM     21  C   UNL A   1      36.023  22.341  23.824  1.00  0.00     0.039 A 
ATOM     22  C   UNL A   1      37.080  22.386  24.721  1.00  0.00     0.123 A 
ATOM     23  F   UNL A   1      38.139  21.587  24.537  1.00  0.00    -0.207 F 
ENDBRANCH   8  17
ENDBRANCH   3   5
ENDBRANCH   2   3
ENDBRANCH   1   2
BRANCH   1  24
ATOM     24  C   UNL A   1      31.715  30.386  25.919  1.00  0.00     0.275 C 
BRANCH  24  25
ATOM     25  O   UNL A   1      32.990  30.254  26.576  1.00  0.00    -0.458 OA
BRANCH  25  26
ATOM     26  C   UNL A   1      33.471  31.373  27.161  1.00  0.00     0.338 C 
ATOM     27  O   UNL A   1      32.847  32.392  27.420  1.00  0.00    -0.246 OA
BRANCH  26  28
ATOM     28  C   UNL A   1      34.844  31.148  27.640  1.00  0.00     0.060 A 
ATOM     29  C   UNL A   1      35.161  29.843  27.987  1.00  0.00     0.016 A 
ATOM     30  C   UNL A   1      35.748  32.169  27.919  1.00  0.00     0.016 A 
ATOM     31  C   UNL A   1      36.319  29.542  28.684  1.00  0.00     0.010 A 
ATOM     32  C   UNL A   1      36.966  31.856  28.552  1.00  0.00     0.010 A 
ATOM     33  C   UNL A   1      37.246  30.539  28.963  1.00  0.00    -0.014 A 
BRANCH  33  34
ATOM     34  C   UNL A   1      38.447  30.163  29.750  1.00  0.00     0.031 A 
ATOM     35  C   UNL A   1      39.464  29.235  29.151  1.00  0.00     0.074 A 
ATOM     36  C   UNL A   1      38.697  30.740  30.943  1.00  0.00     0.049 A 
ATOM     37  N   UNL A   1      40.519  28.698  29.703  1.00  0.00    -0.248 NA
ATOM     38  C   UNL A   1      39.281  28.886  27.733  1.00  0.00     0.031 C 
ATOM     39  C   UNL A   1      37.874  31.775  31.575  1.00  0.00     0.029 A 
ATOM     40  N   UNL A   1      39.720  30.541  31.838  1.00  0.00    -0.354 N 
ATOM     41  C   UNL A   1      41.088  27.894  28.725  1.00  0.00     0.074 A 
ATOM     42  C   UNL A   1      40.281  28.040  27.532  1.00  0.00     0.031 C 
ATOM     43  C   UNL A   1      38.412  32.103  32.760  1.00  0.00     0.029 A 
ATOM     44  C   UNL A   1      39.571  31.251  33.007  1.00  0.00     0.049 A 
ATOM     45  H   UNL A   1      40.486  29.948  31.660  1.00  0.00     0.167 HD
ATOM     46  C   UNL A   1      42.181  27.101  28.816  1.00  0.00     0.034 A 
ATOM     47  C   UNL A   1      40.253  31.180  34.167  1.00  0.00     0.034 A 
ATOM     48  C   UNL A   1      43.000  26.987  29.993  1.00  0.00     0.049 A 
ATOM     49  C   UNL A   1      41.402  30.215  34.278  1.00  0.00     0.074 A 
ATOM     50  C   UNL A   1      44.110  26.186  30.193  1.00  0.00     0.029 A 
ATOM     51  N   UNL A   1      42.797  27.693  31.168  1.00  0.00    -0.354 N 
ATOM     52  N   UNL A   1      41.930  29.448  33.353  1.00  0.00    -0.248 NA
ATOM     53  C   UNL A   1      42.058  30.109  35.589  1.00  0.00     0.031 C 
ATOM     54  C   UNL A   1      44.564  26.389  31.501  1.00  0.00     0.029 A 
ATOM     55  C   UNL A   1      43.754  27.338  32.105  1.00  0.00     0.049 A 
ATOM     56  H   UNL A   1      42.080  28.350  31.316  1.00  0.00     0.167 HD
ATOM     57  C   UNL A   1      42.994  28.793  33.962  1.00  0.00     0.074 A 
ATOM     58  C   UNL A   1      43.052  29.270  35.328  1.00  0.00     0.031 C 
ATOM     59  C   UNL A   1      43.836  27.866  33.443  1.00  0.00     0.034 A 
BRANCH  46  60
ATOM     60  C   UNL A   1      42.528  26.262  27.618  1.00  0.00     0.023 A 
ATOM     61  C   UNL A   1      43.277  26.808  26.559  1.00  0.00     0.012 A 
ATOM     62  C   UNL A   1      42.126  24.912  27.561  1.00  0.00     0.148 A 
ATOM     63  C   UNL A   1      43.594  26.033  25.445  1.00  0.00     0.002 A 
ATOM     64  C   UNL A   1      42.481  24.134  26.466  1.00  0.00     0.091 A 
ATOM     65  F   UNL A   1      41.389  24.421  28.568  1.00  0.00    -0.205 F 
ATOM     66  C   UNL A   1      43.206  24.696  25.403  1.00  0.00     0.022 A 
BRANCH  64  67
ATOM     67  S   UNL A   1      42.082  22.388  26.356  1.00  0.00     0.127 S 
ATOM     68  O   UNL A   1      40.620  22.420  26.339  1.00  0.00    -0.237 OA
ATOM     69  O   UNL A   1      42.697  22.012  25.082  1.00  0.00    -0.237 OA
ATOM     70  O   UNL A   1      42.680  21.762  27.526  1.00  0.00    -0.744 OA
ENDBRANCH  64  67
ENDBRANCH  46  60
BRANCH  47  71
ATOM     71  C   UNL A   1      39.845  32.016  35.335  1.00  0.00     0.023 A 
ATOM     72  C   UNL A   1      40.363  33.316  35.479  1.00  0.00     0.012 A 
ATOM     73  C   UNL A   1      38.955  31.520  36.310  1.00  0.00     0.148 A 
ATOM     74  C   UNL A   1      40.029  34.096  36.588  1.00  0.00     0.002 A 
ATOM     75  C   UNL A   1      38.583  32.322  37.382  1.00  0.00     0.091 A 
ATOM     76  F   UNL A   1      38.493  30.270  36.172  1.00  0.00    -0.205 F 
ATOM     77  C   UNL A   1      39.132  33.603  37.533  1.00  0.00     0.022 A 
BRANCH  75  78
ATOM     78  S   UNL A   1      37.353  31.810  38.587  1.00  0.00     0.127 S 
ATOM     79  O   UNL A   1      37.077  30.438  38.168  1.00  0.00    -0.237 OA
ATOM     80  O   UNL A   1      38.090  31.933  39.844  1.00  0.00    -0.237 OA
ATOM     81  O   UNL A   1      36.246  32.747  38.444  1.00  0.00    -0.744 OA
ENDBRANCH  75  78
ENDBRANCH  47  71
BRANCH  59  82
ATOM     82  C   UNL A   1      44.926  27.330  34.334  1.00  0.00     0.023 A 
ATOM     83  C   UNL A   1      46.168  27.992  34.398  1.00  0.00     0.012 A 
ATOM     84  C   UNL A   1      44.688  26.222  35.172  1.00  0.00     0.148 A 
ATOM     85  C   UNL A   1      47.167  27.542  35.261  1.00  0.00     0.002 A 
ATOM     86  C   UNL A   1      45.669  25.810  36.065  1.00  0.00     0.091 A 
ATOM     87  F   UNL A   1      43.506  25.595  35.081  1.00  0.00    -0.205 F 
ATOM     88  C   UNL A   1      46.913  26.461  36.103  1.00  0.00     0.022 A 
BRANCH  86  89
ATOM     89  S   UNL A   1      45.393  24.494  37.257  1.00  0.00     0.127 S 
ATOM     90  O   UNL A   1      46.622  24.545  38.047  1.00  0.00    -0.237 OA
ATOM     91  O   UNL A   1      44.196  24.957  37.959  1.00  0.00    -0.237 OA
ATOM     92  O   UNL A   1      45.203  23.280  36.476  1.00  0.00    -0.744 OA
ENDBRANCH  86  89
ENDBRANCH  59  82
ENDBRANCH  33  34
ENDBRANCH  26  28
ENDBRANCH  25  26
ENDBRANCH  24  25
ENDBRANCH   1  24
TORSDOF 19
ENDMDL
MODEL 2
REMARK VINA RESULT:     -11.2      1.595      2.269
REMARK SMILES COCCCN1C(=O)CC[C@@H](C(=O)OCCOC(=O)c2ccc(-c3c4nc(c(-c5cccc(S(=O)(=O)[O-])c5F)c5ccc([nH]5)c(-c5cccc(S(=O)(=O)[O-])c5F)c5nc(c(-c6cccc(S(=O)(=O)[O-])c6F)c6ccc3[nH]6)C=C5)C=C4)cc2)[C@@H]1c1ccc(F)cc1
REMARK SMILES IDX 15 1 14 2 12 3 13 4 11 5 6 6 7 7 83 8 8 9 9 10 10 11 5 12
REMARK SMILES IDX 4 13 3 14 2 15 1 16 84 17 85 18 90 19 86 20 89 21 87 22
REMARK SMILES IDX 88 23 16 24 17 25 18 26 19 27 20 28 21 29 82 30 22 31 81 32
REMARK SMILES IDX 23 33 24 34 25 35 75 36 26 37 80 38 74 39 76 40 27 41 79 42
REMARK SMILES IDX 73 43 72 44 28 46 60 47 40 48 59 49 41 50 44 51 58 52 77 53
REMARK SMILES IDX 42 54 43 55 57 57 78 58 45 59 29 60 30 61 38 62 31 63 33 64
REMARK SMILES IDX 39 65 32 66 34 67 35 68 36 69 37 70 61 71 62 72 70 73 63 74
REMARK SMILES IDX 65 75 71 76 64 77 66 78 67 79 68 80 69 81 46 82 47 83 55 84
REMARK SMILES IDX 48 85 50 86 56 87 49 88 51 89 52 90 53 91 54 92
REMARK H PARENT 76 45 44 56
REMARK Flexibility Score: inf
ROOT
ATOM      1  C   UNL A   1      31.396  29.997  26.890  1.00  0.00     0.274 C 
ENDROOT
BRANCH   1   2
ATOM      2  O   UNL A   1      32.335  29.004  27.367  1.00  0.00    -0.462 OA
BRANCH   2   3
ATOM      3  C   UNL A   1      32.021  27.716  27.037  1.00  0.00     0.311 C 
ATOM      4  O   UNL A   1      30.937  27.215  27.262  1.00  0.00    -0.252 OA
BRANCH   3   5
ATOM      5  C   UNL A   1      33.195  26.989  26.377  1.00  0.00     0.127 C 
ATOM      6  N   UNL A   1      32.027  26.781  24.178  1.00  0.00    -0.335 N 
ATOM      7  C   UNL A   1      32.378  28.109  23.959  1.00  0.00     0.223 C 
ATOM      8  C   UNL A   1      32.698  26.029  25.268  1.00  0.00     0.129 C 
ATOM      9  O   UNL A   1      31.674  28.938  23.395  1.00  0.00    -0.275 OA
ATOM     10  C   UNL A   1      33.777  28.490  24.399  1.00  0.00     0.101 C 
ATOM     11  C   UNL A   1      34.222  27.937  25.751  1.00  0.00     0.028 C 
BRANCH   6  12
ATOM     12  C   UNL A   1      30.891  26.130  23.506  1.00  0.00     0.122 C 
BRANCH  12  13
ATOM     13  C   UNL A   1      29.530  25.973  24.200  1.00  0.00     0.050 C 
BRANCH  13  14
ATOM     14  C   UNL A   1      28.352  26.839  23.743  1.00  0.00     0.161 C 
BRANCH  14  15
ATOM     15  O   UNL A   1      28.725  28.192  23.483  1.00  0.00    -0.385 OA
ATOM     16  C   UNL A   1      27.738  28.917  22.765  1.00  0.00     0.194 C 
ENDBRANCH  14  15
ENDBRANCH  13  14
ENDBRANCH  12  13
ENDBRANCH   6  12
BRANCH   8  17
ATOM     17  C   UNL A   1      33.866  25.151  24.793  1.00  0.00    -0.024 A 
ATOM     18  C   UNL A   1      34.796  24.593  25.686  1.00  0.00     0.009 A 
ATOM     19  C   UNL A   1      33.943  24.767  23.440  1.00  0.00     0.009 A 
ATOM     20  C   UNL A   1      35.753  23.671  25.260  1.00  0.00     0.039 A 
ATOM     21  C   UNL A   1      34.889  23.828  23.014  1.00  0.00     0.039 A 
ATOM     22  C   UNL A   1      35.783  23.289  23.928  1.00  0.00     0.123 A 
ATOM     23  F   UNL A   1      36.675  22.377  23.522  1.00  0.00    -0.207 F 
ENDBRANCH   8  17
ENDBRANCH   3   5
ENDBRANCH   2   3
ENDBRANCH   1   2
BRANCH   1  24
ATOM     24  C   UNL A   1      32.061  31.328  26.526  1.00  0.00     0.275 C 
BRANCH  24  25
ATOM     25  O   UNL A   1      33.485  31.280  26.734  1.00  0.00    -0.458 OA
BRANCH  25  26
ATOM     26  C   UNL A   1      33.978  32.144  27.650  1.00  0.00     0.338 C 
ATOM     27  O   UNL A   1      33.374  33.052  28.202  1.00  0.00    -0.246 OA
BRANCH  26  28
ATOM     28  C   UNL A   1      35.330  31.732  28.063  1.00  0.00     0.060 A 
ATOM     29  C   UNL A   1      35.445  30.449  28.575  1.00  0.00     0.016 A 
ATOM     30  C   UNL A   1      36.420  32.595  28.125  1.00  0.00     0.016 A 
ATOM     31  C   UNL A   1      36.594  30.033  29.229  1.00  0.00     0.010 A 
ATOM     32  C   UNL A   1      37.618  32.148  28.714  1.00  0.00     0.010 A 
ATOM     33  C   UNL A   1      37.702  30.869  29.294  1.00  0.00    -0.014 A 
BRANCH  33  34
ATOM     34  C   UNL A   1      38.887  30.383  30.045  1.00  0.00     0.031 A 
ATOM     35  C   UNL A   1      39.809  29.384  29.407  1.00  0.00     0.074 A 
ATOM     36  C   UNL A   1      39.213  30.920  31.238  1.00  0.00     0.049 A 
ATOM     37  N   UNL A   1      40.830  28.754  29.924  1.00  0.00    -0.248 NA
ATOM     38  C   UNL A   1      39.562  29.073  27.990  1.00  0.00     0.031 C 
ATOM     39  C   UNL A   1      38.494  32.009  31.904  1.00  0.00     0.029 A 
ATOM     40  N   UNL A   1      40.239  30.625  32.103  1.00  0.00    -0.354 N 
ATOM     41  C   UNL A   1      41.306  27.921  28.921  1.00  0.00     0.074 A 
ATOM     42  C   UNL A   1      40.484  28.151  27.752  1.00  0.00     0.031 C 
ATOM     43  C   UNL A   1      39.088  32.274  33.079  1.00  0.00     0.029 A 
ATOM     44  C   UNL A   1      40.179  31.327  33.284  1.00  0.00     0.049 A 
ATOM     45  H   UNL A   1      40.949  29.973  31.897  1.00  0.00     0.167 HD
ATOM     46  C   UNL A   1      42.331  27.040  28.974  1.00  0.00     0.034 A 
ATOM     47  C   UNL A   1      40.881  31.183  34.425  1.00  0.00     0.034 A 
ATOM     48  C   UNL A   1      43.168  26.842  30.127  1.00  0.00     0.049 A 
ATOM     49  C   UNL A   1      41.949  30.125  34.494  1.00  0.00     0.074 A 
ATOM     50  C   UNL A   1      44.213  25.950  30.288  1.00  0.00     0.029 A 
ATOM     51  N   UNL A   1      43.053  27.545  31.316  1.00  0.00    -0.354 N 
ATOM     52  N   UNL A   1      42.389  29.332  33.545  1.00  0.00    -0.248 NA
ATOM     53  C   UNL A   1      42.627  29.947  35.786  1.00  0.00     0.031 C 
ATOM     54  C   UNL A   1      44.714  26.095  31.585  1.00  0.00     0.029 A 
ATOM     55  C   UNL A   1      44.001  27.098  32.222  1.00  0.00     0.049 A 
ATOM     56  H   UNL A   1      42.396  28.255  31.491  1.00  0.00     0.167 HD
ATOM     57  C   UNL A   1      43.410  28.583  34.117  1.00  0.00     0.074 A 
ATOM     58  C   UNL A   1      43.542  29.033  35.488  1.00  0.00     0.031 C 
ATOM     59  C   UNL A   1      44.160  27.597  33.565  1.00  0.00     0.034 A 
BRANCH  46  60
ATOM     60  C   UNL A   1      42.578  26.193  27.756  1.00  0.00     0.023 A 
ATOM     61  C   UNL A   1      43.340  26.694  26.684  1.00  0.00     0.012 A 
ATOM     62  C   UNL A   1      42.067  24.881  27.693  1.00  0.00     0.148 A 
ATOM     63  C   UNL A   1      43.565  25.911  25.551  1.00  0.00     0.002 A 
ATOM     64  C   UNL A   1      42.330  24.093  26.580  1.00  0.00     0.091 A 
ATOM     65  F   UNL A   1      41.321  24.436  28.715  1.00  0.00    -0.205 F 
ATOM     66  C   UNL A   1      43.069  24.610  25.504  1.00  0.00     0.022 A 
BRANCH  64  67
ATOM     67  S   UNL A   1      41.789  22.386  26.459  1.00  0.00     0.127 S 
ATOM     68  O   UNL A   1      40.342  22.545  26.313  1.00  0.00    -0.237 OA
ATOM     69  O   UNL A   1      42.476  21.931  25.250  1.00  0.00    -0.237 OA
ATOM     70  O   UNL A   1      42.226  21.737  27.686  1.00  0.00    -0.744 OA
ENDBRANCH  64  67
ENDBRANCH  46  60
BRANCH  47  71
ATOM     71  C   UNL A   1      40.572  32.032  35.614  1.00  0.00     0.023 A 
ATOM     72  C   UNL A   1      41.468  33.046  36.000  1.00  0.00     0.012 A 
ATOM     73  C   UNL A   1      39.400  31.827  36.370  1.00  0.00     0.148 A 
ATOM     74  C   UNL A   1      41.220  33.820  37.136  1.00  0.00     0.002 A 
ATOM     75  C   UNL A   1      39.131  32.638  37.466  1.00  0.00     0.091 A 
ATOM     76  F   UNL A   1      38.572  30.839  36.006  1.00  0.00    -0.205 F 
ATOM     77  C   UNL A   1      40.048  33.623  37.861  1.00  0.00     0.022 A 
BRANCH  75  78
ATOM     78  S   UNL A   1      37.597  32.526  38.394  1.00  0.00     0.127 S 
ATOM     79  O   UNL A   1      37.632  31.143  38.864  1.00  0.00    -0.237 OA
ATOM     80  O   UNL A   1      37.797  33.534  39.435  1.00  0.00    -0.237 OA
ATOM     81  O   UNL A   1      36.537  32.844  37.445  1.00  0.00    -0.744 OA
ENDBRANCH  75  78
ENDBRANCH  47  71
BRANCH  59  82
ATOM     82  C   UNL A   1      45.224  26.961  34.420  1.00  0.00     0.023 A 
ATOM     83  C   UNL A   1      46.517  27.519  34.461  1.00  0.00     0.012 A 
ATOM     84  C   UNL A   1      44.917  25.862  35.248  1.00  0.00     0.148 A 
ATOM     85  C   UNL A   1      47.496  26.975  35.293  1.00  0.00     0.002 A 
ATOM     86  C   UNL A   1      45.882  25.358  36.110  1.00  0.00     0.091 A 
ATOM     87  F   UNL A   1      43.686  25.334  35.178  1.00  0.00    -0.205 F 
ATOM     88  C   UNL A   1      47.176  25.906  36.125  1.00  0.00     0.022 A 
BRANCH  86  89
ATOM     89  S   UNL A   1      45.530  24.049  37.289  1.00  0.00     0.127 S 
ATOM     90  O   UNL A   1      45.175  22.939  36.406  1.00  0.00    -0.237 OA
ATOM     91  O   UNL A   1      46.813  23.896  37.976  1.00  0.00    -0.237 OA
ATOM     92  O   UNL A   1      44.451  24.548  38.131  1.00  0.00    -0.744 OA
ENDBRANCH  86  89
ENDBRANCH  59  82
ENDBRANCH  33  34
ENDBRANCH  26  28
ENDBRANCH  25  26
ENDBRANCH  24  25
ENDBRANCH   1  24
TORSDOF 19
ENDMDL
MODEL 3
REMARK VINA RESULT:     -11.2      1.441      7.643
REMARK SMILES COCCCN1C(=O)CC[C@@H](C(=O)OCCOC(=O)c2ccc(-c3c4nc(c(-c5cccc(S(=O)(=O)[O-])c5F)c5ccc([nH]5)c(-c5cccc(S(=O)(=O)[O-])c5F)c5nc(c(-c6cccc(S(=O)(=O)[O-])c6F)c6ccc3[nH]6)C=C5)C=C4)cc2)[C@@H]1c1ccc(F)cc1
REMARK SMILES IDX 15 1 14 2 12 3 13 4 11 5 6 6 7 7 83 8 8 9 9 10 10 11 5 12
REMARK SMILES IDX 4 13 3 14 2 15 1 16 84 17 85 18 90 19 86 20 89 21 87 22
REMARK SMILES IDX 88 23 16 24 17 25 18 26 19 27 20 28 21 29 82 30 22 31 81 32
REMARK SMILES IDX 23 33 24 34 25 35 75 36 26 37 80 38 74 39 76 40 27 41 79 42
REMARK SMILES IDX 73 43 72 44 28 46 60 47 40 48 59 49 41 50 44 51 58 52 77 53
REMARK SMILES IDX 42 54 43 55 57 57 78 58 45 59 29 60 30 61 38 62 31 63 33 64
REMARK SMILES IDX 39 65 32 66 34 67 35 68 36 69 37 70 61 71 62 72 70 73 63 74
REMARK SMILES IDX 65 75 71 76 64 77 66 78 67 79 68 80 69 81 46 82 47 83 55 84
REMARK SMILES IDX 48 85 50 86 56 87 49 88 51 89 52 90 53 91 54 92
REMARK H PARENT 76 45 44 56
REMARK Flexibility Score: inf
ROOT
ATOM      1  C   UNL A   1      31.412  30.978  26.009  1.00  0.00     0.274 C 
ENDROOT
BRANCH   1   2
ATOM      2  O   UNL A   1      32.672  30.264  25.976  1.00  0.00    -0.462 OA
BRANCH   2   3
ATOM      3  C   UNL A   1      32.615  28.984  26.448  1.00  0.00     0.311 C 
ATOM      4  O   UNL A   1      32.019  28.672  27.460  1.00  0.00    -0.252 OA
BRANCH   3   5
ATOM      5  C   UNL A   1      33.400  28.010  25.567  1.00  0.00     0.127 C 
ATOM      6  N   UNL A   1      31.386  26.630  25.034  1.00  0.00    -0.335 N 
ATOM      7  C   UNL A   1      31.056  27.618  24.111  1.00  0.00     0.223 C 
ATOM      8  C   UNL A   1      32.761  26.600  25.594  1.00  0.00     0.129 C 
ATOM      9  O   UNL A   1      29.918  28.002  23.872  1.00  0.00    -0.275 OA
ATOM     10  C   UNL A   1      32.218  28.174  23.314  1.00  0.00     0.101 C 
ATOM     11  C   UNL A   1      33.494  28.454  24.104  1.00  0.00     0.028 C 
BRANCH   6  12
ATOM     12  C   UNL A   1      30.393  25.720  25.625  1.00  0.00     0.122 C 
BRANCH  12  13
ATOM     13  C   UNL A   1      30.622  24.201  25.669  1.00  0.00     0.050 C 
BRANCH  13  14
ATOM     14  C   UNL A   1      31.319  23.584  26.885  1.00  0.00     0.161 C 
BRANCH  14  15
ATOM     15  O   UNL A   1      32.412  22.737  26.527  1.00  0.00    -0.385 OA
ATOM     16  C   UNL A   1      33.372  22.595  27.563  1.00  0.00     0.194 C 
ENDBRANCH  14  15
ENDBRANCH  13  14
ENDBRANCH  12  13
ENDBRANCH   6  12
BRANCH   8  17
ATOM     17  C   UNL A   1      33.698  25.601  24.896  1.00  0.00    -0.024 A 
ATOM     18  C   UNL A   1      34.847  25.088  25.521  1.00  0.00     0.009 A 
ATOM     19  C   UNL A   1      33.336  25.065  23.645  1.00  0.00     0.009 A 
ATOM     20  C   UNL A   1      35.598  24.066  24.940  1.00  0.00     0.039 A 
ATOM     21  C   UNL A   1      34.076  24.027  23.069  1.00  0.00     0.039 A 
ATOM     22  C   UNL A   1      35.198  23.537  23.723  1.00  0.00     0.123 A 
ATOM     23  F   UNL A   1      35.893  22.530  23.180  1.00  0.00    -0.207 F 
ENDBRANCH   8  17
ENDBRANCH   3   5
ENDBRANCH   2   3
ENDBRANCH   1   2
BRANCH   1  24
ATOM     24  C   UNL A   1      31.461  32.243  26.871  1.00  0.00     0.275 C 
BRANCH  24  25
ATOM     25  O   UNL A   1      32.714  32.936  26.720  1.00  0.00    -0.458 OA
BRANCH  25  26
ATOM     26  C   UNL A   1      33.211  33.509  27.840  1.00  0.00     0.338 C 
ATOM     27  O   UNL A   1      32.646  34.315  28.565  1.00  0.00    -0.246 OA
BRANCH  26  28
ATOM     28  C   UNL A   1      34.493  32.884  28.206  1.00  0.00     0.060 A 
ATOM     29  C   UNL A   1      34.427  31.568  28.636  1.00  0.00     0.016 A 
ATOM     30  C   UNL A   1      35.695  33.579  28.306  1.00  0.00     0.016 A 
ATOM     31  C   UNL A   1      35.509  30.953  29.245  1.00  0.00     0.010 A 
ATOM     32  C   UNL A   1      36.821  32.930  28.847  1.00  0.00     0.010 A 
ATOM     33  C   UNL A   1      36.725  31.617  29.345  1.00  0.00    -0.014 A 
BRANCH  33  34
ATOM     34  C   UNL A   1      37.834  30.921  30.046  1.00  0.00     0.031 A 
ATOM     35  C   UNL A   1      38.118  31.244  31.484  1.00  0.00     0.074 A 
ATOM     36  C   UNL A   1      38.505  29.918  29.446  1.00  0.00     0.049 A 
ATOM     37  N   UNL A   1      39.100  30.836  32.245  1.00  0.00    -0.248 NA
ATOM     38  C   UNL A   1      37.154  32.125  32.164  1.00  0.00     0.031 C 
ATOM     39  C   UNL A   1      38.230  29.394  28.105  1.00  0.00     0.029 A 
ATOM     40  N   UNL A   1      39.558  29.154  29.888  1.00  0.00    -0.354 N 
ATOM     41  C   UNL A   1      38.913  31.462  33.470  1.00  0.00     0.074 A 
ATOM     42  C   UNL A   1      37.703  32.251  33.363  1.00  0.00     0.031 C 
ATOM     43  C   UNL A   1      39.102  28.412  27.828  1.00  0.00     0.029 A 
ATOM     44  C   UNL A   1      40.044  28.288  28.936  1.00  0.00     0.049 A 
ATOM     45  H   UNL A   1      39.928  29.219  30.798  1.00  0.00     0.167 HD
ATOM     46  C   UNL A   1      39.684  31.389  34.579  1.00  0.00     0.034 A 
ATOM     47  C   UNL A   1      41.157  27.528  28.930  1.00  0.00     0.034 A 
ATOM     48  C   UNL A   1      40.864  30.576  34.690  1.00  0.00     0.049 A 
ATOM     49  C   UNL A   1      42.054  27.542  30.139  1.00  0.00     0.074 A 
ATOM     50  C   UNL A   1      41.730  30.459  35.763  1.00  0.00     0.029 A 
ATOM     51  N   UNL A   1      41.346  29.741  33.694  1.00  0.00    -0.354 N 
ATOM     52  N   UNL A   1      41.878  28.144  31.291  1.00  0.00    -0.248 NA
ATOM     53  C   UNL A   1      43.300  26.766  30.052  1.00  0.00     0.031 C 
ATOM     54  C   UNL A   1      42.751  29.573  35.405  1.00  0.00     0.029 A 
ATOM     55  C   UNL A   1      42.505  29.115  34.121  1.00  0.00     0.049 A 
ATOM     56  H   UNL A   1      40.927  29.613  32.813  1.00  0.00     0.167 HD
ATOM     57  C   UNL A   1      42.974  27.797  32.074  1.00  0.00     0.074 A 
ATOM     58  C   UNL A   1      43.796  26.913  31.273  1.00  0.00     0.031 C 
ATOM     59  C   UNL A   1      43.282  28.190  33.334  1.00  0.00     0.034 A 
BRANCH  46  60
ATOM     60  C   UNL A   1      39.292  32.248  35.749  1.00  0.00     0.023 A 
ATOM     61  C   UNL A   1      39.684  33.598  35.804  1.00  0.00     0.012 A 
ATOM     62  C   UNL A   1      38.507  31.710  36.788  1.00  0.00     0.148 A 
ATOM     63  C   UNL A   1      39.327  34.394  36.892  1.00  0.00     0.002 A 
ATOM     64  C   UNL A   1      38.119  32.519  37.849  1.00  0.00     0.091 A 
ATOM     65  F   UNL A   1      38.168  30.413  36.728  1.00  0.00    -0.205 F 
ATOM     66  C   UNL A   1      38.538  33.858  37.907  1.00  0.00     0.022 A 
BRANCH  64  67
ATOM     67  S   UNL A   1      37.050  31.935  39.167  1.00  0.00     0.127 S 
ATOM     68  O   UNL A   1      35.726  32.247  38.632  1.00  0.00    -0.237 OA
ATOM     69  O   UNL A   1      37.369  30.507  39.210  1.00  0.00    -0.237 OA
ATOM     70  O   UNL A   1      37.436  32.678  40.357  1.00  0.00    -0.744 OA
ENDBRANCH  64  67
ENDBRANCH  46  60
BRANCH  47  71
ATOM     71  C   UNL A   1      41.512  26.718  27.728  1.00  0.00     0.023 A 
ATOM     72  C   UNL A   1      42.069  27.348  26.599  1.00  0.00     0.012 A 
ATOM     73  C   UNL A   1      41.285  25.327  27.694  1.00  0.00     0.148 A 
ATOM     74  C   UNL A   1      42.365  26.615  25.449  1.00  0.00     0.002 A 
ATOM     75  C   UNL A   1      41.634  24.593  26.566  1.00  0.00     0.091 A 
ATOM     76  F   UNL A   1      40.728  24.747  28.765  1.00  0.00    -0.205 F 
ATOM     77  C   UNL A   1      42.157  25.238  25.436  1.00  0.00     0.022 A 
BRANCH  75  78
ATOM     78  S   UNL A   1      41.501  22.803  26.502  1.00  0.00     0.127 S 
ATOM     79  O   UNL A   1      40.058  22.615  26.385  1.00  0.00    -0.237 OA
ATOM     80  O   UNL A   1      42.263  22.486  25.293  1.00  0.00    -0.237 OA
ATOM     81  O   UNL A   1      42.103  22.318  27.736  1.00  0.00    -0.744 OA
ENDBRANCH  75  78
ENDBRANCH  47  71
BRANCH  59  82
ATOM     82  C   UNL A   1      44.538  27.637  33.954  1.00  0.00     0.023 A 
ATOM     83  C   UNL A   1      45.703  28.427  34.001  1.00  0.00     0.012 A 
ATOM     84  C   UNL A   1      44.538  26.367  34.566  1.00  0.00     0.148 A 
ATOM     85  C   UNL A   1      46.857  27.952  34.623  1.00  0.00     0.002 A 
ATOM     86  C   UNL A   1      45.675  25.921  35.227  1.00  0.00     0.091 A 
ATOM     87  F   UNL A   1      43.425  25.623  34.493  1.00  0.00    -0.205 F 
ATOM     88  C   UNL A   1      46.839  26.706  35.247  1.00  0.00     0.022 A 
BRANCH  86  89
ATOM     89  S   UNL A   1      45.710  24.376  36.144  1.00  0.00     0.127 S 
ATOM     90  O   UNL A   1      44.545  24.519  37.015  1.00  0.00    -0.237 OA
ATOM     91  O   UNL A   1      45.559  23.380  35.081  1.00  0.00    -0.237 OA
ATOM     92  O   UNL A   1      46.998  24.342  36.823  1.00  0.00    -0.744 OA
ENDBRANCH  86  89
ENDBRANCH  59  82
ENDBRANCH  33  34
ENDBRANCH  26  28
ENDBRANCH  25  26
ENDBRANCH  24  25
ENDBRANCH   1  24
TORSDOF 19
ENDMDL
