MODEL 1
REMARK VINA RESULT:     -12.2      0.000      0.000
REMARK SMILES O=C(OCCOC(=O)c1cc(OC[C@@H]2Cc3cc(F)ccc3O2)cs1)c1ccc(-c2c3nc(c(-c4cccc(S(=O)(=O)[O-])c4F)c4ccc([nH]4)c(-c4cccc(S(=O)(=O)[O-])c4F)c4nc(c(-c5cccc(S(=O)(=O)[O-])c5F)c5ccc2[nH]5)C=C4)C=C3)cc1
REMARK SMILES IDX 4 1 3 2 2 3 1 4 26 5 27 6 88 7 28 8 87 9 29 10 30 11 31 12
REMARK SMILES IDX 81 13 32 14 86 15 80 16 82 17 33 18 85 19 79 20 78 21 34 23
REMARK SMILES IDX 66 24 46 25 65 26 47 27 50 28 64 29 83 30 48 31 49 32 63 34
REMARK SMILES IDX 84 35 51 36 35 37 36 38 44 39 37 40 39 41 45 42 38 43 40 44
REMARK SMILES IDX 41 45 42 46 43 47 67 48 68 49 76 50 69 51 71 52 77 53 70 54
REMARK SMILES IDX 72 55 73 56 74 57 75 58 52 59 53 60 61 61 54 62 56 63 62 64
REMARK SMILES IDX 55 65 57 66 58 67 59 68 60 69 5 70 6 71 7 72 8 73 9 74 10 75
REMARK SMILES IDX 25 76 11 77 24 78 12 79 13 80 14 81 15 82 23 83 16 84 22 85
REMARK SMILES IDX 17 86 21 87 18 88 20 89 19 90
REMARK H PARENT 82 22 50 33
REMARK Flexibility Score: inf
ROOT
ATOM      1  C   UNL A   1      39.143  20.109  25.758  1.00  0.00     0.275 C 
ENDROOT
BRANCH   1   2
ATOM      2  O   UNL A   1      40.202  19.136  25.816  1.00  0.00    -0.458 OA
BRANCH   2   3
ATOM      3  C   UNL A   1      41.543  19.307  25.948  1.00  0.00     0.338 C 
ATOM      4  O   UNL A   1      42.275  18.328  25.820  1.00  0.00    -0.246 OA
BRANCH   3   5
ATOM      5  C   UNL A   1      42.164  20.593  26.400  1.00  0.00     0.060 A 
ATOM      6  C   UNL A   1      42.136  20.907  27.768  1.00  0.00     0.016 A 
ATOM      7  C   UNL A   1      42.624  21.578  25.549  1.00  0.00     0.016 A 
ATOM      8  C   UNL A   1      42.410  22.214  28.219  1.00  0.00     0.010 A 
ATOM      9  C   UNL A   1      42.800  22.877  25.989  1.00  0.00     0.010 A 
ATOM     10  C   UNL A   1      42.717  23.239  27.314  1.00  0.00    -0.014 A 
BRANCH  10  11
ATOM     11  C   UNL A   1      43.031  24.642  27.676  1.00  0.00     0.031 A 
ATOM     12  C   UNL A   1      41.949  25.648  28.033  1.00  0.00     0.074 A 
ATOM     13  C   UNL A   1      44.276  25.127  27.481  1.00  0.00     0.049 A 
ATOM     14  N   UNL A   1      42.195  27.147  28.677  1.00  0.00    -0.248 NA
ATOM     15  C   UNL A   1      39.940  25.364  27.935  1.00  0.00     0.031 C 
ATOM     16  C   UNL A   1      45.351  24.372  26.839  1.00  0.00     0.029 A 
ATOM     17  N   UNL A   1      44.800  26.401  27.624  1.00  0.00    -0.354 N 
ATOM     18  C   UNL A   1      40.608  27.982  29.015  1.00  0.00     0.074 A 
ATOM     19  C   UNL A   1      39.224  26.750  28.468  1.00  0.00     0.031 C 
ATOM     20  C   UNL A   1      46.359  25.203  26.547  1.00  0.00     0.029 A 
ATOM     21  C   UNL A   1      46.008  26.556  26.975  1.00  0.00     0.049 A 
ATOM     22  H   UNL A   1      44.358  27.118  28.134  1.00  0.00     0.167 HD
ATOM     23  C   UNL A   1      40.402  29.212  29.528  1.00  0.00     0.034 A 
ATOM     24  C   UNL A   1      46.740  27.644  26.653  1.00  0.00     0.034 A 
ATOM     25  C   UNL A   1      41.428  30.202  29.643  1.00  0.00     0.049 A 
ATOM     26  C   UNL A   1      46.353  29.021  27.116  1.00  0.00     0.074 A 
ATOM     27  C   UNL A   1      41.335  31.457  30.218  1.00  0.00     0.029 A 
ATOM     28  N   UNL A   1      42.683  30.115  29.050  1.00  0.00    -0.354 N 
ATOM     29  N   UNL A   1      45.266  29.422  27.726  1.00  0.00    -0.248 NA
ATOM     30  C   UNL A   1      47.345  30.086  26.895  1.00  0.00     0.031 C 
ATOM     31  C   UNL A   1      42.500  32.159  29.907  1.00  0.00     0.029 A 
ATOM     32  C   UNL A   1      43.352  31.317  29.209  1.00  0.00     0.049 A 
ATOM     33  H   UNL A   1      43.041  29.321  28.590  1.00  0.00     0.167 HD
ATOM     34  C   UNL A   1      45.473  30.765  28.030  1.00  0.00     0.074 A 
ATOM     35  C   UNL A   1      46.774  31.119  27.503  1.00  0.00     0.031 C 
ATOM     36  C   UNL A   1      44.673  31.620  28.710  1.00  0.00     0.034 A 
BRANCH  23  37
ATOM     37  C   UNL A   1      39.028  29.482  30.029  1.00  0.00     0.023 A 
ATOM     38  C   UNL A   1      38.683  29.006  31.311  1.00  0.00     0.012 A 
ATOM     39  C   UNL A   1      38.113  30.267  29.311  1.00  0.00     0.148 A 
ATOM     40  C   UNL A   1      37.434  29.282  31.860  1.00  0.00     0.002 A 
ATOM     41  C   UNL A   1      36.868  30.540  29.863  1.00  0.00     0.091 A 
ATOM     42  F   UNL A   1      38.478  30.727  28.106  1.00  0.00    -0.205 F 
ATOM     43  C   UNL A   1      36.527  30.049  31.136  1.00  0.00     0.022 A 
BRANCH  41  44
ATOM     44  S   UNL A   1      35.607  31.475  28.996  1.00  0.00     0.127 S 
ATOM     45  O   UNL A   1      34.755  31.902  30.107  1.00  0.00    -0.237 OA
ATOM     46  O   UNL A   1      36.389  32.544  28.377  1.00  0.00    -0.237 OA
ATOM     47  O   UNL A   1      34.981  30.543  28.069  1.00  0.00    -0.744 OA
ENDBRANCH  41  44
ENDBRANCH  23  37
BRANCH  24  48
ATOM     48  C   UNL A   1      48.005  27.424  25.892  1.00  0.00     0.023 A 
ATOM     49  C   UNL A   1      49.128  26.974  26.610  1.00  0.00     0.012 A 
ATOM     50  C   UNL A   1      48.074  27.527  24.487  1.00  0.00     0.148 A 
ATOM     51  C   UNL A   1      50.296  26.611  25.944  1.00  0.00     0.002 A 
ATOM     52  C   UNL A   1      49.244  27.158  23.828  1.00  0.00     0.091 A 
ATOM     53  F   UNL A   1      46.984  27.940  23.824  1.00  0.00    -0.205 F 
ATOM     54  C   UNL A   1      50.351  26.693  24.556  1.00  0.00     0.022 A 
BRANCH  52  55
ATOM     55  S   UNL A   1      49.435  27.219  22.042  1.00  0.00     0.127 S 
ATOM     56  O   UNL A   1      50.870  26.992  21.888  1.00  0.00    -0.237 OA
ATOM     57  O   UNL A   1      48.588  26.106  21.612  1.00  0.00    -0.237 OA
ATOM     58  O   UNL A   1      48.970  28.538  21.637  1.00  0.00    -0.744 OA
ENDBRANCH  52  55
ENDBRANCH  24  48
BRANCH  36  59
ATOM     59  C   UNL A   1      45.179  33.007  29.018  1.00  0.00     0.023 A 
ATOM     60  C   UNL A   1      45.993  33.227  30.145  1.00  0.00     0.012 A 
ATOM     61  C   UNL A   1      45.041  34.020  28.046  1.00  0.00     0.148 A 
ATOM     62  C   UNL A   1      46.696  34.426  30.276  1.00  0.00     0.002 A 
ATOM     63  C   UNL A   1      45.766  35.197  28.169  1.00  0.00     0.091 A 
ATOM     64  F   UNL A   1      44.258  33.778  26.984  1.00  0.00    -0.205 F 
ATOM     65  C   UNL A   1      46.602  35.398  29.279  1.00  0.00     0.022 A 
BRANCH  63  66
ATOM     66  S   UNL A   1      45.755  36.478  26.910  1.00  0.00     0.127 S 
ATOM     67  O   UNL A   1      46.232  35.745  25.737  1.00  0.00    -0.237 OA
ATOM     68  O   UNL A   1      44.342  36.853  26.863  1.00  0.00    -0.237 OA
ATOM     69  O   UNL A   1      46.651  37.524  27.384  1.00  0.00    -0.744 OA
ENDBRANCH  63  66
ENDBRANCH  36  59
ENDBRANCH  10  11
ENDBRANCH   3   5
ENDBRANCH   2   3
ENDBRANCH   1   2
BRANCH   1  70
ATOM     70  C   UNL A   1      38.058  19.813  24.690  1.00  0.00     0.275 C 
BRANCH  70  71
ATOM     71  O   UNL A   1      36.692  20.180  25.022  1.00  0.00    -0.458 OA
BRANCH  71  72
ATOM     72  C   UNL A   1      36.282  21.462  24.732  1.00  0.00     0.348 C 
ATOM     73  O   UNL A   1      36.741  22.114  23.802  1.00  0.00    -0.245 OA
BRANCH  72  74
ATOM     74  C   UNL A   1      35.159  21.845  25.587  1.00  0.00     0.116 A 
ATOM     75  C   UNL A   1      33.950  21.216  25.889  1.00  0.00     0.074 A 
ATOM     76  S   UNL A   1      35.243  23.335  26.435  1.00  0.00    -0.133 S 
ATOM     77  C   UNL A   1      32.938  22.173  26.256  1.00  0.00     0.131 A 
ATOM     78  C   UNL A   1      33.553  23.328  26.701  1.00  0.00     0.112 A 
BRANCH  77  79
ATOM     79  O   UNL A   1      31.567  22.227  26.175  1.00  0.00    -0.489 OA
BRANCH  79  80
ATOM     80  C   UNL A   1      30.688  23.238  25.287  1.00  0.00     0.275 C 
BRANCH  80  81
ATOM     81  C   UNL A   1      30.252  25.446  25.649  1.00  0.00     0.215 C 
ATOM     82  C   UNL A   1      29.921  26.749  24.492  1.00  0.00     0.088 C 
ATOM     83  O   UNL A   1      31.088  26.446  26.659  1.00  0.00    -0.486 OA
ATOM     84  C   UNL A   1      31.081  27.642  24.666  1.00  0.00     0.001 A 
ATOM     85  C   UNL A   1      31.583  27.507  25.937  1.00  0.00     0.123 A 
ATOM     86  C   UNL A   1      31.728  28.429  23.720  1.00  0.00     0.047 A 
ATOM     87  C   UNL A   1      32.660  28.266  26.351  1.00  0.00     0.050 A 
ATOM     88  C   UNL A   1      32.944  29.004  24.071  1.00  0.00     0.123 A 
ATOM     89  C   UNL A   1      33.391  28.970  25.389  1.00  0.00     0.043 A 
ATOM     90  F   UNL A   1      33.720  29.524  23.109  1.00  0.00    -0.207 F 
ENDBRANCH  80  81
ENDBRANCH  79  80
ENDBRANCH  77  79
ENDBRANCH  72  74
ENDBRANCH  71  72
ENDBRANCH  70  71
ENDBRANCH   1  70
TORSDOF 17
ENDMDL
MODEL 2
REMARK VINA RESULT:     -12.1      1.479      1.910
REMARK SMILES O=C(OCCOC(=O)c1cc(OC[C@@H]2Cc3cc(F)ccc3O2)cs1)c1ccc(-c2c3nc(c(-c4cccc(S(=O)(=O)[O-])c4F)c4ccc([nH]4)c(-c4cccc(S(=O)(=O)[O-])c4F)c4nc(c(-c5cccc(S(=O)(=O)[O-])c5F)c5ccc2[nH]5)C=C4)C=C3)cc1
REMARK SMILES IDX 4 1 3 2 2 3 1 4 26 5 27 6 88 7 28 8 87 9 29 10 30 11 31 12
REMARK SMILES IDX 81 13 32 14 86 15 80 16 82 17 33 18 85 19 79 20 78 21 34 23
REMARK SMILES IDX 66 24 46 25 65 26 47 27 50 28 64 29 83 30 48 31 49 32 63 34
REMARK SMILES IDX 84 35 51 36 35 37 36 38 44 39 37 40 39 41 45 42 38 43 40 44
REMARK SMILES IDX 41 45 42 46 43 47 67 48 68 49 76 50 69 51 71 52 77 53 70 54
REMARK SMILES IDX 72 55 73 56 74 57 75 58 52 59 53 60 61 61 54 62 56 63 62 64
REMARK SMILES IDX 55 65 57 66 58 67 59 68 60 69 5 70 6 71 7 72 8 73 9 74 10 75
REMARK SMILES IDX 25 76 11 77 24 78 12 79 13 80 14 81 15 82 23 83 16 84 22 85
REMARK SMILES IDX 17 86 21 87 18 88 20 89 19 90
REMARK H PARENT 82 22 50 33
REMARK Flexibility Score: inf
ROOT
ATOM      1  C   UNL A   1      38.446  20.910  25.340  1.00  0.00     0.275 C 
ENDROOT
BRANCH   1   2
ATOM      2  O   UNL A   1      39.333  19.854  25.752  1.00  0.00    -0.458 OA
BRANCH   2   3
ATOM      3  C   UNL A   1      40.654  19.892  26.069  1.00  0.00     0.338 C 
ATOM      4  O   UNL A   1      41.282  18.836  26.092  1.00  0.00    -0.246 OA
BRANCH   3   5
ATOM      5  C   UNL A   1      41.345  21.131  26.549  1.00  0.00     0.060 A 
ATOM      6  C   UNL A   1      41.218  21.489  27.901  1.00  0.00     0.016 A 
ATOM      7  C   UNL A   1      41.971  22.044  25.725  1.00  0.00     0.016 A 
ATOM      8  C   UNL A   1      41.567  22.779  28.348  1.00  0.00     0.010 A 
ATOM      9  C   UNL A   1      42.224  23.335  26.151  1.00  0.00     0.010 A 
ATOM     10  C   UNL A   1      42.051  23.744  27.453  1.00  0.00    -0.014 A 
BRANCH  10  11
ATOM     11  C   UNL A   1      42.456  25.124  27.812  1.00  0.00     0.031 A 
ATOM     12  C   UNL A   1      41.450  26.180  28.236  1.00  0.00     0.074 A 
ATOM     13  C   UNL A   1      43.713  25.546  27.556  1.00  0.00     0.049 A 
ATOM     14  N   UNL A   1      41.808  27.656  28.881  1.00  0.00    -0.248 NA
ATOM     15  C   UNL A   1      39.426  26.002  28.243  1.00  0.00     0.031 C 
ATOM     16  C   UNL A   1      44.712  24.744  26.850  1.00  0.00     0.029 A 
ATOM     17  N   UNL A   1      44.311  26.788  27.684  1.00  0.00    -0.354 N 
ATOM     18  C   UNL A   1      40.287  28.569  29.312  1.00  0.00     0.074 A 
ATOM     19  C   UNL A   1      38.813  27.417  28.827  1.00  0.00     0.031 C 
ATOM     20  C   UNL A   1      45.745  25.525  26.513  1.00  0.00     0.029 A 
ATOM     21  C   UNL A   1      45.490  26.889  26.973  1.00  0.00     0.049 A 
ATOM     22  H   UNL A   1      43.935  27.521  28.223  1.00  0.00     0.167 HD
ATOM     23  C   UNL A   1      40.174  29.801  29.848  1.00  0.00     0.034 A 
ATOM     24  C   UNL A   1      46.259  27.942  26.624  1.00  0.00     0.034 A 
ATOM     25  C   UNL A   1      41.255  30.735  29.917  1.00  0.00     0.049 A 
ATOM     26  C   UNL A   1      45.971  29.331  27.120  1.00  0.00     0.074 A 
ATOM     27  C   UNL A   1      41.259  31.985  30.510  1.00  0.00     0.029 A 
ATOM     28  N   UNL A   1      42.471  30.589  29.258  1.00  0.00    -0.354 N 
ATOM     29  N   UNL A   1      44.940  29.779  27.791  1.00  0.00    -0.248 NA
ATOM     30  C   UNL A   1      47.005  30.346  26.857  1.00  0.00     0.031 C 
ATOM     31  C   UNL A   1      42.441  32.629  30.144  1.00  0.00     0.029 A 
ATOM     32  C   UNL A   1      43.210  31.753  29.393  1.00  0.00     0.049 A 
ATOM     33  H   UNL A   1      42.762  29.784  28.772  1.00  0.00     0.167 HD
ATOM     34  C   UNL A   1      45.233  31.106  28.098  1.00  0.00     0.074 A 
ATOM     35  C   UNL A   1      46.522  31.399  27.505  1.00  0.00     0.031 C 
ATOM     36  C   UNL A   1      44.516  31.992  28.828  1.00  0.00     0.034 A 
BRANCH  23  37
ATOM     37  C   UNL A   1      38.844  30.136  30.424  1.00  0.00     0.023 A 
ATOM     38  C   UNL A   1      38.561  29.703  31.736  1.00  0.00     0.012 A 
ATOM     39  C   UNL A   1      37.917  30.938  29.742  1.00  0.00     0.148 A 
ATOM     40  C   UNL A   1      37.359  30.041  32.353  1.00  0.00     0.002 A 
ATOM     41  C   UNL A   1      36.719  31.272  30.361  1.00  0.00     0.091 A 
ATOM     42  F   UNL A   1      38.224  31.355  28.506  1.00  0.00    -0.205 F 
ATOM     43  C   UNL A   1      36.438  30.825  31.665  1.00  0.00     0.022 A 
BRANCH  41  44
ATOM     44  S   UNL A   1      35.442  32.235  29.549  1.00  0.00     0.127 S 
ATOM     45  O   UNL A   1      36.188  33.435  29.168  1.00  0.00    -0.237 OA
ATOM     46  O   UNL A   1      35.066  31.367  28.434  1.00  0.00    -0.237 OA
ATOM     47  O   UNL A   1      34.405  32.451  30.548  1.00  0.00    -0.744 OA
ENDBRANCH  41  44
ENDBRANCH  23  37
BRANCH  24  48
ATOM     48  C   UNL A   1      47.470  27.665  25.794  1.00  0.00     0.023 A 
ATOM     49  C   UNL A   1      48.613  27.174  26.451  1.00  0.00     0.012 A 
ATOM     50  C   UNL A   1      47.463  27.758  24.387  1.00  0.00     0.148 A 
ATOM     51  C   UNL A   1      49.725  26.759  25.723  1.00  0.00     0.002 A 
ATOM     52  C   UNL A   1      48.577  27.338  23.665  1.00  0.00     0.091 A 
ATOM     53  F   UNL A   1      46.355  28.211  23.783  1.00  0.00    -0.205 F 
ATOM     54  C   UNL A   1      49.705  26.831  24.333  1.00  0.00     0.022 A 
BRANCH  52  55
ATOM     55  S   UNL A   1      48.669  27.380  21.871  1.00  0.00     0.127 S 
ATOM     56  O   UNL A   1      49.945  28.060  21.654  1.00  0.00    -0.237 OA
ATOM     57  O   UNL A   1      48.667  25.956  21.537  1.00  0.00    -0.237 OA
ATOM     58  O   UNL A   1      47.493  28.118  21.431  1.00  0.00    -0.744 OA
ENDBRANCH  52  55
ENDBRANCH  24  48
BRANCH  36  59
ATOM     59  C   UNL A   1      45.111  33.348  29.122  1.00  0.00     0.023 A 
ATOM     60  C   UNL A   1      45.942  33.525  30.243  1.00  0.00     0.012 A 
ATOM     61  C   UNL A   1      45.032  34.360  28.143  1.00  0.00     0.148 A 
ATOM     62  C   UNL A   1      46.721  34.678  30.362  1.00  0.00     0.002 A 
ATOM     63  C   UNL A   1      45.830  35.489  28.253  1.00  0.00     0.091 A 
ATOM     64  F   UNL A   1      44.230  34.160  27.086  1.00  0.00    -0.205 F 
ATOM     65  C   UNL A   1      46.683  35.646  29.357  1.00  0.00     0.022 A 
BRANCH  63  66
ATOM     66  S   UNL A   1      45.893  36.759  26.983  1.00  0.00     0.127 S 
ATOM     67  O   UNL A   1      44.509  37.234  26.970  1.00  0.00    -0.237 OA
ATOM     68  O   UNL A   1      46.858  37.705  27.540  1.00  0.00    -0.237 OA
ATOM     69  O   UNL A   1      46.323  36.093  25.761  1.00  0.00    -0.744 OA
ENDBRANCH  63  66
ENDBRANCH  36  59
ENDBRANCH  10  11
ENDBRANCH   3   5
ENDBRANCH   2   3
ENDBRANCH   1   2
BRANCH   1  70
ATOM     70  C   UNL A   1      36.995  20.451  25.048  1.00  0.00     0.275 C 
BRANCH  70  71
ATOM     71  O   UNL A   1      36.025  21.489  24.741  1.00  0.00    -0.458 OA
BRANCH  71  72
ATOM     72  C   UNL A   1      34.690  21.163  24.814  1.00  0.00     0.348 C 
ATOM     73  O   UNL A   1      34.290  20.011  24.927  1.00  0.00    -0.245 OA
BRANCH  72  74
ATOM     74  C   UNL A   1      33.871  22.374  24.878  1.00  0.00     0.116 A 
ATOM     75  C   UNL A   1      33.577  23.255  25.920  1.00  0.00     0.074 A 
ATOM     76  S   UNL A   1      33.080  22.906  23.451  1.00  0.00    -0.133 S 
ATOM     77  C   UNL A   1      32.313  23.913  25.707  1.00  0.00     0.131 A 
ATOM     78  C   UNL A   1      32.017  23.894  24.358  1.00  0.00     0.112 A 
BRANCH  77  79
ATOM     79  O   UNL A   1      31.338  24.443  26.519  1.00  0.00    -0.489 OA
BRANCH  79  80
ATOM     80  C   UNL A   1      30.119  25.392  26.076  1.00  0.00     0.275 C 
BRANCH  80  81
ATOM     81  C   UNL A   1      29.709  26.331  24.040  1.00  0.00     0.215 C 
ATOM     82  C   UNL A   1      30.603  27.585  23.159  1.00  0.00     0.088 C 
ATOM     83  O   UNL A   1      28.249  26.880  23.502  1.00  0.00    -0.486 OA
ATOM     84  C   UNL A   1      29.642  28.702  23.117  1.00  0.00     0.001 A 
ATOM     85  C   UNL A   1      28.360  28.213  23.178  1.00  0.00     0.123 A 
ATOM     86  C   UNL A   1      29.889  30.070  23.152  1.00  0.00     0.047 A 
ATOM     87  C   UNL A   1      27.278  29.069  23.125  1.00  0.00     0.050 A 
ATOM     88  C   UNL A   1      28.808  30.924  23.338  1.00  0.00     0.123 A 
ATOM     89  C   UNL A   1      27.504  30.442  23.277  1.00  0.00     0.043 A 
ATOM     90  F   UNL A   1      29.039  32.206  23.656  1.00  0.00    -0.207 F 
ENDBRANCH  80  81
ENDBRANCH  79  80
ENDBRANCH  77  79
ENDBRANCH  72  74
ENDBRANCH  71  72
ENDBRANCH  70  71
ENDBRANCH   1  70
TORSDOF 17
ENDMDL
MODEL 3
REMARK VINA RESULT:     -11.9      5.532     11.115
REMARK SMILES O=C(OCCOC(=O)c1cc(OC[C@@H]2Cc3cc(F)ccc3O2)cs1)c1ccc(-c2c3nc(c(-c4cccc(S(=O)(=O)[O-])c4F)c4ccc([nH]4)c(-c4cccc(S(=O)(=O)[O-])c4F)c4nc(c(-c5cccc(S(=O)(=O)[O-])c5F)c5ccc2[nH]5)C=C4)C=C3)cc1
REMARK SMILES IDX 4 1 3 2 2 3 1 4 26 5 27 6 88 7 28 8 87 9 29 10 30 11 31 12
REMARK SMILES IDX 81 13 32 14 86 15 80 16 82 17 33 18 85 19 79 20 78 21 34 23
REMARK SMILES IDX 66 24 46 25 65 26 47 27 50 28 64 29 83 30 48 31 49 32 63 34
REMARK SMILES IDX 84 35 51 36 35 37 36 38 44 39 37 40 39 41 45 42 38 43 40 44
REMARK SMILES IDX 41 45 42 46 43 47 67 48 68 49 76 50 69 51 71 52 77 53 70 54
REMARK SMILES IDX 72 55 73 56 74 57 75 58 52 59 53 60 61 61 54 62 56 63 62 64
REMARK SMILES IDX 55 65 57 66 58 67 59 68 60 69 5 70 6 71 7 72 8 73 9 74 10 75
REMARK SMILES IDX 25 76 11 77 24 78 12 79 13 80 14 81 15 82 23 83 16 84 22 85
REMARK SMILES IDX 17 86 21 87 18 88 20 89 19 90
REMARK H PARENT 82 22 50 33
REMARK Flexibility Score: inf
ROOT
ATOM      1  C   UNL A   1      32.420  31.682  27.333  1.00  0.00     0.275 C 
ENDROOT
BRANCH   1   2
ATOM      2  O   UNL A   1      32.776  33.077  27.376  1.00  0.00    -0.458 OA
BRANCH   2   3
ATOM      3  C   UNL A   1      33.323  33.810  28.380  1.00  0.00     0.338 C 
ATOM      4  O   UNL A   1      32.818  34.898  28.654  1.00  0.00    -0.246 OA
BRANCH   3   5
ATOM      5  C   UNL A   1      34.603  33.440  29.062  1.00  0.00     0.060 A 
ATOM      6  C   UNL A   1      35.814  33.860  28.490  1.00  0.00     0.016 A 
ATOM      7  C   UNL A   1      34.694  32.572  30.132  1.00  0.00     0.016 A 
ATOM      8  C   UNL A   1      37.042  33.295  28.889  1.00  0.00     0.010 A 
ATOM      9  C   UNL A   1      35.890  31.957  30.453  1.00  0.00     0.010 A 
ATOM     10  C   UNL A   1      37.090  32.294  29.869  1.00  0.00    -0.014 A 
BRANCH  10  11
ATOM     11  C   UNL A   1      38.321  31.638  30.371  1.00  0.00     0.031 A 
ATOM     12  C   UNL A   1      38.887  30.382  29.732  1.00  0.00     0.074 A 
ATOM     13  C   UNL A   1      38.851  32.014  31.554  1.00  0.00     0.049 A 
ATOM     14  N   UNL A   1      40.362  29.713  30.050  1.00  0.00    -0.248 NA
ATOM     15  C   UNL A   1      38.045  29.284  28.244  1.00  0.00     0.031 C 
ATOM     16  C   UNL A   1      38.233  32.993  32.448  1.00  0.00     0.029 A 
ATOM     17  N   UNL A   1      39.905  31.505  32.294  1.00  0.00    -0.354 N 
ATOM     18  C   UNL A   1      40.659  28.252  28.998  1.00  0.00     0.074 A 
ATOM     19  C   UNL A   1      39.085  28.052  27.896  1.00  0.00     0.031 C 
ATOM     20  C   UNL A   1      38.839  32.945  33.640  1.00  0.00     0.029 A 
ATOM     21  C   UNL A   1      39.890  31.930  33.607  1.00  0.00     0.049 A 
ATOM     22  H   UNL A   1      40.591  30.904  31.923  1.00  0.00     0.167 HD
ATOM     23  C   UNL A   1      41.737  27.443  28.975  1.00  0.00     0.034 A 
ATOM     24  C   UNL A   1      40.554  31.519  34.708  1.00  0.00     0.034 A 
ATOM     25  C   UNL A   1      42.742  27.436  29.993  1.00  0.00     0.049 A 
ATOM     26  C   UNL A   1      41.634  30.477  34.636  1.00  0.00     0.074 A 
ATOM     27  C   UNL A   1      43.914  26.702  30.022  1.00  0.00     0.029 A 
ATOM     28  N   UNL A   1      42.630  28.080  31.221  1.00  0.00    -0.354 N 
ATOM     29  N   UNL A   1      42.004  29.726  33.629  1.00  0.00    -0.248 NA
ATOM     30  C   UNL A   1      42.434  30.280  35.857  1.00  0.00     0.031 C 
ATOM     31  C   UNL A   1      44.473  26.836  31.294  1.00  0.00     0.029 A 
ATOM     32  C   UNL A   1      43.694  27.717  32.030  1.00  0.00     0.049 A 
ATOM     33  H   UNL A   1      41.908  28.699  31.475  1.00  0.00     0.167 HD
ATOM     34  C   UNL A   1      43.124  29.025  34.068  1.00  0.00     0.074 A 
ATOM     35  C   UNL A   1      43.350  29.412  35.445  1.00  0.00     0.031 C 
ATOM     36  C   UNL A   1      43.913  28.162  33.385  1.00  0.00     0.034 A 
BRANCH  23  37
ATOM     37  C   UNL A   1      41.862  26.565  27.781  1.00  0.00     0.023 A 
ATOM     38  C   UNL A   1      42.316  27.143  26.576  1.00  0.00     0.012 A 
ATOM     39  C   UNL A   1      41.634  25.182  27.845  1.00  0.00     0.148 A 
ATOM     40  C   UNL A   1      42.513  26.360  25.443  1.00  0.00     0.002 A 
ATOM     41  C   UNL A   1      41.833  24.405  26.710  1.00  0.00     0.091 A 
ATOM     42  F   UNL A   1      41.228  24.657  29.009  1.00  0.00    -0.205 F 
ATOM     43  C   UNL A   1      42.271  24.992  25.510  1.00  0.00     0.022 A 
BRANCH  41  44
ATOM     44  S   UNL A   1      41.505  22.642  26.672  1.00  0.00     0.127 S 
ATOM     45  O   UNL A   1      42.243  22.189  27.851  1.00  0.00    -0.237 OA
ATOM     46  O   UNL A   1      40.050  22.598  26.805  1.00  0.00    -0.237 OA
ATOM     47  O   UNL A   1      42.030  22.163  25.401  1.00  0.00    -0.744 OA
ENDBRANCH  41  44
ENDBRANCH  23  37
BRANCH  24  48
ATOM     48  C   UNL A   1      40.240  32.204  35.997  1.00  0.00     0.023 A 
ATOM     49  C   UNL A   1      41.092  33.246  36.407  1.00  0.00     0.012 A 
ATOM     50  C   UNL A   1      39.071  31.931  36.737  1.00  0.00     0.148 A 
ATOM     51  C   UNL A   1      40.779  34.022  37.520  1.00  0.00     0.002 A 
ATOM     52  C   UNL A   1      38.763  32.712  37.848  1.00  0.00     0.091 A 
ATOM     53  F   UNL A   1      38.267  30.945  36.316  1.00  0.00    -0.205 F 
ATOM     54  C   UNL A   1      39.612  33.762  38.233  1.00  0.00     0.022 A 
BRANCH  52  55
ATOM     55  S   UNL A   1      37.287  32.476  38.846  1.00  0.00     0.127 S 
ATOM     56  O   UNL A   1      37.368  31.053  39.166  1.00  0.00    -0.237 OA
ATOM     57  O   UNL A   1      37.540  33.375  39.972  1.00  0.00    -0.237 OA
ATOM     58  O   UNL A   1      36.168  32.855  37.994  1.00  0.00    -0.744 OA
ENDBRANCH  52  55
ENDBRANCH  24  48
BRANCH  36  59
ATOM     59  C   UNL A   1      45.153  27.619  34.053  1.00  0.00     0.023 A 
ATOM     60  C   UNL A   1      46.322  28.399  34.111  1.00  0.00     0.012 A 
ATOM     61  C   UNL A   1      45.057  26.443  34.827  1.00  0.00     0.148 A 
ATOM     62  C   UNL A   1      47.365  28.035  34.966  1.00  0.00     0.002 A 
ATOM     63  C   UNL A   1      46.085  26.104  35.695  1.00  0.00     0.091 A 
ATOM     64  F   UNL A   1      43.928  25.722  34.748  1.00  0.00    -0.205 F 
ATOM     65  C   UNL A   1      47.236  26.904  35.773  1.00  0.00     0.022 A 
BRANCH  63  66
ATOM     66  S   UNL A   1      45.984  24.702  36.814  1.00  0.00     0.127 S 
ATOM     67  O   UNL A   1      45.919  23.580  35.878  1.00  0.00    -0.237 OA
ATOM     68  O   UNL A   1      47.240  24.807  37.555  1.00  0.00    -0.237 OA
ATOM     69  O   UNL A   1      44.783  24.903  37.613  1.00  0.00    -0.744 OA
ENDBRANCH  63  66
ENDBRANCH  36  59
ENDBRANCH  10  11
ENDBRANCH   3   5
ENDBRANCH   2   3
ENDBRANCH   1   2
BRANCH   1  70
ATOM     70  C   UNL A   1      33.538  30.752  26.794  1.00  0.00     0.275 C 
BRANCH  70  71
ATOM     71  O   UNL A   1      33.168  29.821  25.741  1.00  0.00    -0.458 OA
BRANCH  71  72
ATOM     72  C   UNL A   1      33.330  28.476  25.988  1.00  0.00     0.348 C 
ATOM     73  O   UNL A   1      34.385  27.992  26.380  1.00  0.00    -0.245 OA
BRANCH  72  74
ATOM     74  C   UNL A   1      32.054  27.775  25.851  1.00  0.00     0.116 A 
ATOM     75  C   UNL A   1      31.280  27.047  26.756  1.00  0.00     0.074 A 
ATOM     76  S   UNL A   1      31.267  27.792  24.325  1.00  0.00    -0.133 S 
ATOM     77  C   UNL A   1      30.466  26.069  26.080  1.00  0.00     0.131 A 
ATOM     78  C   UNL A   1      30.287  26.461  24.768  1.00  0.00     0.112 A 
BRANCH  77  79
ATOM     79  O   UNL A   1      29.935  24.844  26.408  1.00  0.00    -0.489 OA
BRANCH  79  80
ATOM     80  C   UNL A   1      30.704  23.433  26.442  1.00  0.00     0.275 C 
BRANCH  80  81
ATOM     81  C   UNL A   1      31.833  22.383  24.763  1.00  0.00     0.215 C 
ATOM     82  C   UNL A   1      32.735  20.855  24.775  1.00  0.00     0.088 C 
ATOM     83  O   UNL A   1      32.891  23.092  23.715  1.00  0.00    -0.486 OA
ATOM     84  C   UNL A   1      34.120  21.292  24.523  1.00  0.00     0.001 A 
ATOM     85  C   UNL A   1      34.113  22.469  23.817  1.00  0.00     0.123 A 
ATOM     86  C   UNL A   1      35.308  20.749  25.000  1.00  0.00     0.047 A 
ATOM     87  C   UNL A   1      35.299  23.065  23.433  1.00  0.00     0.050 A 
ATOM     88  C   UNL A   1      36.478  21.477  24.816  1.00  0.00     0.123 A 
ATOM     89  C   UNL A   1      36.492  22.603  23.998  1.00  0.00     0.043 A 
ATOM     90  F   UNL A   1      37.577  21.127  25.500  1.00  0.00    -0.207 F 
ENDBRANCH  80  81
ENDBRANCH  79  80
ENDBRANCH  77  79
ENDBRANCH  72  74
ENDBRANCH  71  72
ENDBRANCH  70  71
ENDBRANCH   1  70
TORSDOF 17
ENDMDL
