MODEL 1
REMARK VINA RESULT:     -11.5      0.000      0.000
REMARK SMILES O=C(Cn1nc(-c2ccco2)ccc1=O)OCCOC(=O)c1ccc(-c2c3nc(c(-c4cccc(S(=O)(=O)[O-])c4F)c4ccc([nH]4)c(-c4cccc(S(=O)(=O)[O-])c4F)c4nc(c(-c5cccc(S(=O)(=O)[O-])c5F)c5ccc2[nH]5)C=C4)C=C3)cc1
REMARK SMILES IDX 18 1 17 2 16 3 2 4 1 5 3 6 4 7 5 8 14 9 6 10 13 11 15 12
REMARK SMILES IDX 12 13 7 14 8 15 11 16 9 17 10 18 19 19 20 20 21 21 22 22
REMARK SMILES IDX 23 23 84 24 24 25 83 26 25 27 26 28 27 29 77 30 28 31 82 32
REMARK SMILES IDX 76 33 78 34 29 35 81 36 75 37 74 38 30 40 62 41 42 42 61 43
REMARK SMILES IDX 43 44 46 45 60 46 79 47 44 48 45 49 59 51 80 52 47 53 31 54
REMARK SMILES IDX 32 55 40 56 33 57 35 58 41 59 34 60 36 61 37 62 38 63 39 64
REMARK SMILES IDX 63 65 64 66 72 67 65 68 67 69 73 70 66 71 68 72 69 73 70 74
REMARK SMILES IDX 71 75 48 76 49 77 57 78 50 79 52 80 58 81 51 82 53 83 54 84
REMARK SMILES IDX 55 85 56 86
REMARK H PARENT 78 39 46 50
REMARK Flexibility Score: inf
ROOT
ATOM      1  C   UNL A   1      32.336  29.700  25.397  1.00  0.00     0.275 C 
ENDROOT
BRANCH   1   2
ATOM      2  C   UNL A   1      32.499  28.182  25.350  1.00  0.00     0.274 C 
BRANCH   2   3
ATOM      3  O   UNL A   1      33.474  27.787  24.361  1.00  0.00    -0.461 OA
BRANCH   3   4
ATOM      4  C   UNL A   1      33.232  27.764  23.024  1.00  0.00     0.328 C 
ATOM      5  O   UNL A   1      33.828  28.545  22.283  1.00  0.00    -0.250 OA
BRANCH   4   6
ATOM      6  C   UNL A   1      32.212  26.770  22.490  1.00  0.00     0.270 C 
BRANCH   6   7
ATOM      7  N   UNL A   1      30.851  27.131  22.847  1.00  0.00    -0.218 N 
ATOM      8  N   UNL A   1      30.431  28.365  22.414  1.00  0.00    -0.166 NA
ATOM      9  C   UNL A   1      30.028  26.212  23.478  1.00  0.00     0.267 A 
ATOM     10  C   UNL A   1      29.238  28.751  22.732  1.00  0.00     0.126 A 
ATOM     11  C   UNL A   1      28.672  26.699  23.822  1.00  0.00     0.076 A 
ATOM     12  O   UNL A   1      30.339  25.056  23.742  1.00  0.00    -0.268 OA
ATOM     13  C   UNL A   1      28.281  27.936  23.501  1.00  0.00     0.040 A 
BRANCH  10  14
ATOM     14  C   UNL A   1      28.835  30.050  22.265  1.00  0.00     0.154 A 
ATOM     15  C   UNL A   1      28.585  31.218  22.960  1.00  0.00     0.052 A 
ATOM     16  O   UNL A   1      28.526  30.222  20.945  1.00  0.00    -0.463 OA
ATOM     17  C   UNL A   1      28.072  32.144  22.022  1.00  0.00     0.043 A 
ATOM     18  C   UNL A   1      28.030  31.481  20.818  1.00  0.00     0.196 A 
ENDBRANCH  10  14
ENDBRANCH   6   7
ENDBRANCH   4   6
ENDBRANCH   3   4
ENDBRANCH   2   3
ENDBRANCH   1   2
BRANCH   1  19
ATOM     19  O   UNL A   1      32.297  30.147  26.763  1.00  0.00    -0.458 OA
BRANCH  19  20
ATOM     20  C   UNL A   1      32.940  31.314  27.019  1.00  0.00     0.338 C 
ATOM     21  O   UNL A   1      32.474  32.436  26.909  1.00  0.00    -0.246 OA
BRANCH  20  22
ATOM     22  C   UNL A   1      34.244  31.016  27.660  1.00  0.00     0.060 A 
ATOM     23  C   UNL A   1      35.191  32.018  27.902  1.00  0.00     0.016 A 
ATOM     24  C   UNL A   1      34.542  29.682  27.968  1.00  0.00     0.016 A 
ATOM     25  C   UNL A   1      36.424  31.683  28.463  1.00  0.00     0.010 A 
ATOM     26  C   UNL A   1      35.775  29.350  28.538  1.00  0.00     0.010 A 
ATOM     27  C   UNL A   1      36.721  30.351  28.800  1.00  0.00    -0.014 A 
BRANCH  27  28
ATOM     28  C   UNL A   1      37.949  30.053  29.575  1.00  0.00     0.031 A 
ATOM     29  C   UNL A   1      38.171  30.582  30.959  1.00  0.00     0.074 A 
ATOM     30  C   UNL A   1      38.884  29.276  28.993  1.00  0.00     0.049 A 
ATOM     31  N   UNL A   1      39.125  30.275  31.800  1.00  0.00    -0.248 NA
ATOM     32  C   UNL A   1      37.219  31.581  31.465  1.00  0.00     0.031 C 
ATOM     33  C   UNL A   1      38.810  28.759  27.625  1.00  0.00     0.029 A 
ATOM     34  N   UNL A   1      40.067  28.778  29.475  1.00  0.00    -0.354 N 
ATOM     35  C   UNL A   1      38.899  31.045  32.933  1.00  0.00     0.074 A 
ATOM     36  C   UNL A   1      37.724  31.849  32.665  1.00  0.00     0.031 C 
ATOM     37  C   UNL A   1      39.885  27.994  27.386  1.00  0.00     0.029 A 
ATOM     38  C   UNL A   1      40.726  27.968  28.580  1.00  0.00     0.049 A 
ATOM     39  H   UNL A   1      40.411  28.980  30.374  1.00  0.00     0.167 HD
ATOM     40  C   UNL A   1      39.596  31.057  34.095  1.00  0.00     0.034 A 
ATOM     41  C   UNL A   1      41.865  27.262  28.708  1.00  0.00     0.034 A 
ATOM     42  C   UNL A   1      40.744  30.231  34.366  1.00  0.00     0.049 A 
ATOM     43  C   UNL A   1      42.594  27.265  30.019  1.00  0.00     0.074 A 
ATOM     44  C   UNL A   1      41.448  30.106  35.552  1.00  0.00     0.029 A 
ATOM     45  N   UNL A   1      41.366  29.405  33.445  1.00  0.00    -0.354 N 
ATOM     46  N   UNL A   1      42.264  27.860  31.138  1.00  0.00    -0.248 NA
ATOM     47  C   UNL A   1      43.831  26.474  30.099  1.00  0.00     0.031 C 
ATOM     48  C   UNL A   1      42.504  29.215  35.345  1.00  0.00     0.029 A 
ATOM     49  C   UNL A   1      42.452  28.778  34.031  1.00  0.00     0.049 A 
ATOM     50  H   UNL A   1      41.080  29.282  32.511  1.00  0.00     0.167 HD
ATOM     51  C   UNL A   1      43.236  27.498  32.062  1.00  0.00     0.074 A 
ATOM     52  C   UNL A   1      44.164  26.623  31.375  1.00  0.00     0.031 C 
ATOM     53  C   UNL A   1      43.347  27.870  33.359  1.00  0.00     0.034 A 
BRANCH  40  54
ATOM     54  C   UNL A   1      39.103  31.932  35.213  1.00  0.00     0.023 A 
ATOM     55  C   UNL A   1      38.207  31.389  36.155  1.00  0.00     0.012 A 
ATOM     56  C   UNL A   1      39.633  33.221  35.420  1.00  0.00     0.148 A 
ATOM     57  C   UNL A   1      37.838  32.116  37.285  1.00  0.00     0.002 A 
ATOM     58  C   UNL A   1      39.280  33.930  36.563  1.00  0.00     0.091 A 
ATOM     59  F   UNL A   1      40.481  33.716  34.509  1.00  0.00    -0.205 F 
ATOM     60  C   UNL A   1      38.383  33.381  37.494  1.00  0.00     0.022 A 
BRANCH  58  61
ATOM     61  S   UNL A   1      39.973  35.540  36.965  1.00  0.00     0.127 S 
ATOM     62  O   UNL A   1      39.299  35.842  38.227  1.00  0.00    -0.237 OA
ATOM     63  O   UNL A   1      41.398  35.238  37.093  1.00  0.00    -0.237 OA
ATOM     64  O   UNL A   1      39.632  36.417  35.854  1.00  0.00    -0.744 OA
ENDBRANCH  58  61
ENDBRANCH  40  54
BRANCH  41  65
ATOM     65  C   UNL A   1      42.308  26.403  27.579  1.00  0.00     0.023 A 
ATOM     66  C   UNL A   1      43.242  26.916  26.658  1.00  0.00     0.012 A 
ATOM     67  C   UNL A   1      41.887  25.065  27.468  1.00  0.00     0.148 A 
ATOM     68  C   UNL A   1      43.745  26.110  25.639  1.00  0.00     0.002 A 
ATOM     69  C   UNL A   1      42.420  24.257  26.472  1.00  0.00     0.091 A 
ATOM     70  F   UNL A   1      41.000  24.605  28.362  1.00  0.00    -0.205 F 
ATOM     71  C   UNL A   1      43.343  24.780  25.552  1.00  0.00     0.022 A 
BRANCH  69  72
ATOM     72  S   UNL A   1      42.046  22.505  26.338  1.00  0.00     0.127 S 
ATOM     73  O   UNL A   1      42.614  21.984  27.579  1.00  0.00    -0.237 OA
ATOM     74  O   UNL A   1      40.584  22.517  26.285  1.00  0.00    -0.237 OA
ATOM     75  O   UNL A   1      42.694  22.052  25.116  1.00  0.00    -0.744 OA
ENDBRANCH  69  72
ENDBRANCH  41  65
BRANCH  53  76
ATOM     76  C   UNL A   1      44.507  27.339  34.155  1.00  0.00     0.023 A 
ATOM     77  C   UNL A   1      45.691  28.097  34.236  1.00  0.00     0.012 A 
ATOM     78  C   UNL A   1      44.376  26.167  34.926  1.00  0.00     0.148 A 
ATOM     79  C   UNL A   1      46.731  27.695  35.073  1.00  0.00     0.002 A 
ATOM     80  C   UNL A   1      45.403  25.791  35.783  1.00  0.00     0.091 A 
ATOM     81  F   UNL A   1      43.242  25.460  34.824  1.00  0.00    -0.205 F 
ATOM     82  C   UNL A   1      46.582  26.551  35.855  1.00  0.00     0.022 A 
BRANCH  80  83
ATOM     83  S   UNL A   1      45.282  24.377  36.885  1.00  0.00     0.127 S 
ATOM     84  O   UNL A   1      46.594  24.385  37.528  1.00  0.00    -0.237 OA
ATOM     85  O   UNL A   1      44.172  24.759  37.756  1.00  0.00    -0.237 OA
ATOM     86  O   UNL A   1      45.020  23.222  36.036  1.00  0.00    -0.744 OA
ENDBRANCH  80  83
ENDBRANCH  53  76
ENDBRANCH  27  28
ENDBRANCH  20  22
ENDBRANCH  19  20
ENDBRANCH   1  19
TORSDOF 16
ENDMDL
MODEL 2
REMARK VINA RESULT:     -11.3      1.306      1.576
REMARK SMILES O=C(Cn1nc(-c2ccco2)ccc1=O)OCCOC(=O)c1ccc(-c2c3nc(c(-c4cccc(S(=O)(=O)[O-])c4F)c4ccc([nH]4)c(-c4cccc(S(=O)(=O)[O-])c4F)c4nc(c(-c5cccc(S(=O)(=O)[O-])c5F)c5ccc2[nH]5)C=C4)C=C3)cc1
REMARK SMILES IDX 18 1 17 2 16 3 2 4 1 5 3 6 4 7 5 8 14 9 6 10 13 11 15 12
REMARK SMILES IDX 12 13 7 14 8 15 11 16 9 17 10 18 19 19 20 20 21 21 22 22
REMARK SMILES IDX 23 23 84 24 24 25 83 26 25 27 26 28 27 29 77 30 28 31 82 32
REMARK SMILES IDX 76 33 78 34 29 35 81 36 75 37 74 38 30 40 62 41 42 42 61 43
REMARK SMILES IDX 43 44 46 45 60 46 79 47 44 48 45 49 59 51 80 52 47 53 31 54
REMARK SMILES IDX 32 55 40 56 33 57 35 58 41 59 34 60 36 61 37 62 38 63 39 64
REMARK SMILES IDX 63 65 64 66 72 67 65 68 67 69 73 70 66 71 68 72 69 73 70 74
REMARK SMILES IDX 71 75 48 76 49 77 57 78 50 79 52 80 58 81 51 82 53 83 54 84
REMARK SMILES IDX 55 85 56 86
REMARK H PARENT 78 39 46 50
REMARK Flexibility Score: inf
ROOT
ATOM      1  C   UNL A   1      33.026  29.895  25.533  1.00  0.00     0.275 C 
ENDROOT
BRANCH   1   2
ATOM      2  C   UNL A   1      32.758  28.401  25.366  1.00  0.00     0.274 C 
BRANCH   2   3
ATOM      3  O   UNL A   1      33.665  27.806  24.412  1.00  0.00    -0.461 OA
BRANCH   3   4
ATOM      4  C   UNL A   1      33.454  27.797  23.069  1.00  0.00     0.328 C 
ATOM      5  O   UNL A   1      34.013  28.631  22.359  1.00  0.00    -0.250 OA
BRANCH   4   6
ATOM      6  C   UNL A   1      32.514  26.750  22.492  1.00  0.00     0.270 C 
BRANCH   6   7
ATOM      7  N   UNL A   1      31.133  26.970  22.887  1.00  0.00    -0.218 N 
ATOM      8  N   UNL A   1      30.597  28.181  22.525  1.00  0.00    -0.166 NA
ATOM      9  C   UNL A   1      30.409  25.950  23.483  1.00  0.00     0.267 A 
ATOM     10  C   UNL A   1      29.381  28.442  22.882  1.00  0.00     0.126 A 
ATOM     11  C   UNL A   1      29.022  26.296  23.874  1.00  0.00     0.076 A 
ATOM     12  O   UNL A   1      30.826  24.815  23.683  1.00  0.00    -0.268 OA
ATOM     13  C   UNL A   1      28.516  27.507  23.623  1.00  0.00     0.040 A 
BRANCH  10  14
ATOM     14  C   UNL A   1      28.855  29.721  22.487  1.00  0.00     0.154 A 
ATOM     15  C   UNL A   1      27.966  30.564  23.127  1.00  0.00     0.052 A 
ATOM     16  O   UNL A   1      29.147  30.213  21.247  1.00  0.00    -0.463 OA
ATOM     17  C   UNL A   1      27.679  31.611  22.222  1.00  0.00     0.043 A 
ATOM     18  C   UNL A   1      28.401  31.337  21.084  1.00  0.00     0.196 A 
ENDBRANCH  10  14
ENDBRANCH   6   7
ENDBRANCH   4   6
ENDBRANCH   3   4
ENDBRANCH   2   3
ENDBRANCH   1   2
BRANCH   1  19
ATOM     19  O   UNL A   1      32.743  30.296  26.885  1.00  0.00    -0.458 OA
BRANCH  19  20
ATOM     20  C   UNL A   1      33.360  31.428  27.306  1.00  0.00     0.338 C 
ATOM     21  O   UNL A   1      32.864  32.541  27.370  1.00  0.00    -0.246 OA
BRANCH  20  22
ATOM     22  C   UNL A   1      34.681  31.072  27.880  1.00  0.00     0.060 A 
ATOM     23  C   UNL A   1      35.727  31.999  27.944  1.00  0.00     0.016 A 
ATOM     24  C   UNL A   1      34.885  29.754  28.307  1.00  0.00     0.016 A 
ATOM     25  C   UNL A   1      36.969  31.606  28.447  1.00  0.00     0.010 A 
ATOM     26  C   UNL A   1      36.126  29.365  28.819  1.00  0.00     0.010 A 
ATOM     27  C   UNL A   1      37.174  30.292  28.904  1.00  0.00    -0.014 A 
BRANCH  27  28
ATOM     28  C   UNL A   1      38.430  29.958  29.616  1.00  0.00     0.031 A 
ATOM     29  C   UNL A   1      38.743  30.489  30.982  1.00  0.00     0.074 A 
ATOM     30  C   UNL A   1      39.307  29.146  28.993  1.00  0.00     0.049 A 
ATOM     31  N   UNL A   1      39.729  30.155  31.775  1.00  0.00    -0.248 NA
ATOM     32  C   UNL A   1      37.853  31.523  31.529  1.00  0.00     0.031 C 
ATOM     33  C   UNL A   1      39.144  28.623  27.635  1.00  0.00     0.029 A 
ATOM     34  N   UNL A   1      40.497  28.611  29.417  1.00  0.00    -0.354 N 
ATOM     35  C   UNL A   1      39.588  30.940  32.911  1.00  0.00     0.074 A 
ATOM     36  C   UNL A   1      38.429  31.782  32.698  1.00  0.00     0.031 C 
ATOM     37  C   UNL A   1      40.179  27.820  27.348  1.00  0.00     0.029 A 
ATOM     38  C   UNL A   1      41.080  27.774  28.496  1.00  0.00     0.049 A 
ATOM     39  H   UNL A   1      40.894  28.808  30.295  1.00  0.00     0.167 HD
ATOM     40  C   UNL A   1      40.345  30.936  34.035  1.00  0.00     0.034 A 
ATOM     41  C   UNL A   1      42.200  27.030  28.570  1.00  0.00     0.034 A 
ATOM     42  C   UNL A   1      41.477  30.073  34.253  1.00  0.00     0.049 A 
ATOM     43  C   UNL A   1      42.996  27.017  29.842  1.00  0.00     0.074 A 
ATOM     44  C   UNL A   1      42.238  29.933  35.402  1.00  0.00     0.029 A 
ATOM     45  N   UNL A   1      42.023  29.221  33.308  1.00  0.00    -0.354 N 
ATOM     46  N   UNL A   1      42.745  27.631  30.971  1.00  0.00    -0.248 NA
ATOM     47  C   UNL A   1      44.208  26.185  29.863  1.00  0.00     0.031 C 
ATOM     48  C   UNL A   1      43.251  29.005  35.148  1.00  0.00     0.029 A 
ATOM     49  C   UNL A   1      43.116  28.561  33.842  1.00  0.00     0.049 A 
ATOM     50  H   UNL A   1      41.683  29.101  32.391  1.00  0.00     0.167 HD
ATOM     51  C   UNL A   1      43.752  27.241  31.846  1.00  0.00     0.074 A 
ATOM     52  C   UNL A   1      44.612  26.331  31.119  1.00  0.00     0.031 C 
ATOM     53  C   UNL A   1      43.943  27.619  33.132  1.00  0.00     0.034 A 
BRANCH  40  54
ATOM     54  C   UNL A   1      39.941  31.835  35.170  1.00  0.00     0.023 A 
ATOM     55  C   UNL A   1      40.320  33.192  35.129  1.00  0.00     0.012 A 
ATOM     56  C   UNL A   1      39.074  31.386  36.186  1.00  0.00     0.148 A 
ATOM     57  C   UNL A   1      39.847  34.090  36.084  1.00  0.00     0.002 A 
ATOM     58  C   UNL A   1      38.586  32.293  37.119  1.00  0.00     0.091 A 
ATOM     59  F   UNL A   1      38.732  30.091  36.205  1.00  0.00    -0.205 F 
ATOM     60  C   UNL A   1      38.972  33.643  37.071  1.00  0.00     0.022 A 
BRANCH  58  61
ATOM     61  S   UNL A   1      37.403  31.839  38.394  1.00  0.00     0.127 S 
ATOM     62  O   UNL A   1      38.183  32.058  39.611  1.00  0.00    -0.237 OA
ATOM     63  O   UNL A   1      36.330  32.809  38.177  1.00  0.00    -0.237 OA
ATOM     64  O   UNL A   1      37.036  30.454  38.133  1.00  0.00    -0.744 OA
ENDBRANCH  58  61
ENDBRANCH  40  54
BRANCH  41  65
ATOM     65  C   UNL A   1      42.554  26.148  27.427  1.00  0.00     0.023 A 
ATOM     66  C   UNL A   1      43.445  26.628  26.448  1.00  0.00     0.012 A 
ATOM     67  C   UNL A   1      42.092  24.821  27.356  1.00  0.00     0.148 A 
ATOM     68  C   UNL A   1      43.867  25.798  25.410  1.00  0.00     0.002 A 
ATOM     69  C   UNL A   1      42.545  23.989  26.339  1.00  0.00     0.091 A 
ATOM     70  F   UNL A   1      41.247  24.394  28.304  1.00  0.00    -0.205 F 
ATOM     71  C   UNL A   1      43.427  24.479  25.361  1.00  0.00     0.022 A 
BRANCH  69  72
ATOM     72  S   UNL A   1      42.119  22.248  26.247  1.00  0.00     0.127 S 
ATOM     73  O   UNL A   1      42.860  21.822  25.062  1.00  0.00    -0.237 OA
ATOM     74  O   UNL A   1      42.644  21.745  27.517  1.00  0.00    -0.237 OA
ATOM     75  O   UNL A   1      40.669  22.199  26.127  1.00  0.00    -0.744 OA
ENDBRANCH  69  72
ENDBRANCH  41  65
BRANCH  53  76
ATOM     76  C   UNL A   1      45.125  27.054  33.871  1.00  0.00     0.023 A 
ATOM     77  C   UNL A   1      46.322  27.793  33.922  1.00  0.00     0.012 A 
ATOM     78  C   UNL A   1      45.006  25.868  34.622  1.00  0.00     0.148 A 
ATOM     79  C   UNL A   1      47.387  27.358  34.710  1.00  0.00     0.002 A 
ATOM     80  C   UNL A   1      46.059  25.458  35.431  1.00  0.00     0.091 A 
ATOM     81  F   UNL A   1      43.857  25.180  34.549  1.00  0.00    -0.205 F 
ATOM     82  C   UNL A   1      47.251  26.200  35.472  1.00  0.00     0.022 A 
BRANCH  80  83
ATOM     83  S   UNL A   1      45.958  24.023  36.507  1.00  0.00     0.127 S 
ATOM     84  O   UNL A   1      47.108  24.227  37.386  1.00  0.00    -0.237 OA
ATOM     85  O   UNL A   1      44.658  24.209  37.148  1.00  0.00    -0.237 OA
ATOM     86  O   UNL A   1      46.048  22.857  35.637  1.00  0.00    -0.744 OA
ENDBRANCH  80  83
ENDBRANCH  53  76
ENDBRANCH  27  28
ENDBRANCH  20  22
ENDBRANCH  19  20
ENDBRANCH   1  19
TORSDOF 16
ENDMDL
MODEL 3
REMARK VINA RESULT:     -11.3      1.722      3.233
REMARK SMILES O=C(Cn1nc(-c2ccco2)ccc1=O)OCCOC(=O)c1ccc(-c2c3nc(c(-c4cccc(S(=O)(=O)[O-])c4F)c4ccc([nH]4)c(-c4cccc(S(=O)(=O)[O-])c4F)c4nc(c(-c5cccc(S(=O)(=O)[O-])c5F)c5ccc2[nH]5)C=C4)C=C3)cc1
REMARK SMILES IDX 18 1 17 2 16 3 2 4 1 5 3 6 4 7 5 8 14 9 6 10 13 11 15 12
REMARK SMILES IDX 12 13 7 14 8 15 11 16 9 17 10 18 19 19 20 20 21 21 22 22
REMARK SMILES IDX 23 23 84 24 24 25 83 26 25 27 26 28 27 29 77 30 28 31 82 32
REMARK SMILES IDX 76 33 78 34 29 35 81 36 75 37 74 38 30 40 62 41 42 42 61 43
REMARK SMILES IDX 43 44 46 45 60 46 79 47 44 48 45 49 59 51 80 52 47 53 31 54
REMARK SMILES IDX 32 55 40 56 33 57 35 58 41 59 34 60 36 61 37 62 38 63 39 64
REMARK SMILES IDX 63 65 64 66 72 67 65 68 67 69 73 70 66 71 68 72 69 73 70 74
REMARK SMILES IDX 71 75 48 76 49 77 57 78 50 79 52 80 58 81 51 82 53 83 54 84
REMARK SMILES IDX 55 85 56 86
REMARK H PARENT 78 39 46 50
REMARK Flexibility Score: inf
ROOT
ATOM      1  C   UNL A   1      31.549  29.725  25.883  1.00  0.00     0.275 C 
ENDROOT
BRANCH   1   2
ATOM      2  C   UNL A   1      31.245  29.135  24.507  1.00  0.00     0.274 C 
BRANCH   2   3
ATOM      3  O   UNL A   1      31.130  27.697  24.565  1.00  0.00    -0.461 OA
BRANCH   3   4
ATOM      4  C   UNL A   1      30.752  26.924  23.512  1.00  0.00     0.328 C 
ATOM      5  O   UNL A   1      30.683  27.419  22.387  1.00  0.00    -0.250 OA
BRANCH   4   6
ATOM      6  C   UNL A   1      30.414  25.465  23.770  1.00  0.00     0.270 C 
BRANCH   6   7
ATOM      7  N   UNL A   1      31.312  24.852  24.733  1.00  0.00    -0.218 N 
ATOM      8  N   UNL A   1      32.579  24.582  24.276  1.00  0.00    -0.166 NA
ATOM      9  C   UNL A   1      30.912  24.679  26.048  1.00  0.00     0.267 A 
ATOM     10  C   UNL A   1      33.410  24.006  25.082  1.00  0.00     0.126 A 
ATOM     11  C   UNL A   1      31.897  24.016  26.934  1.00  0.00     0.076 A 
ATOM     12  O   UNL A   1      29.837  25.047  26.510  1.00  0.00    -0.268 OA
ATOM     13  C   UNL A   1      33.098  23.651  26.478  1.00  0.00     0.040 A 
BRANCH  10  14
ATOM     14  C   UNL A   1      34.726  23.736  24.567  1.00  0.00     0.154 A 
ATOM     15  C   UNL A   1      35.136  23.364  23.301  1.00  0.00     0.052 A 
ATOM     16  O   UNL A   1      35.791  23.721  25.422  1.00  0.00    -0.463 OA
ATOM     17  C   UNL A   1      36.518  23.082  23.392  1.00  0.00     0.043 A 
ATOM     18  C   UNL A   1      36.862  23.287  24.708  1.00  0.00     0.196 A 
ENDBRANCH  10  14
ENDBRANCH   6   7
ENDBRANCH   4   6
ENDBRANCH   3   4
ENDBRANCH   2   3
ENDBRANCH   1   2
BRANCH   1  19
ATOM     19  O   UNL A   1      32.846  30.346  25.875  1.00  0.00    -0.458 OA
BRANCH  19  20
ATOM     20  C   UNL A   1      33.060  31.279  26.837  1.00  0.00     0.338 C 
ATOM     21  O   UNL A   1      32.258  32.111  27.228  1.00  0.00    -0.246 OA
BRANCH  20  22
ATOM     22  C   UNL A   1      34.359  31.001  27.497  1.00  0.00     0.060 A 
ATOM     23  C   UNL A   1      35.239  32.031  27.850  1.00  0.00     0.016 A 
ATOM     24  C   UNL A   1      34.724  29.666  27.709  1.00  0.00     0.016 A 
ATOM     25  C   UNL A   1      36.472  31.721  28.424  1.00  0.00     0.010 A 
ATOM     26  C   UNL A   1      35.956  29.357  28.293  1.00  0.00     0.010 A 
ATOM     27  C   UNL A   1      36.835  30.384  28.666  1.00  0.00    -0.014 A 
BRANCH  27  28
ATOM     28  C   UNL A   1      38.054  30.093  29.456  1.00  0.00     0.031 A 
ATOM     29  C   UNL A   1      38.261  30.634  30.839  1.00  0.00     0.074 A 
ATOM     30  C   UNL A   1      38.996  29.311  28.892  1.00  0.00     0.049 A 
ATOM     31  N   UNL A   1      39.205  30.333  31.693  1.00  0.00    -0.248 NA
ATOM     32  C   UNL A   1      37.302  31.636  31.326  1.00  0.00     0.031 C 
ATOM     33  C   UNL A   1      38.937  28.784  27.526  1.00  0.00     0.029 A 
ATOM     34  N   UNL A   1      40.174  28.818  29.390  1.00  0.00    -0.354 N 
ATOM     35  C   UNL A   1      38.966  31.112  32.817  1.00  0.00     0.074 A 
ATOM     36  C   UNL A   1      37.794  31.913  32.530  1.00  0.00     0.031 C 
ATOM     37  C   UNL A   1      40.015  28.018  27.306  1.00  0.00     0.029 A 
ATOM     38  C   UNL A   1      40.843  28.002  28.509  1.00  0.00     0.049 A 
ATOM     39  H   UNL A   1      40.508  29.027  30.292  1.00  0.00     0.167 HD
ATOM     40  C   UNL A   1      39.650  31.133  33.986  1.00  0.00     0.034 A 
ATOM     41  C   UNL A   1      41.981  27.297  28.656  1.00  0.00     0.034 A 
ATOM     42  C   UNL A   1      40.795  30.310  34.277  1.00  0.00     0.049 A 
ATOM     43  C   UNL A   1      42.694  27.310  29.975  1.00  0.00     0.074 A 
ATOM     44  C   UNL A   1      41.485  30.194  35.472  1.00  0.00     0.029 A 
ATOM     45  N   UNL A   1      41.428  29.477  33.369  1.00  0.00    -0.354 N 
ATOM     46  N   UNL A   1      42.352  27.914  31.085  1.00  0.00    -0.248 NA
ATOM     47  C   UNL A   1      43.931  26.520  30.075  1.00  0.00     0.031 C 
ATOM     48  C   UNL A   1      42.544  29.303  35.284  1.00  0.00     0.029 A 
ATOM     49  C   UNL A   1      42.507  28.855  33.973  1.00  0.00     0.049 A 
ATOM     50  H   UNL A   1      41.152  29.346  32.433  1.00  0.00     0.167 HD
ATOM     51  C   UNL A   1      43.313  27.559  32.023  1.00  0.00     0.074 A 
ATOM     52  C   UNL A   1      44.249  26.680  31.354  1.00  0.00     0.031 C 
ATOM     53  C   UNL A   1      43.410  27.943  33.318  1.00  0.00     0.034 A 
BRANCH  40  54
ATOM     54  C   UNL A   1      39.144  32.017  35.093  1.00  0.00     0.023 A 
ATOM     55  C   UNL A   1      38.223  31.487  36.017  1.00  0.00     0.012 A 
ATOM     56  C   UNL A   1      39.684  33.300  35.307  1.00  0.00     0.148 A 
ATOM     57  C   UNL A   1      37.839  32.221  37.137  1.00  0.00     0.002 A 
ATOM     58  C   UNL A   1      39.317  34.017  36.440  1.00  0.00     0.091 A 
ATOM     59  F   UNL A   1      40.557  33.783  34.412  1.00  0.00    -0.205 F 
ATOM     60  C   UNL A   1      38.394  33.480  37.354  1.00  0.00     0.022 A 
BRANCH  58  61
ATOM     61  S   UNL A   1      40.019  35.619  36.853  1.00  0.00     0.127 S 
ATOM     62  O   UNL A   1      41.448  35.311  36.895  1.00  0.00    -0.237 OA
ATOM     63  O   UNL A   1      39.607  36.438  35.713  1.00  0.00    -0.237 OA
ATOM     64  O   UNL A   1      39.429  36.004  38.127  1.00  0.00    -0.744 OA
ENDBRANCH  58  61
ENDBRANCH  40  54
BRANCH  41  65
ATOM     65  C   UNL A   1      42.437  26.429  27.539  1.00  0.00     0.023 A 
ATOM     66  C   UNL A   1      43.383  26.934  26.626  1.00  0.00     0.012 A 
ATOM     67  C   UNL A   1      42.014  25.091  27.432  1.00  0.00     0.148 A 
ATOM     68  C   UNL A   1      43.898  26.120  25.619  1.00  0.00     0.002 A 
ATOM     69  C   UNL A   1      42.559  24.275  26.449  1.00  0.00     0.091 A 
ATOM     70  F   UNL A   1      41.115  24.639  28.317  1.00  0.00    -0.205 F 
ATOM     71  C   UNL A   1      43.495  24.790  25.536  1.00  0.00     0.022 A 
BRANCH  69  72
ATOM     72  S   UNL A   1      42.184  22.523  26.322  1.00  0.00     0.127 S 
ATOM     73  O   UNL A   1      42.936  22.143  25.129  1.00  0.00    -0.237 OA
ATOM     74  O   UNL A   1      42.725  22.012  27.581  1.00  0.00    -0.237 OA
ATOM     75  O   UNL A   1      40.736  22.434  26.203  1.00  0.00    -0.744 OA
ENDBRANCH  69  72
ENDBRANCH  41  65
BRANCH  53  76
ATOM     76  C   UNL A   1      44.561  27.418  34.131  1.00  0.00     0.023 A 
ATOM     77  C   UNL A   1      45.775  28.131  34.145  1.00  0.00     0.012 A 
ATOM     78  C   UNL A   1      44.397  26.306  34.981  1.00  0.00     0.148 A 
ATOM     79  C   UNL A   1      46.812  27.743  34.993  1.00  0.00     0.002 A 
ATOM     80  C   UNL A   1      45.422  25.945  35.846  1.00  0.00     0.091 A 
ATOM     81  F   UNL A   1      43.233  25.640  34.942  1.00  0.00    -0.205 F 
ATOM     82  C   UNL A   1      46.631  26.660  35.851  1.00  0.00     0.022 A 
BRANCH  80  83
ATOM     83  S   UNL A   1      45.263  24.613  37.042  1.00  0.00     0.127 S 
ATOM     84  O   UNL A   1      45.215  23.438  36.174  1.00  0.00    -0.237 OA
ATOM     85  O   UNL A   1      46.493  24.749  37.821  1.00  0.00    -0.237 OA
ATOM     86  O   UNL A   1      44.038  24.879  37.785  1.00  0.00    -0.744 OA
ENDBRANCH  80  83
ENDBRANCH  53  76
ENDBRANCH  27  28
ENDBRANCH  20  22
ENDBRANCH  19  20
ENDBRANCH   1  19
TORSDOF 16
ENDMDL
