MODEL 1
REMARK VINA RESULT:     -11.4      0.000      0.000
REMARK SMILES COc1ccc(/C=C/c2cc(OC)cc(OC)c2/C=C/C(=O)OCCOC(=O)c2ccc(-c3c4nc(c(-c5cccc(S(=O)(=O)[O-])c5F)c5ccc([nH]5)c(-c5cccc(S(=O)(=O)[O-])c5F)c5nc(c(-c6cccc(S(=O)(=O)[O-])c6F)c6ccc3[nH]6)C=C5)C=C4)cc2)cc1
REMARK SMILES IDX 24 1 23 2 21 3 22 4 20 5 19 6 18 7 9 8 10 9 11 10 15 11
REMARK SMILES IDX 14 12 8 13 7 14 6 15 3 16 4 17 93 18 5 19 92 20 2 21 1 22
REMARK SMILES IDX 12 23 13 24 16 25 17 26 25 27 26 28 27 29 28 30 29 31 30 32
REMARK SMILES IDX 91 33 31 34 90 35 32 36 33 37 34 38 84 39 35 40 89 41 83 42
REMARK SMILES IDX 85 43 36 44 88 45 82 46 81 47 37 49 69 50 49 51 68 52 50 53
REMARK SMILES IDX 53 54 67 55 86 56 51 57 52 58 66 60 87 61 54 62 38 63 39 64
REMARK SMILES IDX 47 65 40 66 42 67 48 68 41 69 43 70 44 71 45 72 46 73 70 74
REMARK SMILES IDX 71 75 79 76 72 77 74 78 80 79 73 80 75 81 76 82 77 83 78 84
REMARK SMILES IDX 55 85 56 86 64 87 57 88 59 89 65 90 58 91 60 92 61 93 62 94
REMARK SMILES IDX 63 95
REMARK H PARENT 85 48 53 59
REMARK Flexibility Score: inf
ROOT
ATOM      1  C   UNL A   1      38.639  21.781  25.664  1.00  0.00     0.275 C 
ENDROOT
BRANCH   1   2
ATOM      2  O   UNL A   1      37.240  22.128  25.657  1.00  0.00    -0.459 OA
BRANCH   2   3
ATOM      3  C   UNL A   1      36.949  23.422  25.942  1.00  0.00     0.330 C 
ATOM      4  O   UNL A   1      37.663  24.203  26.545  1.00  0.00    -0.247 OA
BRANCH   3   5
ATOM      5  C   UNL A   1      35.606  23.822  25.470  1.00  0.00     0.094 C 
ATOM      6  C   UNL A   1      34.559  24.103  26.260  1.00  0.00     0.020 C 
BRANCH   6   7
ATOM      7  C   UNL A   1      33.236  24.527  25.743  1.00  0.00     0.024 A 
ATOM      8  C   UNL A   1      32.310  23.560  25.290  1.00  0.00    -0.011 A 
ATOM      9  C   UNL A   1      31.077  23.970  24.746  1.00  0.00     0.055 A 
ATOM     10  C   UNL A   1      30.745  25.321  24.628  1.00  0.00     0.123 A 
ATOM     11  C   UNL A   1      32.869  25.884  25.627  1.00  0.00     0.130 A 
ATOM     12  C   UNL A   1      31.637  26.277  25.090  1.00  0.00     0.093 A 
BRANCH   8  13
ATOM     13  C   UNL A   1      32.572  22.111  25.297  1.00  0.00     0.009 C 
ATOM     14  C   UNL A   1      32.423  21.321  24.221  1.00  0.00     0.009 C 
BRANCH  14  15
ATOM     15  C   UNL A   1      32.623  19.863  24.240  1.00  0.00    -0.025 A 
ATOM     16  C   UNL A   1      32.997  17.069  24.187  1.00  0.00     0.118 A 
ATOM     17  C   UNL A   1      33.091  17.773  25.386  1.00  0.00     0.047 A 
ATOM     18  C   UNL A   1      32.706  17.759  23.011  1.00  0.00     0.047 A 
ATOM     19  C   UNL A   1      32.923  19.160  25.412  1.00  0.00     0.012 A 
ATOM     20  C   UNL A   1      32.525  19.148  23.038  1.00  0.00     0.012 A 
BRANCH  16  21
ATOM     21  O   UNL A   1      33.175  15.718  24.294  1.00  0.00    -0.497 OA
ATOM     22  C   UNL A   1      32.494  15.092  25.374  1.00  0.00     0.278 C 
ENDBRANCH  16  21
ENDBRANCH  14  15
ENDBRANCH   8  13
BRANCH  10  23
ATOM     23  O   UNL A   1      29.524  25.576  24.063  1.00  0.00    -0.497 OA
ATOM     24  C   UNL A   1      29.354  26.878  23.509  1.00  0.00     0.278 C 
ENDBRANCH  10  23
BRANCH  11  25
ATOM     25  O   UNL A   1      33.645  26.908  26.102  1.00  0.00    -0.496 OA
ATOM     26  C   UNL A   1      33.330  28.151  25.484  1.00  0.00     0.278 C 
ENDBRANCH  11  25
ENDBRANCH   6   7
ENDBRANCH   3   5
ENDBRANCH   2   3
ENDBRANCH   1   2
BRANCH   1  27
ATOM     27  C   UNL A   1      38.835  20.268  25.614  1.00  0.00     0.275 C 
BRANCH  27  28
ATOM     28  O   UNL A   1      39.741  19.840  26.647  1.00  0.00    -0.458 OA
BRANCH  28  29
ATOM     29  C   UNL A   1      41.024  19.694  26.250  1.00  0.00     0.338 C 
ATOM     30  O   UNL A   1      41.530  18.727  25.705  1.00  0.00    -0.246 OA
BRANCH  29  31
ATOM     31  C   UNL A   1      41.766  20.940  26.481  1.00  0.00     0.060 A 
ATOM     32  C   UNL A   1      41.855  21.402  27.788  1.00  0.00     0.016 A 
ATOM     33  C   UNL A   1      42.188  21.740  25.420  1.00  0.00     0.016 A 
ATOM     34  C   UNL A   1      42.245  22.720  28.029  1.00  0.00     0.010 A 
ATOM     35  C   UNL A   1      42.671  23.031  25.679  1.00  0.00     0.010 A 
ATOM     36  C   UNL A   1      42.648  23.563  26.980  1.00  0.00    -0.014 A 
BRANCH  36  37
ATOM     37  C   UNL A   1      42.981  24.997  27.254  1.00  0.00     0.031 A 
ATOM     38  C   UNL A   1      44.300  25.588  26.805  1.00  0.00     0.074 A 
ATOM     39  C   UNL A   1      42.090  25.802  27.873  1.00  0.00     0.049 A 
ATOM     40  N   UNL A   1      44.796  26.778  27.039  1.00  0.00    -0.248 NA
ATOM     41  C   UNL A   1      45.179  24.730  25.996  1.00  0.00     0.031 C 
ATOM     42  C   UNL A   1      40.769  25.391  28.351  1.00  0.00     0.029 A 
ATOM     43  N   UNL A   1      42.156  27.136  28.198  1.00  0.00    -0.354 N 
ATOM     44  C   UNL A   1      46.070  26.783  26.478  1.00  0.00     0.074 A 
ATOM     45  C   UNL A   1      46.267  25.479  25.882  1.00  0.00     0.031 C 
ATOM     46  C   UNL A   1      40.130  26.456  28.857  1.00  0.00     0.029 A 
ATOM     47  C   UNL A   1      41.022  27.611  28.818  1.00  0.00     0.049 A 
ATOM     48  H   UNL A   1      42.940  27.699  28.005  1.00  0.00     0.167 HD
ATOM     49  C   UNL A   1      46.987  27.782  26.440  1.00  0.00     0.034 A 
ATOM     50  C   UNL A   1      40.732  28.825  29.325  1.00  0.00     0.034 A 
ATOM     51  C   UNL A   1      46.769  29.111  26.949  1.00  0.00     0.049 A 
ATOM     52  C   UNL A   1      41.759  29.920  29.256  1.00  0.00     0.074 A 
ATOM     53  C   UNL A   1      47.634  30.193  26.929  1.00  0.00     0.029 A 
ATOM     54  N   UNL A   1      45.600  29.550  27.549  1.00  0.00    -0.354 N 
ATOM     55  N   UNL A   1      42.944  29.908  28.696  1.00  0.00    -0.248 NA
ATOM     56  C   UNL A   1      41.405  31.200  29.886  1.00  0.00     0.031 C 
ATOM     57  C   UNL A   1      46.987  31.285  27.518  1.00  0.00     0.029 A 
ATOM     58  C   UNL A   1      45.716  30.887  27.897  1.00  0.00     0.049 A 
ATOM     59  H   UNL A   1      44.803  28.993  27.706  1.00  0.00     0.167 HD
ATOM     60  C   UNL A   1      43.469  31.180  28.891  1.00  0.00     0.074 A 
ATOM     61  C   UNL A   1      42.460  31.948  29.591  1.00  0.00     0.031 C 
ATOM     62  C   UNL A   1      44.690  31.659  28.545  1.00  0.00     0.034 A 
BRANCH  49  63
ATOM     63  C   UNL A   1      48.315  27.488  25.788  1.00  0.00     0.023 A 
ATOM     64  C   UNL A   1      49.405  27.074  26.579  1.00  0.00     0.012 A 
ATOM     65  C   UNL A   1      48.469  27.567  24.389  1.00  0.00     0.148 A 
ATOM     66  C   UNL A   1      50.635  26.776  25.993  1.00  0.00     0.002 A 
ATOM     67  C   UNL A   1      49.687  27.230  23.808  1.00  0.00     0.091 A 
ATOM     68  F   UNL A   1      47.429  27.986  23.652  1.00  0.00    -0.205 F 
ATOM     69  C   UNL A   1      50.773  26.844  24.608  1.00  0.00     0.022 A 
BRANCH  67  70
ATOM     70  S   UNL A   1      49.924  27.217  22.027  1.00  0.00     0.127 S 
ATOM     71  O   UNL A   1      49.766  28.632  21.695  1.00  0.00    -0.237 OA
ATOM     72  O   UNL A   1      51.292  26.711  21.894  1.00  0.00    -0.237 OA
ATOM     73  O   UNL A   1      48.901  26.324  21.501  1.00  0.00    -0.744 OA
ENDBRANCH  67  70
ENDBRANCH  49  63
BRANCH  50  74
ATOM     74  C   UNL A   1      39.386  29.081  29.913  1.00  0.00     0.023 A 
ATOM     75  C   UNL A   1      39.123  28.668  31.234  1.00  0.00     0.012 A 
ATOM     76  C   UNL A   1      38.387  29.767  29.197  1.00  0.00     0.148 A 
ATOM     77  C   UNL A   1      37.884  28.922  31.825  1.00  0.00     0.002 A 
ATOM     78  C   UNL A   1      37.178  30.072  29.813  1.00  0.00     0.091 A 
ATOM     79  F   UNL A   1      38.643  30.125  27.930  1.00  0.00    -0.205 F 
ATOM     80  C   UNL A   1      36.919  29.637  31.121  1.00  0.00     0.022 A 
BRANCH  78  81
ATOM     81  S   UNL A   1      35.947  31.118  29.028  1.00  0.00     0.127 S 
ATOM     82  O   UNL A   1      35.320  30.192  28.089  1.00  0.00    -0.237 OA
ATOM     83  O   UNL A   1      35.109  31.509  30.162  1.00  0.00    -0.237 OA
ATOM     84  O   UNL A   1      36.696  32.219  28.435  1.00  0.00    -0.744 OA
ENDBRANCH  78  81
ENDBRANCH  50  74
BRANCH  62  85
ATOM     85  C   UNL A   1      44.997  33.090  28.902  1.00  0.00     0.023 A 
ATOM     86  C   UNL A   1      45.661  33.376  30.112  1.00  0.00     0.012 A 
ATOM     87  C   UNL A   1      44.673  34.144  28.027  1.00  0.00     0.148 A 
ATOM     88  C   UNL A   1      45.967  34.690  30.461  1.00  0.00     0.002 A 
ATOM     89  C   UNL A   1      45.017  35.450  28.363  1.00  0.00     0.091 A 
ATOM     90  F   UNL A   1      44.019  33.859  26.892  1.00  0.00    -0.205 F 
ATOM     91  C   UNL A   1      45.654  35.725  29.584  1.00  0.00     0.022 A 
BRANCH  89  92
ATOM     92  S   UNL A   1      44.720  36.828  27.249  1.00  0.00     0.127 S 
ATOM     93  O   UNL A   1      45.570  36.483  26.112  1.00  0.00    -0.237 OA
ATOM     94  O   UNL A   1      43.284  36.723  26.990  1.00  0.00    -0.237 OA
ATOM     95  O   UNL A   1      45.108  38.021  27.991  1.00  0.00    -0.744 OA
ENDBRANCH  89  92
ENDBRANCH  62  85
ENDBRANCH  36  37
ENDBRANCH  29  31
ENDBRANCH  28  29
ENDBRANCH  27  28
ENDBRANCH   1  27
TORSDOF 20
ENDMDL
MODEL 2
REMARK VINA RESULT:     -10.6      5.949     12.161
REMARK SMILES COc1ccc(/C=C/c2cc(OC)cc(OC)c2/C=C/C(=O)OCCOC(=O)c2ccc(-c3c4nc(c(-c5cccc(S(=O)(=O)[O-])c5F)c5ccc([nH]5)c(-c5cccc(S(=O)(=O)[O-])c5F)c5nc(c(-c6cccc(S(=O)(=O)[O-])c6F)c6ccc3[nH]6)C=C5)C=C4)cc2)cc1
REMARK SMILES IDX 24 1 23 2 21 3 22 4 20 5 19 6 18 7 9 8 10 9 11 10 15 11
REMARK SMILES IDX 14 12 8 13 7 14 6 15 3 16 4 17 93 18 5 19 92 20 2 21 1 22
REMARK SMILES IDX 12 23 13 24 16 25 17 26 25 27 26 28 27 29 28 30 29 31 30 32
REMARK SMILES IDX 91 33 31 34 90 35 32 36 33 37 34 38 84 39 35 40 89 41 83 42
REMARK SMILES IDX 85 43 36 44 88 45 82 46 81 47 37 49 69 50 49 51 68 52 50 53
REMARK SMILES IDX 53 54 67 55 86 56 51 57 52 58 66 60 87 61 54 62 38 63 39 64
REMARK SMILES IDX 47 65 40 66 42 67 48 68 41 69 43 70 44 71 45 72 46 73 70 74
REMARK SMILES IDX 71 75 79 76 72 77 74 78 80 79 73 80 75 81 76 82 77 83 78 84
REMARK SMILES IDX 55 85 56 86 64 87 57 88 59 89 65 90 58 91 60 92 61 93 62 94
REMARK SMILES IDX 63 95
REMARK H PARENT 85 48 53 59
REMARK Flexibility Score: inf
ROOT
ATOM      1  C   UNL A   1      34.338  34.362  29.540  1.00  0.00     0.275 C 
ENDROOT
BRANCH   1   2
ATOM      2  O   UNL A   1      33.764  33.866  30.766  1.00  0.00    -0.459 OA
BRANCH   2   3
ATOM      3  C   UNL A   1      34.569  33.908  31.857  1.00  0.00     0.330 C 
ATOM      4  O   UNL A   1      34.205  34.005  33.016  1.00  0.00    -0.247 OA
BRANCH   3   5
ATOM      5  C   UNL A   1      36.005  33.862  31.508  1.00  0.00     0.094 C 
ATOM      6  C   UNL A   1      36.983  34.502  32.167  1.00  0.00     0.020 C 
BRANCH   6   7
ATOM      7  C   UNL A   1      38.416  34.405  31.797  1.00  0.00     0.024 A 
ATOM      8  C   UNL A   1      39.397  34.259  32.803  1.00  0.00    -0.011 A 
ATOM      9  C   UNL A   1      40.761  34.226  32.453  1.00  0.00     0.055 A 
ATOM     10  C   UNL A   1      41.177  34.349  31.125  1.00  0.00     0.123 A 
ATOM     11  C   UNL A   1      38.861  34.511  30.463  1.00  0.00     0.130 A 
ATOM     12  C   UNL A   1      40.220  34.470  30.129  1.00  0.00     0.093 A 
BRANCH   8  13
ATOM     13  C   UNL A   1      39.091  34.190  34.242  1.00  0.00     0.009 C 
ATOM     14  C   UNL A   1      39.583  35.047  35.152  1.00  0.00     0.009 C 
BRANCH  14  15
ATOM     15  C   UNL A   1      39.329  34.943  36.597  1.00  0.00    -0.025 A 
ATOM     16  C   UNL A   1      38.887  34.822  39.379  1.00  0.00     0.118 A 
ATOM     17  C   UNL A   1      38.349  33.853  38.534  1.00  0.00     0.047 A 
ATOM     18  C   UNL A   1      39.656  35.851  38.837  1.00  0.00     0.047 A 
ATOM     19  C   UNL A   1      38.552  33.921  37.154  1.00  0.00     0.012 A 
ATOM     20  C   UNL A   1      39.871  35.912  37.454  1.00  0.00     0.012 A 
BRANCH  16  21
ATOM     21  O   UNL A   1      38.622  34.642  40.708  1.00  0.00    -0.497 OA
ATOM     22  C   UNL A   1      38.076  33.377  41.060  1.00  0.00     0.278 C 
ENDBRANCH  16  21
ENDBRANCH  14  15
ENDBRANCH   8  13
BRANCH  10  23
ATOM     23  O   UNL A   1      42.531  34.320  30.931  1.00  0.00    -0.497 OA
ATOM     24  C   UNL A   1      42.987  33.529  29.837  1.00  0.00     0.278 C 
ENDBRANCH  10  23
BRANCH  11  25
ATOM     25  O   UNL A   1      38.006  34.577  29.396  1.00  0.00    -0.496 OA
ATOM     26  C   UNL A   1      37.851  33.318  28.751  1.00  0.00     0.278 C 
ENDBRANCH  11  25
ENDBRANCH   6   7
ENDBRANCH   3   5
ENDBRANCH   2   3
ENDBRANCH   1   2
BRANCH   1  27
ATOM     27  C   UNL A   1      34.149  33.368  28.397  1.00  0.00     0.275 C 
BRANCH  27  28
ATOM     28  O   UNL A   1      34.306  32.018  28.869  1.00  0.00    -0.458 OA
BRANCH  28  29
ATOM     29  C   UNL A   1      34.499  31.098  27.899  1.00  0.00     0.338 C 
ATOM     30  O   UNL A   1      33.876  30.972  26.857  1.00  0.00    -0.246 OA
BRANCH  29  31
ATOM     31  C   UNL A   1      35.671  30.272  28.215  1.00  0.00     0.060 A 
ATOM     32  C   UNL A   1      35.731  29.699  29.480  1.00  0.00     0.016 A 
ATOM     33  C   UNL A   1      36.777  30.227  27.368  1.00  0.00     0.016 A 
ATOM     34  C   UNL A   1      36.943  29.195  29.952  1.00  0.00     0.010 A 
ATOM     35  C   UNL A   1      37.965  29.631  27.815  1.00  0.00     0.010 A 
ATOM     36  C   UNL A   1      38.085  29.161  29.135  1.00  0.00    -0.014 A 
BRANCH  36  37
ATOM     37  C   UNL A   1      39.394  28.694  29.691  1.00  0.00     0.031 A 
ATOM     38  C   UNL A   1      40.178  27.591  29.013  1.00  0.00     0.074 A 
ATOM     39  C   UNL A   1      39.920  29.277  30.790  1.00  0.00     0.049 A 
ATOM     40  N   UNL A   1      41.276  26.993  29.405  1.00  0.00    -0.248 NA
ATOM     41  C   UNL A   1      39.655  27.086  27.734  1.00  0.00     0.031 C 
ATOM     42  C   UNL A   1      39.300  30.364  31.549  1.00  0.00     0.029 A 
ATOM     43  N   UNL A   1      41.101  29.046  31.455  1.00  0.00    -0.354 N 
ATOM     44  C   UNL A   1      41.531  25.997  28.467  1.00  0.00     0.074 A 
ATOM     45  C   UNL A   1      40.475  26.075  27.480  1.00  0.00     0.031 C 
ATOM     46  C   UNL A   1      40.125  30.741  32.538  1.00  0.00     0.029 A 
ATOM     47  C   UNL A   1      41.296  29.870  32.539  1.00  0.00     0.049 A 
ATOM     48  H   UNL A   1      41.747  28.356  31.181  1.00  0.00     0.167 HD
ATOM     49  C   UNL A   1      42.555  25.109  28.415  1.00  0.00     0.034 A 
ATOM     50  C   UNL A   1      42.286  29.914  33.453  1.00  0.00     0.034 A 
ATOM     51  C   UNL A   1      43.658  25.080  29.340  1.00  0.00     0.049 A 
ATOM     52  C   UNL A   1      43.419  28.930  33.364  1.00  0.00     0.074 A 
ATOM     53  C   UNL A   1      44.753  24.230  29.347  1.00  0.00     0.029 A 
ATOM     54  N   UNL A   1      43.822  25.946  30.409  1.00  0.00    -0.354 N 
ATOM     55  N   UNL A   1      43.650  28.017  32.453  1.00  0.00    -0.248 NA
ATOM     56  C   UNL A   1      44.431  28.988  34.428  1.00  0.00     0.031 C 
ATOM     57  C   UNL A   1      45.579  24.585  30.420  1.00  0.00     0.029 A 
ATOM     58  C   UNL A   1      45.003  25.659  31.077  1.00  0.00     0.049 A 
ATOM     59  H   UNL A   1      43.193  26.661  30.657  1.00  0.00     0.167 HD
ATOM     60  C   UNL A   1      44.841  27.403  32.824  1.00  0.00     0.074 A 
ATOM     61  C   UNL A   1      45.301  28.071  34.025  1.00  0.00     0.031 C 
ATOM     62  C   UNL A   1      45.481  26.361  32.238  1.00  0.00     0.034 A 
BRANCH  49  63
ATOM     63  C   UNL A   1      42.554  24.107  27.289  1.00  0.00     0.023 A 
ATOM     64  C   UNL A   1      43.157  24.438  26.059  1.00  0.00     0.012 A 
ATOM     65  C   UNL A   1      42.007  22.819  27.464  1.00  0.00     0.148 A 
ATOM     66  C   UNL A   1      43.187  23.517  25.012  1.00  0.00     0.002 A 
ATOM     67  C   UNL A   1      42.076  21.893  26.428  1.00  0.00     0.091 A 
ATOM     68  F   UNL A   1      41.416  22.528  28.632  1.00  0.00    -0.205 F 
ATOM     69  C   UNL A   1      42.656  22.242  25.200  1.00  0.00     0.022 A 
BRANCH  67  70
ATOM     70  S   UNL A   1      41.486  20.206  26.616  1.00  0.00     0.127 S 
ATOM     71  O   UNL A   1      40.040  20.405  26.706  1.00  0.00    -0.237 OA
ATOM     72  O   UNL A   1      41.936  19.574  25.374  1.00  0.00    -0.237 OA
ATOM     73  O   UNL A   1      42.131  19.695  27.817  1.00  0.00    -0.744 OA
ENDBRANCH  67  70
ENDBRANCH  49  63
BRANCH  50  74
ATOM     74  C   UNL A   1      42.268  30.958  34.518  1.00  0.00     0.023 A 
ATOM     75  C   UNL A   1      41.593  30.696  35.726  1.00  0.00     0.012 A 
ATOM     76  C   UNL A   1      42.949  32.180  34.362  1.00  0.00     0.148 A 
ATOM     77  C   UNL A   1      41.584  31.640  36.754  1.00  0.00     0.002 A 
ATOM     78  C   UNL A   1      42.990  33.089  35.415  1.00  0.00     0.091 A 
ATOM     79  F   UNL A   1      43.560  32.426  33.195  1.00  0.00    -0.205 F 
ATOM     80  C   UNL A   1      42.296  32.827  36.605  1.00  0.00     0.022 A 
BRANCH  78  81
ATOM     81  S   UNL A   1      44.007  34.568  35.356  1.00  0.00     0.127 S 
ATOM     82  O   UNL A   1      45.332  34.011  35.100  1.00  0.00    -0.237 OA
ATOM     83  O   UNL A   1      43.419  35.300  34.233  1.00  0.00    -0.237 OA
ATOM     84  O   UNL A   1      43.824  35.215  36.648  1.00  0.00    -0.744 OA
ENDBRANCH  78  81
ENDBRANCH  50  74
BRANCH  62  85
ATOM     85  C   UNL A   1      46.760  25.888  32.877  1.00  0.00     0.023 A 
ATOM     86  C   UNL A   1      47.967  26.559  32.593  1.00  0.00     0.012 A 
ATOM     87  C   UNL A   1      46.765  24.816  33.790  1.00  0.00     0.148 A 
ATOM     88  C   UNL A   1      49.163  26.148  33.181  1.00  0.00     0.002 A 
ATOM     89  C   UNL A   1      47.955  24.437  34.403  1.00  0.00     0.091 A 
ATOM     90  F   UNL A   1      45.614  24.172  34.031  1.00  0.00    -0.205 F 
ATOM     91  C   UNL A   1      49.156  25.096  34.091  1.00  0.00     0.022 A 
BRANCH  89  92
ATOM     92  S   UNL A   1      48.013  23.143  35.648  1.00  0.00     0.127 S 
ATOM     93  O   UNL A   1      49.230  23.486  36.381  1.00  0.00    -0.237 OA
ATOM     94  O   UNL A   1      46.772  23.362  36.391  1.00  0.00    -0.237 OA
ATOM     95  O   UNL A   1      48.053  21.889  34.906  1.00  0.00    -0.744 OA
ENDBRANCH  89  92
ENDBRANCH  62  85
ENDBRANCH  36  37
ENDBRANCH  29  31
ENDBRANCH  28  29
ENDBRANCH  27  28
ENDBRANCH   1  27
TORSDOF 20
ENDMDL
MODEL 3
REMARK VINA RESULT:     -10.6      2.037      8.763
REMARK SMILES COc1ccc(/C=C/c2cc(OC)cc(OC)c2/C=C/C(=O)OCCOC(=O)c2ccc(-c3c4nc(c(-c5cccc(S(=O)(=O)[O-])c5F)c5ccc([nH]5)c(-c5cccc(S(=O)(=O)[O-])c5F)c5nc(c(-c6cccc(S(=O)(=O)[O-])c6F)c6ccc3[nH]6)C=C5)C=C4)cc2)cc1
REMARK SMILES IDX 24 1 23 2 21 3 22 4 20 5 19 6 18 7 9 8 10 9 11 10 15 11
REMARK SMILES IDX 14 12 8 13 7 14 6 15 3 16 4 17 93 18 5 19 92 20 2 21 1 22
REMARK SMILES IDX 12 23 13 24 16 25 17 26 25 27 26 28 27 29 28 30 29 31 30 32
REMARK SMILES IDX 91 33 31 34 90 35 32 36 33 37 34 38 84 39 35 40 89 41 83 42
REMARK SMILES IDX 85 43 36 44 88 45 82 46 81 47 37 49 69 50 49 51 68 52 50 53
REMARK SMILES IDX 53 54 67 55 86 56 51 57 52 58 66 60 87 61 54 62 38 63 39 64
REMARK SMILES IDX 47 65 40 66 42 67 48 68 41 69 43 70 44 71 45 72 46 73 70 74
REMARK SMILES IDX 71 75 79 76 72 77 74 78 80 79 73 80 75 81 76 82 77 83 78 84
REMARK SMILES IDX 55 85 56 86 64 87 57 88 59 89 65 90 58 91 60 92 61 93 62 94
REMARK SMILES IDX 63 95
REMARK H PARENT 85 48 53 59
REMARK Flexibility Score: inf
ROOT
ATOM      1  C   UNL A   1      38.924  21.955  26.057  1.00  0.00     0.275 C 
ENDROOT
BRANCH   1   2
ATOM      2  O   UNL A   1      37.589  22.227  25.584  1.00  0.00    -0.459 OA
BRANCH   2   3
ATOM      3  C   UNL A   1      37.133  23.488  25.788  1.00  0.00     0.330 C 
ATOM      4  O   UNL A   1      37.702  24.365  26.414  1.00  0.00    -0.247 OA
BRANCH   3   5
ATOM      5  C   UNL A   1      35.800  23.716  25.191  1.00  0.00     0.094 C 
ATOM      6  C   UNL A   1      34.733  24.202  25.842  1.00  0.00     0.020 C 
BRANCH   6   7
ATOM      7  C   UNL A   1      33.420  24.441  25.195  1.00  0.00     0.024 A 
ATOM      8  C   UNL A   1      32.835  25.727  25.234  1.00  0.00    -0.011 A 
ATOM      9  C   UNL A   1      31.562  25.936  24.670  1.00  0.00     0.055 A 
ATOM     10  C   UNL A   1      30.846  24.893  24.077  1.00  0.00     0.123 A 
ATOM     11  C   UNL A   1      32.684  23.409  24.577  1.00  0.00     0.130 A 
ATOM     12  C   UNL A   1      31.422  23.633  24.014  1.00  0.00     0.093 A 
BRANCH   8  13
ATOM     13  C   UNL A   1      33.458  26.889  25.891  1.00  0.00     0.009 C 
ATOM     14  C   UNL A   1      32.760  27.893  26.447  1.00  0.00     0.009 C 
BRANCH  14  15
ATOM     15  C   UNL A   1      33.379  29.086  27.047  1.00  0.00    -0.025 A 
ATOM     16  C   UNL A   1      34.486  31.417  28.182  1.00  0.00     0.118 A 
ATOM     17  C   UNL A   1      35.202  30.222  28.182  1.00  0.00     0.047 A 
ATOM     18  C   UNL A   1      33.217  31.454  27.607  1.00  0.00     0.047 A 
ATOM     19  C   UNL A   1      34.648  29.061  27.635  1.00  0.00     0.012 A 
ATOM     20  C   UNL A   1      32.666  30.293  27.047  1.00  0.00     0.012 A 
BRANCH  16  21
ATOM     21  O   UNL A   1      35.138  32.482  28.740  1.00  0.00    -0.497 OA
ATOM     22  C   UNL A   1      35.921  33.261  27.845  1.00  0.00     0.278 C 
ENDBRANCH  16  21
ENDBRANCH  14  15
ENDBRANCH   8  13
BRANCH  10  23
ATOM     23  O   UNL A   1      29.615  25.233  23.586  1.00  0.00    -0.497 OA
ATOM     24  C   UNL A   1      29.310  26.626  23.577  1.00  0.00     0.278 C 
ENDBRANCH  10  23
BRANCH  11  25
ATOM     25  O   UNL A   1      33.175  22.142  24.407  1.00  0.00    -0.496 OA
ATOM     26  C   UNL A   1      33.066  21.359  25.591  1.00  0.00     0.278 C 
ENDBRANCH  11  25
ENDBRANCH   6   7
ENDBRANCH   3   5
ENDBRANCH   2   3
ENDBRANCH   1   2
BRANCH   1  27
ATOM     27  C   UNL A   1      39.371  20.546  25.675  1.00  0.00     0.275 C 
BRANCH  27  28
ATOM     28  O   UNL A   1      40.252  20.006  26.675  1.00  0.00    -0.458 OA
BRANCH  28  29
ATOM     29  C   UNL A   1      41.493  19.703  26.234  1.00  0.00     0.338 C 
ATOM     30  O   UNL A   1      41.857  18.678  25.681  1.00  0.00    -0.246 OA
BRANCH  29  31
ATOM     31  C   UNL A   1      42.388  20.851  26.424  1.00  0.00     0.060 A 
ATOM     32  C   UNL A   1      42.644  21.257  27.728  1.00  0.00     0.016 A 
ATOM     33  C   UNL A   1      42.802  21.634  25.348  1.00  0.00     0.016 A 
ATOM     34  C   UNL A   1      43.200  22.515  27.963  1.00  0.00     0.010 A 
ATOM     35  C   UNL A   1      43.449  22.854  25.591  1.00  0.00     0.010 A 
ATOM     36  C   UNL A   1      43.602  23.343  26.901  1.00  0.00    -0.014 A 
BRANCH  36  37
ATOM     37  C   UNL A   1      44.117  24.721  27.176  1.00  0.00     0.031 A 
ATOM     38  C   UNL A   1      43.223  25.777  27.790  1.00  0.00     0.074 A 
ATOM     39  C   UNL A   1      45.404  25.037  26.916  1.00  0.00     0.049 A 
ATOM     40  N   UNL A   1      43.468  27.046  28.007  1.00  0.00    -0.248 NA
ATOM     41  C   UNL A   1      41.876  25.356  28.205  1.00  0.00     0.031 C 
ATOM     42  C   UNL A   1      46.399  24.129  26.342  1.00  0.00     0.029 A 
ATOM     43  N   UNL A   1      46.102  26.206  27.110  1.00  0.00    -0.354 N 
ATOM     44  C   UNL A   1      42.288  27.588  28.508  1.00  0.00     0.074 A 
ATOM     45  C   UNL A   1      41.328  26.507  28.571  1.00  0.00     0.031 C 
ATOM     46  C   UNL A   1      47.585  24.753  26.280  1.00  0.00     0.029 A 
ATOM     47  C   UNL A   1      47.423  26.131  26.731  1.00  0.00     0.049 A 
ATOM     48  H   UNL A   1      45.695  27.020  27.486  1.00  0.00     0.167 HD
ATOM     49  C   UNL A   1      42.027  28.860  28.899  1.00  0.00     0.034 A 
ATOM     50  C   UNL A   1      48.396  27.064  26.718  1.00  0.00     0.034 A 
ATOM     51  C   UNL A   1      42.998  29.922  28.926  1.00  0.00     0.049 A 
ATOM     52  C   UNL A   1      48.084  28.463  27.172  1.00  0.00     0.074 A 
ATOM     53  C   UNL A   1      42.826  31.236  29.332  1.00  0.00     0.029 A 
ATOM     54  N   UNL A   1      44.326  29.794  28.553  1.00  0.00    -0.354 N 
ATOM     55  N   UNL A   1      46.969  28.942  27.667  1.00  0.00    -0.248 NA
ATOM     56  C   UNL A   1      49.170  29.448  27.071  1.00  0.00     0.031 C 
ATOM     57  C   UNL A   1      44.051  31.901  29.204  1.00  0.00     0.029 A 
ATOM     58  C   UNL A   1      44.988  31.000  28.725  1.00  0.00     0.049 A 
ATOM     59  H   UNL A   1      44.740  28.967  28.213  1.00  0.00     0.167 HD
ATOM     60  C   UNL A   1      47.224  30.279  27.952  1.00  0.00     0.074 A 
ATOM     61  C   UNL A   1      48.609  30.525  27.606  1.00  0.00     0.031 C 
ATOM     62  C   UNL A   1      46.378  31.224  28.430  1.00  0.00     0.034 A 
BRANCH  49  63
ATOM     63  C   UNL A   1      40.629  29.172  29.372  1.00  0.00     0.023 A 
ATOM     64  C   UNL A   1      39.697  29.730  28.474  1.00  0.00     0.012 A 
ATOM     65  C   UNL A   1      40.222  28.865  30.686  1.00  0.00     0.148 A 
ATOM     66  C   UNL A   1      38.393  30.006  28.886  1.00  0.00     0.002 A 
ATOM     67  C   UNL A   1      38.910  29.107  31.077  1.00  0.00     0.091 A 
ATOM     68  F   UNL A   1      41.128  28.357  31.535  1.00  0.00    -0.205 F 
ATOM     69  C   UNL A   1      37.997  29.685  30.182  1.00  0.00     0.022 A 
BRANCH  67  70
ATOM     70  S   UNL A   1      38.299  28.651  32.704  1.00  0.00     0.127 S 
ATOM     71  O   UNL A   1      39.171  29.433  33.579  1.00  0.00    -0.237 OA
ATOM     72  O   UNL A   1      36.910  29.112  32.661  1.00  0.00    -0.237 OA
ATOM     73  O   UNL A   1      38.448  27.205  32.789  1.00  0.00    -0.744 OA
ENDBRANCH  67  70
ENDBRANCH  49  63
BRANCH  50  74
ATOM     74  C   UNL A   1      49.775  26.692  26.291  1.00  0.00     0.023 A 
ATOM     75  C   UNL A   1      50.565  25.893  27.139  1.00  0.00     0.012 A 
ATOM     76  C   UNL A   1      50.287  27.081  25.039  1.00  0.00     0.148 A 
ATOM     77  C   UNL A   1      51.848  25.501  26.753  1.00  0.00     0.002 A 
ATOM     78  C   UNL A   1      51.540  26.633  24.634  1.00  0.00     0.091 A 
ATOM     79  F   UNL A   1      49.533  27.867  24.257  1.00  0.00    -0.205 F 
ATOM     80  C   UNL A   1      52.328  25.856  25.496  1.00  0.00     0.022 A 
BRANCH  78  81
ATOM     81  S   UNL A   1      52.164  26.922  22.975  1.00  0.00     0.127 S 
ATOM     82  O   UNL A   1      53.205  25.904  22.864  1.00  0.00    -0.237 OA
ATOM     83  O   UNL A   1      50.975  26.679  22.154  1.00  0.00    -0.237 OA
ATOM     84  O   UNL A   1      52.618  28.306  22.967  1.00  0.00    -0.744 OA
ENDBRANCH  78  81
ENDBRANCH  50  74
BRANCH  62  85
ATOM     85  C   UNL A   1      46.931  32.611  28.626  1.00  0.00     0.023 A 
ATOM     86  C   UNL A   1      47.456  32.978  29.881  1.00  0.00     0.012 A 
ATOM     87  C   UNL A   1      46.975  33.534  27.563  1.00  0.00     0.148 A 
ATOM     88  C   UNL A   1      47.985  34.252  30.085  1.00  0.00     0.002 A 
ATOM     89  C   UNL A   1      47.539  34.790  27.763  1.00  0.00     0.091 A 
ATOM     90  F   UNL A   1      46.448  33.180  26.382  1.00  0.00    -0.205 F 
ATOM     91  C   UNL A   1      48.035  35.153  29.026  1.00  0.00     0.022 A 
BRANCH  89  92
ATOM     92  S   UNL A   1      47.714  35.978  26.426  1.00  0.00     0.127 S 
ATOM     93  O   UNL A   1      48.520  35.230  25.464  1.00  0.00    -0.237 OA
ATOM     94  O   UNL A   1      46.326  36.199  26.016  1.00  0.00    -0.237 OA
ATOM     95  O   UNL A   1      48.355  37.144  27.020  1.00  0.00    -0.744 OA
ENDBRANCH  89  92
ENDBRANCH  62  85
ENDBRANCH  36  37
ENDBRANCH  29  31
ENDBRANCH  28  29
ENDBRANCH  27  28
ENDBRANCH   1  27
TORSDOF 20
ENDMDL
