MODEL 1
REMARK VINA RESULT:     -12.0      0.000      0.000
REMARK SMILES Cc1ccc(Cl)c(Nc2ccccc2C(=O)OCCOC(=O)c2ccc(-c3c4nc(c(-c5cccc(S(=O)(=O)[O-])c5F)c5ccc([nH]5)c(-c5cccc(S(=O)(=O)[O-])c5F)c5nc(c(-c6cccc(S(=O)(=O)[O-])c6F)c6ccc3[nH]6)C=C5)C=C4)cc2)c1Cl
REMARK SMILES IDX 19 1 18 2 17 3 15 4 16 5 14 6 9 7 10 8 11 9 13 10 12 11 8 12
REMARK SMILES IDX 7 14 1 15 2 16 3 17 86 18 4 19 87 20 5 21 6 22 20 23 21 24
REMARK SMILES IDX 22 25 23 26 24 27 85 28 25 29 84 30 26 31 27 32 28 33 78 34
REMARK SMILES IDX 29 35 83 36 77 37 79 38 30 39 82 40 76 41 75 42 31 44 63 45
REMARK SMILES IDX 43 46 62 47 44 48 47 49 61 50 80 51 45 52 46 53 60 55 81 56
REMARK SMILES IDX 48 57 32 58 33 59 41 60 34 61 36 62 42 63 35 64 37 65 38 66
REMARK SMILES IDX 39 67 40 68 64 69 65 70 73 71 66 72 68 73 74 74 67 75 69 76
REMARK SMILES IDX 70 77 71 78 72 79 49 80 50 81 58 82 51 83 53 84 59 85 52 86
REMARK SMILES IDX 54 87 55 88 56 89 57 90
REMARK H PARENT 8 13 79 43 47 54
REMARK Flexibility Score: inf
ROOT
ATOM      1  C   UNL A   1      36.420  21.350  24.397  1.00  0.00     0.275 C 
ENDROOT
BRANCH   1   2
ATOM      2  C   UNL A   1      36.380  22.627  23.564  1.00  0.00     0.275 C 
BRANCH   2   3
ATOM      3  O   UNL A   1      35.607  23.668  24.198  1.00  0.00    -0.458 OA
BRANCH   3   4
ATOM      4  C   UNL A   1      34.479  24.043  23.535  1.00  0.00     0.340 C 
ATOM      5  O   UNL A   1      34.209  23.786  22.379  1.00  0.00    -0.246 OA
BRANCH   4   6
ATOM      6  C   UNL A   1      33.559  24.799  24.422  1.00  0.00     0.083 A 
ATOM      7  C   UNL A   1      32.303  24.315  24.833  1.00  0.00     0.053 A 
ATOM      8  C   UNL A   1      31.528  25.138  25.675  1.00  0.00     0.027 A 
ATOM      9  C   UNL A   1      31.994  26.376  26.127  1.00  0.00     0.002 A 
ATOM     10  C   UNL A   1      34.030  26.033  24.907  1.00  0.00     0.018 A 
ATOM     11  C   UNL A   1      33.252  26.821  25.750  1.00  0.00     0.001 A 
BRANCH   7  12
ATOM     12  N   UNL A   1      31.794  23.022  24.575  1.00  0.00    -0.352 N 
ATOM     13  H   UNL A   1      30.855  23.006  24.280  1.00  0.00     0.167 HD
BRANCH  12  14
ATOM     14  C   UNL A   1      32.401  21.744  24.668  1.00  0.00     0.077 A 
ATOM     15  C   UNL A   1      32.527  18.362  22.841  1.00  0.00     0.046 C 
ATOM     16  C   UNL A   1      32.749  19.442  23.867  1.00  0.00    -0.030 A 
ATOM     17  C   UNL A   1      33.264  19.089  25.122  1.00  0.00     0.006 A 
ATOM     18  C   UNL A   1      32.371  20.782  23.631  1.00  0.00     0.069 A 
ATOM     19  C   UNL A   1      33.401  20.047  26.123  1.00  0.00     0.023 A 
ATOM     20  Cl  UNL A   1      31.962  21.256  22.004  1.00  0.00    -0.082 Cl
ATOM     21  C   UNL A   1      32.960  21.352  25.903  1.00  0.00     0.066 A 
ATOM     22  Cl  UNL A   1      33.082  22.475  27.218  1.00  0.00    -0.082 Cl
ENDBRANCH  12  14
ENDBRANCH   7  12
ENDBRANCH   4   6
ENDBRANCH   3   4
ENDBRANCH   2   3
ENDBRANCH   1   2
BRANCH   1  23
ATOM     23  O   UNL A   1      36.972  21.629  25.690  1.00  0.00    -0.458 OA
BRANCH  23  24
ATOM     24  C   UNL A   1      38.300  21.415  25.804  1.00  0.00     0.338 C 
ATOM     25  O   UNL A   1      38.945  20.476  25.365  1.00  0.00    -0.246 OA
BRANCH  24  26
ATOM     26  C   UNL A   1      38.920  22.545  26.503  1.00  0.00     0.060 A 
ATOM     27  C   UNL A   1      38.427  23.823  26.265  1.00  0.00     0.016 A 
ATOM     28  C   UNL A   1      40.079  22.367  27.251  1.00  0.00     0.016 A 
ATOM     29  C   UNL A   1      39.161  24.939  26.646  1.00  0.00     0.010 A 
ATOM     30  C   UNL A   1      40.747  23.490  27.747  1.00  0.00     0.010 A 
ATOM     31  C   UNL A   1      40.328  24.790  27.404  1.00  0.00    -0.014 A 
BRANCH  31  32
ATOM     32  C   UNL A   1      41.123  25.983  27.810  1.00  0.00     0.031 A 
ATOM     33  C   UNL A   1      40.490  27.061  28.653  1.00  0.00     0.074 A 
ATOM     34  C   UNL A   1      42.404  26.116  27.408  1.00  0.00     0.049 A 
ATOM     35  N   UNL A   1      40.934  28.258  28.934  1.00  0.00    -0.248 NA
ATOM     36  C   UNL A   1      39.171  26.762  29.236  1.00  0.00     0.031 C 
ATOM     37  C   UNL A   1      43.144  25.145  26.601  1.00  0.00     0.029 A 
ATOM     38  N   UNL A   1      43.305  27.133  27.608  1.00  0.00    -0.354 N 
ATOM     39  C   UNL A   1      39.914  28.888  29.638  1.00  0.00     0.074 A 
ATOM     40  C   UNL A   1      38.835  27.932  29.761  1.00  0.00     0.031 C 
ATOM     41  C   UNL A   1      44.385  25.602  26.385  1.00  0.00     0.029 A 
ATOM     42  C   UNL A   1      44.501  26.938  26.955  1.00  0.00     0.049 A 
ATOM     43  H   UNL A   1      43.115  27.924  28.162  1.00  0.00     0.167 HD
ATOM     44  C   UNL A   1      39.882  30.146  30.137  1.00  0.00     0.034 A 
ATOM     45  C   UNL A   1      45.555  27.758  26.780  1.00  0.00     0.034 A 
ATOM     46  C   UNL A   1      40.994  31.056  30.091  1.00  0.00     0.049 A 
ATOM     47  C   UNL A   1      45.511  29.134  27.377  1.00  0.00     0.074 A 
ATOM     48  C   UNL A   1      41.090  32.326  30.632  1.00  0.00     0.029 A 
ATOM     49  N   UNL A   1      42.209  30.792  29.477  1.00  0.00    -0.354 N 
ATOM     50  N   UNL A   1      44.560  29.694  28.085  1.00  0.00    -0.248 NA
ATOM     51  C   UNL A   1      46.688  29.987  27.166  1.00  0.00     0.031 C 
ATOM     52  C   UNL A   1      42.358  32.836  30.330  1.00  0.00     0.029 A 
ATOM     53  C   UNL A   1      43.059  31.874  29.620  1.00  0.00     0.049 A 
ATOM     54  H   UNL A   1      42.434  29.955  29.008  1.00  0.00     0.167 HD
ATOM     55  C   UNL A   1      45.026  30.961  28.415  1.00  0.00     0.074 A 
ATOM     56  C   UNL A   1      46.360  31.071  27.858  1.00  0.00     0.031 C 
ATOM     57  C   UNL A   1      44.400  31.950  29.097  1.00  0.00     0.034 A 
BRANCH  44  58
ATOM     58  C   UNL A   1      38.606  30.614  30.790  1.00  0.00     0.023 A 
ATOM     59  C   UNL A   1      38.414  30.443  32.176  1.00  0.00     0.012 A 
ATOM     60  C   UNL A   1      37.616  31.274  30.033  1.00  0.00     0.148 A 
ATOM     61  C   UNL A   1      37.244  30.889  32.791  1.00  0.00     0.002 A 
ATOM     62  C   UNL A   1      36.473  31.756  30.661  1.00  0.00     0.091 A 
ATOM     63  F   UNL A   1      37.804  31.408  28.712  1.00  0.00    -0.205 F 
ATOM     64  C   UNL A   1      36.280  31.554  32.037  1.00  0.00     0.022 A 
BRANCH  62  65
ATOM     65  S   UNL A   1      35.214  32.695  29.787  1.00  0.00     0.127 S 
ATOM     66  O   UNL A   1      34.278  33.010  30.865  1.00  0.00    -0.237 OA
ATOM     67  O   UNL A   1      35.975  33.842  29.287  1.00  0.00    -0.237 OA
ATOM     68  O   UNL A   1      34.704  31.810  28.749  1.00  0.00    -0.744 OA
ENDBRANCH  62  65
ENDBRANCH  44  58
BRANCH  45  69
ATOM     69  C   UNL A   1      46.731  27.285  25.996  1.00  0.00     0.023 A 
ATOM     70  C   UNL A   1      46.796  27.544  24.615  1.00  0.00     0.012 A 
ATOM     71  C   UNL A   1      47.818  26.646  26.627  1.00  0.00     0.148 A 
ATOM     72  C   UNL A   1      47.916  27.164  23.873  1.00  0.00     0.002 A 
ATOM     73  C   UNL A   1      48.957  26.330  25.895  1.00  0.00     0.091 A 
ATOM     74  F   UNL A   1      47.729  26.387  27.940  1.00  0.00    -0.205 F 
ATOM     75  C   UNL A   1      49.001  26.573  24.515  1.00  0.00     0.022 A 
BRANCH  73  76
ATOM     76  S   UNL A   1      50.454  25.714  26.673  1.00  0.00     0.127 S 
ATOM     77  O   UNL A   1      49.997  24.453  27.249  1.00  0.00    -0.237 OA
ATOM     78  O   UNL A   1      51.358  25.578  25.530  1.00  0.00    -0.237 OA
ATOM     79  O   UNL A   1      50.851  26.742  27.627  1.00  0.00    -0.744 OA
ENDBRANCH  73  76
ENDBRANCH  45  69
BRANCH  57  80
ATOM     80  C   UNL A   1      45.157  33.234  29.302  1.00  0.00     0.023 A 
ATOM     81  C   UNL A   1      45.967  33.391  30.444  1.00  0.00     0.012 A 
ATOM     82  C   UNL A   1      45.118  34.255  28.333  1.00  0.00     0.148 A 
ATOM     83  C   UNL A   1      46.703  34.560  30.634  1.00  0.00     0.002 A 
ATOM     84  C   UNL A   1      45.890  35.397  28.506  1.00  0.00     0.091 A 
ATOM     85  F   UNL A   1      44.324  34.093  27.264  1.00  0.00    -0.205 F 
ATOM     86  C   UNL A   1      46.673  35.557  29.661  1.00  0.00     0.022 A 
BRANCH  84  87
ATOM     87  S   UNL A   1      45.983  36.689  27.261  1.00  0.00     0.127 S 
ATOM     88  O   UNL A   1      44.608  37.184  27.242  1.00  0.00    -0.237 OA
ATOM     89  O   UNL A   1      46.957  37.614  27.843  1.00  0.00    -0.237 OA
ATOM     90  O   UNL A   1      46.431  36.033  26.040  1.00  0.00    -0.744 OA
ENDBRANCH  84  87
ENDBRANCH  57  80
ENDBRANCH  31  32
ENDBRANCH  24  26
ENDBRANCH  23  24
ENDBRANCH   1  23
TORSDOF 16
ENDMDL
MODEL 2
REMARK VINA RESULT:     -11.8      4.915      9.647
REMARK SMILES Cc1ccc(Cl)c(Nc2ccccc2C(=O)OCCOC(=O)c2ccc(-c3c4nc(c(-c5cccc(S(=O)(=O)[O-])c5F)c5ccc([nH]5)c(-c5cccc(S(=O)(=O)[O-])c5F)c5nc(c(-c6cccc(S(=O)(=O)[O-])c6F)c6ccc3[nH]6)C=C5)C=C4)cc2)c1Cl
REMARK SMILES IDX 19 1 18 2 17 3 15 4 16 5 14 6 9 7 10 8 11 9 13 10 12 11 8 12
REMARK SMILES IDX 7 14 1 15 2 16 3 17 86 18 4 19 87 20 5 21 6 22 20 23 21 24
REMARK SMILES IDX 22 25 23 26 24 27 85 28 25 29 84 30 26 31 27 32 28 33 78 34
REMARK SMILES IDX 29 35 83 36 77 37 79 38 30 39 82 40 76 41 75 42 31 44 63 45
REMARK SMILES IDX 43 46 62 47 44 48 47 49 61 50 80 51 45 52 46 53 60 55 81 56
REMARK SMILES IDX 48 57 32 58 33 59 41 60 34 61 36 62 42 63 35 64 37 65 38 66
REMARK SMILES IDX 39 67 40 68 64 69 65 70 73 71 66 72 68 73 74 74 67 75 69 76
REMARK SMILES IDX 70 77 71 78 72 79 49 80 50 81 58 82 51 83 53 84 59 85 52 86
REMARK SMILES IDX 54 87 55 88 56 89 57 90
REMARK H PARENT 8 13 79 43 47 54
REMARK Flexibility Score: inf
ROOT
ATOM      1  C   UNL A   1      31.720  29.359  27.095  1.00  0.00     0.275 C 
ENDROOT
BRANCH   1   2
ATOM      2  C   UNL A   1      32.078  27.888  27.276  1.00  0.00     0.275 C 
BRANCH   2   3
ATOM      3  O   UNL A   1      31.044  27.009  26.786  1.00  0.00    -0.458 OA
BRANCH   3   4
ATOM      4  C   UNL A   1      31.474  25.806  26.316  1.00  0.00     0.340 C 
ATOM      5  O   UNL A   1      31.384  24.740  26.890  1.00  0.00    -0.246 OA
BRANCH   4   6
ATOM      6  C   UNL A   1      32.057  25.936  24.957  1.00  0.00     0.083 A 
ATOM      7  C   UNL A   1      33.242  25.290  24.554  1.00  0.00     0.053 A 
ATOM      8  C   UNL A   1      33.685  25.503  23.233  1.00  0.00     0.027 A 
ATOM      9  C   UNL A   1      32.965  26.291  22.331  1.00  0.00     0.002 A 
ATOM     10  C   UNL A   1      31.324  26.702  24.032  1.00  0.00     0.018 A 
ATOM     11  C   UNL A   1      31.776  26.885  22.728  1.00  0.00     0.001 A 
BRANCH   7  12
ATOM     12  N   UNL A   1      33.967  24.349  25.318  1.00  0.00    -0.352 N 
ATOM     13  H   UNL A   1      34.301  24.694  26.178  1.00  0.00     0.167 HD
BRANCH  12  14
ATOM     14  C   UNL A   1      34.298  22.995  25.062  1.00  0.00     0.077 A 
ATOM     15  C   UNL A   1      32.636  19.572  24.502  1.00  0.00     0.046 C 
ATOM     16  C   UNL A   1      33.680  20.639  24.700  1.00  0.00    -0.030 A 
ATOM     17  C   UNL A   1      34.994  20.254  25.000  1.00  0.00     0.006 A 
ATOM     18  C   UNL A   1      33.353  22.012  24.680  1.00  0.00     0.069 A 
ATOM     19  C   UNL A   1      35.966  21.213  25.274  1.00  0.00     0.023 A 
ATOM     20  Cl  UNL A   1      31.789  22.486  24.075  1.00  0.00    -0.082 Cl
ATOM     21  C   UNL A   1      35.617  22.563  25.320  1.00  0.00     0.066 A 
ATOM     22  Cl  UNL A   1      36.853  23.699  25.749  1.00  0.00    -0.082 Cl
ENDBRANCH  12  14
ENDBRANCH   7  12
ENDBRANCH   4   6
ENDBRANCH   3   4
ENDBRANCH   2   3
ENDBRANCH   1   2
BRANCH   1  23
ATOM     23  O   UNL A   1      32.784  30.040  26.417  1.00  0.00    -0.458 OA
BRANCH  23  24
ATOM     24  C   UNL A   1      33.230  31.157  27.028  1.00  0.00     0.338 C 
ATOM     25  O   UNL A   1      32.615  32.190  27.238  1.00  0.00    -0.246 OA
BRANCH  24  26
ATOM     26  C   UNL A   1      34.604  30.944  27.494  1.00  0.00     0.060 A 
ATOM     27  C   UNL A   1      35.054  29.639  27.658  1.00  0.00     0.016 A 
ATOM     28  C   UNL A   1      35.381  32.014  27.926  1.00  0.00     0.016 A 
ATOM     29  C   UNL A   1      36.211  29.382  28.381  1.00  0.00     0.010 A 
ATOM     30  C   UNL A   1      36.612  31.758  28.538  1.00  0.00     0.010 A 
ATOM     31  C   UNL A   1      37.016  30.439  28.822  1.00  0.00    -0.014 A 
BRANCH  31  32
ATOM     32  C   UNL A   1      38.255  30.170  29.604  1.00  0.00     0.031 A 
ATOM     33  C   UNL A   1      39.321  29.264  29.042  1.00  0.00     0.074 A 
ATOM     34  C   UNL A   1      38.421  30.718  30.826  1.00  0.00     0.049 A 
ATOM     35  N   UNL A   1      40.360  28.742  29.638  1.00  0.00    -0.248 NA
ATOM     36  C   UNL A   1      39.185  28.873  27.629  1.00  0.00     0.031 C 
ATOM     37  C   UNL A   1      37.477  31.622  31.485  1.00  0.00     0.029 A 
ATOM     38  N   UNL A   1      39.436  30.577  31.741  1.00  0.00    -0.354 N 
ATOM     39  C   UNL A   1      40.944  27.887  28.709  1.00  0.00     0.074 A 
ATOM     40  C   UNL A   1      40.154  27.977  27.500  1.00  0.00     0.031 C 
ATOM     41  C   UNL A   1      37.959  31.966  32.687  1.00  0.00     0.029 A 
ATOM     42  C   UNL A   1      39.196  31.235  32.926  1.00  0.00     0.049 A 
ATOM     43  H   UNL A   1      40.253  30.057  31.567  1.00  0.00     0.167 HD
ATOM     44  C   UNL A   1      42.038  27.102  28.851  1.00  0.00     0.034 A 
ATOM     45  C   UNL A   1      39.860  31.212  34.098  1.00  0.00     0.034 A 
ATOM     46  C   UNL A   1      42.869  27.090  30.025  1.00  0.00     0.049 A 
ATOM     47  C   UNL A   1      41.093  30.364  34.217  1.00  0.00     0.074 A 
ATOM     48  C   UNL A   1      44.041  26.386  30.241  1.00  0.00     0.029 A 
ATOM     49  N   UNL A   1      42.625  27.822  31.177  1.00  0.00    -0.354 N 
ATOM     50  N   UNL A   1      41.660  29.604  33.312  1.00  0.00    -0.248 NA
ATOM     51  C   UNL A   1      41.787  30.381  35.512  1.00  0.00     0.031 C 
ATOM     52  C   UNL A   1      44.496  26.680  31.531  1.00  0.00     0.029 A 
ATOM     53  C   UNL A   1      43.618  27.585  32.110  1.00  0.00     0.049 A 
ATOM     54  H   UNL A   1      41.856  28.423  31.311  1.00  0.00     0.167 HD
ATOM     55  C   UNL A   1      42.784  29.059  33.922  1.00  0.00     0.074 A 
ATOM     56  C   UNL A   1      42.835  29.606  35.263  1.00  0.00     0.031 C 
ATOM     57  C   UNL A   1      43.679  28.172  33.424  1.00  0.00     0.034 A 
BRANCH  44  58
ATOM     58  C   UNL A   1      42.409  26.196  27.705  1.00  0.00     0.023 A 
ATOM     59  C   UNL A   1      43.285  26.649  26.698  1.00  0.00     0.012 A 
ATOM     60  C   UNL A   1      41.930  24.871  27.657  1.00  0.00     0.148 A 
ATOM     61  C   UNL A   1      43.649  25.812  25.643  1.00  0.00     0.002 A 
ATOM     62  C   UNL A   1      42.332  24.028  26.627  1.00  0.00     0.091 A 
ATOM     63  F   UNL A   1      41.080  24.463  28.610  1.00  0.00    -0.205 F 
ATOM     64  C   UNL A   1      43.182  24.500  25.613  1.00  0.00     0.022 A 
BRANCH  62  65
ATOM     65  S   UNL A   1      41.847  22.299  26.549  1.00  0.00     0.127 S 
ATOM     66  O   UNL A   1      40.402  22.406  26.356  1.00  0.00    -0.237 OA
ATOM     67  O   UNL A   1      42.584  21.823  25.377  1.00  0.00    -0.237 OA
ATOM     68  O   UNL A   1      42.271  21.708  27.810  1.00  0.00    -0.744 OA
ENDBRANCH  62  65
ENDBRANCH  44  58
BRANCH  45  69
ATOM     69  C   UNL A   1      39.356  32.021  35.244  1.00  0.00     0.023 A 
ATOM     70  C   UNL A   1      38.498  31.428  36.188  1.00  0.00     0.012 A 
ATOM     71  C   UNL A   1      39.781  33.351  35.441  1.00  0.00     0.148 A 
ATOM     72  C   UNL A   1      38.062  32.148  37.302  1.00  0.00     0.002 A 
ATOM     73  C   UNL A   1      39.396  34.040  36.585  1.00  0.00     0.091 A 
ATOM     74  F   UNL A   1      40.580  33.906  34.519  1.00  0.00    -0.205 F 
ATOM     75  C   UNL A   1      38.523  33.446  37.509  1.00  0.00     0.022 A 
BRANCH  73  76
ATOM     76  S   UNL A   1      40.070  35.651  37.004  1.00  0.00     0.127 S 
ATOM     77  O   UNL A   1      39.653  36.457  35.861  1.00  0.00    -0.237 OA
ATOM     78  O   UNL A   1      39.377  35.954  38.258  1.00  0.00    -0.237 OA
ATOM     79  O   UNL A   1      41.506  35.449  37.152  1.00  0.00    -0.744 OA
ENDBRANCH  73  76
ENDBRANCH  45  69
BRANCH  57  80
ATOM     80  C   UNL A   1      44.807  27.750  34.327  1.00  0.00     0.023 A 
ATOM     81  C   UNL A   1      46.001  28.498  34.345  1.00  0.00     0.012 A 
ATOM     82  C   UNL A   1      44.660  26.655  35.200  1.00  0.00     0.148 A 
ATOM     83  C   UNL A   1      47.044  28.143  35.200  1.00  0.00     0.002 A 
ATOM     84  C   UNL A   1      45.686  26.335  36.080  1.00  0.00     0.091 A 
ATOM     85  F   UNL A   1      43.523  25.945  35.150  1.00  0.00    -0.205 F 
ATOM     86  C   UNL A   1      46.882  27.070  36.073  1.00  0.00     0.022 A 
BRANCH  84  87
ATOM     87  S   UNL A   1      45.527  25.029  37.303  1.00  0.00     0.127 S 
ATOM     88  O   UNL A   1      45.414  23.842  36.457  1.00  0.00    -0.237 OA
ATOM     89  O   UNL A   1      46.787  25.136  38.040  1.00  0.00    -0.237 OA
ATOM     90  O   UNL A   1      44.342  25.357  38.085  1.00  0.00    -0.744 OA
ENDBRANCH  84  87
ENDBRANCH  57  80
ENDBRANCH  31  32
ENDBRANCH  24  26
ENDBRANCH  23  24
ENDBRANCH   1  23
TORSDOF 16
ENDMDL
MODEL 3
REMARK VINA RESULT:     -11.8      5.252      9.780
REMARK SMILES Cc1ccc(Cl)c(Nc2ccccc2C(=O)OCCOC(=O)c2ccc(-c3c4nc(c(-c5cccc(S(=O)(=O)[O-])c5F)c5ccc([nH]5)c(-c5cccc(S(=O)(=O)[O-])c5F)c5nc(c(-c6cccc(S(=O)(=O)[O-])c6F)c6ccc3[nH]6)C=C5)C=C4)cc2)c1Cl
REMARK SMILES IDX 19 1 18 2 17 3 15 4 16 5 14 6 9 7 10 8 11 9 13 10 12 11 8 12
REMARK SMILES IDX 7 14 1 15 2 16 3 17 86 18 4 19 87 20 5 21 6 22 20 23 21 24
REMARK SMILES IDX 22 25 23 26 24 27 85 28 25 29 84 30 26 31 27 32 28 33 78 34
REMARK SMILES IDX 29 35 83 36 77 37 79 38 30 39 82 40 76 41 75 42 31 44 63 45
REMARK SMILES IDX 43 46 62 47 44 48 47 49 61 50 80 51 45 52 46 53 60 55 81 56
REMARK SMILES IDX 48 57 32 58 33 59 41 60 34 61 36 62 42 63 35 64 37 65 38 66
REMARK SMILES IDX 39 67 40 68 64 69 65 70 73 71 66 72 68 73 74 74 67 75 69 76
REMARK SMILES IDX 70 77 71 78 72 79 49 80 50 81 58 82 51 83 53 84 59 85 52 86
REMARK SMILES IDX 54 87 55 88 56 89 57 90
REMARK H PARENT 8 13 79 43 47 54
REMARK Flexibility Score: inf
ROOT
ATOM      1  C   UNL A   1      31.780  29.939  26.803  1.00  0.00     0.275 C 
ENDROOT
BRANCH   1   2
ATOM      2  C   UNL A   1      31.898  28.444  27.081  1.00  0.00     0.275 C 
BRANCH   2   3
ATOM      3  O   UNL A   1      31.187  27.650  26.109  1.00  0.00    -0.458 OA
BRANCH   3   4
ATOM      4  C   UNL A   1      31.570  26.346  26.027  1.00  0.00     0.340 C 
ATOM      5  O   UNL A   1      31.389  25.492  26.871  1.00  0.00    -0.246 OA
BRANCH   4   6
ATOM      6  C   UNL A   1      32.228  26.059  24.727  1.00  0.00     0.083 A 
ATOM      7  C   UNL A   1      33.280  25.135  24.576  1.00  0.00     0.053 A 
ATOM      8  C   UNL A   1      33.816  24.962  23.284  1.00  0.00     0.027 A 
ATOM      9  C   UNL A   1      33.306  25.644  22.176  1.00  0.00     0.002 A 
ATOM     10  C   UNL A   1      31.703  26.717  23.601  1.00  0.00     0.018 A 
ATOM     11  C   UNL A   1      32.240  26.517  22.333  1.00  0.00     0.001 A 
BRANCH   7  12
ATOM     12  N   UNL A   1      33.771  24.275  25.583  1.00  0.00    -0.352 N 
ATOM     13  H   UNL A   1      33.820  24.682  26.478  1.00  0.00     0.167 HD
BRANCH  12  14
ATOM     14  C   UNL A   1      34.207  22.927  25.529  1.00  0.00     0.077 A 
ATOM     15  C   UNL A   1      37.376  20.840  24.899  1.00  0.00     0.046 C 
ATOM     16  C   UNL A   1      35.942  21.219  25.159  1.00  0.00    -0.030 A 
ATOM     17  C   UNL A   1      34.943  20.250  24.988  1.00  0.00     0.006 A 
ATOM     18  C   UNL A   1      35.569  22.542  25.482  1.00  0.00     0.069 A 
ATOM     19  C   UNL A   1      33.600  20.587  25.135  1.00  0.00     0.023 A 
ATOM     20  Cl  UNL A   1      36.817  23.673  25.926  1.00  0.00    -0.082 Cl
ATOM     21  C   UNL A   1      33.239  21.911  25.386  1.00  0.00     0.066 A 
ATOM     22  Cl  UNL A   1      31.547  22.280  25.475  1.00  0.00    -0.082 Cl
ENDBRANCH  12  14
ENDBRANCH   7  12
ENDBRANCH   4   6
ENDBRANCH   3   4
ENDBRANCH   2   3
ENDBRANCH   1   2
BRANCH   1  23
ATOM     23  O   UNL A   1      33.062  30.471  26.445  1.00  0.00    -0.458 OA
BRANCH  23  24
ATOM     24  C   UNL A   1      33.519  31.454  27.249  1.00  0.00     0.338 C 
ATOM     25  O   UNL A   1      32.912  32.437  27.644  1.00  0.00    -0.246 OA
BRANCH  24  26
ATOM     26  C   UNL A   1      34.890  31.148  27.667  1.00  0.00     0.060 A 
ATOM     27  C   UNL A   1      35.232  29.820  27.897  1.00  0.00     0.016 A 
ATOM     28  C   UNL A   1      35.778  32.168  27.993  1.00  0.00     0.016 A 
ATOM     29  C   UNL A   1      36.397  29.505  28.585  1.00  0.00     0.010 A 
ATOM     30  C   UNL A   1      37.010  31.840  28.566  1.00  0.00     0.010 A 
ATOM     31  C   UNL A   1      37.311  30.510  28.919  1.00  0.00    -0.014 A 
BRANCH  31  32
ATOM     32  C   UNL A   1      38.559  30.180  29.662  1.00  0.00     0.031 A 
ATOM     33  C   UNL A   1      39.555  29.212  29.074  1.00  0.00     0.074 A 
ATOM     34  C   UNL A   1      38.796  30.726  30.873  1.00  0.00     0.049 A 
ATOM     35  N   UNL A   1      40.583  28.638  29.639  1.00  0.00    -0.248 NA
ATOM     36  C   UNL A   1      39.350  28.819  27.669  1.00  0.00     0.031 C 
ATOM     37  C   UNL A   1      37.926  31.686  31.555  1.00  0.00     0.029 A 
ATOM     38  N   UNL A   1      39.832  30.537  31.755  1.00  0.00    -0.354 N 
ATOM     39  C   UNL A   1      41.088  27.746  28.699  1.00  0.00     0.074 A 
ATOM     40  C   UNL A   1      40.264  27.870  27.517  1.00  0.00     0.031 C 
ATOM     41  C   UNL A   1      38.465  32.012  32.737  1.00  0.00     0.029 A 
ATOM     42  C   UNL A   1      39.668  31.216  32.941  1.00  0.00     0.049 A 
ATOM     43  H   UNL A   1      40.613  29.972  31.559  1.00  0.00     0.167 HD
ATOM     44  C   UNL A   1      42.141  26.903  28.813  1.00  0.00     0.034 A 
ATOM     45  C   UNL A   1      40.369  31.165  34.090  1.00  0.00     0.034 A 
ATOM     46  C   UNL A   1      43.010  26.854  29.958  1.00  0.00     0.049 A 
ATOM     47  C   UNL A   1      41.557  30.252  34.177  1.00  0.00     0.074 A 
ATOM     48  C   UNL A   1      44.148  26.089  30.142  1.00  0.00     0.029 A 
ATOM     49  N   UNL A   1      42.845  27.607  31.111  1.00  0.00    -0.354 N 
ATOM     50  N   UNL A   1      42.051  29.455  33.261  1.00  0.00    -0.248 NA
ATOM     51  C   UNL A   1      42.294  30.240  35.447  1.00  0.00     0.031 C 
ATOM     52  C   UNL A   1      44.662  26.367  31.413  1.00  0.00     0.029 A 
ATOM     53  C   UNL A   1      43.855  27.322  32.013  1.00  0.00     0.049 A 
ATOM     54  H   UNL A   1      42.115  28.250  31.264  1.00  0.00     0.167 HD
ATOM     55  C   UNL A   1      43.163  28.854  33.837  1.00  0.00     0.074 A 
ATOM     56  C   UNL A   1      43.289  29.407  35.171  1.00  0.00     0.031 C 
ATOM     57  C   UNL A   1      43.991  27.915  33.319  1.00  0.00     0.034 A 
BRANCH  44  58
ATOM     58  C   UNL A   1      42.424  25.970  27.663  1.00  0.00     0.023 A 
ATOM     59  C   UNL A   1      43.257  26.382  26.603  1.00  0.00     0.012 A 
ATOM     60  C   UNL A   1      41.905  24.659  27.662  1.00  0.00     0.148 A 
ATOM     61  C   UNL A   1      43.539  25.518  25.545  1.00  0.00     0.002 A 
ATOM     62  C   UNL A   1      42.227  23.789  26.627  1.00  0.00     0.091 A 
ATOM     63  F   UNL A   1      41.097  24.291  28.666  1.00  0.00    -0.205 F 
ATOM     64  C   UNL A   1      43.034  24.220  25.561  1.00  0.00     0.022 A 
BRANCH  62  65
ATOM     65  S   UNL A   1      41.689  22.074  26.604  1.00  0.00     0.127 S 
ATOM     66  O   UNL A   1      42.315  21.584  25.376  1.00  0.00    -0.237 OA
ATOM     67  O   UNL A   1      42.276  21.549  27.837  1.00  0.00    -0.237 OA
ATOM     68  O   UNL A   1      40.234  22.112  26.596  1.00  0.00    -0.744 OA
ENDBRANCH  62  65
ENDBRANCH  44  58
BRANCH  45  69
ATOM     69  C   UNL A   1      39.948  32.009  35.245  1.00  0.00     0.023 A 
ATOM     70  C   UNL A   1      40.333  33.362  35.293  1.00  0.00     0.012 A 
ATOM     71  C   UNL A   1      39.109  31.496  36.255  1.00  0.00     0.148 A 
ATOM     72  C   UNL A   1      39.899  34.186  36.333  1.00  0.00     0.002 A 
ATOM     73  C   UNL A   1      38.628  32.339  37.251  1.00  0.00     0.091 A 
ATOM     74  F   UNL A   1      38.772  30.200  36.205  1.00  0.00    -0.205 F 
ATOM     75  C   UNL A   1      39.035  33.680  37.301  1.00  0.00     0.022 A 
BRANCH  73  76
ATOM     76  S   UNL A   1      37.391  31.806  38.439  1.00  0.00     0.127 S 
ATOM     77  O   UNL A   1      37.150  30.428  38.024  1.00  0.00    -0.237 OA
ATOM     78  O   UNL A   1      38.105  31.952  39.709  1.00  0.00    -0.237 OA
ATOM     79  O   UNL A   1      36.271  32.725  38.277  1.00  0.00    -0.744 OA
ENDBRANCH  73  76
ENDBRANCH  45  69
BRANCH  57  80
ATOM     80  C   UNL A   1      45.124  27.439  34.187  1.00  0.00     0.023 A 
ATOM     81  C   UNL A   1      46.348  28.137  34.180  1.00  0.00     0.012 A 
ATOM     82  C   UNL A   1      44.955  26.343  35.054  1.00  0.00     0.148 A 
ATOM     83  C   UNL A   1      47.398  27.731  35.003  1.00  0.00     0.002 A 
ATOM     84  C   UNL A   1      45.990  25.973  35.904  1.00  0.00     0.091 A 
ATOM     85  F   UNL A   1      43.789  25.680  35.029  1.00  0.00    -0.205 F 
ATOM     86  C   UNL A   1      47.215  26.658  35.872  1.00  0.00     0.022 A 
BRANCH  84  87
ATOM     87  S   UNL A   1      45.809  24.662  37.120  1.00  0.00     0.127 S 
ATOM     88  O   UNL A   1      44.591  25.070  37.818  1.00  0.00    -0.237 OA
ATOM     89  O   UNL A   1      45.662  23.473  36.279  1.00  0.00    -0.237 OA
ATOM     90  O   UNL A   1      47.028  24.689  37.918  1.00  0.00    -0.744 OA
ENDBRANCH  84  87
ENDBRANCH  57  80
ENDBRANCH  31  32
ENDBRANCH  24  26
ENDBRANCH  23  24
ENDBRANCH   1  23
TORSDOF 16
ENDMDL
