MODEL 1
REMARK VINA RESULT:     -12.1      0.000      0.000
REMARK SMILES Cc1c(C)c2c(c(C)c1O)CC[C@@](C)(C(=O)OCCOC(=O)c1ccc(-c3c4nc(c(-c5cccc(S(=O)(=O)[O-])c5F)c5ccc([nH]5)c(-c5cccc(S(=O)(=O)[O-])c5F)c5nc(c(-c6cccc(S(=O)(=O)[O-])c6F)c6ccc3[nH]6)C=C5)C=C4)cc1)O2
REMARK SMILES IDX 19 1 18 2 17 3 15 4 16 5 13 6 1 7 2 8 3 9 9 10 4 11 5 12
REMARK SMILES IDX 7 13 6 14 86 15 8 16 11 17 12 18 14 19 10 20 20 22 21 23
REMARK SMILES IDX 22 24 23 25 24 26 85 27 25 28 84 29 26 30 27 31 28 32 78 33
REMARK SMILES IDX 29 34 83 35 77 36 79 37 30 38 82 39 76 40 75 41 31 43 63 44
REMARK SMILES IDX 43 45 62 46 44 47 47 48 61 49 80 50 45 51 46 52 60 54 81 55
REMARK SMILES IDX 48 56 32 57 33 58 41 59 34 60 36 61 42 62 35 63 37 64 38 65
REMARK SMILES IDX 39 66 40 67 64 68 65 69 73 70 66 71 68 72 74 73 67 74 69 75
REMARK SMILES IDX 70 76 71 77 72 78 49 79 50 80 58 81 51 82 53 83 59 84 52 85
REMARK SMILES IDX 54 86 55 87 56 88 57 89
REMARK H PARENT 10 21 79 42 47 53
REMARK Flexibility Score: inf
ROOT
ATOM      1  C   UNL A   1      31.591  29.713  25.857  1.00  0.00     0.275 C 
ENDROOT
BRANCH   1   2
ATOM      2  C   UNL A   1      30.996  29.816  24.453  1.00  0.00     0.274 C 
BRANCH   2   3
ATOM      3  O   UNL A   1      31.049  28.546  23.770  1.00  0.00    -0.459 OA
BRANCH   3   4
ATOM      4  C   UNL A   1      32.257  28.185  23.245  1.00  0.00     0.350 C 
ATOM      5  O   UNL A   1      32.878  28.868  22.439  1.00  0.00    -0.247 OA
BRANCH   4   6
ATOM      6  C   UNL A   1      32.708  26.784  23.724  1.00  0.00     0.203 C 
ATOM      7  C   UNL A   1      29.570  22.542  26.984  1.00  0.00     0.049 C 
ATOM      8  C   UNL A   1      30.627  23.045  26.030  1.00  0.00    -0.002 A 
ATOM      9  C   UNL A   1      30.683  24.425  25.707  1.00  0.00    -0.002 A 
ATOM     10  C   UNL A   1      31.593  22.188  25.472  1.00  0.00     0.122 A 
ATOM     11  C   UNL A   1      29.730  25.386  26.381  1.00  0.00     0.049 C 
ATOM     12  C   UNL A   1      31.624  24.889  24.762  1.00  0.00     0.127 A 
ATOM     13  C   UNL A   1      32.528  22.642  24.528  1.00  0.00    -0.002 A 
ATOM     14  C   UNL A   1      32.498  23.996  24.123  1.00  0.00     0.001 A 
ATOM     15  O   UNL A   1      31.625  26.238  24.501  1.00  0.00    -0.475 OA
ATOM     16  C   UNL A   1      33.543  21.695  23.937  1.00  0.00     0.049 C 
ATOM     17  C   UNL A   1      33.420  24.485  23.038  1.00  0.00     0.044 C 
ATOM     18  C   UNL A   1      33.021  25.864  22.544  1.00  0.00     0.065 C 
ATOM     19  C   UNL A   1      33.907  27.033  24.649  1.00  0.00     0.069 C 
BRANCH  10  20
ATOM     20  O   UNL A   1      31.670  20.866  25.827  1.00  0.00    -0.507 OA
ATOM     21  H   UNL A   1      31.941  20.227  25.196  1.00  0.00     0.293 HD
ENDBRANCH  10  20
ENDBRANCH   4   6
ENDBRANCH   3   4
ENDBRANCH   2   3
ENDBRANCH   1   2
BRANCH   1  22
ATOM     22  O   UNL A   1      32.908  30.284  25.876  1.00  0.00    -0.458 OA
BRANCH  22  23
ATOM     23  C   UNL A   1      33.141  31.206  26.838  1.00  0.00     0.338 C 
ATOM     24  O   UNL A   1      32.398  32.096  27.210  1.00  0.00    -0.246 OA
BRANCH  23  25
ATOM     25  C   UNL A   1      34.448  30.929  27.448  1.00  0.00     0.060 A 
ATOM     26  C   UNL A   1      34.782  29.605  27.720  1.00  0.00     0.016 A 
ATOM     27  C   UNL A   1      35.297  31.966  27.833  1.00  0.00     0.016 A 
ATOM     28  C   UNL A   1      35.948  29.314  28.417  1.00  0.00     0.010 A 
ATOM     29  C   UNL A   1      36.493  31.664  28.500  1.00  0.00     0.010 A 
ATOM     30  C   UNL A   1      36.814  30.334  28.823  1.00  0.00    -0.014 A 
BRANCH  30  31
ATOM     31  C   UNL A   1      37.998  29.989  29.654  1.00  0.00     0.031 A 
ATOM     32  C   UNL A   1      39.091  29.134  29.073  1.00  0.00     0.074 A 
ATOM     33  C   UNL A   1      38.135  30.499  30.893  1.00  0.00     0.049 A 
ATOM     34  N   UNL A   1      40.160  28.655  29.655  1.00  0.00    -0.248 NA
ATOM     35  C   UNL A   1      38.970  28.772  27.651  1.00  0.00     0.031 C 
ATOM     36  C   UNL A   1      37.183  31.398  31.546  1.00  0.00     0.029 A 
ATOM     37  N   UNL A   1      39.137  30.347  31.821  1.00  0.00    -0.354 N 
ATOM     38  C   UNL A   1      40.807  27.892  28.690  1.00  0.00     0.074 A 
ATOM     39  C   UNL A   1      40.016  27.976  27.482  1.00  0.00     0.031 C 
ATOM     40  C   UNL A   1      37.659  31.741  32.753  1.00  0.00     0.029 A 
ATOM     41  C   UNL A   1      38.915  31.034  32.992  1.00  0.00     0.049 A 
ATOM     42  H   UNL A   1      39.939  29.797  31.664  1.00  0.00     0.167 HD
ATOM     43  C   UNL A   1      41.965  27.199  28.796  1.00  0.00     0.034 A 
ATOM     44  C   UNL A   1      39.626  31.074  34.137  1.00  0.00     0.034 A 
ATOM     45  C   UNL A   1      42.785  27.170  29.977  1.00  0.00     0.049 A 
ATOM     46  C   UNL A   1      40.890  30.262  34.241  1.00  0.00     0.074 A 
ATOM     47  C   UNL A   1      43.973  26.490  30.179  1.00  0.00     0.029 A 
ATOM     48  N   UNL A   1      42.515  27.862  31.146  1.00  0.00    -0.354 N 
ATOM     49  N   UNL A   1      41.491  29.551  33.319  1.00  0.00    -0.248 NA
ATOM     50  C   UNL A   1      41.574  30.258  35.543  1.00  0.00     0.031 C 
ATOM     51  C   UNL A   1      44.419  26.766  31.474  1.00  0.00     0.029 A 
ATOM     52  C   UNL A   1      43.513  27.627  32.075  1.00  0.00     0.049 A 
ATOM     53  H   UNL A   1      41.729  28.436  31.294  1.00  0.00     0.167 HD
ATOM     54  C   UNL A   1      42.625  29.021  33.923  1.00  0.00     0.074 A 
ATOM     55  C   UNL A   1      42.647  29.523  35.282  1.00  0.00     0.031 C 
ATOM     56  C   UNL A   1      43.547  28.172  33.409  1.00  0.00     0.034 A 
BRANCH  43  57
ATOM     57  C   UNL A   1      42.436  26.432  27.590  1.00  0.00     0.023 A 
ATOM     58  C   UNL A   1      43.272  27.061  26.648  1.00  0.00     0.012 A 
ATOM     59  C   UNL A   1      42.110  25.071  27.429  1.00  0.00     0.148 A 
ATOM     60  C   UNL A   1      43.763  26.353  25.552  1.00  0.00     0.002 A 
ATOM     61  C   UNL A   1      42.635  24.361  26.354  1.00  0.00     0.091 A 
ATOM     62  F   UNL A   1      41.293  24.498  28.324  1.00  0.00    -0.205 F 
ATOM     63  C   UNL A   1      43.454  25.003  25.411  1.00  0.00     0.022 A 
BRANCH  61  64
ATOM     64  S   UNL A   1      42.353  22.601  26.128  1.00  0.00     0.127 S 
ATOM     65  O   UNL A   1      43.024  22.355  24.852  1.00  0.00    -0.237 OA
ATOM     66  O   UNL A   1      43.029  22.027  27.292  1.00  0.00    -0.237 OA
ATOM     67  O   UNL A   1      40.907  22.425  26.119  1.00  0.00    -0.744 OA
ENDBRANCH  61  64
ENDBRANCH  43  57
BRANCH  44  68
ATOM     68  C   UNL A   1      39.170  31.936  35.266  1.00  0.00     0.023 A 
ATOM     69  C   UNL A   1      38.299  31.400  36.235  1.00  0.00     0.012 A 
ATOM     70  C   UNL A   1      39.629  33.259  35.417  1.00  0.00     0.148 A 
ATOM     71  C   UNL A   1      37.890  32.167  37.326  1.00  0.00     0.002 A 
ATOM     72  C   UNL A   1      39.269  33.996  36.540  1.00  0.00     0.091 A 
ATOM     73  F   UNL A   1      40.429  33.767  34.469  1.00  0.00    -0.205 F 
ATOM     74  C   UNL A   1      38.388  33.457  37.489  1.00  0.00     0.022 A 
BRANCH  72  75
ATOM     75  S   UNL A   1      39.986  35.605  36.899  1.00  0.00     0.127 S 
ATOM     76  O   UNL A   1      39.364  35.931  38.179  1.00  0.00    -0.237 OA
ATOM     77  O   UNL A   1      41.414  35.292  36.971  1.00  0.00    -0.237 OA
ATOM     78  O   UNL A   1      39.616  36.454  35.775  1.00  0.00    -0.744 OA
ENDBRANCH  72  75
ENDBRANCH  44  68
BRANCH  56  79
ATOM     79  C   UNL A   1      44.664  27.716  34.310  1.00  0.00     0.023 A 
ATOM     80  C   UNL A   1      45.829  28.500  34.410  1.00  0.00     0.012 A 
ATOM     81  C   UNL A   1      44.517  26.583  35.135  1.00  0.00     0.148 A 
ATOM     82  C   UNL A   1      46.840  28.156  35.307  1.00  0.00     0.002 A 
ATOM     83  C   UNL A   1      45.510  26.270  36.056  1.00  0.00     0.091 A 
ATOM     84  F   UNL A   1      43.408  25.839  35.010  1.00  0.00    -0.205 F 
ATOM     85  C   UNL A   1      46.674  27.051  36.139  1.00  0.00     0.022 A 
BRANCH  83  86
ATOM     86  S   UNL A   1      45.340  24.922  37.233  1.00  0.00     0.127 S 
ATOM     87  O   UNL A   1      46.604  25.004  37.963  1.00  0.00    -0.237 OA
ATOM     88  O   UNL A   1      44.162  25.326  38.004  1.00  0.00    -0.237 OA
ATOM     89  O   UNL A   1      45.154  23.718  36.435  1.00  0.00    -0.744 OA
ENDBRANCH  83  86
ENDBRANCH  56  79
ENDBRANCH  30  31
ENDBRANCH  23  25
ENDBRANCH  22  23
ENDBRANCH   1  22
TORSDOF 15
ENDMDL
MODEL 2
REMARK VINA RESULT:     -12.0      4.762      9.956
REMARK SMILES Cc1c(C)c2c(c(C)c1O)CC[C@@](C)(C(=O)OCCOC(=O)c1ccc(-c3c4nc(c(-c5cccc(S(=O)(=O)[O-])c5F)c5ccc([nH]5)c(-c5cccc(S(=O)(=O)[O-])c5F)c5nc(c(-c6cccc(S(=O)(=O)[O-])c6F)c6ccc3[nH]6)C=C5)C=C4)cc1)O2
REMARK SMILES IDX 19 1 18 2 17 3 15 4 16 5 13 6 1 7 2 8 3 9 9 10 4 11 5 12
REMARK SMILES IDX 7 13 6 14 86 15 8 16 11 17 12 18 14 19 10 20 20 22 21 23
REMARK SMILES IDX 22 24 23 25 24 26 85 27 25 28 84 29 26 30 27 31 28 32 78 33
REMARK SMILES IDX 29 34 83 35 77 36 79 37 30 38 82 39 76 40 75 41 31 43 63 44
REMARK SMILES IDX 43 45 62 46 44 47 47 48 61 49 80 50 45 51 46 52 60 54 81 55
REMARK SMILES IDX 48 56 32 57 33 58 41 59 34 60 36 61 42 62 35 63 37 64 38 65
REMARK SMILES IDX 39 66 40 67 64 68 65 69 73 70 66 71 68 72 74 73 67 74 69 75
REMARK SMILES IDX 70 76 71 77 72 78 49 79 50 80 58 81 51 82 53 83 59 84 52 85
REMARK SMILES IDX 54 86 55 87 56 88 57 89
REMARK H PARENT 10 21 79 42 47 53
REMARK Flexibility Score: inf
ROOT
ATOM      1  C   UNL A   1      36.362  20.744  24.723  1.00  0.00     0.275 C 
ENDROOT
BRANCH   1   2
ATOM      2  C   UNL A   1      34.985  20.329  25.241  1.00  0.00     0.274 C 
BRANCH   2   3
ATOM      3  O   UNL A   1      34.201  21.480  25.616  1.00  0.00    -0.459 OA
BRANCH   3   4
ATOM      4  C   UNL A   1      33.439  22.045  24.633  1.00  0.00     0.350 C 
ATOM      5  O   UNL A   1      32.706  21.403  23.889  1.00  0.00    -0.247 OA
BRANCH   4   6
ATOM      6  C   UNL A   1      33.671  23.570  24.516  1.00  0.00     0.203 C 
ATOM      7  C   UNL A   1      29.571  28.106  23.476  1.00  0.00     0.049 C 
ATOM      8  C   UNL A   1      30.861  27.499  23.974  1.00  0.00    -0.002 A 
ATOM      9  C   UNL A   1      31.077  26.104  23.842  1.00  0.00    -0.002 A 
ATOM     10  C   UNL A   1      31.881  28.284  24.539  1.00  0.00     0.122 A 
ATOM     11  C   UNL A   1      30.046  25.254  23.136  1.00  0.00     0.049 C 
ATOM     12  C   UNL A   1      32.251  25.522  24.369  1.00  0.00     0.127 A 
ATOM     13  C   UNL A   1      33.049  27.710  25.070  1.00  0.00    -0.002 A 
ATOM     14  C   UNL A   1      33.201  26.306  25.040  1.00  0.00     0.001 A 
ATOM     15  O   UNL A   1      32.398  24.166  24.201  1.00  0.00    -0.475 OA
ATOM     16  C   UNL A   1      34.121  28.579  25.681  1.00  0.00     0.049 C 
ATOM     17  C   UNL A   1      34.393  25.658  25.693  1.00  0.00     0.044 C 
ATOM     18  C   UNL A   1      34.213  24.155  25.820  1.00  0.00     0.065 C 
ATOM     19  C   UNL A   1      34.614  23.751  23.318  1.00  0.00     0.069 C 
BRANCH  10  20
ATOM     20  O   UNL A   1      31.789  29.651  24.595  1.00  0.00    -0.507 OA
ATOM     21  H   UNL A   1      31.423  30.065  25.352  1.00  0.00     0.293 HD
ENDBRANCH  10  20
ENDBRANCH   4   6
ENDBRANCH   3   4
ENDBRANCH   2   3
ENDBRANCH   1   2
BRANCH   1  22
ATOM     22  O   UNL A   1      37.053  21.511  25.721  1.00  0.00    -0.458 OA
BRANCH  22  23
ATOM     23  C   UNL A   1      38.371  21.242  25.868  1.00  0.00     0.338 C 
ATOM     24  O   UNL A   1      38.963  20.227  25.549  1.00  0.00    -0.246 OA
BRANCH  23  25
ATOM     25  C   UNL A   1      39.032  22.429  26.427  1.00  0.00     0.060 A 
ATOM     26  C   UNL A   1      38.513  23.682  26.116  1.00  0.00     0.016 A 
ATOM     27  C   UNL A   1      40.206  22.315  27.171  1.00  0.00     0.016 A 
ATOM     28  C   UNL A   1      39.187  24.830  26.513  1.00  0.00     0.010 A 
ATOM     29  C   UNL A   1      40.860  23.476  27.606  1.00  0.00     0.010 A 
ATOM     30  C   UNL A   1      40.370  24.745  27.254  1.00  0.00    -0.014 A 
BRANCH  30  31
ATOM     31  C   UNL A   1      41.113  25.994  27.572  1.00  0.00     0.031 A 
ATOM     32  C   UNL A   1      40.467  27.048  28.429  1.00  0.00     0.074 A 
ATOM     33  C   UNL A   1      42.388  26.152  27.164  1.00  0.00     0.049 A 
ATOM     34  N   UNL A   1      40.912  28.235  28.752  1.00  0.00    -0.248 NA
ATOM     35  C   UNL A   1      39.149  26.726  29.001  1.00  0.00     0.031 C 
ATOM     36  C   UNL A   1      43.153  25.176  26.389  1.00  0.00     0.029 A 
ATOM     37  N   UNL A   1      43.270  27.188  27.356  1.00  0.00    -0.354 N 
ATOM     38  C   UNL A   1      39.909  28.821  29.515  1.00  0.00     0.074 A 
ATOM     39  C   UNL A   1      38.834  27.858  29.614  1.00  0.00     0.031 C 
ATOM     40  C   UNL A   1      44.397  25.644  26.198  1.00  0.00     0.029 A 
ATOM     41  C   UNL A   1      44.500  26.982  26.775  1.00  0.00     0.049 A 
ATOM     42  H   UNL A   1      43.044  28.002  27.863  1.00  0.00     0.167 HD
ATOM     43  C   UNL A   1      39.893  30.043  30.096  1.00  0.00     0.034 A 
ATOM     44  C   UNL A   1      45.579  27.785  26.692  1.00  0.00     0.034 A 
ATOM     45  C   UNL A   1      40.989  30.973  30.053  1.00  0.00     0.049 A 
ATOM     46  C   UNL A   1      45.520  29.155  27.313  1.00  0.00     0.074 A 
ATOM     47  C   UNL A   1      41.061  32.239  30.607  1.00  0.00     0.029 A 
ATOM     48  N   UNL A   1      42.207  30.735  29.437  1.00  0.00    -0.354 N 
ATOM     49  N   UNL A   1      44.567  29.692  28.036  1.00  0.00    -0.248 NA
ATOM     50  C   UNL A   1      46.683  30.031  27.108  1.00  0.00     0.031 C 
ATOM     51  C   UNL A   1      42.323  32.769  30.322  1.00  0.00     0.029 A 
ATOM     52  C   UNL A   1      43.039  31.829  29.598  1.00  0.00     0.049 A 
ATOM     53  H   UNL A   1      42.445  29.909  28.956  1.00  0.00     0.167 HD
ATOM     54  C   UNL A   1      45.016  30.962  28.379  1.00  0.00     0.074 A 
ATOM     55  C   UNL A   1      46.344  31.102  27.814  1.00  0.00     0.031 C 
ATOM     56  C   UNL A   1      44.376  31.935  29.071  1.00  0.00     0.034 A 
BRANCH  43  57
ATOM     57  C   UNL A   1      38.659  30.441  30.858  1.00  0.00     0.023 A 
ATOM     58  C   UNL A   1      38.567  30.155  32.234  1.00  0.00     0.012 A 
ATOM     59  C   UNL A   1      37.624  31.160  30.229  1.00  0.00     0.148 A 
ATOM     60  C   UNL A   1      37.456  30.562  32.970  1.00  0.00     0.002 A 
ATOM     61  C   UNL A   1      36.536  31.597  30.978  1.00  0.00     0.091 A 
ATOM     62  F   UNL A   1      37.719  31.401  28.913  1.00  0.00    -0.205 F 
ATOM     63  C   UNL A   1      36.447  31.292  32.346  1.00  0.00     0.022 A 
BRANCH  61  64
ATOM     64  S   UNL A   1      35.223  32.605  30.279  1.00  0.00     0.127 S 
ATOM     65  O   UNL A   1      34.753  31.759  29.183  1.00  0.00    -0.237 OA
ATOM     66  O   UNL A   1      34.291  32.721  31.401  1.00  0.00    -0.237 OA
ATOM     67  O   UNL A   1      35.849  33.857  29.879  1.00  0.00    -0.744 OA
ENDBRANCH  61  64
ENDBRANCH  43  57
BRANCH  44  68
ATOM     68  C   UNL A   1      46.817  27.300  26.016  1.00  0.00     0.023 A 
ATOM     69  C   UNL A   1      47.021  27.596  24.654  1.00  0.00     0.012 A 
ATOM     70  C   UNL A   1      47.815  26.596  26.720  1.00  0.00     0.148 A 
ATOM     71  C   UNL A   1      48.190  27.194  24.006  1.00  0.00     0.002 A 
ATOM     72  C   UNL A   1      49.004  26.254  26.084  1.00  0.00     0.091 A 
ATOM     73  F   UNL A   1      47.591  26.290  28.005  1.00  0.00    -0.205 F 
ATOM     74  C   UNL A   1      49.188  26.540  24.723  1.00  0.00     0.022 A 
BRANCH  72  75
ATOM     75  S   UNL A   1      50.395  25.547  26.975  1.00  0.00     0.127 S 
ATOM     76  O   UNL A   1      51.368  25.349  25.904  1.00  0.00    -0.237 OA
ATOM     77  O   UNL A   1      50.728  26.616  27.918  1.00  0.00    -0.237 OA
ATOM     78  O   UNL A   1      49.881  24.337  27.601  1.00  0.00    -0.744 OA
ENDBRANCH  72  75
ENDBRANCH  44  68
BRANCH  56  79
ATOM     79  C   UNL A   1      45.087  33.249  29.261  1.00  0.00     0.023 A 
ATOM     80  C   UNL A   1      45.932  33.417  30.375  1.00  0.00     0.012 A 
ATOM     81  C   UNL A   1      45.011  34.265  28.288  1.00  0.00     0.148 A 
ATOM     82  C   UNL A   1      46.679  34.585  30.528  1.00  0.00     0.002 A 
ATOM     83  C   UNL A   1      45.790  35.408  28.427  1.00  0.00     0.091 A 
ATOM     84  F   UNL A   1      44.186  34.093  27.245  1.00  0.00    -0.205 F 
ATOM     85  C   UNL A   1      46.619  35.573  29.548  1.00  0.00     0.022 A 
BRANCH  83  86
ATOM     86  S   UNL A   1      45.849  36.690  27.167  1.00  0.00     0.127 S 
ATOM     87  O   UNL A   1      44.457  37.135  27.130  1.00  0.00    -0.237 OA
ATOM     88  O   UNL A   1      46.784  37.656  27.745  1.00  0.00    -0.237 OA
ATOM     89  O   UNL A   1      46.329  36.037  25.956  1.00  0.00    -0.744 OA
ENDBRANCH  83  86
ENDBRANCH  56  79
ENDBRANCH  30  31
ENDBRANCH  23  25
ENDBRANCH  22  23
ENDBRANCH   1  22
TORSDOF 15
ENDMDL
MODEL 3
REMARK VINA RESULT:     -12.0      1.118      2.100
REMARK SMILES Cc1c(C)c2c(c(C)c1O)CC[C@@](C)(C(=O)OCCOC(=O)c1ccc(-c3c4nc(c(-c5cccc(S(=O)(=O)[O-])c5F)c5ccc([nH]5)c(-c5cccc(S(=O)(=O)[O-])c5F)c5nc(c(-c6cccc(S(=O)(=O)[O-])c6F)c6ccc3[nH]6)C=C5)C=C4)cc1)O2
REMARK SMILES IDX 19 1 18 2 17 3 15 4 16 5 13 6 1 7 2 8 3 9 9 10 4 11 5 12
REMARK SMILES IDX 7 13 6 14 86 15 8 16 11 17 12 18 14 19 10 20 20 22 21 23
REMARK SMILES IDX 22 24 23 25 24 26 85 27 25 28 84 29 26 30 27 31 28 32 78 33
REMARK SMILES IDX 29 34 83 35 77 36 79 37 30 38 82 39 76 40 75 41 31 43 63 44
REMARK SMILES IDX 43 45 62 46 44 47 47 48 61 49 80 50 45 51 46 52 60 54 81 55
REMARK SMILES IDX 48 56 32 57 33 58 41 59 34 60 36 61 42 62 35 63 37 64 38 65
REMARK SMILES IDX 39 66 40 67 64 68 65 69 73 70 66 71 68 72 74 73 67 74 69 75
REMARK SMILES IDX 70 76 71 77 72 78 49 79 50 80 58 81 51 82 53 83 59 84 52 85
REMARK SMILES IDX 54 86 55 87 56 88 57 89
REMARK H PARENT 10 21 79 42 47 53
REMARK Flexibility Score: inf
ROOT
ATOM      1  C   UNL A   1      32.306  29.602  25.273  1.00  0.00     0.275 C 
ENDROOT
BRANCH   1   2
ATOM      2  C   UNL A   1      31.396  28.406  24.997  1.00  0.00     0.274 C 
BRANCH   2   3
ATOM      3  O   UNL A   1      32.157  27.186  24.889  1.00  0.00    -0.459 OA
BRANCH   3   4
ATOM      4  C   UNL A   1      31.882  26.212  25.807  1.00  0.00     0.350 C 
ATOM      5  O   UNL A   1      31.540  26.443  26.961  1.00  0.00    -0.247 OA
BRANCH   4   6
ATOM      6  C   UNL A   1      32.129  24.792  25.244  1.00  0.00     0.203 C 
ATOM      7  C   UNL A   1      37.289  21.352  25.375  1.00  0.00     0.049 C 
ATOM      8  C   UNL A   1      35.803  21.609  25.290  1.00  0.00    -0.002 A 
ATOM      9  C   UNL A   1      35.313  22.936  25.390  1.00  0.00    -0.002 A 
ATOM     10  C   UNL A   1      34.881  20.570  25.075  1.00  0.00     0.122 A 
ATOM     11  C   UNL A   1      36.290  24.083  25.507  1.00  0.00     0.049 C 
ATOM     12  C   UNL A   1      33.921  23.174  25.382  1.00  0.00     0.127 A 
ATOM     13  C   UNL A   1      33.495  20.799  25.070  1.00  0.00    -0.002 A 
ATOM     14  C   UNL A   1      33.012  22.109  25.290  1.00  0.00     0.001 A 
ATOM     15  O   UNL A   1      33.517  24.484  25.477  1.00  0.00    -0.475 OA
ATOM     16  C   UNL A   1      32.529  19.660  24.850  1.00  0.00     0.049 C 
ATOM     17  C   UNL A   1      31.532  22.365  25.393  1.00  0.00     0.044 C 
ATOM     18  C   UNL A   1      31.241  23.754  25.932  1.00  0.00     0.065 C 
ATOM     19  C   UNL A   1      31.892  24.902  23.732  1.00  0.00     0.069 C 
BRANCH  10  20
ATOM     20  O   UNL A   1      35.290  19.280  24.855  1.00  0.00    -0.507 OA
ATOM     21  H   UNL A   1      35.528  18.734  25.579  1.00  0.00     0.293 HD
ENDBRANCH  10  20
ENDBRANCH   4   6
ENDBRANCH   3   4
ENDBRANCH   2   3
ENDBRANCH   1   2
BRANCH   1  22
ATOM     22  O   UNL A   1      32.209  29.986  26.653  1.00  0.00    -0.458 OA
BRANCH  22  23
ATOM     23  C   UNL A   1      32.780  31.167  26.982  1.00  0.00     0.338 C 
ATOM     24  O   UNL A   1      32.295  32.280  26.886  1.00  0.00    -0.246 OA
BRANCH  23  25
ATOM     25  C   UNL A   1      34.103  30.904  27.563  1.00  0.00     0.060 A 
ATOM     26  C   UNL A   1      34.463  29.583  27.813  1.00  0.00     0.016 A 
ATOM     27  C   UNL A   1      34.942  31.950  27.945  1.00  0.00     0.016 A 
ATOM     28  C   UNL A   1      35.646  29.302  28.485  1.00  0.00     0.010 A 
ATOM     29  C   UNL A   1      36.156  31.659  28.585  1.00  0.00     0.010 A 
ATOM     30  C   UNL A   1      36.503  30.331  28.886  1.00  0.00    -0.014 A 
BRANCH  30  31
ATOM     31  C   UNL A   1      37.709  29.995  29.690  1.00  0.00     0.031 A 
ATOM     32  C   UNL A   1      38.783  29.126  29.095  1.00  0.00     0.074 A 
ATOM     33  C   UNL A   1      37.882  30.527  30.917  1.00  0.00     0.049 A 
ATOM     34  N   UNL A   1      39.865  28.652  29.656  1.00  0.00    -0.248 NA
ATOM     35  C   UNL A   1      38.621  28.740  27.683  1.00  0.00     0.031 C 
ATOM     36  C   UNL A   1      36.951  31.440  31.579  1.00  0.00     0.029 A 
ATOM     37  N   UNL A   1      38.908  30.386  31.820  1.00  0.00    -0.354 N 
ATOM     38  C   UNL A   1      40.483  27.870  28.687  1.00  0.00     0.074 A 
ATOM     39  C   UNL A   1      39.659  27.937  27.499  1.00  0.00     0.031 C 
ATOM     40  C   UNL A   1      37.462  31.802  32.767  1.00  0.00     0.029 A 
ATOM     41  C   UNL A   1      38.721  31.094  32.983  1.00  0.00     0.049 A 
ATOM     42  H   UNL A   1      39.703  29.830  31.650  1.00  0.00     0.167 HD
ATOM     43  C   UNL A   1      41.640  27.175  28.773  1.00  0.00     0.034 A 
ATOM     44  C   UNL A   1      39.463  31.151  34.108  1.00  0.00     0.034 A 
ATOM     45  C   UNL A   1      42.492  27.162  29.931  1.00  0.00     0.049 A 
ATOM     46  C   UNL A   1      40.726  30.335  34.191  1.00  0.00     0.074 A 
ATOM     47  C   UNL A   1      43.683  26.482  30.113  1.00  0.00     0.029 A 
ATOM     48  N   UNL A   1      42.257  27.876  31.095  1.00  0.00    -0.354 N 
ATOM     49  N   UNL A   1      41.299  29.606  33.265  1.00  0.00    -0.248 NA
ATOM     50  C   UNL A   1      41.446  30.351  35.474  1.00  0.00     0.031 C 
ATOM     51  C   UNL A   1      44.165  26.778  31.391  1.00  0.00     0.029 A 
ATOM     52  C   UNL A   1      43.280  27.652  32.001  1.00  0.00     0.049 A 
ATOM     53  H   UNL A   1      41.477  28.456  31.255  1.00  0.00     0.167 HD
ATOM     54  C   UNL A   1      42.447  29.082  33.847  1.00  0.00     0.074 A 
ATOM     55  C   UNL A   1      42.509  29.607  35.197  1.00  0.00     0.031 C 
ATOM     56  C   UNL A   1      43.352  28.220  33.323  1.00  0.00     0.034 A 
BRANCH  43  57
ATOM     57  C   UNL A   1      42.076  26.385  27.569  1.00  0.00     0.023 A 
ATOM     58  C   UNL A   1      42.835  27.013  26.562  1.00  0.00     0.012 A 
ATOM     59  C   UNL A   1      41.794  25.008  27.468  1.00  0.00     0.148 A 
ATOM     60  C   UNL A   1      43.294  26.286  25.464  1.00  0.00     0.002 A 
ATOM     61  C   UNL A   1      42.287  24.282  26.390  1.00  0.00     0.091 A 
ATOM     62  F   UNL A   1      41.049  24.436  28.425  1.00  0.00    -0.205 F 
ATOM     63  C   UNL A   1      43.030  24.921  25.384  1.00  0.00     0.022 A 
BRANCH  61  64
ATOM     64  S   UNL A   1      42.062  22.506  26.236  1.00  0.00     0.127 S 
ATOM     65  O   UNL A   1      40.607  22.401  26.134  1.00  0.00    -0.237 OA
ATOM     66  O   UNL A   1      42.783  22.209  24.998  1.00  0.00    -0.237 OA
ATOM     67  O   UNL A   1      42.649  21.923  27.434  1.00  0.00    -0.744 OA
ENDBRANCH  61  64
ENDBRANCH  43  57
BRANCH  44  68
ATOM     68  C   UNL A   1      39.041  32.034  35.234  1.00  0.00     0.023 A 
ATOM     69  C   UNL A   1      38.156  31.533  36.209  1.00  0.00     0.012 A 
ATOM     70  C   UNL A   1      39.546  33.341  35.376  1.00  0.00     0.148 A 
ATOM     71  C   UNL A   1      37.778  32.320  37.298  1.00  0.00     0.002 A 
ATOM     72  C   UNL A   1      39.216  34.096  36.497  1.00  0.00     0.091 A 
ATOM     73  F   UNL A   1      40.359  33.816  34.422  1.00  0.00    -0.205 F 
ATOM     74  C   UNL A   1      38.321  33.593  37.452  1.00  0.00     0.022 A 
BRANCH  72  75
ATOM     75  S   UNL A   1      39.989  35.681  36.844  1.00  0.00     0.127 S 
ATOM     76  O   UNL A   1      41.397  35.309  36.955  1.00  0.00    -0.237 OA
ATOM     77  O   UNL A   1      39.650  36.454  35.648  1.00  0.00    -0.237 OA
ATOM     78  O   UNL A   1      39.359  36.162  38.065  1.00  0.00    -0.744 OA
ENDBRANCH  72  75
ENDBRANCH  44  68
BRANCH  56  79
ATOM     79  C   UNL A   1      44.492  27.775  34.201  1.00  0.00     0.023 A 
ATOM     80  C   UNL A   1      45.683  28.526  34.214  1.00  0.00     0.012 A 
ATOM     81  C   UNL A   1      44.345  26.691  35.090  1.00  0.00     0.148 A 
ATOM     82  C   UNL A   1      46.719  28.196  35.087  1.00  0.00     0.002 A 
ATOM     83  C   UNL A   1      45.366  26.394  35.984  1.00  0.00     0.091 A 
ATOM     84  F   UNL A   1      43.211  25.977  35.047  1.00  0.00    -0.205 F 
ATOM     85  C   UNL A   1      46.556  27.141  35.980  1.00  0.00     0.022 A 
BRANCH  83  86
ATOM     86  S   UNL A   1      45.205  25.113  37.236  1.00  0.00     0.127 S 
ATOM     87  O   UNL A   1      45.017  23.918  36.415  1.00  0.00    -0.237 OA
ATOM     88  O   UNL A   1      46.495  25.183  37.924  1.00  0.00    -0.237 OA
ATOM     89  O   UNL A   1      44.063  25.497  38.054  1.00  0.00    -0.744 OA
ENDBRANCH  83  86
ENDBRANCH  56  79
ENDBRANCH  30  31
ENDBRANCH  23  25
ENDBRANCH  22  23
ENDBRANCH   1  22
TORSDOF 15
ENDMDL
