MODEL 1
REMARK VINA RESULT:     -11.6      0.000      0.000
REMARK SMILES O=C(Cc1cccc(-c2ccn(C(F)F)c(=O)c2)c1)OCCOC(=O)c1ccc(-c2c3nc(c(-c4cccc(S(=O)(=O)[O-])c4F)c4ccc([nH]4)c(-c4cccc(S(=O)(=O)[O-])c4F)c4nc(c(-c5cccc(S(=O)(=O)[O-])c5F)c5ccc2[nH]5)C=C4)C=C3)cc1
REMARK SMILES IDX 21 1 20 2 2 3 1 4 3 5 4 6 5 7 19 8 6 9 8 10 7 11 9 12 10 13
REMARK SMILES IDX 18 14 11 15 16 16 12 17 17 18 13 19 14 20 15 21 22 22 23 23
REMARK SMILES IDX 24 24 25 25 26 26 27 27 88 28 28 29 87 30 29 31 30 32 31 33
REMARK SMILES IDX 81 34 32 35 86 36 80 37 82 38 33 39 85 40 79 41 78 42 34 44
REMARK SMILES IDX 66 45 46 46 65 47 47 48 50 49 64 50 83 51 48 52 49 53 63 55
REMARK SMILES IDX 84 56 51 57 35 58 36 59 44 60 37 61 39 62 45 63 38 64 40 65
REMARK SMILES IDX 41 66 42 67 43 68 67 69 68 70 76 71 69 72 71 73 77 74 70 75
REMARK SMILES IDX 72 76 73 77 74 78 75 79 52 80 53 81 61 82 54 83 56 84 62 85
REMARK SMILES IDX 55 86 57 87 58 88 59 89 60 90
REMARK H PARENT 82 43 50 54
REMARK Flexibility Score: inf
ROOT
ATOM      1  C   UNL A   1      31.390  29.745  25.093  1.00  0.00     0.274 C 
ENDROOT
BRANCH   1   2
ATOM      2  O   UNL A   1      31.037  28.430  25.571  1.00  0.00    -0.462 OA
BRANCH   2   3
ATOM      3  C   UNL A   1      31.848  27.615  26.288  1.00  0.00     0.310 C 
ATOM      4  O   UNL A   1      31.436  27.118  27.336  1.00  0.00    -0.252 OA
BRANCH   3   5
ATOM      5  C   UNL A   1      33.236  27.302  25.769  1.00  0.00     0.158 C 
BRANCH   5   6
ATOM      6  C   UNL A   1      33.248  26.512  24.492  1.00  0.00    -0.036 A 
ATOM      7  C   UNL A   1      33.227  27.139  23.242  1.00  0.00     0.004 A 
ATOM      8  C   UNL A   1      33.329  25.120  24.549  1.00  0.00     0.013 A 
ATOM      9  C   UNL A   1      33.244  26.379  22.072  1.00  0.00     0.001 A 
ATOM     10  C   UNL A   1      33.348  24.349  23.383  1.00  0.00    -0.018 A 
ATOM     11  C   UNL A   1      33.299  24.985  22.139  1.00  0.00     0.009 A 
BRANCH  10  12
ATOM     12  C   UNL A   1      33.436  22.890  23.547  1.00  0.00    -0.011 A 
ATOM     13  C   UNL A   1      32.363  22.014  23.118  1.00  0.00     0.027 A 
ATOM     14  C   UNL A   1      34.454  22.387  24.266  1.00  0.00     0.080 A 
ATOM     15  C   UNL A   1      32.326  20.742  23.525  1.00  0.00     0.095 A 
ATOM     16  C   UNL A   1      34.462  20.950  24.659  1.00  0.00     0.255 A 
ATOM     17  N   UNL A   1      33.338  20.219  24.305  1.00  0.00    -0.258 N 
ATOM     18  O   UNL A   1      35.423  20.508  25.279  1.00  0.00    -0.269 OA
BRANCH  17  19
ATOM     19  C   UNL A   1      33.255  18.872  24.798  1.00  0.00     0.451 C 
ATOM     20  F   UNL A   1      32.763  18.835  26.060  1.00  0.00    -0.185 F 
ATOM     21  F   UNL A   1      32.463  18.105  24.012  1.00  0.00    -0.185 F 
ENDBRANCH  17  19
ENDBRANCH  10  12
ENDBRANCH   5   6
ENDBRANCH   3   5
ENDBRANCH   2   3
ENDBRANCH   1   2
BRANCH   1  22
ATOM     22  C   UNL A   1      31.740  30.684  26.248  1.00  0.00     0.275 C 
BRANCH  22  23
ATOM     23  O   UNL A   1      33.167  30.837  26.343  1.00  0.00    -0.458 OA
BRANCH  23  24
ATOM     24  C   UNL A   1      33.606  31.750  27.248  1.00  0.00     0.338 C 
ATOM     25  O   UNL A   1      33.000  32.731  27.638  1.00  0.00    -0.246 OA
BRANCH  24  26
ATOM     26  C   UNL A   1      34.860  31.249  27.863  1.00  0.00     0.060 A 
ATOM     27  C   UNL A   1      35.004  29.865  28.030  1.00  0.00     0.016 A 
ATOM     28  C   UNL A   1      35.909  32.109  28.206  1.00  0.00     0.016 A 
ATOM     29  C   UNL A   1      36.183  29.342  28.568  1.00  0.00     0.010 A 
ATOM     30  C   UNL A   1      37.087  31.583  28.745  1.00  0.00     0.010 A 
ATOM     31  C   UNL A   1      37.220  30.201  28.955  1.00  0.00    -0.014 A 
BRANCH  31  32
ATOM     32  C   UNL A   1      38.371  29.683  29.731  1.00  0.00     0.031 A 
ATOM     33  C   UNL A   1      38.587  30.205  31.125  1.00  0.00     0.074 A 
ATOM     34  C   UNL A   1      39.241  28.802  29.202  1.00  0.00     0.049 A 
ATOM     35  N   UNL A   1      39.525  29.910  31.985  1.00  0.00    -0.248 NA
ATOM     36  C   UNL A   1      37.618  31.202  31.610  1.00  0.00     0.031 C 
ATOM     37  C   UNL A   1      39.168  28.244  27.854  1.00  0.00     0.029 A 
ATOM     38  N   UNL A   1      40.380  28.252  29.736  1.00  0.00    -0.354 N 
ATOM     39  C   UNL A   1      39.271  30.690  33.104  1.00  0.00     0.074 A 
ATOM     40  C   UNL A   1      38.103  31.489  32.808  1.00  0.00     0.031 C 
ATOM     41  C   UNL A   1      40.240  27.457  27.653  1.00  0.00     0.029 A 
ATOM     42  C   UNL A   1      41.076  27.461  28.853  1.00  0.00     0.049 A 
ATOM     43  H   UNL A   1      40.672  28.409  30.663  1.00  0.00     0.167 HD
ATOM     44  C   UNL A   1      39.932  30.725  34.284  1.00  0.00     0.034 A 
ATOM     45  C   UNL A   1      42.257  26.824  28.995  1.00  0.00     0.034 A 
ATOM     46  C   UNL A   1      41.085  29.925  34.591  1.00  0.00     0.049 A 
ATOM     47  C   UNL A   1      42.984  26.888  30.315  1.00  0.00     0.074 A 
ATOM     48  C   UNL A   1      41.782  29.845  35.784  1.00  0.00     0.029 A 
ATOM     49  N   UNL A   1      41.724  29.083  33.696  1.00  0.00    -0.354 N 
ATOM     50  N   UNL A   1      42.634  27.493  31.425  1.00  0.00    -0.248 NA
ATOM     51  C   UNL A   1      44.254  26.151  30.415  1.00  0.00     0.031 C 
ATOM     52  C   UNL A   1      42.855  28.967  35.602  1.00  0.00     0.029 A 
ATOM     53  C   UNL A   1      42.817  28.490  34.302  1.00  0.00     0.049 A 
ATOM     54  H   UNL A   1      41.440  28.930  32.765  1.00  0.00     0.167 HD
ATOM     55  C   UNL A   1      43.616  27.180  32.360  1.00  0.00     0.074 A 
ATOM     56  C   UNL A   1      44.568  26.318  31.693  1.00  0.00     0.031 C 
ATOM     57  C   UNL A   1      43.726  27.583  33.650  1.00  0.00     0.034 A 
BRANCH  44  58
ATOM     58  C   UNL A   1      39.389  31.633  35.350  1.00  0.00     0.023 A 
ATOM     59  C   UNL A   1      38.421  31.140  36.248  1.00  0.00     0.012 A 
ATOM     60  C   UNL A   1      39.855  32.953  35.487  1.00  0.00     0.148 A 
ATOM     61  C   UNL A   1      37.904  31.957  37.251  1.00  0.00     0.002 A 
ATOM     62  C   UNL A   1      39.361  33.751  36.513  1.00  0.00     0.091 A 
ATOM     63  F   UNL A   1      40.752  33.413  34.602  1.00  0.00    -0.205 F 
ATOM     64  C   UNL A   1      38.381  33.258  37.390  1.00  0.00     0.022 A 
BRANCH  62  65
ATOM     65  S   UNL A   1      39.961  35.418  36.805  1.00  0.00     0.127 S 
ATOM     66  O   UNL A   1      39.221  35.790  38.011  1.00  0.00    -0.237 OA
ATOM     67  O   UNL A   1      41.393  35.203  37.012  1.00  0.00    -0.237 OA
ATOM     68  O   UNL A   1      39.632  36.175  35.606  1.00  0.00    -0.744 OA
ENDBRANCH  62  65
ENDBRANCH  44  58
BRANCH  45  69
ATOM     69  C   UNL A   1      42.813  26.028  27.866  1.00  0.00     0.023 A 
ATOM     70  C   UNL A   1      43.813  26.587  27.047  1.00  0.00     0.012 A 
ATOM     71  C   UNL A   1      42.356  24.722  27.599  1.00  0.00     0.148 A 
ATOM     72  C   UNL A   1      44.330  25.872  25.967  1.00  0.00     0.002 A 
ATOM     73  C   UNL A   1      42.909  23.996  26.550  1.00  0.00     0.091 A 
ATOM     74  F   UNL A   1      41.388  24.216  28.375  1.00  0.00    -0.205 F 
ATOM     75  C   UNL A   1      43.886  24.574  25.724  1.00  0.00     0.022 A 
BRANCH  73  76
ATOM     76  S   UNL A   1      42.469  22.284  26.231  1.00  0.00     0.127 S 
ATOM     77  O   UNL A   1      42.956  21.620  27.437  1.00  0.00    -0.237 OA
ATOM     78  O   UNL A   1      41.013  22.359  26.112  1.00  0.00    -0.237 OA
ATOM     79  O   UNL A   1      43.152  21.930  24.993  1.00  0.00    -0.744 OA
ENDBRANCH  73  76
ENDBRANCH  45  69
BRANCH  57  80
ATOM     80  C   UNL A   1      44.901  27.085  34.453  1.00  0.00     0.023 A 
ATOM     81  C   UNL A   1      46.110  27.808  34.439  1.00  0.00     0.012 A 
ATOM     82  C   UNL A   1      44.775  25.967  35.300  1.00  0.00     0.148 A 
ATOM     83  C   UNL A   1      47.181  27.414  35.239  1.00  0.00     0.002 A 
ATOM     84  C   UNL A   1      45.832  25.604  36.128  1.00  0.00     0.091 A 
ATOM     85  F   UNL A   1      43.623  25.280  35.286  1.00  0.00    -0.205 F 
ATOM     86  C   UNL A   1      47.039  26.321  36.092  1.00  0.00     0.022 A 
BRANCH  84  87
ATOM     87  S   UNL A   1      45.701  24.273  37.328  1.00  0.00     0.127 S 
ATOM     88  O   UNL A   1      44.629  24.758  38.195  1.00  0.00    -0.237 OA
ATOM     89  O   UNL A   1      45.338  23.129  36.491  1.00  0.00    -0.237 OA
ATOM     90  O   UNL A   1      47.014  24.168  37.952  1.00  0.00    -0.744 OA
ENDBRANCH  84  87
ENDBRANCH  57  80
ENDBRANCH  31  32
ENDBRANCH  24  26
ENDBRANCH  23  24
ENDBRANCH  22  23
ENDBRANCH   1  22
TORSDOF 17
ENDMDL
MODEL 2
REMARK VINA RESULT:     -11.5      4.167      8.062
REMARK SMILES O=C(Cc1cccc(-c2ccn(C(F)F)c(=O)c2)c1)OCCOC(=O)c1ccc(-c2c3nc(c(-c4cccc(S(=O)(=O)[O-])c4F)c4ccc([nH]4)c(-c4cccc(S(=O)(=O)[O-])c4F)c4nc(c(-c5cccc(S(=O)(=O)[O-])c5F)c5ccc2[nH]5)C=C4)C=C3)cc1
REMARK SMILES IDX 21 1 20 2 2 3 1 4 3 5 4 6 5 7 19 8 6 9 8 10 7 11 9 12 10 13
REMARK SMILES IDX 18 14 11 15 16 16 12 17 17 18 13 19 14 20 15 21 22 22 23 23
REMARK SMILES IDX 24 24 25 25 26 26 27 27 88 28 28 29 87 30 29 31 30 32 31 33
REMARK SMILES IDX 81 34 32 35 86 36 80 37 82 38 33 39 85 40 79 41 78 42 34 44
REMARK SMILES IDX 66 45 46 46 65 47 47 48 50 49 64 50 83 51 48 52 49 53 63 55
REMARK SMILES IDX 84 56 51 57 35 58 36 59 44 60 37 61 39 62 45 63 38 64 40 65
REMARK SMILES IDX 41 66 42 67 43 68 67 69 68 70 76 71 69 72 71 73 77 74 70 75
REMARK SMILES IDX 72 76 73 77 74 78 75 79 52 80 53 81 61 82 54 83 56 84 62 85
REMARK SMILES IDX 55 86 57 87 58 88 59 89 60 90
REMARK H PARENT 82 43 50 54
REMARK Flexibility Score: inf
ROOT
ATOM      1  C   UNL A   1      34.138  34.693  29.092  1.00  0.00     0.274 C 
ENDROOT
BRANCH   1   2
ATOM      2  O   UNL A   1      33.712  34.072  30.323  1.00  0.00    -0.462 OA
BRANCH   2   3
ATOM      3  C   UNL A   1      34.452  33.993  31.456  1.00  0.00     0.310 C 
ATOM      4  O   UNL A   1      34.205  34.750  32.395  1.00  0.00    -0.252 OA
BRANCH   3   5
ATOM      5  C   UNL A   1      35.547  32.952  31.560  1.00  0.00     0.158 C 
BRANCH   5   6
ATOM      6  C   UNL A   1      36.793  33.442  32.239  1.00  0.00    -0.036 A 
ATOM      7  C   UNL A   1      37.835  34.036  31.518  1.00  0.00     0.004 A 
ATOM      8  C   UNL A   1      36.899  33.348  33.626  1.00  0.00     0.013 A 
ATOM      9  C   UNL A   1      38.980  34.486  32.175  1.00  0.00     0.001 A 
ATOM     10  C   UNL A   1      38.042  33.798  34.296  1.00  0.00    -0.018 A 
ATOM     11  C   UNL A   1      39.088  34.364  33.563  1.00  0.00     0.009 A 
BRANCH  10  12
ATOM     12  C   UNL A   1      38.058  33.655  35.760  1.00  0.00    -0.011 A 
ATOM     13  C   UNL A   1      38.685  34.648  36.610  1.00  0.00     0.027 A 
ATOM     14  C   UNL A   1      37.637  32.497  36.296  1.00  0.00     0.080 A 
ATOM     15  C   UNL A   1      38.943  34.375  37.892  1.00  0.00     0.095 A 
ATOM     16  C   UNL A   1      37.850  32.212  37.742  1.00  0.00     0.255 A 
ATOM     17  N   UNL A   1      38.562  33.170  38.448  1.00  0.00    -0.258 N 
ATOM     18  O   UNL A   1      37.419  31.165  38.213  1.00  0.00    -0.269 OA
BRANCH  17  19
ATOM     19  C   UNL A   1      38.908  32.854  39.807  1.00  0.00     0.451 C 
ATOM     20  F   UNL A   1      40.250  32.772  39.971  1.00  0.00    -0.185 F 
ATOM     21  F   UNL A   1      38.432  33.785  40.668  1.00  0.00    -0.185 F 
ENDBRANCH  17  19
ENDBRANCH  10  12
ENDBRANCH   5   6
ENDBRANCH   3   5
ENDBRANCH   2   3
ENDBRANCH   1   2
BRANCH   1  22
ATOM     22  C   UNL A   1      33.843  33.802  27.886  1.00  0.00     0.275 C 
BRANCH  22  23
ATOM     23  O   UNL A   1      34.900  32.841  27.712  1.00  0.00    -0.458 OA
BRANCH  23  24
ATOM     24  C   UNL A   1      34.574  31.548  27.969  1.00  0.00     0.338 C 
ATOM     25  O   UNL A   1      33.500  31.016  27.754  1.00  0.00    -0.246 OA
BRANCH  24  26
ATOM     26  C   UNL A   1      35.804  30.812  28.352  1.00  0.00     0.060 A 
ATOM     27  C   UNL A   1      35.748  29.976  29.476  1.00  0.00     0.016 A 
ATOM     28  C   UNL A   1      36.974  30.880  27.587  1.00  0.00     0.016 A 
ATOM     29  C   UNL A   1      36.868  29.231  29.853  1.00  0.00     0.010 A 
ATOM     30  C   UNL A   1      38.094  30.135  27.967  1.00  0.00     0.010 A 
ATOM     31  C   UNL A   1      38.056  29.329  29.117  1.00  0.00    -0.014 A 
BRANCH  31  32
ATOM     32  C   UNL A   1      39.309  28.728  29.634  1.00  0.00     0.031 A 
ATOM     33  C   UNL A   1      39.968  29.362  30.828  1.00  0.00     0.074 A 
ATOM     34  C   UNL A   1      39.884  27.670  29.033  1.00  0.00     0.049 A 
ATOM     35  N   UNL A   1      41.067  29.022  31.446  1.00  0.00    -0.248 NA
ATOM     36  C   UNL A   1      39.298  30.545  31.395  1.00  0.00     0.031 C 
ATOM     37  C   UNL A   1      39.371  26.983  27.850  1.00  0.00     0.029 A 
ATOM     38  N   UNL A   1      41.054  27.012  29.326  1.00  0.00    -0.354 N 
ATOM     39  C   UNL A   1      41.230  29.952  32.463  1.00  0.00     0.074 A 
ATOM     40  C   UNL A   1      40.130  30.885  32.368  1.00  0.00     0.031 C 
ATOM     41  C   UNL A   1      40.242  26.021  27.495  1.00  0.00     0.029 A 
ATOM     42  C   UNL A   1      41.375  26.029  28.421  1.00  0.00     0.049 A 
ATOM     43  H   UNL A   1      41.610  27.224  30.110  1.00  0.00     0.167 HD
ATOM     44  C   UNL A   1      42.195  30.015  33.411  1.00  0.00     0.034 A 
ATOM     45  C   UNL A   1      42.464  25.236  28.342  1.00  0.00     0.034 A 
ATOM     46  C   UNL A   1      43.284  29.085  33.521  1.00  0.00     0.049 A 
ATOM     47  C   UNL A   1      43.534  25.333  29.401  1.00  0.00     0.074 A 
ATOM     48  C   UNL A   1      44.272  29.030  34.488  1.00  0.00     0.029 A 
ATOM     49  N   UNL A   1      43.541  28.060  32.626  1.00  0.00    -0.354 N 
ATOM     50  N   UNL A   1      43.583  26.105  30.460  1.00  0.00    -0.248 NA
ATOM     51  C   UNL A   1      44.684  24.423  29.274  1.00  0.00     0.031 C 
ATOM     52  C   UNL A   1      45.140  27.982  34.165  1.00  0.00     0.029 A 
ATOM     53  C   UNL A   1      44.682  27.375  33.007  1.00  0.00     0.049 A 
ATOM     54  H   UNL A   1      42.993  27.849  31.836  1.00  0.00     0.167 HD
ATOM     55  C   UNL A   1      44.743  25.749  31.142  1.00  0.00     0.074 A 
ATOM     56  C   UNL A   1      45.361  24.680  30.385  1.00  0.00     0.031 C 
ATOM     57  C   UNL A   1      45.258  26.271  32.283  1.00  0.00     0.034 A 
BRANCH  44  58
ATOM     58  C   UNL A   1      42.084  31.109  34.433  1.00  0.00     0.023 A 
ATOM     59  C   UNL A   1      41.520  30.822  35.692  1.00  0.00     0.012 A 
ATOM     60  C   UNL A   1      42.565  32.404  34.167  1.00  0.00     0.148 A 
ATOM     61  C   UNL A   1      41.411  31.815  36.663  1.00  0.00     0.002 A 
ATOM     62  C   UNL A   1      42.485  33.381  35.153  1.00  0.00     0.091 A 
ATOM     63  F   UNL A   1      43.068  32.665  32.952  1.00  0.00    -0.205 F 
ATOM     64  C   UNL A   1      41.901  33.091  36.398  1.00  0.00     0.022 A 
BRANCH  62  65
ATOM     65  S   UNL A   1      43.147  35.034  34.922  1.00  0.00     0.127 S 
ATOM     66  O   UNL A   1      44.574  34.760  34.763  1.00  0.00    -0.237 OA
ATOM     67  O   UNL A   1      42.471  35.473  33.702  1.00  0.00    -0.237 OA
ATOM     68  O   UNL A   1      42.778  35.779  36.118  1.00  0.00    -0.744 OA
ENDBRANCH  62  65
ENDBRANCH  44  58
BRANCH  45  69
ATOM     69  C   UNL A   1      42.583  24.243  27.239  1.00  0.00     0.023 A 
ATOM     70  C   UNL A   1      43.271  24.592  26.061  1.00  0.00     0.012 A 
ATOM     71  C   UNL A   1      42.018  22.957  27.351  1.00  0.00     0.148 A 
ATOM     72  C   UNL A   1      43.372  23.688  25.003  1.00  0.00     0.002 A 
ATOM     73  C   UNL A   1      42.163  22.045  26.311  1.00  0.00     0.091 A 
ATOM     74  F   UNL A   1      41.347  22.653  28.470  1.00  0.00    -0.205 F 
ATOM     75  C   UNL A   1      42.827  22.412  25.131  1.00  0.00     0.022 A 
BRANCH  73  76
ATOM     76  S   UNL A   1      41.582  20.350  26.436  1.00  0.00     0.127 S 
ATOM     77  O   UNL A   1      42.284  19.710  25.326  1.00  0.00    -0.237 OA
ATOM     78  O   UNL A   1      42.048  19.962  27.767  1.00  0.00    -0.237 OA
ATOM     79  O   UNL A   1      40.131  20.424  26.309  1.00  0.00    -0.744 OA
ENDBRANCH  73  76
ENDBRANCH  45  69
BRANCH  57  80
ATOM     80  C   UNL A   1      46.542  25.689  32.815  1.00  0.00     0.023 A 
ATOM     81  C   UNL A   1      47.770  26.296  32.485  1.00  0.00     0.012 A 
ATOM     82  C   UNL A   1      46.526  24.613  33.723  1.00  0.00     0.148 A 
ATOM     83  C   UNL A   1      48.963  25.826  33.034  1.00  0.00     0.002 A 
ATOM     84  C   UNL A   1      47.714  24.177  34.301  1.00  0.00     0.091 A 
ATOM     85  F   UNL A   1      45.350  24.036  34.012  1.00  0.00    -0.205 F 
ATOM     86  C   UNL A   1      48.934  24.777  33.950  1.00  0.00     0.022 A 
BRANCH  84  87
ATOM     87  S   UNL A   1      47.758  22.900  35.564  1.00  0.00     0.127 S 
ATOM     88  O   UNL A   1      46.925  23.487  36.612  1.00  0.00    -0.237 OA
ATOM     89  O   UNL A   1      47.157  21.757  34.876  1.00  0.00    -0.237 OA
ATOM     90  O   UNL A   1      49.164  22.724  35.904  1.00  0.00    -0.744 OA
ENDBRANCH  84  87
ENDBRANCH  57  80
ENDBRANCH  31  32
ENDBRANCH  24  26
ENDBRANCH  23  24
ENDBRANCH  22  23
ENDBRANCH   1  22
TORSDOF 17
ENDMDL
MODEL 3
REMARK VINA RESULT:     -11.4      1.242      7.978
REMARK SMILES O=C(Cc1cccc(-c2ccn(C(F)F)c(=O)c2)c1)OCCOC(=O)c1ccc(-c2c3nc(c(-c4cccc(S(=O)(=O)[O-])c4F)c4ccc([nH]4)c(-c4cccc(S(=O)(=O)[O-])c4F)c4nc(c(-c5cccc(S(=O)(=O)[O-])c5F)c5ccc2[nH]5)C=C4)C=C3)cc1
REMARK SMILES IDX 21 1 20 2 2 3 1 4 3 5 4 6 5 7 19 8 6 9 8 10 7 11 9 12 10 13
REMARK SMILES IDX 18 14 11 15 16 16 12 17 17 18 13 19 14 20 15 21 22 22 23 23
REMARK SMILES IDX 24 24 25 25 26 26 27 27 88 28 28 29 87 30 29 31 30 32 31 33
REMARK SMILES IDX 81 34 32 35 86 36 80 37 82 38 33 39 85 40 79 41 78 42 34 44
REMARK SMILES IDX 66 45 46 46 65 47 47 48 50 49 64 50 83 51 48 52 49 53 63 55
REMARK SMILES IDX 84 56 51 57 35 58 36 59 44 60 37 61 39 62 45 63 38 64 40 65
REMARK SMILES IDX 41 66 42 67 43 68 67 69 68 70 76 71 69 72 71 73 77 74 70 75
REMARK SMILES IDX 72 76 73 77 74 78 75 79 52 80 53 81 61 82 54 83 56 84 62 85
REMARK SMILES IDX 55 86 57 87 58 88 59 89 60 90
REMARK H PARENT 82 43 50 54
REMARK Flexibility Score: inf
ROOT
ATOM      1  C   UNL A   1      31.923  27.986  25.398  1.00  0.00     0.274 C 
ENDROOT
BRANCH   1   2
ATOM      2  O   UNL A   1      31.737  26.936  26.369  1.00  0.00    -0.462 OA
BRANCH   2   3
ATOM      3  C   UNL A   1      31.925  25.614  26.137  1.00  0.00     0.310 C 
ATOM      4  O   UNL A   1      31.513  24.790  26.954  1.00  0.00    -0.252 OA
BRANCH   3   5
ATOM      5  C   UNL A   1      32.609  25.172  24.860  1.00  0.00     0.158 C 
BRANCH   5   6
ATOM      6  C   UNL A   1      33.829  24.325  25.081  1.00  0.00    -0.036 A 
ATOM      7  C   UNL A   1      35.070  24.894  25.389  1.00  0.00     0.004 A 
ATOM      8  C   UNL A   1      33.716  22.936  25.026  1.00  0.00     0.013 A 
ATOM      9  C   UNL A   1      36.185  24.082  25.594  1.00  0.00     0.001 A 
ATOM     10  C   UNL A   1      34.828  22.112  25.231  1.00  0.00    -0.018 A 
ATOM     11  C   UNL A   1      36.068  22.692  25.511  1.00  0.00     0.009 A 
BRANCH  10  12
ATOM     12  C   UNL A   1      34.608  20.661  25.153  1.00  0.00    -0.011 A 
ATOM     13  C   UNL A   1      35.713  19.734  24.999  1.00  0.00     0.027 A 
ATOM     14  C   UNL A   1      33.347  20.208  25.047  1.00  0.00     0.080 A 
ATOM     15  C   UNL A   1      35.487  18.465  24.646  1.00  0.00     0.095 A 
ATOM     16  C   UNL A   1      33.081  18.777  24.731  1.00  0.00     0.255 A 
ATOM     17  N   UNL A   1      34.200  17.995  24.484  1.00  0.00    -0.258 N 
ATOM     18  O   UNL A   1      31.921  18.384  24.681  1.00  0.00    -0.269 OA
BRANCH  17  19
ATOM     19  C   UNL A   1      33.967  16.650  24.034  1.00  0.00     0.451 C 
ATOM     20  F   UNL A   1      33.724  16.608  22.702  1.00  0.00    -0.185 F 
ATOM     21  F   UNL A   1      35.028  15.850  24.297  1.00  0.00    -0.185 F 
ENDBRANCH  17  19
ENDBRANCH  10  12
ENDBRANCH   5   6
ENDBRANCH   3   5
ENDBRANCH   2   3
ENDBRANCH   1   2
BRANCH   1  22
ATOM     22  C   UNL A   1      31.741  29.368  26.028  1.00  0.00     0.275 C 
BRANCH  22  23
ATOM     23  O   UNL A   1      32.967  30.116  25.938  1.00  0.00    -0.458 OA
BRANCH  23  24
ATOM     24  C   UNL A   1      33.144  31.080  26.878  1.00  0.00     0.338 C 
ATOM     25  O   UNL A   1      32.314  31.891  27.247  1.00  0.00    -0.246 OA
BRANCH  24  26
ATOM     26  C   UNL A   1      34.445  30.855  27.554  1.00  0.00     0.060 A 
ATOM     27  C   UNL A   1      34.896  29.535  27.692  1.00  0.00     0.016 A 
ATOM     28  C   UNL A   1      35.246  31.918  27.984  1.00  0.00     0.016 A 
ATOM     29  C   UNL A   1      36.134  29.276  28.286  1.00  0.00     0.010 A 
ATOM     30  C   UNL A   1      36.484  31.656  28.579  1.00  0.00     0.010 A 
ATOM     31  C   UNL A   1      36.921  30.333  28.759  1.00  0.00    -0.014 A 
BRANCH  31  32
ATOM     32  C   UNL A   1      38.119  30.063  29.590  1.00  0.00     0.031 A 
ATOM     33  C   UNL A   1      39.139  29.083  29.079  1.00  0.00     0.074 A 
ATOM     34  C   UNL A   1      38.284  30.635  30.797  1.00  0.00     0.049 A 
ATOM     35  N   UNL A   1      40.252  28.682  29.631  1.00  0.00    -0.248 NA
ATOM     36  C   UNL A   1      38.858  28.466  27.772  1.00  0.00     0.031 C 
ATOM     37  C   UNL A   1      37.357  31.574  31.425  1.00  0.00     0.029 A 
ATOM     38  N   UNL A   1      39.284  30.476  31.724  1.00  0.00    -0.354 N 
ATOM     39  C   UNL A   1      40.799  27.759  28.751  1.00  0.00     0.074 A 
ATOM     40  C   UNL A   1      39.885  27.641  27.637  1.00  0.00     0.031 C 
ATOM     41  C   UNL A   1      37.814  31.880  32.652  1.00  0.00     0.029 A 
ATOM     42  C   UNL A   1      39.061  31.155  32.898  1.00  0.00     0.049 A 
ATOM     43  H   UNL A   1      40.085  29.927  31.564  1.00  0.00     0.167 HD
ATOM     44  C   UNL A   1      41.969  27.085  28.845  1.00  0.00     0.034 A 
ATOM     45  C   UNL A   1      39.774  31.177  34.043  1.00  0.00     0.034 A 
ATOM     46  C   UNL A   1      42.889  27.206  29.940  1.00  0.00     0.049 A 
ATOM     47  C   UNL A   1      41.068  30.407  34.130  1.00  0.00     0.074 A 
ATOM     48  C   UNL A   1      44.129  26.612  30.090  1.00  0.00     0.029 A 
ATOM     49  N   UNL A   1      42.662  27.955  31.083  1.00  0.00    -0.354 N 
ATOM     50  N   UNL A   1      41.659  29.676  33.216  1.00  0.00    -0.248 NA
ATOM     51  C   UNL A   1      41.813  30.493  35.397  1.00  0.00     0.031 C 
ATOM     52  C   UNL A   1      44.644  26.988  31.335  1.00  0.00     0.029 A 
ATOM     53  C   UNL A   1      43.731  27.827  31.952  1.00  0.00     0.049 A 
ATOM     54  H   UNL A   1      41.858  28.499  31.251  1.00  0.00     0.167 HD
ATOM     55  C   UNL A   1      42.857  29.248  33.781  1.00  0.00     0.074 A 
ATOM     56  C   UNL A   1      42.917  29.815  35.112  1.00  0.00     0.031 C 
ATOM     57  C   UNL A   1      43.813  28.446  33.251  1.00  0.00     0.034 A 
BRANCH  44  58
ATOM     58  C   UNL A   1      42.337  26.186  27.699  1.00  0.00     0.023 A 
ATOM     59  C   UNL A   1      43.123  26.696  26.647  1.00  0.00     0.012 A 
ATOM     60  C   UNL A   1      41.940  24.836  27.677  1.00  0.00     0.148 A 
ATOM     61  C   UNL A   1      43.487  25.884  25.575  1.00  0.00     0.002 A 
ATOM     62  C   UNL A   1      42.337  24.022  26.622  1.00  0.00     0.091 A 
ATOM     63  F   UNL A   1      41.166  24.379  28.672  1.00  0.00    -0.205 F 
ATOM     64  C   UNL A   1      43.102  24.546  25.567  1.00  0.00     0.022 A 
BRANCH  62  65
ATOM     65  S   UNL A   1      41.940  22.272  26.559  1.00  0.00     0.127 S 
ATOM     66  O   UNL A   1      42.647  21.854  25.349  1.00  0.00    -0.237 OA
ATOM     67  O   UNL A   1      42.522  21.775  27.806  1.00  0.00    -0.237 OA
ATOM     68  O   UNL A   1      40.488  22.196  26.499  1.00  0.00    -0.744 OA
ENDBRANCH  62  65
ENDBRANCH  44  58
BRANCH  45  69
ATOM     69  C   UNL A   1      39.305  31.996  35.196  1.00  0.00     0.023 A 
ATOM     70  C   UNL A   1      38.337  31.470  36.073  1.00  0.00     0.012 A 
ATOM     71  C   UNL A   1      39.811  33.290  35.426  1.00  0.00     0.148 A 
ATOM     72  C   UNL A   1      37.862  32.227  37.144  1.00  0.00     0.002 A 
ATOM     73  C   UNL A   1      39.368  34.022  36.522  1.00  0.00     0.091 A 
ATOM     74  F   UNL A   1      40.714  33.781  34.567  1.00  0.00    -0.205 F 
ATOM     75  C   UNL A   1      38.384  33.498  37.375  1.00  0.00     0.022 A 
BRANCH  73  76
ATOM     76  S   UNL A   1      40.061  35.622  36.951  1.00  0.00     0.127 S 
ATOM     77  O   UNL A   1      41.489  35.323  37.017  1.00  0.00    -0.237 OA
ATOM     78  O   UNL A   1      39.656  36.447  35.813  1.00  0.00    -0.237 OA
ATOM     79  O   UNL A   1      39.432  35.994  38.212  1.00  0.00    -0.744 OA
ENDBRANCH  73  76
ENDBRANCH  45  69
BRANCH  57  80
ATOM     80  C   UNL A   1      45.030  28.141  34.086  1.00  0.00     0.023 A 
ATOM     81  C   UNL A   1      46.118  29.036  34.084  1.00  0.00     0.012 A 
ATOM     82  C   UNL A   1      45.052  27.029  34.951  1.00  0.00     0.148 A 
ATOM     83  C   UNL A   1      47.217  28.817  34.913  1.00  0.00     0.002 A 
ATOM     84  C   UNL A   1      46.132  26.840  35.806  1.00  0.00     0.091 A 
ATOM     85  F   UNL A   1      44.016  26.178  34.926  1.00  0.00    -0.205 F 
ATOM     86  C   UNL A   1      47.219  27.729  35.783  1.00  0.00     0.022 A 
BRANCH  84  87
ATOM     87  S   UNL A   1      46.173  25.523  37.028  1.00  0.00     0.127 S 
ATOM     88  O   UNL A   1      47.556  25.592  37.495  1.00  0.00    -0.237 OA
ATOM     89  O   UNL A   1      45.178  25.967  38.003  1.00  0.00    -0.237 OA
ATOM     90  O   UNL A   1      45.812  24.305  36.313  1.00  0.00    -0.744 OA
ENDBRANCH  84  87
ENDBRANCH  57  80
ENDBRANCH  31  32
ENDBRANCH  24  26
ENDBRANCH  23  24
ENDBRANCH  22  23
ENDBRANCH   1  22
TORSDOF 17
ENDMDL
