MODEL 1
REMARK VINA RESULT:     -12.2      0.000      0.000
REMARK SMILES O=C(OCCOC(=O)c1cc(Br)ccc1OCc1ccccc1F)c1ccc(-c2c3nc(c(-c4cccc(S(=O)(=O)[O-])c4F)c4ccc([nH]4)c(-c4cccc(S(=O)(=O)[O-])c4F)c4nc(c(-c5cccc(S(=O)(=O)[O-])c5F)c5ccc2[nH]5)C=C4)C=C3)cc1
REMARK SMILES IDX 4 1 3 2 2 3 1 4 25 5 26 6 87 7 27 8 86 9 28 10 29 11 30 12
REMARK SMILES IDX 80 13 31 14 85 15 79 16 81 17 32 18 84 19 78 20 77 21 33 23
REMARK SMILES IDX 65 24 45 25 64 26 46 27 49 28 63 29 82 30 47 31 48 32 62 34
REMARK SMILES IDX 83 35 50 36 34 37 35 38 43 39 36 40 38 41 44 42 37 43 39 44
REMARK SMILES IDX 40 45 41 46 42 47 66 48 67 49 75 50 68 51 70 52 76 53 69 54
REMARK SMILES IDX 71 55 72 56 73 57 74 58 51 59 52 60 60 61 53 62 55 63 61 64
REMARK SMILES IDX 54 65 56 66 57 67 58 68 59 69 5 70 6 71 7 72 8 73 9 74 10 75
REMARK SMILES IDX 15 76 11 77 14 78 12 79 13 80 16 81 17 82 18 83 19 84 23 85
REMARK SMILES IDX 20 86 22 87 24 88 21 89
REMARK H PARENT 81 22 49 33
REMARK Flexibility Score: inf
ROOT
ATOM      1  C   UNL A   1      37.393  20.801  24.933  1.00  0.00     0.275 C 
ENDROOT
BRANCH   1   2
ATOM      2  O   UNL A   1      37.975  21.724  25.871  1.00  0.00    -0.458 OA
BRANCH   2   3
ATOM      3  C   UNL A   1      39.303  21.780  26.163  1.00  0.00     0.338 C 
ATOM      4  O   UNL A   1      39.990  20.767  26.226  1.00  0.00    -0.246 OA
BRANCH   3   5
ATOM      5  C   UNL A   1      39.829  23.056  26.698  1.00  0.00     0.060 A 
ATOM      6  C   UNL A   1      39.433  24.302  26.211  1.00  0.00     0.016 A 
ATOM      7  C   UNL A   1      40.745  22.982  27.757  1.00  0.00     0.016 A 
ATOM      8  C   UNL A   1      39.839  25.461  26.860  1.00  0.00     0.010 A 
ATOM      9  C   UNL A   1      41.169  24.146  28.399  1.00  0.00     0.010 A 
ATOM     10  C   UNL A   1      40.705  25.389  27.954  1.00  0.00    -0.014 A 
BRANCH  10  11
ATOM     11  C   UNL A   1      41.263  26.652  28.467  1.00  0.00     0.031 A 
ATOM     12  C   UNL A   1      42.716  26.906  28.233  1.00  0.00     0.074 A 
ATOM     13  C   UNL A   1      40.470  27.607  28.984  1.00  0.00     0.049 A 
ATOM     14  N   UNL A   1      43.365  28.032  28.315  1.00  0.00    -0.248 NA
ATOM     15  C   UNL A   1      43.527  25.763  27.781  1.00  0.00     0.031 C 
ATOM     16  C   UNL A   1      39.025  27.491  29.164  1.00  0.00     0.029 A 
ATOM     17  N   UNL A   1      40.763  28.863  29.445  1.00  0.00    -0.354 N 
ATOM     18  C   UNL A   1      44.641  27.751  27.855  1.00  0.00     0.074 A 
ATOM     19  C   UNL A   1      44.700  26.338  27.567  1.00  0.00     0.031 C 
ATOM     20  C   UNL A   1      38.568  28.606  29.759  1.00  0.00     0.029 A 
ATOM     21  C   UNL A   1      39.682  29.517  29.983  1.00  0.00     0.049 A 
ATOM     22  H   UNL A   1      41.663  29.259  29.395  1.00  0.00     0.167 HD
ATOM     23  C   UNL A   1      45.653  28.618  27.642  1.00  0.00     0.034 A 
ATOM     24  C   UNL A   1      39.598  30.724  30.576  1.00  0.00     0.034 A 
ATOM     25  C   UNL A   1      45.587  30.007  27.986  1.00  0.00     0.049 A 
ATOM     26  C   UNL A   1      40.795  31.629  30.497  1.00  0.00     0.074 A 
ATOM     27  C   UNL A   1      46.554  30.979  27.824  1.00  0.00     0.029 A 
ATOM     28  N   UNL A   1      44.499  30.611  28.602  1.00  0.00    -0.354 N 
ATOM     29  N   UNL A   1      41.954  31.396  29.928  1.00  0.00    -0.248 NA
ATOM     30  C   UNL A   1      40.657  32.981  31.052  1.00  0.00     0.031 C 
ATOM     31  C   UNL A   1      46.069  32.162  28.389  1.00  0.00     0.029 A 
ATOM     32  C   UNL A   1      44.783  31.938  28.864  1.00  0.00     0.049 A 
ATOM     33  H   UNL A   1      43.651  30.162  28.821  1.00  0.00     0.167 HD
ATOM     34  C   UNL A   1      42.661  32.588  29.995  1.00  0.00     0.074 A 
ATOM     35  C   UNL A   1      41.805  33.538  30.683  1.00  0.00     0.031 C 
ATOM     36  C   UNL A   1      43.896  32.873  29.513  1.00  0.00     0.034 A 
BRANCH  23  37
ATOM     37  C   UNL A   1      46.891  28.068  26.999  1.00  0.00     0.023 A 
ATOM     38  C   UNL A   1      47.949  27.608  27.813  1.00  0.00     0.012 A 
ATOM     39  C   UNL A   1      47.017  28.016  25.601  1.00  0.00     0.148 A 
ATOM     40  C   UNL A   1      49.128  27.134  27.241  1.00  0.00     0.002 A 
ATOM     41  C   UNL A   1      48.180  27.507  25.038  1.00  0.00     0.091 A 
ATOM     42  F   UNL A   1      46.013  28.493  24.852  1.00  0.00    -0.205 F 
ATOM     43  C   UNL A   1      49.240  27.076  25.854  1.00  0.00     0.022 A 
BRANCH  41  44
ATOM     44  S   UNL A   1      48.399  27.346  23.265  1.00  0.00     0.127 S 
ATOM     45  O   UNL A   1      48.260  25.902  23.080  1.00  0.00    -0.237 OA
ATOM     46  O   UNL A   1      47.284  28.138  22.746  1.00  0.00    -0.237 OA
ATOM     47  O   UNL A   1      49.719  27.887  22.972  1.00  0.00    -0.744 OA
ENDBRANCH  41  44
ENDBRANCH  23  37
BRANCH  24  48
ATOM     48  C   UNL A   1      38.314  31.153  31.198  1.00  0.00     0.023 A 
ATOM     49  C   UNL A   1      38.107  30.985  32.580  1.00  0.00     0.012 A 
ATOM     50  C   UNL A   1      37.322  31.796  30.426  1.00  0.00     0.148 A 
ATOM     51  C   UNL A   1      36.933  31.441  33.181  1.00  0.00     0.002 A 
ATOM     52  C   UNL A   1      36.168  32.275  31.037  1.00  0.00     0.091 A 
ATOM     53  F   UNL A   1      37.542  31.945  29.112  1.00  0.00    -0.205 F 
ATOM     54  C   UNL A   1      35.968  32.092  32.414  1.00  0.00     0.022 A 
BRANCH  52  55
ATOM     55  S   UNL A   1      34.891  33.180  30.150  1.00  0.00     0.127 S 
ATOM     56  O   UNL A   1      35.669  34.231  29.496  1.00  0.00    -0.237 OA
ATOM     57  O   UNL A   1      34.371  32.153  29.248  1.00  0.00    -0.237 OA
ATOM     58  O   UNL A   1      33.955  33.648  31.162  1.00  0.00    -0.744 OA
ENDBRANCH  52  55
ENDBRANCH  24  48
BRANCH  36  59
ATOM     59  C   UNL A   1      44.412  34.276  29.672  1.00  0.00     0.023 A 
ATOM     60  C   UNL A   1      45.104  34.638  30.842  1.00  0.00     0.012 A 
ATOM     61  C   UNL A   1      44.359  35.171  28.585  1.00  0.00     0.148 A 
ATOM     62  C   UNL A   1      45.738  35.875  30.929  1.00  0.00     0.002 A 
ATOM     63  C   UNL A   1      45.039  36.379  28.658  1.00  0.00     0.091 A 
ATOM     64  F   UNL A   1      43.676  34.807  27.490  1.00  0.00    -0.205 F 
ATOM     65  C   UNL A   1      45.722  36.736  29.832  1.00  0.00     0.022 A 
BRANCH  63  66
ATOM     66  S   UNL A   1      45.181  37.489  27.253  1.00  0.00     0.127 S 
ATOM     67  O   UNL A   1      43.777  37.726  26.919  1.00  0.00    -0.237 OA
ATOM     68  O   UNL A   1      45.873  38.638  27.837  1.00  0.00    -0.237 OA
ATOM     69  O   UNL A   1      45.946  36.768  26.244  1.00  0.00    -0.744 OA
ENDBRANCH  63  66
ENDBRANCH  36  59
ENDBRANCH  10  11
ENDBRANCH   3   5
ENDBRANCH   2   3
ENDBRANCH   1   2
BRANCH   1  70
ATOM     70  C   UNL A   1      35.879  20.934  24.700  1.00  0.00     0.275 C 
BRANCH  70  71
ATOM     71  O   UNL A   1      35.377  22.279  24.770  1.00  0.00    -0.458 OA
BRANCH  71  72
ATOM     72  C   UNL A   1      35.185  22.834  23.545  1.00  0.00     0.342 C 
ATOM     73  O   UNL A   1      36.093  23.011  22.749  1.00  0.00    -0.246 OA
BRANCH  72  74
ATOM     74  C   UNL A   1      33.790  23.292  23.375  1.00  0.00     0.103 A 
ATOM     75  C   UNL A   1      33.655  24.682  23.200  1.00  0.00     0.035 A 
ATOM     76  C   UNL A   1      32.639  22.487  23.318  1.00  0.00     0.134 A 
ATOM     77  C   UNL A   1      32.397  25.265  23.058  1.00  0.00     0.019 A 
ATOM     78  C   UNL A   1      31.378  23.117  23.309  1.00  0.00     0.048 A 
ATOM     79  Br  UNL A   1      32.247  27.090  22.614  1.00  0.00    -0.051 Br
ATOM     80  C   UNL A   1      31.251  24.497  23.184  1.00  0.00     0.019 A 
BRANCH  76  81
ATOM     81  O   UNL A   1      32.472  21.136  23.237  1.00  0.00    -0.488 OA
BRANCH  81  82
ATOM     82  C   UNL A   1      32.396  20.253  24.358  1.00  0.00     0.268 C 
BRANCH  82  83
ATOM     83  C   UNL A   1      32.680  18.779  24.172  1.00  0.00     0.025 A 
ATOM     84  C   UNL A   1      32.988  18.184  22.941  1.00  0.00     0.010 A 
ATOM     85  C   UNL A   1      32.854  18.022  25.340  1.00  0.00     0.129 A 
ATOM     86  C   UNL A   1      33.650  16.952  22.911  1.00  0.00     0.001 A 
ATOM     87  C   UNL A   1      33.488  16.785  25.313  1.00  0.00     0.039 A 
ATOM     88  F   UNL A   1      32.511  18.542  26.528  1.00  0.00    -0.207 F 
ATOM     89  C   UNL A   1      33.931  16.270  24.097  1.00  0.00     0.003 A 
ENDBRANCH  82  83
ENDBRANCH  81  82
ENDBRANCH  76  81
ENDBRANCH  72  74
ENDBRANCH  71  72
ENDBRANCH  70  71
ENDBRANCH   1  70
TORSDOF 17
ENDMDL
MODEL 2
REMARK VINA RESULT:     -12.2      3.256      4.636
REMARK SMILES O=C(OCCOC(=O)c1cc(Br)ccc1OCc1ccccc1F)c1ccc(-c2c3nc(c(-c4cccc(S(=O)(=O)[O-])c4F)c4ccc([nH]4)c(-c4cccc(S(=O)(=O)[O-])c4F)c4nc(c(-c5cccc(S(=O)(=O)[O-])c5F)c5ccc2[nH]5)C=C4)C=C3)cc1
REMARK SMILES IDX 4 1 3 2 2 3 1 4 25 5 26 6 87 7 27 8 86 9 28 10 29 11 30 12
REMARK SMILES IDX 80 13 31 14 85 15 79 16 81 17 32 18 84 19 78 20 77 21 33 23
REMARK SMILES IDX 65 24 45 25 64 26 46 27 49 28 63 29 82 30 47 31 48 32 62 34
REMARK SMILES IDX 83 35 50 36 34 37 35 38 43 39 36 40 38 41 44 42 37 43 39 44
REMARK SMILES IDX 40 45 41 46 42 47 66 48 67 49 75 50 68 51 70 52 76 53 69 54
REMARK SMILES IDX 71 55 72 56 73 57 74 58 51 59 52 60 60 61 53 62 55 63 61 64
REMARK SMILES IDX 54 65 56 66 57 67 58 68 59 69 5 70 6 71 7 72 8 73 9 74 10 75
REMARK SMILES IDX 15 76 11 77 14 78 12 79 13 80 16 81 17 82 18 83 19 84 23 85
REMARK SMILES IDX 20 86 22 87 24 88 21 89
REMARK H PARENT 81 22 49 33
REMARK Flexibility Score: inf
ROOT
ATOM      1  C   UNL A   1      36.583  23.159  25.950  1.00  0.00     0.275 C 
ENDROOT
BRANCH   1   2
ATOM      2  O   UNL A   1      37.918  22.887  25.485  1.00  0.00    -0.458 OA
BRANCH   2   3
ATOM      3  C   UNL A   1      39.021  22.901  26.280  1.00  0.00     0.338 C 
ATOM      4  O   UNL A   1      39.530  21.865  26.691  1.00  0.00    -0.246 OA
BRANCH   3   5
ATOM      5  C   UNL A   1      39.410  24.196  26.881  1.00  0.00     0.060 A 
ATOM      6  C   UNL A   1      39.196  24.502  28.226  1.00  0.00     0.016 A 
ATOM      7  C   UNL A   1      40.040  25.131  26.047  1.00  0.00     0.016 A 
ATOM      8  C   UNL A   1      39.727  25.667  28.765  1.00  0.00     0.010 A 
ATOM      9  C   UNL A   1      40.559  26.310  26.583  1.00  0.00     0.010 A 
ATOM     10  C   UNL A   1      40.410  26.573  27.949  1.00  0.00    -0.014 A 
BRANCH  10  11
ATOM     11  C   UNL A   1      40.766  27.879  28.530  1.00  0.00     0.031 A 
ATOM     12  C   UNL A   1      42.217  28.225  28.603  1.00  0.00     0.074 A 
ATOM     13  C   UNL A   1      39.823  28.787  28.835  1.00  0.00     0.049 A 
ATOM     14  N   UNL A   1      42.763  29.393  28.786  1.00  0.00    -0.248 NA
ATOM     15  C   UNL A   1      43.175  27.131  28.370  1.00  0.00     0.031 C 
ATOM     16  C   UNL A   1      38.384  28.579  28.707  1.00  0.00     0.029 A 
ATOM     17  N   UNL A   1      39.933  30.068  29.308  1.00  0.00    -0.354 N 
ATOM     18  C   UNL A   1      44.123  29.190  28.618  1.00  0.00     0.074 A 
ATOM     19  C   UNL A   1      44.329  27.778  28.393  1.00  0.00     0.031 C 
ATOM     20  C   UNL A   1      37.742  29.671  29.155  1.00  0.00     0.029 A 
ATOM     21  C   UNL A   1      38.723  30.659  29.583  1.00  0.00     0.049 A 
ATOM     22  H   UNL A   1      40.797  30.523  29.439  1.00  0.00     0.167 HD
ATOM     23  C   UNL A   1      45.102  30.118  28.598  1.00  0.00     0.034 A 
ATOM     24  C   UNL A   1      38.441  31.867  30.106  1.00  0.00     0.034 A 
ATOM     25  C   UNL A   1      44.878  31.506  28.877  1.00  0.00     0.049 A 
ATOM     26  C   UNL A   1      39.569  32.848  30.256  1.00  0.00     0.074 A 
ATOM     27  C   UNL A   1      45.796  32.537  28.895  1.00  0.00     0.029 A 
ATOM     28  N   UNL A   1      43.649  32.047  29.227  1.00  0.00    -0.354 N 
ATOM     29  N   UNL A   1      40.835  32.683  29.955  1.00  0.00    -0.248 NA
ATOM     30  C   UNL A   1      39.232  34.198  30.727  1.00  0.00     0.031 C 
ATOM     31  C   UNL A   1      45.130  33.695  29.306  1.00  0.00     0.029 A 
ATOM     32  C   UNL A   1      43.788  33.394  29.502  1.00  0.00     0.049 A 
ATOM     33  H   UNL A   1      42.803  31.546  29.275  1.00  0.00     0.167 HD
ATOM     34  C   UNL A   1      41.436  33.920  30.134  1.00  0.00     0.074 A 
ATOM     35  C   UNL A   1      40.396  34.823  30.593  1.00  0.00     0.031 C 
ATOM     36  C   UNL A   1      42.726  34.279  29.918  1.00  0.00     0.034 A 
BRANCH  23  37
ATOM     37  C   UNL A   1      46.481  29.640  28.252  1.00  0.00     0.023 A 
ATOM     38  C   UNL A   1      46.881  29.599  26.899  1.00  0.00     0.012 A 
ATOM     39  C   UNL A   1      47.371  29.221  29.254  1.00  0.00     0.148 A 
ATOM     40  C   UNL A   1      48.140  29.116  26.548  1.00  0.00     0.002 A 
ATOM     41  C   UNL A   1      48.639  28.777  28.899  1.00  0.00     0.091 A 
ATOM     42  F   UNL A   1      46.953  29.236  30.527  1.00  0.00    -0.205 F 
ATOM     43  C   UNL A   1      49.021  28.713  27.549  1.00  0.00     0.022 A 
BRANCH  41  44
ATOM     44  S   UNL A   1      49.861  28.284  30.116  1.00  0.00     0.127 S 
ATOM     45  O   UNL A   1      50.997  27.928  29.267  1.00  0.00    -0.237 OA
ATOM     46  O   UNL A   1      50.037  29.515  30.888  1.00  0.00    -0.237 OA
ATOM     47  O   UNL A   1      49.268  27.180  30.858  1.00  0.00    -0.744 OA
ENDBRANCH  41  44
ENDBRANCH  23  37
BRANCH  24  48
ATOM     48  C   UNL A   1      37.029  32.221  30.426  1.00  0.00     0.023 A 
ATOM     49  C   UNL A   1      36.496  31.923  31.694  1.00  0.00     0.012 A 
ATOM     50  C   UNL A   1      36.235  32.920  29.492  1.00  0.00     0.148 A 
ATOM     51  C   UNL A   1      35.195  32.307  32.024  1.00  0.00     0.002 A 
ATOM     52  C   UNL A   1      34.950  33.325  29.838  1.00  0.00     0.091 A 
ATOM     53  F   UNL A   1      36.765  33.193  28.291  1.00  0.00    -0.205 F 
ATOM     54  C   UNL A   1      34.425  33.013  31.101  1.00  0.00     0.022 A 
BRANCH  52  55
ATOM     55  S   UNL A   1      33.899  34.293  28.745  1.00  0.00     0.127 S 
ATOM     56  O   UNL A   1      33.525  33.304  27.736  1.00  0.00    -0.237 OA
ATOM     57  O   UNL A   1      32.815  34.686  29.646  1.00  0.00    -0.237 OA
ATOM     58  O   UNL A   1      34.726  35.386  28.257  1.00  0.00    -0.744 OA
ENDBRANCH  52  55
ENDBRANCH  24  48
BRANCH  36  59
ATOM     59  C   UNL A   1      43.109  35.715  30.139  1.00  0.00     0.023 A 
ATOM     60  C   UNL A   1      43.715  36.099  31.349  1.00  0.00     0.012 A 
ATOM     61  C   UNL A   1      43.025  36.637  29.076  1.00  0.00     0.148 A 
ATOM     62  C   UNL A   1      44.233  37.384  31.499  1.00  0.00     0.002 A 
ATOM     63  C   UNL A   1      43.592  37.896  29.214  1.00  0.00     0.091 A 
ATOM     64  F   UNL A   1      42.424  36.249  27.941  1.00  0.00    -0.205 F 
ATOM     65  C   UNL A   1      44.189  38.274  30.427  1.00  0.00     0.022 A 
BRANCH  63  66
ATOM     66  S   UNL A   1      43.696  39.058  27.848  1.00  0.00     0.127 S 
ATOM     67  O   UNL A   1      42.285  39.248  27.511  1.00  0.00    -0.237 OA
ATOM     68  O   UNL A   1      44.335  40.215  28.475  1.00  0.00    -0.237 OA
ATOM     69  O   UNL A   1      44.496  38.405  26.821  1.00  0.00    -0.744 OA
ENDBRANCH  63  66
ENDBRANCH  36  59
ENDBRANCH  10  11
ENDBRANCH   3   5
ENDBRANCH   2   3
ENDBRANCH   1   2
BRANCH   1  70
ATOM     70  C   UNL A   1      35.679  23.954  24.993  1.00  0.00     0.275 C 
BRANCH  70  71
ATOM     71  O   UNL A   1      34.748  24.836  25.642  1.00  0.00    -0.458 OA
BRANCH  71  72
ATOM     72  C   UNL A   1      33.963  25.512  24.763  1.00  0.00     0.342 C 
ATOM     73  O   UNL A   1      33.987  25.306  23.560  1.00  0.00    -0.246 OA
BRANCH  72  74
ATOM     74  C   UNL A   1      33.198  26.583  25.437  1.00  0.00     0.103 A 
ATOM     75  C   UNL A   1      33.996  27.529  26.108  1.00  0.00     0.035 A 
ATOM     76  C   UNL A   1      31.803  26.761  25.420  1.00  0.00     0.134 A 
ATOM     77  C   UNL A   1      33.413  28.579  26.815  1.00  0.00     0.019 A 
ATOM     78  C   UNL A   1      31.243  27.750  26.254  1.00  0.00     0.048 A 
ATOM     79  Br  UNL A   1      34.492  29.952  27.525  1.00  0.00    -0.051 Br
ATOM     80  C   UNL A   1      32.037  28.654  26.952  1.00  0.00     0.019 A 
BRANCH  76  81
ATOM     81  O   UNL A   1      30.814  26.158  24.702  1.00  0.00    -0.488 OA
BRANCH  81  82
ATOM     82  C   UNL A   1      30.412  26.538  23.384  1.00  0.00     0.268 C 
BRANCH  82  83
ATOM     83  C   UNL A   1      29.665  27.836  23.172  1.00  0.00     0.025 A 
ATOM     84  C   UNL A   1      30.205  28.962  22.535  1.00  0.00     0.010 A 
ATOM     85  C   UNL A   1      28.288  27.818  23.439  1.00  0.00     0.129 A 
ATOM     86  C   UNL A   1      29.352  29.931  21.996  1.00  0.00     0.001 A 
ATOM     87  C   UNL A   1      27.438  28.793  22.927  1.00  0.00     0.039 A 
ATOM     88  F   UNL A   1      27.751  26.781  24.100  1.00  0.00    -0.207 F 
ATOM     89  C   UNL A   1      27.969  29.829  22.162  1.00  0.00     0.003 A 
ENDBRANCH  82  83
ENDBRANCH  81  82
ENDBRANCH  76  81
ENDBRANCH  72  74
ENDBRANCH  71  72
ENDBRANCH  70  71
ENDBRANCH   1  70
TORSDOF 17
ENDMDL
MODEL 3
REMARK VINA RESULT:     -12.2      5.618     10.862
REMARK SMILES O=C(OCCOC(=O)c1cc(Br)ccc1OCc1ccccc1F)c1ccc(-c2c3nc(c(-c4cccc(S(=O)(=O)[O-])c4F)c4ccc([nH]4)c(-c4cccc(S(=O)(=O)[O-])c4F)c4nc(c(-c5cccc(S(=O)(=O)[O-])c5F)c5ccc2[nH]5)C=C4)C=C3)cc1
REMARK SMILES IDX 4 1 3 2 2 3 1 4 25 5 26 6 87 7 27 8 86 9 28 10 29 11 30 12
REMARK SMILES IDX 80 13 31 14 85 15 79 16 81 17 32 18 84 19 78 20 77 21 33 23
REMARK SMILES IDX 65 24 45 25 64 26 46 27 49 28 63 29 82 30 47 31 48 32 62 34
REMARK SMILES IDX 83 35 50 36 34 37 35 38 43 39 36 40 38 41 44 42 37 43 39 44
REMARK SMILES IDX 40 45 41 46 42 47 66 48 67 49 75 50 68 51 70 52 76 53 69 54
REMARK SMILES IDX 71 55 72 56 73 57 74 58 51 59 52 60 60 61 53 62 55 63 61 64
REMARK SMILES IDX 54 65 56 66 57 67 58 68 59 69 5 70 6 71 7 72 8 73 9 74 10 75
REMARK SMILES IDX 15 76 11 77 14 78 12 79 13 80 16 81 17 82 18 83 19 84 23 85
REMARK SMILES IDX 20 86 22 87 24 88 21 89
REMARK H PARENT 81 22 49 33
REMARK Flexibility Score: inf
ROOT
ATOM      1  C   UNL A   1      32.055  30.840  26.452  1.00  0.00     0.275 C 
ENDROOT
BRANCH   1   2
ATOM      2  O   UNL A   1      33.309  30.532  27.088  1.00  0.00    -0.458 OA
BRANCH   2   3
ATOM      3  C   UNL A   1      34.057  31.434  27.778  1.00  0.00     0.338 C 
ATOM      4  O   UNL A   1      33.804  32.633  27.751  1.00  0.00    -0.246 OA
BRANCH   3   5
ATOM      5  C   UNL A   1      35.357  30.973  28.315  1.00  0.00     0.060 A 
ATOM      6  C   UNL A   1      35.495  29.806  29.067  1.00  0.00     0.016 A 
ATOM      7  C   UNL A   1      36.488  31.748  28.020  1.00  0.00     0.016 A 
ATOM      8  C   UNL A   1      36.761  29.343  29.403  1.00  0.00     0.010 A 
ATOM      9  C   UNL A   1      37.759  31.295  28.372  1.00  0.00     0.010 A 
ATOM     10  C   UNL A   1      37.895  30.082  29.058  1.00  0.00    -0.014 A 
BRANCH  10  11
ATOM     11  C   UNL A   1      39.187  29.651  29.619  1.00  0.00     0.031 A 
ATOM     12  C   UNL A   1      39.621  30.278  30.904  1.00  0.00     0.074 A 
ATOM     13  C   UNL A   1      39.873  28.626  29.086  1.00  0.00     0.049 A 
ATOM     14  N   UNL A   1      40.538  29.872  31.734  1.00  0.00    -0.248 NA
ATOM     15  C   UNL A   1      38.880  31.472  31.346  1.00  0.00     0.031 C 
ATOM     16  C   UNL A   1      39.482  27.887  27.889  1.00  0.00     0.029 A 
ATOM     17  N   UNL A   1      41.038  28.024  29.483  1.00  0.00    -0.354 N 
ATOM     18  C   UNL A   1      40.437  30.715  32.829  1.00  0.00     0.074 A 
ATOM     19  C   UNL A   1      39.424  31.699  32.531  1.00  0.00     0.031 C 
ATOM     20  C   UNL A   1      40.426  26.972  27.611  1.00  0.00     0.029 A 
ATOM     21  C   UNL A   1      41.476  27.050  28.619  1.00  0.00     0.049 A 
ATOM     22  H   UNL A   1      41.515  28.265  30.309  1.00  0.00     0.167 HD
ATOM     23  C   UNL A   1      41.098  30.629  34.003  1.00  0.00     0.034 A 
ATOM     24  C   UNL A   1      42.590  26.294  28.647  1.00  0.00     0.034 A 
ATOM     25  C   UNL A   1      42.136  29.676  34.255  1.00  0.00     0.049 A 
ATOM     26  C   UNL A   1      43.434  26.335  29.890  1.00  0.00     0.074 A 
ATOM     27  C   UNL A   1      42.883  29.502  35.403  1.00  0.00     0.029 A 
ATOM     28  N   UNL A   1      42.602  28.758  33.322  1.00  0.00    -0.354 N 
ATOM     29  N   UNL A   1      43.241  27.038  30.981  1.00  0.00    -0.248 NA
ATOM     30  C   UNL A   1      44.587  25.428  29.953  1.00  0.00     0.031 C 
ATOM     31  C   UNL A   1      43.836  28.512  35.148  1.00  0.00     0.029 A 
ATOM     32  C   UNL A   1      43.654  28.038  33.855  1.00  0.00     0.049 A 
ATOM     33  H   UNL A   1      42.237  28.639  32.416  1.00  0.00     0.167 HD
ATOM     34  C   UNL A   1      44.204  26.614  31.885  1.00  0.00     0.074 A 
ATOM     35  C   UNL A   1      44.996  25.606  31.205  1.00  0.00     0.031 C 
ATOM     36  C   UNL A   1      44.399  27.010  33.168  1.00  0.00     0.034 A 
BRANCH  23  37
ATOM     37  C   UNL A   1      40.692  31.591  35.079  1.00  0.00     0.023 A 
ATOM     38  C   UNL A   1      41.461  32.754  35.296  1.00  0.00     0.012 A 
ATOM     39  C   UNL A   1      39.566  31.342  35.882  1.00  0.00     0.148 A 
ATOM     40  C   UNL A   1      41.131  33.641  36.319  1.00  0.00     0.002 A 
ATOM     41  C   UNL A   1      39.221  32.250  36.875  1.00  0.00     0.091 A 
ATOM     42  F   UNL A   1      38.875  30.212  35.679  1.00  0.00    -0.205 F 
ATOM     43  C   UNL A   1      40.007  33.392  37.104  1.00  0.00     0.022 A 
BRANCH  41  44
ATOM     44  S   UNL A   1      37.765  32.044  37.903  1.00  0.00     0.127 S 
ATOM     45  O   UNL A   1      37.431  30.640  37.663  1.00  0.00    -0.237 OA
ATOM     46  O   UNL A   1      38.292  32.326  39.238  1.00  0.00    -0.237 OA
ATOM     47  O   UNL A   1      36.789  33.009  37.416  1.00  0.00    -0.744 OA
ENDBRANCH  41  44
ENDBRANCH  23  37
BRANCH  24  48
ATOM     48  C   UNL A   1      42.897  25.388  27.505  1.00  0.00     0.023 A 
ATOM     49  C   UNL A   1      43.788  25.798  26.496  1.00  0.00     0.012 A 
ATOM     50  C   UNL A   1      42.355  24.085  27.458  1.00  0.00     0.148 A 
ATOM     51  C   UNL A   1      44.129  24.931  25.457  1.00  0.00     0.002 A 
ATOM     52  C   UNL A   1      42.723  23.216  26.436  1.00  0.00     0.091 A 
ATOM     53  F   UNL A   1      41.509  23.716  28.431  1.00  0.00    -0.205 F 
ATOM     54  C   UNL A   1      43.604  23.640  25.430  1.00  0.00     0.022 A 
BRANCH  52  55
ATOM     55  S   UNL A   1      42.151  21.513  26.342  1.00  0.00     0.127 S 
ATOM     56  O   UNL A   1      40.759  21.687  25.932  1.00  0.00    -0.237 OA
ATOM     57  O   UNL A   1      43.028  20.962  25.309  1.00  0.00    -0.237 OA
ATOM     58  O   UNL A   1      42.335  20.954  27.673  1.00  0.00    -0.744 OA
ENDBRANCH  52  55
ENDBRANCH  24  48
BRANCH  36  59
ATOM     59  C   UNL A   1      45.491  26.344  33.956  1.00  0.00     0.023 A 
ATOM     60  C   UNL A   1      46.782  26.903  33.973  1.00  0.00     0.012 A 
ATOM     61  C   UNL A   1      45.183  25.269  34.815  1.00  0.00     0.148 A 
ATOM     62  C   UNL A   1      47.754  26.400  34.835  1.00  0.00     0.002 A 
ATOM     63  C   UNL A   1      46.140  24.810  35.708  1.00  0.00     0.091 A 
ATOM     64  F   UNL A   1      43.950  24.744  34.763  1.00  0.00    -0.205 F 
ATOM     65  C   UNL A   1      47.428  25.368  35.714  1.00  0.00     0.022 A 
BRANCH  63  66
ATOM     66  S   UNL A   1      45.771  23.577  36.962  1.00  0.00     0.127 S 
ATOM     67  O   UNL A   1      44.737  24.251  37.746  1.00  0.00    -0.237 OA
ATOM     68  O   UNL A   1      45.293  22.453  36.158  1.00  0.00    -0.237 OA
ATOM     69  O   UNL A   1      47.022  23.330  37.667  1.00  0.00    -0.744 OA
ENDBRANCH  63  66
ENDBRANCH  36  59
ENDBRANCH  10  11
ENDBRANCH   3   5
ENDBRANCH   2   3
ENDBRANCH   1   2
BRANCH   1  70
ATOM     70  C   UNL A   1      31.404  29.703  25.648  1.00  0.00     0.275 C 
BRANCH  70  71
ATOM     71  O   UNL A   1      32.102  28.448  25.710  1.00  0.00    -0.458 OA
BRANCH  71  72
ATOM     72  C   UNL A   1      31.417  27.499  26.401  1.00  0.00     0.342 C 
ATOM     73  O   UNL A   1      31.167  27.598  27.591  1.00  0.00    -0.246 OA
BRANCH  72  74
ATOM     74  C   UNL A   1      31.142  26.314  25.559  1.00  0.00     0.103 A 
ATOM     75  C   UNL A   1      31.797  25.142  25.980  1.00  0.00     0.035 A 
ATOM     76  C   UNL A   1      30.276  26.249  24.454  1.00  0.00     0.134 A 
ATOM     77  C   UNL A   1      31.657  23.952  25.266  1.00  0.00     0.019 A 
ATOM     78  C   UNL A   1      30.264  25.071  23.679  1.00  0.00     0.048 A 
ATOM     79  Br  UNL A   1      32.364  22.348  25.959  1.00  0.00    -0.051 Br
ATOM     80  C   UNL A   1      30.951  23.928  24.076  1.00  0.00     0.019 A 
BRANCH  76  81
ATOM     81  O   UNL A   1      29.364  27.131  23.954  1.00  0.00    -0.488 OA
BRANCH  81  82
ATOM     82  C   UNL A   1      29.578  27.974  22.821  1.00  0.00     0.268 C 
BRANCH  82  83
ATOM     83  C   UNL A   1      28.818  29.277  22.701  1.00  0.00     0.025 A 
ATOM     84  C   UNL A   1      27.631  29.564  23.390  1.00  0.00     0.010 A 
ATOM     85  C   UNL A   1      29.467  30.322  22.028  1.00  0.00     0.129 A 
ATOM     86  C   UNL A   1      27.238  30.895  23.572  1.00  0.00     0.001 A 
ATOM     87  C   UNL A   1      29.065  31.644  22.185  1.00  0.00     0.039 A 
ATOM     88  F   UNL A   1      30.572  30.068  21.311  1.00  0.00    -0.207 F 
ATOM     89  C   UNL A   1      27.973  31.934  22.999  1.00  0.00     0.003 A 
ENDBRANCH  82  83
ENDBRANCH  81  82
ENDBRANCH  76  81
ENDBRANCH  72  74
ENDBRANCH  71  72
ENDBRANCH  70  71
ENDBRANCH   1  70
TORSDOF 17
ENDMDL
