MODEL 1
REMARK VINA RESULT:     -11.6      0.000      0.000
REMARK SMILES O=C(OCCOC(=O)c1ccccc1Nc1nc(Cl)nc(Nc2ccc(N3CCOCC3=O)cc2)n1)c1ccc(-c2c3nc(c(-c4cccc(S(=O)(=O)[O-])c4F)c4ccc([nH]4)c(-c4cccc(S(=O)(=O)[O-])c4F)c4nc(c(-c5cccc(S(=O)(=O)[O-])c5F)c5ccc2[nH]5)C=C4)C=C3)cc1
REMARK SMILES IDX 5 1 4 2 3 3 2 4 1 5 37 6 38 7 99 8 39 9 98 10 40 11 41 12
REMARK SMILES IDX 42 13 92 14 43 15 97 16 91 17 93 18 44 19 96 20 90 21 89 22
REMARK SMILES IDX 45 24 77 25 57 26 76 27 58 28 61 29 75 30 94 31 59 32 60 33
REMARK SMILES IDX 74 35 95 36 62 37 46 38 47 39 55 40 48 41 50 42 56 43 49 44
REMARK SMILES IDX 51 45 52 46 53 47 54 48 78 49 79 50 87 51 80 52 82 53 88 54
REMARK SMILES IDX 81 55 83 56 84 57 85 58 86 59 63 60 64 61 72 62 65 63 67 64
REMARK SMILES IDX 73 65 66 66 68 67 69 68 70 69 71 70 6 71 7 72 8 73 9 74
REMARK SMILES IDX 10 75 14 76 11 77 13 78 12 79 15 80 16 82 17 83 36 84 18 85
REMARK SMILES IDX 21 86 19 87 20 88 22 89 23 91 24 92 35 93 25 94 34 95 26 96
REMARK SMILES IDX 27 97 28 98 32 99 29 100 31 101 33 102 30 103
REMARK H PARENT 93 23 61 34 15 81 22 90
REMARK Flexibility Score: inf
ROOT
ATOM      1  C   UNL A   1      42.110  19.273  26.433  1.00  0.00     0.275 C 
ENDROOT
BRANCH   1   2
ATOM      2  C   UNL A   1      43.217  18.555  25.658  1.00  0.00     0.275 C 
BRANCH   2   3
ATOM      3  O   UNL A   1      43.710  19.295  24.527  1.00  0.00    -0.458 OA
BRANCH   3   4
ATOM      4  C   UNL A   1      44.812  20.064  24.369  1.00  0.00     0.338 C 
ATOM      5  O   UNL A   1      45.806  19.534  23.873  1.00  0.00    -0.246 OA
BRANCH   4   6
ATOM      6  C   UNL A   1      44.948  21.496  24.816  1.00  0.00     0.060 A 
ATOM      7  C   UNL A   1      44.622  22.637  24.078  1.00  0.00     0.016 A 
ATOM      8  C   UNL A   1      45.439  21.694  26.125  1.00  0.00     0.016 A 
ATOM      9  C   UNL A   1      44.746  23.919  24.626  1.00  0.00     0.010 A 
ATOM     10  C   UNL A   1      45.565  22.974  26.680  1.00  0.00     0.010 A 
ATOM     11  C   UNL A   1      45.220  24.097  25.927  1.00  0.00    -0.014 A 
BRANCH  11  12
ATOM     12  C   UNL A   1      45.393  25.472  26.449  1.00  0.00     0.031 A 
ATOM     13  C   UNL A   1      46.712  26.141  26.304  1.00  0.00     0.074 A 
ATOM     14  C   UNL A   1      44.355  26.126  27.001  1.00  0.00     0.049 A 
ATOM     15  N   UNL A   1      47.026  27.376  26.574  1.00  0.00    -0.248 NA
ATOM     16  C   UNL A   1      47.820  25.322  25.789  1.00  0.00     0.031 C 
ATOM     17  C   UNL A   1      43.045  25.529  27.174  1.00  0.00     0.029 A 
ATOM     18  N   UNL A   1      44.200  27.393  27.498  1.00  0.00    -0.354 N 
ATOM     19  C   UNL A   1      48.381  27.476  26.309  1.00  0.00     0.074 A 
ATOM     20  C   UNL A   1      48.824  26.186  25.827  1.00  0.00     0.031 C 
ATOM     21  C   UNL A   1      42.199  26.421  27.705  1.00  0.00     0.029 A 
ATOM     22  C   UNL A   1      42.917  27.662  27.931  1.00  0.00     0.049 A 
ATOM     23  H   UNL A   1      44.933  28.048  27.544  1.00  0.00     0.167 HD
ATOM     24  C   UNL A   1      49.178  28.552  26.484  1.00  0.00     0.034 A 
ATOM     25  C   UNL A   1      42.374  28.790  28.431  1.00  0.00     0.034 A 
ATOM     26  C   UNL A   1      48.715  29.813  26.992  1.00  0.00     0.049 A 
ATOM     27  C   UNL A   1      43.279  29.983  28.552  1.00  0.00     0.074 A 
ATOM     28  C   UNL A   1      49.443  30.966  27.218  1.00  0.00     0.029 A 
ATOM     29  N   UNL A   1      47.410  30.078  27.384  1.00  0.00    -0.354 N 
ATOM     30  N   UNL A   1      44.533  30.096  28.184  1.00  0.00    -0.248 NA
ATOM     31  C   UNL A   1      42.706  31.203  29.136  1.00  0.00     0.031 C 
ATOM     32  C   UNL A   1      48.588  31.913  27.789  1.00  0.00     0.029 A 
ATOM     33  C   UNL A   1      47.317  31.367  27.879  1.00  0.00     0.049 A 
ATOM     34  H   UNL A   1      46.660  29.443  27.319  1.00  0.00     0.167 HD
ATOM     35  C   UNL A   1      44.902  31.396  28.490  1.00  0.00     0.074 A 
ATOM     36  C   UNL A   1      43.720  32.050  29.018  1.00  0.00     0.031 C 
ATOM     37  C   UNL A   1      46.116  31.987  28.380  1.00  0.00     0.034 A 
BRANCH  24  38
ATOM     38  C   UNL A   1      50.636  28.372  26.184  1.00  0.00     0.023 A 
ATOM     39  C   UNL A   1      51.127  28.573  24.880  1.00  0.00     0.012 A 
ATOM     40  C   UNL A   1      51.521  28.001  27.214  1.00  0.00     0.148 A 
ATOM     41  C   UNL A   1      52.479  28.383  24.600  1.00  0.00     0.002 A 
ATOM     42  C   UNL A   1      52.872  27.855  26.937  1.00  0.00     0.091 A 
ATOM     43  F   UNL A   1      51.019  27.786  28.438  1.00  0.00    -0.205 F 
ATOM     44  C   UNL A   1      53.351  28.034  25.629  1.00  0.00     0.022 A 
BRANCH  42  45
ATOM     45  S   UNL A   1      54.082  27.464  28.203  1.00  0.00     0.127 S 
ATOM     46  O   UNL A   1      55.273  27.192  27.399  1.00  0.00    -0.237 OA
ATOM     47  O   UNL A   1      54.131  28.711  28.965  1.00  0.00    -0.237 OA
ATOM     48  O   UNL A   1      53.554  26.318  28.929  1.00  0.00    -0.744 OA
ENDBRANCH  42  45
ENDBRANCH  24  38
BRANCH  25  49
ATOM     49  C   UNL A   1      40.921  28.870  28.778  1.00  0.00     0.023 A 
ATOM     50  C   UNL A   1      39.963  28.886  27.743  1.00  0.00     0.012 A 
ATOM     51  C   UNL A   1      40.469  28.914  30.112  1.00  0.00     0.148 A 
ATOM     52  C   UNL A   1      38.600  28.997  28.026  1.00  0.00     0.002 A 
ATOM     53  C   UNL A   1      39.104  28.952  30.388  1.00  0.00     0.091 A 
ATOM     54  F   UNL A   1      41.379  28.915  31.098  1.00  0.00    -0.205 F 
ATOM     55  C   UNL A   1      38.168  29.020  29.347  1.00  0.00     0.022 A 
BRANCH  53  56
ATOM     56  S   UNL A   1      38.472  28.790  32.062  1.00  0.00     0.127 S 
ATOM     57  O   UNL A   1      39.126  29.903  32.743  1.00  0.00    -0.237 OA
ATOM     58  O   UNL A   1      37.029  28.951  31.865  1.00  0.00    -0.237 OA
ATOM     59  O   UNL A   1      38.863  27.451  32.485  1.00  0.00    -0.744 OA
ENDBRANCH  53  56
ENDBRANCH  25  49
BRANCH  37  60
ATOM     60  C   UNL A   1      46.225  33.403  28.870  1.00  0.00     0.023 A 
ATOM     61  C   UNL A   1      46.704  33.651  30.173  1.00  0.00     0.012 A 
ATOM     62  C   UNL A   1      45.925  34.482  28.019  1.00  0.00     0.148 A 
ATOM     63  C   UNL A   1      46.850  34.958  30.633  1.00  0.00     0.002 A 
ATOM     64  C   UNL A   1      46.125  35.780  28.467  1.00  0.00     0.091 A 
ATOM     65  F   UNL A   1      45.454  34.217  26.793  1.00  0.00    -0.205 F 
ATOM     66  C   UNL A   1      46.574  36.020  29.777  1.00  0.00     0.022 A 
BRANCH  64  67
ATOM     67  S   UNL A   1      45.895  37.208  27.405  1.00  0.00     0.127 S 
ATOM     68  O   UNL A   1      44.468  37.126  27.102  1.00  0.00    -0.237 OA
ATOM     69  O   UNL A   1      46.270  38.311  28.289  1.00  0.00    -0.237 OA
ATOM     70  O   UNL A   1      46.785  37.013  26.269  1.00  0.00    -0.744 OA
ENDBRANCH  64  67
ENDBRANCH  37  60
ENDBRANCH  11  12
ENDBRANCH   4   6
ENDBRANCH   3   4
ENDBRANCH   2   3
ENDBRANCH   1   2
BRANCH   1  71
ATOM     71  O   UNL A   1      41.384  20.206  25.625  1.00  0.00    -0.458 OA
BRANCH  71  72
ATOM     72  C   UNL A   1      40.030  20.190  25.801  1.00  0.00     0.340 C 
ATOM     73  O   UNL A   1      39.317  19.210  25.791  1.00  0.00    -0.246 OA
BRANCH  72  74
ATOM     74  C   UNL A   1      39.547  21.557  26.110  1.00  0.00     0.083 A 
ATOM     75  C   UNL A   1      40.409  22.371  26.862  1.00  0.00     0.018 A 
ATOM     76  C   UNL A   1      38.295  22.032  25.672  1.00  0.00     0.055 A 
ATOM     77  C   UNL A   1      40.018  23.659  27.212  1.00  0.00     0.001 A 
ATOM     78  C   UNL A   1      37.853  23.252  26.203  1.00  0.00     0.027 A 
ATOM     79  C   UNL A   1      38.726  24.083  26.917  1.00  0.00     0.002 A 
BRANCH  76  80
ATOM     80  N   UNL A   1      37.547  21.307  24.710  1.00  0.00    -0.323 N 
ATOM     81  H   UNL A   1      38.010  21.114  23.863  1.00  0.00     0.170 HD
BRANCH  80  82
ATOM     82  C   UNL A   1      36.239  20.831  24.812  1.00  0.00     0.233 A 
ATOM     83  N   UNL A   1      36.074  19.530  24.628  1.00  0.00    -0.182 NA
ATOM     84  N   UNL A   1      35.272  21.657  25.185  1.00  0.00    -0.176 NA
ATOM     85  C   UNL A   1      34.810  19.144  24.726  1.00  0.00     0.228 A 
ATOM     86  C   UNL A   1      34.071  21.121  25.388  1.00  0.00     0.233 A 
ATOM     87  Cl  UNL A   1      34.493  17.511  24.337  1.00  0.00    -0.041 Cl
ATOM     88  N   UNL A   1      33.779  19.855  25.146  1.00  0.00    -0.182 NA
BRANCH  86  89
ATOM     89  N   UNL A   1      33.123  22.003  25.891  1.00  0.00    -0.324 N 
ATOM     90  H   UNL A   1      32.875  21.817  26.825  1.00  0.00     0.170 HD
BRANCH  89  91
ATOM     91  C   UNL A   1      32.448  23.097  25.349  1.00  0.00     0.041 A 
ATOM     92  C   UNL A   1      32.415  24.282  26.095  1.00  0.00     0.028 A 
ATOM     93  C   UNL A   1      31.864  23.108  24.079  1.00  0.00     0.028 A 
ATOM     94  C   UNL A   1      31.859  25.452  25.572  1.00  0.00     0.028 A 
ATOM     95  C   UNL A   1      31.269  24.269  23.566  1.00  0.00     0.028 A 
ATOM     96  C   UNL A   1      31.291  25.459  24.298  1.00  0.00     0.044 A 
BRANCH  96  97
ATOM     97  N   UNL A   1      30.827  26.679  23.729  1.00  0.00    -0.308 N 
ATOM     98  C   UNL A   1      31.805  27.438  22.937  1.00  0.00     0.154 C 
ATOM     99  C   UNL A   1      29.462  26.964  23.631  1.00  0.00     0.253 C 
ATOM    100  C   UNL A   1      31.353  28.857  22.625  1.00  0.00     0.183 C 
ATOM    101  C   UNL A   1      29.115  28.269  22.892  1.00  0.00     0.260 C 
ATOM    102  O   UNL A   1      28.565  26.320  24.179  1.00  0.00    -0.272 OA
ATOM    103  O   UNL A   1      30.071  28.824  22.004  1.00  0.00    -0.370 OA
ENDBRANCH  96  97
ENDBRANCH  89  91
ENDBRANCH  86  89
ENDBRANCH  80  82
ENDBRANCH  76  80
ENDBRANCH  72  74
ENDBRANCH  71  72
ENDBRANCH   1  71
TORSDOF 19
ENDMDL
MODEL 2
REMARK VINA RESULT:     -11.3      1.592      7.418
REMARK SMILES O=C(OCCOC(=O)c1ccccc1Nc1nc(Cl)nc(Nc2ccc(N3CCOCC3=O)cc2)n1)c1ccc(-c2c3nc(c(-c4cccc(S(=O)(=O)[O-])c4F)c4ccc([nH]4)c(-c4cccc(S(=O)(=O)[O-])c4F)c4nc(c(-c5cccc(S(=O)(=O)[O-])c5F)c5ccc2[nH]5)C=C4)C=C3)cc1
REMARK SMILES IDX 5 1 4 2 3 3 2 4 1 5 37 6 38 7 99 8 39 9 98 10 40 11 41 12
REMARK SMILES IDX 42 13 92 14 43 15 97 16 91 17 93 18 44 19 96 20 90 21 89 22
REMARK SMILES IDX 45 24 77 25 57 26 76 27 58 28 61 29 75 30 94 31 59 32 60 33
REMARK SMILES IDX 74 35 95 36 62 37 46 38 47 39 55 40 48 41 50 42 56 43 49 44
REMARK SMILES IDX 51 45 52 46 53 47 54 48 78 49 79 50 87 51 80 52 82 53 88 54
REMARK SMILES IDX 81 55 83 56 84 57 85 58 86 59 63 60 64 61 72 62 65 63 67 64
REMARK SMILES IDX 73 65 66 66 68 67 69 68 70 69 71 70 6 71 7 72 8 73 9 74
REMARK SMILES IDX 10 75 14 76 11 77 13 78 12 79 15 80 16 82 17 83 36 84 18 85
REMARK SMILES IDX 21 86 19 87 20 88 22 89 23 91 24 92 35 93 25 94 34 95 26 96
REMARK SMILES IDX 27 97 28 98 32 99 29 100 31 101 33 102 30 103
REMARK H PARENT 93 23 61 34 15 81 22 90
REMARK Flexibility Score: inf
ROOT
ATOM      1  C   UNL A   1      42.360  19.111  26.914  1.00  0.00     0.275 C 
ENDROOT
BRANCH   1   2
ATOM      2  C   UNL A   1      42.886  18.279  25.743  1.00  0.00     0.275 C 
BRANCH   2   3
ATOM      3  O   UNL A   1      44.168  18.709  25.253  1.00  0.00    -0.458 OA
BRANCH   3   4
ATOM      4  C   UNL A   1      44.523  19.736  24.448  1.00  0.00     0.338 C 
ATOM      5  O   UNL A   1      44.668  19.493  23.248  1.00  0.00    -0.246 OA
BRANCH   4   6
ATOM      6  C   UNL A   1      44.825  21.139  24.905  1.00  0.00     0.060 A 
ATOM      7  C   UNL A   1      45.245  21.532  26.179  1.00  0.00     0.016 A 
ATOM      8  C   UNL A   1      44.686  22.153  23.932  1.00  0.00     0.016 A 
ATOM      9  C   UNL A   1      45.546  22.868  26.467  1.00  0.00     0.010 A 
ATOM     10  C   UNL A   1      44.986  23.492  24.214  1.00  0.00     0.010 A 
ATOM     11  C   UNL A   1      45.416  23.856  25.490  1.00  0.00    -0.014 A 
BRANCH  11  12
ATOM     12  C   UNL A   1      45.686  25.266  25.851  1.00  0.00     0.031 A 
ATOM     13  C   UNL A   1      44.578  26.105  26.378  1.00  0.00     0.074 A 
ATOM     14  C   UNL A   1      46.931  25.767  25.753  1.00  0.00     0.049 A 
ATOM     15  N   UNL A   1      44.638  27.310  26.869  1.00  0.00    -0.248 NA
ATOM     16  C   UNL A   1      43.230  25.517  26.353  1.00  0.00     0.031 C 
ATOM     17  C   UNL A   1      48.053  25.004  25.244  1.00  0.00     0.029 A 
ATOM     18  N   UNL A   1      47.483  26.981  26.066  1.00  0.00    -0.354 N 
ATOM     19  C   UNL A   1      43.331  27.650  27.169  1.00  0.00     0.074 A 
ATOM     20  C   UNL A   1      42.501  26.513  26.835  1.00  0.00     0.031 C 
ATOM     21  C   UNL A   1      49.173  25.736  25.302  1.00  0.00     0.029 A 
ATOM     22  C   UNL A   1      48.844  27.044  25.841  1.00  0.00     0.049 A 
ATOM     23  H   UNL A   1      46.960  27.737  26.417  1.00  0.00     0.167 HD
ATOM     24  C   UNL A   1      42.875  28.824  27.657  1.00  0.00     0.034 A 
ATOM     25  C   UNL A   1      49.729  28.034  26.065  1.00  0.00     0.034 A 
ATOM     26  C   UNL A   1      43.720  29.946  27.951  1.00  0.00     0.049 A 
ATOM     27  C   UNL A   1      49.193  29.302  26.665  1.00  0.00     0.074 A 
ATOM     28  C   UNL A   1      43.358  31.188  28.439  1.00  0.00     0.029 A 
ATOM     29  N   UNL A   1      45.094  29.976  27.756  1.00  0.00    -0.354 N 
ATOM     30  N   UNL A   1      47.968  29.565  27.056  1.00  0.00    -0.248 NA
ATOM     31  C   UNL A   1      50.144  30.401  26.872  1.00  0.00     0.031 C 
ATOM     32  C   UNL A   1      44.507  31.982  28.495  1.00  0.00     0.029 A 
ATOM     33  C   UNL A   1      45.593  31.224  28.085  1.00  0.00     0.049 A 
ATOM     34  H   UNL A   1      45.636  29.220  27.432  1.00  0.00     0.167 HD
ATOM     35  C   UNL A   1      47.998  30.857  27.555  1.00  0.00     0.074 A 
ATOM     36  C   UNL A   1      49.376  31.302  27.473  1.00  0.00     0.031 C 
ATOM     37  C   UNL A   1      46.975  31.622  28.006  1.00  0.00     0.034 A 
BRANCH  24  38
ATOM     38  C   UNL A   1      41.392  28.957  27.827  1.00  0.00     0.023 A 
ATOM     39  C   UNL A   1      40.561  29.166  26.710  1.00  0.00     0.012 A 
ATOM     40  C   UNL A   1      40.825  28.869  29.112  1.00  0.00     0.148 A 
ATOM     41  C   UNL A   1      39.184  29.312  26.873  1.00  0.00     0.002 A 
ATOM     42  C   UNL A   1      39.450  28.972  29.263  1.00  0.00     0.091 A 
ATOM     43  F   UNL A   1      41.644  28.701  30.160  1.00  0.00    -0.205 F 
ATOM     44  C   UNL A   1      38.629  29.205  28.147  1.00  0.00     0.022 A 
BRANCH  42  45
ATOM     45  S   UNL A   1      38.635  28.791  30.851  1.00  0.00     0.127 S 
ATOM     46  O   UNL A   1      38.967  27.409  31.198  1.00  0.00    -0.237 OA
ATOM     47  O   UNL A   1      39.317  29.804  31.655  1.00  0.00    -0.237 OA
ATOM     48  O   UNL A   1      37.221  29.042  30.614  1.00  0.00    -0.744 OA
ENDBRANCH  42  45
ENDBRANCH  24  38
BRANCH  25  49
ATOM     49  C   UNL A   1      51.190  27.850  25.798  1.00  0.00     0.023 A 
ATOM     50  C   UNL A   1      52.072  27.657  26.881  1.00  0.00     0.012 A 
ATOM     51  C   UNL A   1      51.720  27.848  24.492  1.00  0.00     0.148 A 
ATOM     52  C   UNL A   1      53.446  27.519  26.675  1.00  0.00     0.002 A 
ATOM     53  C   UNL A   1      53.083  27.638  24.289  1.00  0.00     0.091 A 
ATOM     54  F   UNL A   1      50.886  28.048  23.461  1.00  0.00    -0.205 F 
ATOM     55  C   UNL A   1      53.951  27.500  25.380  1.00  0.00     0.022 A 
BRANCH  53  56
ATOM     56  S   UNL A   1      53.771  27.409  22.646  1.00  0.00     0.127 S 
ATOM     57  O   UNL A   1      53.932  28.786  22.189  1.00  0.00    -0.237 OA
ATOM     58  O   UNL A   1      55.024  26.704  22.931  1.00  0.00    -0.237 OA
ATOM     59  O   UNL A   1      52.788  26.601  21.935  1.00  0.00    -0.744 OA
ENDBRANCH  53  56
ENDBRANCH  25  49
BRANCH  37  60
ATOM     60  C   UNL A   1      47.313  33.027  28.415  1.00  0.00     0.023 A 
ATOM     61  C   UNL A   1      47.707  33.288  29.744  1.00  0.00     0.012 A 
ATOM     62  C   UNL A   1      47.313  34.070  27.471  1.00  0.00     0.148 A 
ATOM     63  C   UNL A   1      48.064  34.576  30.135  1.00  0.00     0.002 A 
ATOM     64  C   UNL A   1      47.722  35.339  27.855  1.00  0.00     0.091 A 
ATOM     65  F   UNL A   1      46.918  33.798  26.219  1.00  0.00    -0.205 F 
ATOM     66  C   UNL A   1      48.084  35.597  29.188  1.00  0.00     0.022 A 
BRANCH  64  67
ATOM     67  S   UNL A   1      47.879  36.692  26.687  1.00  0.00     0.127 S 
ATOM     68  O   UNL A   1      48.335  37.779  27.551  1.00  0.00    -0.237 OA
ATOM     69  O   UNL A   1      48.889  36.181  25.761  1.00  0.00    -0.237 OA
ATOM     70  O   UNL A   1      46.558  36.874  26.101  1.00  0.00    -0.744 OA
ENDBRANCH  64  67
ENDBRANCH  37  60
ENDBRANCH  11  12
ENDBRANCH   4   6
ENDBRANCH   3   4
ENDBRANCH   2   3
ENDBRANCH   1   2
BRANCH   1  71
ATOM     71  O   UNL A   1      41.756  20.340  26.492  1.00  0.00    -0.458 OA
BRANCH  71  72
ATOM     72  C   UNL A   1      40.447  20.239  26.117  1.00  0.00     0.340 C 
ATOM     73  O   UNL A   1      39.864  19.221  25.812  1.00  0.00    -0.246 OA
BRANCH  72  74
ATOM     74  C   UNL A   1      39.790  21.562  26.226  1.00  0.00     0.083 A 
ATOM     75  C   UNL A   1      40.540  22.587  26.826  1.00  0.00     0.018 A 
ATOM     76  C   UNL A   1      38.484  21.799  25.749  1.00  0.00     0.055 A 
ATOM     77  C   UNL A   1      39.984  23.852  26.985  1.00  0.00     0.001 A 
ATOM     78  C   UNL A   1      37.888  23.018  26.100  1.00  0.00     0.027 A 
ATOM     79  C   UNL A   1      38.646  24.055  26.659  1.00  0.00     0.002 A 
BRANCH  76  80
ATOM     80  N   UNL A   1      37.836  20.845  24.927  1.00  0.00    -0.323 N 
ATOM     81  H   UNL A   1      38.408  20.381  24.274  1.00  0.00     0.170 HD
BRANCH  80  82
ATOM     82  C   UNL A   1      36.489  20.477  24.926  1.00  0.00     0.233 A 
ATOM     83  N   UNL A   1      36.227  19.214  24.627  1.00  0.00    -0.182 NA
ATOM     84  N   UNL A   1      35.574  21.352  25.319  1.00  0.00    -0.176 NA
ATOM     85  C   UNL A   1      34.933  18.932  24.632  1.00  0.00     0.228 A 
ATOM     86  C   UNL A   1      34.324  20.908  25.419  1.00  0.00     0.233 A 
ATOM     87  Cl  UNL A   1      34.503  17.369  24.095  1.00  0.00    -0.041 Cl
ATOM     88  N   UNL A   1      33.942  19.695  25.059  1.00  0.00    -0.182 NA
BRANCH  86  89
ATOM     89  N   UNL A   1      33.426  21.827  25.947  1.00  0.00    -0.324 N 
ATOM     90  H   UNL A   1      33.156  21.621  26.870  1.00  0.00     0.170 HD
BRANCH  89  91
ATOM     91  C   UNL A   1      32.825  22.980  25.441  1.00  0.00     0.041 A 
ATOM     92  C   UNL A   1      32.233  23.864  26.352  1.00  0.00     0.028 A 
ATOM     93  C   UNL A   1      32.839  23.345  24.092  1.00  0.00     0.028 A 
ATOM     94  C   UNL A   1      31.714  25.092  25.938  1.00  0.00     0.028 A 
ATOM     95  C   UNL A   1      32.283  24.559  23.665  1.00  0.00     0.028 A 
ATOM     96  C   UNL A   1      31.744  25.456  24.591  1.00  0.00     0.044 A 
BRANCH  96  97
ATOM     97  N   UNL A   1      31.315  26.754  24.191  1.00  0.00    -0.308 N 
ATOM     98  C   UNL A   1      29.928  26.858  23.715  1.00  0.00     0.154 C 
ATOM     99  C   UNL A   1      32.029  27.900  24.548  1.00  0.00     0.253 C 
ATOM    100  C   UNL A   1      29.630  28.178  23.020  1.00  0.00     0.183 C 
ATOM    101  C   UNL A   1      31.379  29.234  24.139  1.00  0.00     0.260 C 
ATOM    102  O   UNL A   1      33.157  27.902  25.047  1.00  0.00    -0.272 OA
ATOM    103  O   UNL A   1      29.986  29.260  23.876  1.00  0.00    -0.370 OA
ENDBRANCH  96  97
ENDBRANCH  89  91
ENDBRANCH  86  89
ENDBRANCH  80  82
ENDBRANCH  76  80
ENDBRANCH  72  74
ENDBRANCH  71  72
ENDBRANCH   1  71
TORSDOF 19
ENDMDL
MODEL 3
REMARK VINA RESULT:     -11.2      3.164      4.660
REMARK SMILES O=C(OCCOC(=O)c1ccccc1Nc1nc(Cl)nc(Nc2ccc(N3CCOCC3=O)cc2)n1)c1ccc(-c2c3nc(c(-c4cccc(S(=O)(=O)[O-])c4F)c4ccc([nH]4)c(-c4cccc(S(=O)(=O)[O-])c4F)c4nc(c(-c5cccc(S(=O)(=O)[O-])c5F)c5ccc2[nH]5)C=C4)C=C3)cc1
REMARK SMILES IDX 5 1 4 2 3 3 2 4 1 5 37 6 38 7 99 8 39 9 98 10 40 11 41 12
REMARK SMILES IDX 42 13 92 14 43 15 97 16 91 17 93 18 44 19 96 20 90 21 89 22
REMARK SMILES IDX 45 24 77 25 57 26 76 27 58 28 61 29 75 30 94 31 59 32 60 33
REMARK SMILES IDX 74 35 95 36 62 37 46 38 47 39 55 40 48 41 50 42 56 43 49 44
REMARK SMILES IDX 51 45 52 46 53 47 54 48 78 49 79 50 87 51 80 52 82 53 88 54
REMARK SMILES IDX 81 55 83 56 84 57 85 58 86 59 63 60 64 61 72 62 65 63 67 64
REMARK SMILES IDX 73 65 66 66 68 67 69 68 70 69 71 70 6 71 7 72 8 73 9 74
REMARK SMILES IDX 10 75 14 76 11 77 13 78 12 79 15 80 16 82 17 83 36 84 18 85
REMARK SMILES IDX 21 86 19 87 20 88 22 89 23 91 24 92 35 93 25 94 34 95 26 96
REMARK SMILES IDX 27 97 28 98 32 99 29 100 31 101 33 102 30 103
REMARK H PARENT 93 23 61 34 15 81 22 90
REMARK Flexibility Score: inf
ROOT
ATOM      1  C   UNL A   1      43.844  22.246  24.800  1.00  0.00     0.275 C 
ENDROOT
BRANCH   1   2
ATOM      2  C   UNL A   1      44.834  22.551  23.675  1.00  0.00     0.275 C 
BRANCH   2   3
ATOM      3  O   UNL A   1      45.780  23.586  23.996  1.00  0.00    -0.458 OA
BRANCH   3   4
ATOM      4  C   UNL A   1      46.255  24.031  25.182  1.00  0.00     0.338 C 
ATOM      5  O   UNL A   1      46.861  23.224  25.889  1.00  0.00    -0.246 OA
BRANCH   4   6
ATOM      6  C   UNL A   1      46.043  25.412  25.743  1.00  0.00     0.060 A 
ATOM      7  C   UNL A   1      45.550  26.527  25.060  1.00  0.00     0.016 A 
ATOM      8  C   UNL A   1      46.360  25.583  27.108  1.00  0.00     0.016 A 
ATOM      9  C   UNL A   1      45.349  27.750  25.709  1.00  0.00     0.010 A 
ATOM     10  C   UNL A   1      46.161  26.804  27.765  1.00  0.00     0.010 A 
ATOM     11  C   UNL A   1      45.655  27.899  27.063  1.00  0.00    -0.014 A 
BRANCH  11  12
ATOM     12  C   UNL A   1      45.484  29.225  27.699  1.00  0.00     0.031 A 
ATOM     13  C   UNL A   1      46.583  30.221  27.604  1.00  0.00     0.074 A 
ATOM     14  C   UNL A   1      44.329  29.542  28.311  1.00  0.00     0.049 A 
ATOM     15  N   UNL A   1      46.578  31.469  27.976  1.00  0.00    -0.248 NA
ATOM     16  C   UNL A   1      47.850  29.759  27.015  1.00  0.00     0.031 C 
ATOM     17  C   UNL A   1      43.221  28.616  28.440  1.00  0.00     0.029 A 
ATOM     18  N   UNL A   1      43.868  30.682  28.915  1.00  0.00    -0.354 N 
ATOM     19  C   UNL A   1      47.854  31.936  27.713  1.00  0.00     0.074 A 
ATOM     20  C   UNL A   1      48.599  30.847  27.120  1.00  0.00     0.031 C 
ATOM     21  C   UNL A   1      42.190  29.214  29.050  1.00  0.00     0.029 A 
ATOM     22  C   UNL A   1      42.571  30.576  29.376  1.00  0.00     0.049 A 
ATOM     23  H   UNL A   1      44.410  31.498  29.012  1.00  0.00     0.167 HD
ATOM     24  C   UNL A   1      48.353  33.164  27.974  1.00  0.00     0.034 A 
ATOM     25  C   UNL A   1      41.772  31.482  29.974  1.00  0.00     0.034 A 
ATOM     26  C   UNL A   1      47.597  34.217  28.590  1.00  0.00     0.049 A 
ATOM     27  C   UNL A   1      42.343  32.854  30.191  1.00  0.00     0.074 A 
ATOM     28  C   UNL A   1      48.011  35.496  28.910  1.00  0.00     0.029 A 
ATOM     29  N   UNL A   1      46.279  34.105  29.011  1.00  0.00    -0.354 N 
ATOM     30  N   UNL A   1      43.516  33.316  29.826  1.00  0.00    -0.248 NA
ATOM     31  C   UNL A   1      41.494  33.833  30.880  1.00  0.00     0.031 C 
ATOM     32  C   UNL A   1      46.957  36.141  29.564  1.00  0.00     0.029 A 
ATOM     33  C   UNL A   1      45.871  35.281  29.615  1.00  0.00     0.049 A 
ATOM     34  H   UNL A   1      45.715  33.305  28.897  1.00  0.00     0.167 HD
ATOM     35  C   UNL A   1      43.548  34.638  30.239  1.00  0.00     0.074 A 
ATOM     36  C   UNL A   1      42.253  34.920  30.829  1.00  0.00     0.031 C 
ATOM     37  C   UNL A   1      44.567  35.529  30.173  1.00  0.00     0.034 A 
BRANCH  24  38
ATOM     38  C   UNL A   1      49.799  33.390  27.651  1.00  0.00     0.023 A 
ATOM     39  C   UNL A   1      50.790  33.169  28.626  1.00  0.00     0.012 A 
ATOM     40  C   UNL A   1      50.169  33.823  26.364  1.00  0.00     0.148 A 
ATOM     41  C   UNL A   1      52.133  33.402  28.331  1.00  0.00     0.002 A 
ATOM     42  C   UNL A   1      51.510  34.011  26.064  1.00  0.00     0.091 A 
ATOM     43  F   UNL A   1      49.201  34.055  25.467  1.00  0.00    -0.205 F 
ATOM     44  C   UNL A   1      52.492  33.813  27.049  1.00  0.00     0.022 A 
BRANCH  42  45
ATOM     45  S   UNL A   1      52.078  34.483  24.429  1.00  0.00     0.127 S 
ATOM     46  O   UNL A   1      53.511  34.672  24.656  1.00  0.00    -0.237 OA
ATOM     47  O   UNL A   1      51.735  33.302  23.640  1.00  0.00    -0.237 OA
ATOM     48  O   UNL A   1      51.347  35.692  24.078  1.00  0.00    -0.744 OA
ENDBRANCH  42  45
ENDBRANCH  24  38
BRANCH  25  49
ATOM     49  C   UNL A   1      40.357  31.156  30.336  1.00  0.00     0.023 A 
ATOM     50  C   UNL A   1      39.312  31.574  29.485  1.00  0.00     0.012 A 
ATOM     51  C   UNL A   1      40.027  30.428  31.496  1.00  0.00     0.148 A 
ATOM     52  C   UNL A   1      37.977  31.322  29.807  1.00  0.00     0.002 A 
ATOM     53  C   UNL A   1      38.697  30.117  31.774  1.00  0.00     0.091 A 
ATOM     54  F   UNL A   1      41.017  30.043  32.315  1.00  0.00    -0.205 F 
ATOM     55  C   UNL A   1      37.669  30.585  30.945  1.00  0.00     0.022 A 
BRANCH  53  56
ATOM     56  S   UNL A   1      38.244  29.011  33.115  1.00  0.00     0.127 S 
ATOM     57  O   UNL A   1      38.777  29.711  34.279  1.00  0.00    -0.237 OA
ATOM     58  O   UNL A   1      36.781  28.995  33.022  1.00  0.00    -0.237 OA
ATOM     59  O   UNL A   1      38.870  27.738  32.782  1.00  0.00    -0.744 OA
ENDBRANCH  53  56
ENDBRANCH  25  49
BRANCH  37  60
ATOM     60  C   UNL A   1      44.322  36.880  30.782  1.00  0.00     0.023 A 
ATOM     61  C   UNL A   1      44.654  37.103  32.134  1.00  0.00     0.012 A 
ATOM     62  C   UNL A   1      43.837  37.943  29.998  1.00  0.00     0.148 A 
ATOM     63  C   UNL A   1      44.473  38.359  32.707  1.00  0.00     0.002 A 
ATOM     64  C   UNL A   1      43.711  39.205  30.562  1.00  0.00     0.091 A 
ATOM     65  F   UNL A   1      43.513  37.698  28.721  1.00  0.00    -0.205 F 
ATOM     66  C   UNL A   1      44.014  39.411  31.919  1.00  0.00     0.022 A 
BRANCH  64  67
ATOM     67  S   UNL A   1      43.227  40.641  29.602  1.00  0.00     0.127 S 
ATOM     68  O   UNL A   1      43.298  41.704  30.603  1.00  0.00    -0.237 OA
ATOM     69  O   UNL A   1      44.272  40.693  28.580  1.00  0.00    -0.237 OA
ATOM     70  O   UNL A   1      41.893  40.354  29.091  1.00  0.00    -0.744 OA
ENDBRANCH  64  67
ENDBRANCH  37  60
ENDBRANCH  11  12
ENDBRANCH   4   6
ENDBRANCH   3   4
ENDBRANCH   2   3
ENDBRANCH   1   2
BRANCH   1  71
ATOM     71  O   UNL A   1      43.010  23.366  25.122  1.00  0.00    -0.458 OA
BRANCH  71  72
ATOM     72  C   UNL A   1      42.942  23.670  26.452  1.00  0.00     0.340 C 
ATOM     73  O   UNL A   1      43.683  23.264  27.320  1.00  0.00    -0.246 OA
BRANCH  72  74
ATOM     74  C   UNL A   1      41.870  24.666  26.685  1.00  0.00     0.083 A 
ATOM     75  C   UNL A   1      42.043  25.925  26.087  1.00  0.00     0.018 A 
ATOM     76  C   UNL A   1      40.726  24.378  27.456  1.00  0.00     0.055 A 
ATOM     77  C   UNL A   1      41.090  26.921  26.277  1.00  0.00     0.001 A 
ATOM     78  C   UNL A   1      39.892  25.454  27.788  1.00  0.00     0.027 A 
ATOM     79  C   UNL A   1      40.038  26.698  27.160  1.00  0.00     0.002 A 
BRANCH  76  80
ATOM     80  N   UNL A   1      40.436  23.045  27.841  1.00  0.00    -0.323 N 
ATOM     81  H   UNL A   1      40.357  22.885  28.809  1.00  0.00     0.170 HD
BRANCH  80  82
ATOM     82  C   UNL A   1      40.246  21.930  27.022  1.00  0.00     0.233 A 
ATOM     83  N   UNL A   1      41.107  20.937  27.177  1.00  0.00    -0.182 NA
ATOM     84  N   UNL A   1      39.183  21.875  26.233  1.00  0.00    -0.176 NA
ATOM     85  C   UNL A   1      40.881  19.916  26.364  1.00  0.00     0.228 A 
ATOM     86  C   UNL A   1      38.986  20.737  25.572  1.00  0.00     0.233 A 
ATOM     87  Cl  UNL A   1      42.046  18.667  26.385  1.00  0.00    -0.041 Cl
ATOM     88  N   UNL A   1      39.832  19.721  25.586  1.00  0.00    -0.182 NA
BRANCH  86  89
ATOM     89  N   UNL A   1      37.798  20.685  24.853  1.00  0.00    -0.324 N 
ATOM     90  H   UNL A   1      37.746  19.915  24.243  1.00  0.00     0.170 HD
BRANCH  89  91
ATOM     91  C   UNL A   1      36.665  21.498  24.814  1.00  0.00     0.041 A 
ATOM     92  C   UNL A   1      35.761  21.412  25.881  1.00  0.00     0.028 A 
ATOM     93  C   UNL A   1      36.409  22.442  23.816  1.00  0.00     0.028 A 
ATOM     94  C   UNL A   1      34.664  22.273  25.972  1.00  0.00     0.028 A 
ATOM     95  C   UNL A   1      35.287  23.280  23.882  1.00  0.00     0.028 A 
ATOM     96  C   UNL A   1      34.424  23.222  24.979  1.00  0.00     0.044 A 
BRANCH  96  97
ATOM     97  N   UNL A   1      33.370  24.167  25.133  1.00  0.00    -0.308 N 
ATOM     98  C   UNL A   1      33.766  25.512  25.572  1.00  0.00     0.154 C 
ATOM     99  C   UNL A   1      32.107  23.946  24.578  1.00  0.00     0.253 C 
ATOM    100  C   UNL A   1      32.588  26.370  26.014  1.00  0.00     0.183 C 
ATOM    101  C   UNL A   1      31.108  25.107  24.734  1.00  0.00     0.260 C 
ATOM    102  O   UNL A   1      31.725  22.878  24.096  1.00  0.00    -0.272 OA
ATOM    103  O   UNL A   1      31.611  26.410  24.978  1.00  0.00    -0.370 OA
ENDBRANCH  96  97
ENDBRANCH  89  91
ENDBRANCH  86  89
ENDBRANCH  80  82
ENDBRANCH  76  80
ENDBRANCH  72  74
ENDBRANCH  71  72
ENDBRANCH   1  71
TORSDOF 19
ENDMDL
