MODEL 1
REMARK VINA RESULT:     -12.8      0.000      0.000
REMARK SMILES O=C(OCCOC(=O)c1ccc(-c2c3nc(c(-c4cccc(S(=O)(=O)[O-])c4F)c4ccc([nH]4)c(-c4cccc(S(=O)(=O)[O-])c4F)c4nc(c(-c5cccc(S(=O)(=O)[O-])c5F)c5ccc2[nH]5)C=C4)C=C3)cc1)C1=Cc2c(ccc(Cl)c2Oc2ccccc2)O[C@H]1C(F)(F)F
REMARK SMILES IDX 5 1 4 2 3 3 2 4 1 5 72 6 73 7 89 8 74 9 88 10 75 11 80 12
REMARK SMILES IDX 76 13 78 14 77 15 79 16 90 17 91 18 92 19 93 20 81 21 82 22
REMARK SMILES IDX 83 23 87 24 84 25 86 26 85 27 6 28 7 29 8 30 9 31 10 32
REMARK SMILES IDX 71 33 11 34 70 35 12 36 13 37 14 38 64 39 15 40 69 41 63 42
REMARK SMILES IDX 65 43 16 44 68 45 62 46 61 47 17 49 49 50 29 51 48 52 30 53
REMARK SMILES IDX 33 54 47 55 66 56 31 57 32 58 46 60 67 61 34 62 18 63 19 64
REMARK SMILES IDX 27 65 20 66 22 67 28 68 21 69 23 70 24 71 25 72 26 73 50 74
REMARK SMILES IDX 51 75 59 76 52 77 54 78 60 79 53 80 55 81 56 82 57 83 58 84
REMARK SMILES IDX 35 85 36 86 44 87 37 88 39 89 45 90 38 91 40 92 41 93 42 94
REMARK SMILES IDX 43 95
REMARK H PARENT 65 48 33 59
REMARK Flexibility Score: inf
ROOT
ATOM      1  C   UNL A   1      31.944  30.573  26.642  1.00  0.00     0.275 C 
ENDROOT
BRANCH   1   2
ATOM      2  C   UNL A   1      31.672  29.448  25.640  1.00  0.00     0.275 C 
BRANCH   2   3
ATOM      3  O   UNL A   1      32.850  29.180  24.879  1.00  0.00    -0.459 OA
BRANCH   3   4
ATOM      4  C   UNL A   1      33.404  27.954  24.840  1.00  0.00     0.338 C 
ATOM      5  O   UNL A   1      34.380  27.713  25.541  1.00  0.00    -0.246 OA
BRANCH   4   6
ATOM      6  C   UNL A   1      32.890  26.927  23.881  1.00  0.00     0.088 C 
ATOM      7  C   UNL A   1      32.086  27.021  22.789  1.00  0.00     0.031 C 
ATOM      8  C   UNL A   1      32.891  25.563  24.494  1.00  0.00     0.316 C 
ATOM      9  C   UNL A   1      30.670  27.062  23.169  1.00  0.00     0.062 A 
ATOM     10  O   UNL A   1      31.533  24.996  24.328  1.00  0.00    -0.475 OA
ATOM     11  C   UNL A   1      30.496  25.912  24.036  1.00  0.00     0.131 A 
ATOM     12  C   UNL A   1      29.591  27.944  22.799  1.00  0.00     0.156 A 
ATOM     13  C   UNL A   1      29.256  25.617  24.553  1.00  0.00     0.049 A 
ATOM     14  C   UNL A   1      28.352  27.571  23.378  1.00  0.00     0.084 A 
ATOM     15  C   UNL A   1      28.193  26.451  24.226  1.00  0.00     0.028 A 
ATOM     16  Cl  UNL A   1      26.897  28.479  23.062  1.00  0.00    -0.080 Cl
BRANCH   8  17
ATOM     17  C   UNL A   1      34.078  24.786  23.873  1.00  0.00     0.430 C 
ATOM     18  F   UNL A   1      34.420  25.305  22.663  1.00  0.00    -0.167 F 
ATOM     19  F   UNL A   1      35.181  24.825  24.647  1.00  0.00    -0.167 F 
ATOM     20  F   UNL A   1      33.760  23.488  23.654  1.00  0.00    -0.167 F 
ENDBRANCH   8  17
BRANCH  12  21
ATOM     21  O   UNL A   1      29.368  29.038  21.939  1.00  0.00    -0.455 OA
BRANCH  21  22
ATOM     22  C   UNL A   1      29.015  30.364  22.081  1.00  0.00     0.127 A 
ATOM     23  C   UNL A   1      28.518  31.161  21.030  1.00  0.00     0.047 A 
ATOM     24  C   UNL A   1      29.337  31.032  23.276  1.00  0.00     0.047 A 
ATOM     25  C   UNL A   1      28.093  32.495  21.262  1.00  0.00     0.004 A 
ATOM     26  C   UNL A   1      28.931  32.364  23.506  1.00  0.00     0.004 A 
ATOM     27  C   UNL A   1      28.267  33.084  22.514  1.00  0.00     0.000 A 
ENDBRANCH  21  22
ENDBRANCH  12  21
ENDBRANCH   4   6
ENDBRANCH   3   4
ENDBRANCH   2   3
ENDBRANCH   1   2
BRANCH   1  28
ATOM     28  O   UNL A   1      33.071  30.356  27.436  1.00  0.00    -0.458 OA
BRANCH  28  29
ATOM     29  C   UNL A   1      33.560  31.544  27.736  1.00  0.00     0.338 C 
ATOM     30  O   UNL A   1      32.883  32.570  27.793  1.00  0.00    -0.246 OA
BRANCH  29  31
ATOM     31  C   UNL A   1      34.997  31.412  27.940  1.00  0.00     0.060 A 
ATOM     32  C   UNL A   1      35.344  30.130  28.301  1.00  0.00     0.016 A 
ATOM     33  C   UNL A   1      35.927  32.494  27.891  1.00  0.00     0.016 A 
ATOM     34  C   UNL A   1      36.559  29.975  28.876  1.00  0.00     0.010 A 
ATOM     35  C   UNL A   1      37.208  32.294  28.327  1.00  0.00     0.010 A 
ATOM     36  C   UNL A   1      37.458  31.058  28.898  1.00  0.00    -0.014 A 
BRANCH  36  37
ATOM     37  C   UNL A   1      38.695  30.796  29.584  1.00  0.00     0.031 A 
ATOM     38  C   UNL A   1      38.815  31.269  30.981  1.00  0.00     0.074 A 
ATOM     39  C   UNL A   1      39.471  29.923  28.934  1.00  0.00     0.049 A 
ATOM     40  N   UNL A   1      39.639  30.858  31.892  1.00  0.00    -0.248 NA
ATOM     41  C   UNL A   1      37.875  32.315  31.434  1.00  0.00     0.031 C 
ATOM     42  C   UNL A   1      39.249  29.477  27.547  1.00  0.00     0.029 A 
ATOM     43  N   UNL A   1      40.518  29.188  29.366  1.00  0.00    -0.354 N 
ATOM     44  C   UNL A   1      39.344  31.606  33.019  1.00  0.00     0.074 A 
ATOM     45  C   UNL A   1      38.266  32.505  32.687  1.00  0.00     0.031 C 
ATOM     46  C   UNL A   1      40.113  28.496  27.263  1.00  0.00     0.029 A 
ATOM     47  C   UNL A   1      40.968  28.305  28.421  1.00  0.00     0.049 A 
ATOM     48  H   UNL A   1      40.914  29.279  30.262  1.00  0.00     0.167 HD
ATOM     49  C   UNL A   1      39.956  31.516  34.218  1.00  0.00     0.034 A 
ATOM     50  C   UNL A   1      41.989  27.447  28.516  1.00  0.00     0.034 A 
ATOM     51  C   UNL A   1      41.036  30.592  34.430  1.00  0.00     0.049 A 
ATOM     52  C   UNL A   1      42.648  27.384  29.857  1.00  0.00     0.074 A 
ATOM     53  C   UNL A   1      41.782  30.373  35.567  1.00  0.00     0.029 A 
ATOM     54  N   UNL A   1      41.532  29.739  33.445  1.00  0.00    -0.354 N 
ATOM     55  N   UNL A   1      42.342  28.049  30.951  1.00  0.00    -0.248 NA
ATOM     56  C   UNL A   1      43.756  26.446  30.002  1.00  0.00     0.031 C 
ATOM     57  C   UNL A   1      42.760  29.422  35.252  1.00  0.00     0.029 A 
ATOM     58  C   UNL A   1      42.589  29.003  33.936  1.00  0.00     0.049 A 
ATOM     59  H   UNL A   1      41.178  29.671  32.528  1.00  0.00     0.167 HD
ATOM     60  C   UNL A   1      43.209  27.603  31.928  1.00  0.00     0.074 A 
ATOM     61  C   UNL A   1      44.030  26.581  31.292  1.00  0.00     0.031 C 
ATOM     62  C   UNL A   1      43.338  27.994  33.221  1.00  0.00     0.034 A 
BRANCH  49  63
ATOM     63  C   UNL A   1      39.510  32.455  35.301  1.00  0.00     0.023 A 
ATOM     64  C   UNL A   1      38.514  32.070  36.223  1.00  0.00     0.012 A 
ATOM     65  C   UNL A   1      40.070  33.743  35.393  1.00  0.00     0.148 A 
ATOM     66  C   UNL A   1      38.063  32.963  37.197  1.00  0.00     0.002 A 
ATOM     67  C   UNL A   1      39.650  34.610  36.394  1.00  0.00     0.091 A 
ATOM     68  F   UNL A   1      40.983  34.106  34.482  1.00  0.00    -0.205 F 
ATOM     69  C   UNL A   1      38.637  34.227  37.290  1.00  0.00     0.022 A 
BRANCH  67  70
ATOM     70  S   UNL A   1      40.371  36.237  36.632  1.00  0.00     0.127 S 
ATOM     71  O   UNL A   1      39.986  36.915  35.394  1.00  0.00    -0.237 OA
ATOM     72  O   UNL A   1      39.671  36.705  37.827  1.00  0.00    -0.237 OA
ATOM     73  O   UNL A   1      41.801  36.026  36.800  1.00  0.00    -0.744 OA
ENDBRANCH  67  70
ENDBRANCH  49  63
BRANCH  50  74
ATOM     74  C   UNL A   1      42.383  26.645  27.333  1.00  0.00     0.023 A 
ATOM     75  C   UNL A   1      43.201  27.199  26.335  1.00  0.00     0.012 A 
ATOM     76  C   UNL A   1      42.020  25.283  27.251  1.00  0.00     0.148 A 
ATOM     77  C   UNL A   1      43.622  26.419  25.257  1.00  0.00     0.002 A 
ATOM     78  C   UNL A   1      42.485  24.499  26.205  1.00  0.00     0.091 A 
ATOM     79  F   UNL A   1      41.250  24.771  28.222  1.00  0.00    -0.205 F 
ATOM     80  C   UNL A   1      43.273  25.070  25.196  1.00  0.00     0.022 A 
BRANCH  78  81
ATOM     81  S   UNL A   1      42.188  22.730  26.127  1.00  0.00     0.127 S 
ATOM     82  O   UNL A   1      42.790  22.386  24.842  1.00  0.00    -0.237 OA
ATOM     83  O   UNL A   1      42.917  22.246  27.300  1.00  0.00    -0.237 OA
ATOM     84  O   UNL A   1      40.743  22.569  26.212  1.00  0.00    -0.744 OA
ENDBRANCH  78  81
ENDBRANCH  50  74
BRANCH  62  85
ATOM     85  C   UNL A   1      44.392  27.278  34.006  1.00  0.00     0.023 A 
ATOM     86  C   UNL A   1      45.726  27.729  33.965  1.00  0.00     0.012 A 
ATOM     87  C   UNL A   1      44.034  26.197  34.829  1.00  0.00     0.148 A 
ATOM     88  C   UNL A   1      46.703  27.076  34.707  1.00  0.00     0.002 A 
ATOM     89  C   UNL A   1      45.000  25.597  35.617  1.00  0.00     0.091 A 
ATOM     90  F   UNL A   1      42.758  25.785  34.826  1.00  0.00    -0.205 F 
ATOM     91  C   UNL A   1      46.337  26.021  35.543  1.00  0.00     0.022 A 
BRANCH  89  92
ATOM     92  S   UNL A   1      44.595  24.322  36.808  1.00  0.00     0.127 S 
ATOM     93  O   UNL A   1      44.371  23.167  35.940  1.00  0.00    -0.237 OA
ATOM     94  O   UNL A   1      45.816  24.258  37.612  1.00  0.00    -0.237 OA
ATOM     95  O   UNL A   1      43.422  24.798  37.528  1.00  0.00    -0.744 OA
ENDBRANCH  89  92
ENDBRANCH  62  85
ENDBRANCH  36  37
ENDBRANCH  29  31
ENDBRANCH  28  29
ENDBRANCH   1  28
TORSDOF 17
ENDMDL
MODEL 2
REMARK VINA RESULT:     -12.7      4.610      9.514
REMARK SMILES O=C(OCCOC(=O)c1ccc(-c2c3nc(c(-c4cccc(S(=O)(=O)[O-])c4F)c4ccc([nH]4)c(-c4cccc(S(=O)(=O)[O-])c4F)c4nc(c(-c5cccc(S(=O)(=O)[O-])c5F)c5ccc2[nH]5)C=C4)C=C3)cc1)C1=Cc2c(ccc(Cl)c2Oc2ccccc2)O[C@H]1C(F)(F)F
REMARK SMILES IDX 5 1 4 2 3 3 2 4 1 5 72 6 73 7 89 8 74 9 88 10 75 11 80 12
REMARK SMILES IDX 76 13 78 14 77 15 79 16 90 17 91 18 92 19 93 20 81 21 82 22
REMARK SMILES IDX 83 23 87 24 84 25 86 26 85 27 6 28 7 29 8 30 9 31 10 32
REMARK SMILES IDX 71 33 11 34 70 35 12 36 13 37 14 38 64 39 15 40 69 41 63 42
REMARK SMILES IDX 65 43 16 44 68 45 62 46 61 47 17 49 49 50 29 51 48 52 30 53
REMARK SMILES IDX 33 54 47 55 66 56 31 57 32 58 46 60 67 61 34 62 18 63 19 64
REMARK SMILES IDX 27 65 20 66 22 67 28 68 21 69 23 70 24 71 25 72 26 73 50 74
REMARK SMILES IDX 51 75 59 76 52 77 54 78 60 79 53 80 55 81 56 82 57 83 58 84
REMARK SMILES IDX 35 85 36 86 44 87 37 88 39 89 45 90 38 91 40 92 41 93 42 94
REMARK SMILES IDX 43 95
REMARK H PARENT 65 48 33 59
REMARK Flexibility Score: inf
ROOT
ATOM      1  C   UNL A   1      36.727  22.148  24.280  1.00  0.00     0.275 C 
ENDROOT
BRANCH   1   2
ATOM      2  C   UNL A   1      36.286  22.843  22.989  1.00  0.00     0.275 C 
BRANCH   2   3
ATOM      3  O   UNL A   1      35.191  23.719  23.258  1.00  0.00    -0.459 OA
BRANCH   3   4
ATOM      4  C   UNL A   1      33.974  23.517  22.721  1.00  0.00     0.338 C 
ATOM      5  O   UNL A   1      33.874  23.328  21.513  1.00  0.00    -0.246 OA
BRANCH   4   6
ATOM      6  C   UNL A   1      32.749  23.616  23.574  1.00  0.00     0.088 C 
ATOM      7  C   UNL A   1      31.711  24.493  23.580  1.00  0.00     0.031 C 
ATOM      8  C   UNL A   1      32.946  22.931  24.889  1.00  0.00     0.316 C 
ATOM      9  C   UNL A   1      32.051  25.722  24.303  1.00  0.00     0.062 A 
ATOM     10  O   UNL A   1      32.592  23.896  25.955  1.00  0.00    -0.475 OA
ATOM     11  C   UNL A   1      32.549  25.260  25.585  1.00  0.00     0.131 A 
ATOM     12  C   UNL A   1      31.922  27.117  23.962  1.00  0.00     0.156 A 
ATOM     13  C   UNL A   1      32.929  26.166  26.548  1.00  0.00     0.049 A 
ATOM     14  C   UNL A   1      32.340  27.981  25.006  1.00  0.00     0.084 A 
ATOM     15  C   UNL A   1      32.828  27.520  26.250  1.00  0.00     0.028 A 
ATOM     16  Cl  UNL A   1      32.261  29.714  24.831  1.00  0.00    -0.080 Cl
BRANCH   8  17
ATOM     17  C   UNL A   1      32.158  21.598  24.830  1.00  0.00     0.430 C 
ATOM     18  F   UNL A   1      32.864  20.590  25.412  1.00  0.00    -0.167 F 
ATOM     19  F   UNL A   1      30.973  21.671  25.467  1.00  0.00    -0.167 F 
ATOM     20  F   UNL A   1      31.929  21.214  23.552  1.00  0.00    -0.167 F 
ENDBRANCH   8  17
BRANCH  12  21
ATOM     21  O   UNL A   1      31.406  27.904  22.913  1.00  0.00    -0.455 OA
BRANCH  21  22
ATOM     22  C   UNL A   1      30.225  28.569  22.652  1.00  0.00     0.127 A 
ATOM     23  C   UNL A   1      30.150  29.788  21.948  1.00  0.00     0.047 A 
ATOM     24  C   UNL A   1      29.043  28.130  23.273  1.00  0.00     0.047 A 
ATOM     25  C   UNL A   1      28.897  30.378  21.638  1.00  0.00     0.004 A 
ATOM     26  C   UNL A   1      27.795  28.723  22.982  1.00  0.00     0.004 A 
ATOM     27  C   UNL A   1      27.715  29.821  22.127  1.00  0.00     0.000 A 
ENDBRANCH  21  22
ENDBRANCH  12  21
ENDBRANCH   4   6
ENDBRANCH   3   4
ENDBRANCH   2   3
ENDBRANCH   1   2
BRANCH   1  28
ATOM     28  O   UNL A   1      37.386  22.993  25.174  1.00  0.00    -0.458 OA
BRANCH  28  29
ATOM     29  C   UNL A   1      38.385  22.300  25.685  1.00  0.00     0.338 C 
ATOM     30  O   UNL A   1      38.627  21.128  25.397  1.00  0.00    -0.246 OA
BRANCH  29  31
ATOM     31  C   UNL A   1      39.089  23.145  26.642  1.00  0.00     0.060 A 
ATOM     32  C   UNL A   1      38.590  24.428  26.651  1.00  0.00     0.016 A 
ATOM     33  C   UNL A   1      40.232  22.741  27.395  1.00  0.00     0.016 A 
ATOM     34  C   UNL A   1      39.383  25.378  27.196  1.00  0.00     0.010 A 
ATOM     35  C   UNL A   1      40.948  23.684  28.080  1.00  0.00     0.010 A 
ATOM     36  C   UNL A   1      40.552  24.996  27.880  1.00  0.00    -0.014 A 
BRANCH  36  37
ATOM     37  C   UNL A   1      41.347  26.091  28.369  1.00  0.00     0.031 A 
ATOM     38  C   UNL A   1      42.704  26.256  27.802  1.00  0.00     0.074 A 
ATOM     39  C   UNL A   1      40.635  26.965  29.086  1.00  0.00     0.049 A 
ATOM     40  N   UNL A   1      43.442  27.321  27.801  1.00  0.00    -0.248 NA
ATOM     41  C   UNL A   1      43.309  25.094  27.120  1.00  0.00     0.031 C 
ATOM     42  C   UNL A   1      39.266  26.727  29.577  1.00  0.00     0.029 A 
ATOM     43  N   UNL A   1      40.907  28.240  29.437  1.00  0.00    -0.354 N 
ATOM     44  C   UNL A   1      44.607  26.961  27.147  1.00  0.00     0.074 A 
ATOM     45  C   UNL A   1      44.492  25.576  26.763  1.00  0.00     0.031 C 
ATOM     46  C   UNL A   1      38.799  27.855  30.123  1.00  0.00     0.029 A 
ATOM     47  C   UNL A   1      39.856  28.849  30.069  1.00  0.00     0.049 A 
ATOM     48  H   UNL A   1      41.768  28.682  29.259  1.00  0.00     0.167 HD
ATOM     49  C   UNL A   1      45.668  27.760  26.911  1.00  0.00     0.034 A 
ATOM     50  C   UNL A   1      39.796  30.093  30.556  1.00  0.00     0.034 A 
ATOM     51  C   UNL A   1      45.680  29.126  27.359  1.00  0.00     0.049 A 
ATOM     52  C   UNL A   1      40.995  30.944  30.283  1.00  0.00     0.074 A 
ATOM     53  C   UNL A   1      46.668  30.076  27.224  1.00  0.00     0.029 A 
ATOM     54  N   UNL A   1      44.631  29.723  28.057  1.00  0.00    -0.354 N 
ATOM     55  N   UNL A   1      42.086  30.631  29.615  1.00  0.00    -0.248 NA
ATOM     56  C   UNL A   1      40.958  32.313  30.786  1.00  0.00     0.031 C 
ATOM     57  C   UNL A   1      46.233  31.232  27.885  1.00  0.00     0.029 A 
ATOM     58  C   UNL A   1      44.950  31.024  28.381  1.00  0.00     0.049 A 
ATOM     59  H   UNL A   1      43.782  29.279  28.286  1.00  0.00     0.167 HD
ATOM     60  C   UNL A   1      42.868  31.768  29.600  1.00  0.00     0.074 A 
ATOM     61  C   UNL A   1      42.099  32.788  30.302  1.00  0.00     0.031 C 
ATOM     62  C   UNL A   1      44.104  31.967  29.077  1.00  0.00     0.034 A 
BRANCH  49  63
ATOM     63  C   UNL A   1      46.856  27.157  26.221  1.00  0.00     0.023 A 
ATOM     64  C   UNL A   1      46.942  27.145  24.812  1.00  0.00     0.012 A 
ATOM     65  C   UNL A   1      47.891  26.574  26.976  1.00  0.00     0.148 A 
ATOM     66  C   UNL A   1      48.022  26.537  24.170  1.00  0.00     0.002 A 
ATOM     67  C   UNL A   1      48.986  26.012  26.332  1.00  0.00     0.091 A 
ATOM     68  F   UNL A   1      47.771  26.556  28.311  1.00  0.00    -0.205 F 
ATOM     69  C   UNL A   1      49.048  25.980  24.928  1.00  0.00     0.022 A 
BRANCH  67  70
ATOM     70  S   UNL A   1      50.386  25.324  27.221  1.00  0.00     0.127 S 
ATOM     71  O   UNL A   1      50.771  26.444  28.080  1.00  0.00    -0.237 OA
ATOM     72  O   UNL A   1      49.773  24.198  27.924  1.00  0.00    -0.237 OA
ATOM     73  O   UNL A   1      51.367  24.956  26.210  1.00  0.00    -0.744 OA
ENDBRANCH  67  70
ENDBRANCH  49  63
BRANCH  50  74
ATOM     74  C   UNL A   1      38.592  30.530  31.302  1.00  0.00     0.023 A 
ATOM     75  C   UNL A   1      38.519  30.369  32.696  1.00  0.00     0.012 A 
ATOM     76  C   UNL A   1      37.550  31.203  30.629  1.00  0.00     0.148 A 
ATOM     77  C   UNL A   1      37.411  30.841  33.402  1.00  0.00     0.002 A 
ATOM     78  C   UNL A   1      36.477  31.716  31.343  1.00  0.00     0.091 A 
ATOM     79  F   UNL A   1      37.647  31.358  29.301  1.00  0.00    -0.205 F 
ATOM     80  C   UNL A   1      36.396  31.521  32.729  1.00  0.00     0.022 A 
BRANCH  78  81
ATOM     81  S   UNL A   1      35.200  32.714  30.569  1.00  0.00     0.127 S 
ATOM     82  O   UNL A   1      34.742  31.830  29.501  1.00  0.00    -0.237 OA
ATOM     83  O   UNL A   1      34.250  32.899  31.667  1.00  0.00    -0.237 OA
ATOM     84  O   UNL A   1      35.861  33.937  30.138  1.00  0.00    -0.744 OA
ENDBRANCH  78  81
ENDBRANCH  50  74
BRANCH  62  85
ATOM     85  C   UNL A   1      44.654  33.351  29.237  1.00  0.00     0.023 A 
ATOM     86  C   UNL A   1      45.527  33.638  30.304  1.00  0.00     0.012 A 
ATOM     87  C   UNL A   1      44.345  34.337  28.287  1.00  0.00     0.148 A 
ATOM     88  C   UNL A   1      46.054  34.917  30.445  1.00  0.00     0.002 A 
ATOM     89  C   UNL A   1      44.928  35.587  28.396  1.00  0.00     0.091 A 
ATOM     90  F   UNL A   1      43.494  34.030  27.297  1.00  0.00    -0.205 F 
ATOM     91  C   UNL A   1      45.766  35.886  29.483  1.00  0.00     0.022 A 
BRANCH  89  92
ATOM     92  S   UNL A   1      44.712  36.848  27.141  1.00  0.00     0.127 S 
ATOM     93  O   UNL A   1      44.846  38.073  27.927  1.00  0.00    -0.237 OA
ATOM     94  O   UNL A   1      45.829  36.573  26.238  1.00  0.00    -0.237 OA
ATOM     95  O   UNL A   1      43.396  36.620  26.561  1.00  0.00    -0.744 OA
ENDBRANCH  89  92
ENDBRANCH  62  85
ENDBRANCH  36  37
ENDBRANCH  29  31
ENDBRANCH  28  29
ENDBRANCH   1  28
TORSDOF 17
ENDMDL
MODEL 3
REMARK VINA RESULT:     -12.3      5.034      7.752
REMARK SMILES O=C(OCCOC(=O)c1ccc(-c2c3nc(c(-c4cccc(S(=O)(=O)[O-])c4F)c4ccc([nH]4)c(-c4cccc(S(=O)(=O)[O-])c4F)c4nc(c(-c5cccc(S(=O)(=O)[O-])c5F)c5ccc2[nH]5)C=C4)C=C3)cc1)C1=Cc2c(ccc(Cl)c2Oc2ccccc2)O[C@H]1C(F)(F)F
REMARK SMILES IDX 5 1 4 2 3 3 2 4 1 5 72 6 73 7 89 8 74 9 88 10 75 11 80 12
REMARK SMILES IDX 76 13 78 14 77 15 79 16 90 17 91 18 92 19 93 20 81 21 82 22
REMARK SMILES IDX 83 23 87 24 84 25 86 26 85 27 6 28 7 29 8 30 9 31 10 32
REMARK SMILES IDX 71 33 11 34 70 35 12 36 13 37 14 38 64 39 15 40 69 41 63 42
REMARK SMILES IDX 65 43 16 44 68 45 62 46 61 47 17 49 49 50 29 51 48 52 30 53
REMARK SMILES IDX 33 54 47 55 66 56 31 57 32 58 46 60 67 61 34 62 18 63 19 64
REMARK SMILES IDX 27 65 20 66 22 67 28 68 21 69 23 70 24 71 25 72 26 73 50 74
REMARK SMILES IDX 51 75 59 76 52 77 54 78 60 79 53 80 55 81 56 82 57 83 58 84
REMARK SMILES IDX 35 85 36 86 44 87 37 88 39 89 45 90 38 91 40 92 41 93 42 94
REMARK SMILES IDX 43 95
REMARK H PARENT 65 48 33 59
REMARK Flexibility Score: inf
ROOT
ATOM      1  C   UNL A   1      38.456  20.184  25.083  1.00  0.00     0.275 C 
ENDROOT
BRANCH   1   2
ATOM      2  C   UNL A   1      36.987  19.760  24.999  1.00  0.00     0.275 C 
BRANCH   2   3
ATOM      3  O   UNL A   1      36.180  20.877  24.625  1.00  0.00    -0.459 OA
BRANCH   3   4
ATOM      4  C   UNL A   1      35.051  21.189  25.288  1.00  0.00     0.338 C 
ATOM      5  O   UNL A   1      35.096  21.369  26.500  1.00  0.00    -0.246 OA
BRANCH   4   6
ATOM      6  C   UNL A   1      33.741  21.224  24.567  1.00  0.00     0.088 C 
ATOM      7  C   UNL A   1      33.084  22.222  23.918  1.00  0.00     0.031 C 
ATOM      8  C   UNL A   1      32.833  20.133  25.036  1.00  0.00     0.316 C 
ATOM      9  C   UNL A   1      32.347  23.076  24.853  1.00  0.00     0.062 A 
ATOM     10  O   UNL A   1      31.543  20.754  25.415  1.00  0.00    -0.475 OA
ATOM     11  C   UNL A   1      31.554  22.149  25.640  1.00  0.00     0.131 A 
ATOM     12  C   UNL A   1      32.289  24.507  25.022  1.00  0.00     0.156 A 
ATOM     13  C   UNL A   1      30.696  22.620  26.606  1.00  0.00     0.049 A 
ATOM     14  C   UNL A   1      31.386  24.905  26.040  1.00  0.00     0.084 A 
ATOM     15  C   UNL A   1      30.622  23.995  26.804  1.00  0.00     0.028 A 
ATOM     16  Cl  UNL A   1      31.134  26.589  26.416  1.00  0.00    -0.080 Cl
BRANCH   8  17
ATOM     17  C   UNL A   1      32.814  19.048  23.930  1.00  0.00     0.430 C 
ATOM     18  F   UNL A   1      32.398  19.570  22.744  1.00  0.00    -0.167 F 
ATOM     19  F   UNL A   1      34.030  18.507  23.719  1.00  0.00    -0.167 F 
ATOM     20  F   UNL A   1      31.951  18.049  24.231  1.00  0.00    -0.167 F 
ENDBRANCH   8  17
BRANCH  12  21
ATOM     21  O   UNL A   1      32.801  25.665  24.404  1.00  0.00    -0.455 OA
BRANCH  21  22
ATOM     22  C   UNL A   1      32.285  26.724  23.685  1.00  0.00     0.127 A 
ATOM     23  C   UNL A   1      31.070  26.672  22.974  1.00  0.00     0.047 A 
ATOM     24  C   UNL A   1      33.084  27.862  23.478  1.00  0.00     0.047 A 
ATOM     25  C   UNL A   1      30.551  27.823  22.325  1.00  0.00     0.004 A 
ATOM     26  C   UNL A   1      32.580  29.005  22.819  1.00  0.00     0.004 A 
ATOM     27  C   UNL A   1      31.295  29.003  22.281  1.00  0.00     0.000 A 
ENDBRANCH  21  22
ENDBRANCH  12  21
ENDBRANCH   4   6
ENDBRANCH   3   4
ENDBRANCH   2   3
ENDBRANCH   1   2
BRANCH   1  28
ATOM     28  O   UNL A   1      38.650  21.409  25.724  1.00  0.00    -0.458 OA
BRANCH  28  29
ATOM     29  C   UNL A   1      39.754  21.294  26.436  1.00  0.00     0.338 C 
ATOM     30  O   UNL A   1      40.346  20.231  26.619  1.00  0.00    -0.246 OA
BRANCH  29  31
ATOM     31  C   UNL A   1      40.096  22.607  26.969  1.00  0.00     0.060 A 
ATOM     32  C   UNL A   1      39.294  23.594  26.442  1.00  0.00     0.016 A 
ATOM     33  C   UNL A   1      41.197  22.870  27.838  1.00  0.00     0.016 A 
ATOM     34  C   UNL A   1      39.748  24.863  26.558  1.00  0.00     0.010 A 
ATOM     35  C   UNL A   1      41.560  24.165  28.084  1.00  0.00     0.010 A 
ATOM     36  C   UNL A   1      40.878  25.125  27.356  1.00  0.00    -0.014 A 
BRANCH  36  37
ATOM     37  C   UNL A   1      41.304  26.499  27.361  1.00  0.00     0.031 A 
ATOM     38  C   UNL A   1      40.551  27.444  28.217  1.00  0.00     0.074 A 
ATOM     39  C   UNL A   1      42.497  26.672  26.784  1.00  0.00     0.049 A 
ATOM     40  N   UNL A   1      40.940  28.596  28.663  1.00  0.00    -0.248 NA
ATOM     41  C   UNL A   1      39.201  27.041  28.661  1.00  0.00     0.031 C 
ATOM     42  C   UNL A   1      43.192  25.652  25.978  1.00  0.00     0.029 A 
ATOM     43  N   UNL A   1      43.369  27.699  26.862  1.00  0.00    -0.354 N 
ATOM     44  C   UNL A   1      39.882  29.075  29.416  1.00  0.00     0.074 A 
ATOM     45  C   UNL A   1      38.825  28.096  29.370  1.00  0.00     0.031 C 
ATOM     46  C   UNL A   1      44.418  26.097  25.680  1.00  0.00     0.029 A 
ATOM     47  C   UNL A   1      44.551  27.437  26.222  1.00  0.00     0.049 A 
ATOM     48  H   UNL A   1      43.175  28.544  27.327  1.00  0.00     0.167 HD
ATOM     49  C   UNL A   1      39.842  30.252  30.075  1.00  0.00     0.034 A 
ATOM     50  C   UNL A   1      45.614  28.238  26.096  1.00  0.00     0.034 A 
ATOM     51  C   UNL A   1      40.953  31.162  30.034  1.00  0.00     0.049 A 
ATOM     52  C   UNL A   1      45.527  29.537  26.833  1.00  0.00     0.074 A 
ATOM     53  C   UNL A   1      41.086  32.399  30.625  1.00  0.00     0.029 A 
ATOM     54  N   UNL A   1      42.132  30.917  29.329  1.00  0.00    -0.354 N 
ATOM     55  N   UNL A   1      44.550  29.980  27.596  1.00  0.00    -0.248 NA
ATOM     56  C   UNL A   1      46.676  30.429  26.730  1.00  0.00     0.031 C 
ATOM     57  C   UNL A   1      42.325  32.921  30.235  1.00  0.00     0.029 A 
ATOM     58  C   UNL A   1      42.993  31.986  29.449  1.00  0.00     0.049 A 
ATOM     59  H   UNL A   1      42.322  30.097  28.818  1.00  0.00     0.167 HD
ATOM     60  C   UNL A   1      44.967  31.202  28.084  1.00  0.00     0.074 A 
ATOM     61  C   UNL A   1      46.307  31.406  27.549  1.00  0.00     0.031 C 
ATOM     62  C   UNL A   1      44.319  32.087  28.883  1.00  0.00     0.034 A 
BRANCH  49  63
ATOM     63  C   UNL A   1      38.575  30.602  30.800  1.00  0.00     0.023 A 
ATOM     64  C   UNL A   1      38.354  30.158  32.121  1.00  0.00     0.012 A 
ATOM     65  C   UNL A   1      37.581  31.362  30.156  1.00  0.00     0.148 A 
ATOM     66  C   UNL A   1      37.154  30.440  32.775  1.00  0.00     0.002 A 
ATOM     67  C   UNL A   1      36.408  31.679  30.830  1.00  0.00     0.091 A 
ATOM     68  F   UNL A   1      37.789  31.737  28.886  1.00  0.00    -0.205 F 
ATOM     69  C   UNL A   1      36.186  31.208  32.134  1.00  0.00     0.022 A 
BRANCH  67  70
ATOM     70  S   UNL A   1      35.127  32.712  30.111  1.00  0.00     0.127 S 
ATOM     71  O   UNL A   1      34.638  31.864  29.024  1.00  0.00    -0.237 OA
ATOM     72  O   UNL A   1      34.199  32.865  31.231  1.00  0.00    -0.237 OA
ATOM     73  O   UNL A   1      35.786  33.939  29.688  1.00  0.00    -0.744 OA
ENDBRANCH  67  70
ENDBRANCH  49  63
BRANCH  50  74
ATOM     74  C   UNL A   1      46.765  27.803  25.269  1.00  0.00     0.023 A 
ATOM     75  C   UNL A   1      46.766  28.012  23.881  1.00  0.00     0.012 A 
ATOM     76  C   UNL A   1      47.914  27.262  25.887  1.00  0.00     0.148 A 
ATOM     77  C   UNL A   1      47.879  27.659  23.116  1.00  0.00     0.002 A 
ATOM     78  C   UNL A   1      49.036  26.963  25.130  1.00  0.00     0.091 A 
ATOM     79  F   UNL A   1      47.896  27.084  27.216  1.00  0.00    -0.205 F 
ATOM     80  C   UNL A   1      49.016  27.143  23.740  1.00  0.00     0.022 A 
BRANCH  78  81
ATOM     81  S   UNL A   1      50.578  26.420  25.874  1.00  0.00     0.127 S 
ATOM     82  O   UNL A   1      51.442  26.292  24.704  1.00  0.00    -0.237 OA
ATOM     83  O   UNL A   1      50.900  27.540  26.760  1.00  0.00    -0.237 OA
ATOM     84  O   UNL A   1      50.266  25.178  26.569  1.00  0.00    -0.744 OA
ENDBRANCH  78  81
ENDBRANCH  50  74
BRANCH  62  85
ATOM     85  C   UNL A   1      45.088  33.325  29.227  1.00  0.00     0.023 A 
ATOM     86  C   UNL A   1      45.931  33.336  30.355  1.00  0.00     0.012 A 
ATOM     87  C   UNL A   1      45.013  34.447  28.386  1.00  0.00     0.148 A 
ATOM     88  C   UNL A   1      46.660  34.478  30.666  1.00  0.00     0.002 A 
ATOM     89  C   UNL A   1      45.794  35.554  28.664  1.00  0.00     0.091 A 
ATOM     90  F   UNL A   1      44.184  34.405  27.332  1.00  0.00    -0.205 F 
ATOM     91  C   UNL A   1      46.603  35.580  29.814  1.00  0.00     0.022 A 
BRANCH  89  92
ATOM     92  S   UNL A   1      45.876  36.960  27.558  1.00  0.00     0.127 S 
ATOM     93  O   UNL A   1      44.462  37.187  27.263  1.00  0.00    -0.237 OA
ATOM     94  O   UNL A   1      46.497  37.979  28.405  1.00  0.00    -0.237 OA
ATOM     95  O   UNL A   1      46.690  36.538  26.426  1.00  0.00    -0.744 OA
ENDBRANCH  89  92
ENDBRANCH  62  85
ENDBRANCH  36  37
ENDBRANCH  29  31
ENDBRANCH  28  29
ENDBRANCH   1  28
TORSDOF 17
ENDMDL
