MODEL 1
REMARK VINA RESULT:     -11.8      0.000      0.000
REMARK SMILES C[C@@H](C(=O)OCCOC(=O)c1ccc(-c2c3nc(c(-c4cccc(S(=O)(=O)[O-])c4F)c4ccc([nH]4)c(-c4cccc(S(=O)(=O)[O-])c4F)c4nc(c(-c5cccc(S(=O)(=O)[O-])c5F)c5ccc2[nH]5)C=C4)C=C3)cc1)c1ccc(N[C@H]2CCC[C@@H]2O)cc1F
REMARK SMILES IDX 6 1 5 2 3 3 4 4 2 5 1 6 74 7 75 8 86 9 76 10 85 11 87 12
REMARK SMILES IDX 77 13 78 14 79 16 80 17 83 18 81 19 82 20 84 21 7 23 8 24
REMARK SMILES IDX 9 25 10 26 11 27 12 28 73 29 13 30 72 31 14 32 15 33 16 34
REMARK SMILES IDX 66 35 17 36 71 37 65 38 67 39 18 40 70 41 64 42 63 43 19 45
REMARK SMILES IDX 51 46 31 47 50 48 32 49 35 50 49 51 68 52 33 53 34 54 48 56
REMARK SMILES IDX 69 57 36 58 20 59 21 60 29 61 22 62 24 63 30 64 23 65 25 66
REMARK SMILES IDX 26 67 27 68 28 69 52 70 53 71 61 72 54 73 56 74 62 75 55 76
REMARK SMILES IDX 57 77 58 78 59 79 60 80 37 81 38 82 46 83 39 84 41 85 47 86
REMARK SMILES IDX 40 87 42 88 43 89 44 90 45 91
REMARK H PARENT 78 15 84 22 67 44 35 55
REMARK Flexibility Score: inf
ROOT
ATOM      1  C   UNL A   1      32.396  28.879  24.734  1.00  0.00     0.274 C 
ENDROOT
BRANCH   1   2
ATOM      2  O   UNL A   1      32.026  27.639  25.374  1.00  0.00    -0.462 OA
BRANCH   2   3
ATOM      3  C   UNL A   1      32.369  26.491  24.718  1.00  0.00     0.313 C 
ATOM      4  O   UNL A   1      33.518  26.240  24.375  1.00  0.00    -0.252 OA
BRANCH   3   5
ATOM      5  C   UNL A   1      31.144  25.600  24.405  1.00  0.00     0.129 C 
ATOM      6  C   UNL A   1      29.990  25.873  25.382  1.00  0.00     0.025 C 
BRANCH   5   7
ATOM      7  C   UNL A   1      31.517  24.118  24.307  1.00  0.00     0.002 A 
ATOM      8  C   UNL A   1      31.371  23.207  25.361  1.00  0.00     0.010 A 
ATOM      9  C   UNL A   1      32.086  23.623  23.129  1.00  0.00     0.129 A 
ATOM     10  C   UNL A   1      31.861  21.892  25.260  1.00  0.00     0.026 A 
ATOM     11  C   UNL A   1      32.615  22.332  23.049  1.00  0.00     0.065 A 
ATOM     12  F   UNL A   1      32.158  24.408  22.045  1.00  0.00    -0.207 F 
ATOM     13  C   UNL A   1      32.563  21.453  24.137  1.00  0.00     0.037 A 
BRANCH  13  14
ATOM     14  N   UNL A   1      33.189  20.232  24.032  1.00  0.00    -0.380 N 
ATOM     15  H   UNL A   1      34.158  20.278  23.862  1.00  0.00     0.160 HD
BRANCH  14  16
ATOM     16  C   UNL A   1      32.651  18.874  24.129  1.00  0.00     0.107 C 
ATOM     17  C   UNL A   1      32.869  17.965  22.917  1.00  0.00     0.027 C 
ATOM     18  C   UNL A   1      33.199  18.106  25.342  1.00  0.00     0.136 C 
ATOM     19  C   UNL A   1      33.347  16.625  23.489  1.00  0.00     0.005 C 
ATOM     20  C   UNL A   1      32.953  16.656  24.959  1.00  0.00     0.034 C 
BRANCH  18  21
ATOM     21  O   UNL A   1      32.529  18.453  26.545  1.00  0.00    -0.391 OA
ATOM     22  H   UNL A   1      33.012  18.085  27.301  1.00  0.00     0.211 HD
ENDBRANCH  18  21
ENDBRANCH  14  16
ENDBRANCH  13  14
ENDBRANCH   5   7
ENDBRANCH   3   5
ENDBRANCH   2   3
ENDBRANCH   1   2
BRANCH   1  23
ATOM     23  C   UNL A   1      31.732  30.077  25.413  1.00  0.00     0.275 C 
BRANCH  23  24
ATOM     24  O   UNL A   1      32.230  30.218  26.754  1.00  0.00    -0.458 OA
BRANCH  24  25
ATOM     25  C   UNL A   1      32.828  31.392  27.052  1.00  0.00     0.338 C 
ATOM     26  O   UNL A   1      32.357  32.515  26.959  1.00  0.00    -0.246 OA
BRANCH  25  27
ATOM     27  C   UNL A   1      34.151  31.114  27.627  1.00  0.00     0.060 A 
ATOM     28  C   UNL A   1      34.458  29.792  27.929  1.00  0.00     0.016 A 
ATOM     29  C   UNL A   1      35.044  32.134  27.957  1.00  0.00     0.016 A 
ATOM     30  C   UNL A   1      35.636  29.485  28.594  1.00  0.00     0.010 A 
ATOM     31  C   UNL A   1      36.252  31.814  28.596  1.00  0.00     0.010 A 
ATOM     32  C   UNL A   1      36.547  30.484  28.947  1.00  0.00    -0.014 A 
BRANCH  32  33
ATOM     33  C   UNL A   1      37.737  30.107  29.759  1.00  0.00     0.031 A 
ATOM     34  C   UNL A   1      38.794  29.215  29.167  1.00  0.00     0.074 A 
ATOM     35  C   UNL A   1      37.938  30.646  30.979  1.00  0.00     0.049 A 
ATOM     36  N   UNL A   1      39.889  28.756  29.719  1.00  0.00    -0.248 NA
ATOM     37  C   UNL A   1      38.614  28.806  27.765  1.00  0.00     0.031 C 
ATOM     38  C   UNL A   1      37.041  31.592  31.645  1.00  0.00     0.029 A 
ATOM     39  N   UNL A   1      38.969  30.481  31.874  1.00  0.00    -0.354 N 
ATOM     40  C   UNL A   1      40.502  27.972  28.751  1.00  0.00     0.074 A 
ATOM     41  C   UNL A   1      39.664  28.022  27.572  1.00  0.00     0.031 C 
ATOM     42  C   UNL A   1      37.563  31.929  32.835  1.00  0.00     0.029 A 
ATOM     43  C   UNL A   1      38.797  31.178  33.048  1.00  0.00     0.049 A 
ATOM     44  H   UNL A   1      39.755  29.917  31.692  1.00  0.00     0.167 HD
ATOM     45  C   UNL A   1      41.665  27.283  28.826  1.00  0.00     0.034 A 
ATOM     46  C   UNL A   1      39.528  31.185  34.182  1.00  0.00     0.034 A 
ATOM     47  C   UNL A   1      42.532  27.260  29.972  1.00  0.00     0.049 A 
ATOM     48  C   UNL A   1      40.764  30.331  34.271  1.00  0.00     0.074 A 
ATOM     49  C   UNL A   1      43.731  26.587  30.128  1.00  0.00     0.029 A 
ATOM     50  N   UNL A   1      42.297  27.938  31.157  1.00  0.00    -0.354 N 
ATOM     51  N   UNL A   1      41.348  29.624  33.336  1.00  0.00    -0.248 NA
ATOM     52  C   UNL A   1      41.443  30.279  35.576  1.00  0.00     0.031 C 
ATOM     53  C   UNL A   1      44.215  26.847  31.414  1.00  0.00     0.029 A 
ATOM     54  C   UNL A   1      43.322  27.689  32.055  1.00  0.00     0.049 A 
ATOM     55  H   UNL A   1      41.517  28.512  31.334  1.00  0.00     0.167 HD
ATOM     56  C   UNL A   1      42.469  29.057  33.932  1.00  0.00     0.074 A 
ATOM     57  C   UNL A   1      42.501  29.529  35.300  1.00  0.00     0.031 C 
ATOM     58  C   UNL A   1      43.377  28.202  33.399  1.00  0.00     0.034 A 
BRANCH  45  59
ATOM     59  C   UNL A   1      42.080  26.496  27.615  1.00  0.00     0.023 A 
ATOM     60  C   UNL A   1      42.774  27.138  26.572  1.00  0.00     0.012 A 
ATOM     61  C   UNL A   1      41.821  25.115  27.536  1.00  0.00     0.148 A 
ATOM     62  C   UNL A   1      43.191  26.416  25.454  1.00  0.00     0.002 A 
ATOM     63  C   UNL A   1      42.266  24.396  26.433  1.00  0.00     0.091 A 
ATOM     64  F   UNL A   1      41.130  24.533  28.526  1.00  0.00    -0.205 F 
ATOM     65  C   UNL A   1      42.948  25.046  25.389  1.00  0.00     0.022 A 
BRANCH  63  66
ATOM     66  S   UNL A   1      42.042  22.620  26.294  1.00  0.00     0.127 S 
ATOM     67  O   UNL A   1      40.584  22.505  26.315  1.00  0.00    -0.237 OA
ATOM     68  O   UNL A   1      42.657  22.327  25.000  1.00  0.00    -0.237 OA
ATOM     69  O   UNL A   1      42.736  22.044  27.437  1.00  0.00    -0.744 OA
ENDBRANCH  63  66
ENDBRANCH  45  59
BRANCH  46  70
ATOM     70  C   UNL A   1      39.109  32.030  35.338  1.00  0.00     0.023 A 
ATOM     71  C   UNL A   1      38.185  31.520  36.271  1.00  0.00     0.012 A 
ATOM     72  C   UNL A   1      39.620  33.328  35.520  1.00  0.00     0.148 A 
ATOM     73  C   UNL A   1      37.766  32.296  37.353  1.00  0.00     0.002 A 
ATOM     74  C   UNL A   1      39.244  34.073  36.632  1.00  0.00     0.091 A 
ATOM     75  F   UNL A   1      40.466  33.816  34.601  1.00  0.00    -0.205 F 
ATOM     76  C   UNL A   1      38.306  33.566  37.542  1.00  0.00     0.022 A 
BRANCH  74  77
ATOM     77  S   UNL A   1      39.999  35.659  37.009  1.00  0.00     0.127 S 
ATOM     78  O   UNL A   1      41.411  35.300  37.120  1.00  0.00    -0.237 OA
ATOM     79  O   UNL A   1      39.656  36.453  35.830  1.00  0.00    -0.237 OA
ATOM     80  O   UNL A   1      39.355  36.107  38.237  1.00  0.00    -0.744 OA
ENDBRANCH  74  77
ENDBRANCH  46  70
BRANCH  58  81
ATOM     81  C   UNL A   1      44.493  27.720  34.286  1.00  0.00     0.023 A 
ATOM     82  C   UNL A   1      45.699  28.448  34.337  1.00  0.00     0.012 A 
ATOM     83  C   UNL A   1      44.325  26.603  35.127  1.00  0.00     0.148 A 
ATOM     84  C   UNL A   1      46.728  28.059  35.195  1.00  0.00     0.002 A 
ATOM     85  C   UNL A   1      45.339  26.245  36.010  1.00  0.00     0.091 A 
ATOM     86  F   UNL A   1      43.181  25.908  35.049  1.00  0.00    -0.205 F 
ATOM     87  C   UNL A   1      46.544  26.967  36.039  1.00  0.00     0.022 A 
BRANCH  85  88
ATOM     88  S   UNL A   1      45.146  24.909  37.196  1.00  0.00     0.127 S 
ATOM     89  O   UNL A   1      45.134  23.735  36.325  1.00  0.00    -0.237 OA
ATOM     90  O   UNL A   1      46.347  25.043  38.022  1.00  0.00    -0.237 OA
ATOM     91  O   UNL A   1      43.901  25.184  37.901  1.00  0.00    -0.744 OA
ENDBRANCH  85  88
ENDBRANCH  58  81
ENDBRANCH  32  33
ENDBRANCH  25  27
ENDBRANCH  24  25
ENDBRANCH  23  24
ENDBRANCH   1  23
TORSDOF 18
ENDMDL
MODEL 2
REMARK VINA RESULT:     -11.7      5.018     10.286
REMARK SMILES C[C@@H](C(=O)OCCOC(=O)c1ccc(-c2c3nc(c(-c4cccc(S(=O)(=O)[O-])c4F)c4ccc([nH]4)c(-c4cccc(S(=O)(=O)[O-])c4F)c4nc(c(-c5cccc(S(=O)(=O)[O-])c5F)c5ccc2[nH]5)C=C4)C=C3)cc1)c1ccc(N[C@H]2CCC[C@@H]2O)cc1F
REMARK SMILES IDX 6 1 5 2 3 3 4 4 2 5 1 6 74 7 75 8 86 9 76 10 85 11 87 12
REMARK SMILES IDX 77 13 78 14 79 16 80 17 83 18 81 19 82 20 84 21 7 23 8 24
REMARK SMILES IDX 9 25 10 26 11 27 12 28 73 29 13 30 72 31 14 32 15 33 16 34
REMARK SMILES IDX 66 35 17 36 71 37 65 38 67 39 18 40 70 41 64 42 63 43 19 45
REMARK SMILES IDX 51 46 31 47 50 48 32 49 35 50 49 51 68 52 33 53 34 54 48 56
REMARK SMILES IDX 69 57 36 58 20 59 21 60 29 61 22 62 24 63 30 64 23 65 25 66
REMARK SMILES IDX 26 67 27 68 28 69 52 70 53 71 61 72 54 73 56 74 62 75 55 76
REMARK SMILES IDX 57 77 58 78 59 79 60 80 37 81 38 82 46 83 39 84 41 85 47 86
REMARK SMILES IDX 40 87 42 88 43 89 44 90 45 91
REMARK H PARENT 78 15 84 22 67 44 35 55
REMARK Flexibility Score: inf
ROOT
ATOM      1  C   UNL A   1      34.777  21.196  24.288  1.00  0.00     0.274 C 
ENDROOT
BRANCH   1   2
ATOM      2  O   UNL A   1      33.574  21.391  25.062  1.00  0.00    -0.462 OA
BRANCH   2   3
ATOM      3  C   UNL A   1      32.918  22.574  24.876  1.00  0.00     0.313 C 
ATOM      4  O   UNL A   1      32.020  22.714  24.055  1.00  0.00    -0.252 OA
BRANCH   3   5
ATOM      5  C   UNL A   1      33.485  23.710  25.760  1.00  0.00     0.129 C 
ATOM      6  C   UNL A   1      33.518  23.302  27.241  1.00  0.00     0.025 C 
BRANCH   5   7
ATOM      7  C   UNL A   1      32.772  25.044  25.515  1.00  0.00     0.002 A 
ATOM      8  C   UNL A   1      31.664  25.481  26.252  1.00  0.00     0.010 A 
ATOM      9  C   UNL A   1      33.195  25.874  24.471  1.00  0.00     0.129 A 
ATOM     10  C   UNL A   1      30.964  26.647  25.891  1.00  0.00     0.026 A 
ATOM     11  C   UNL A   1      32.469  27.004  24.085  1.00  0.00     0.065 A 
ATOM     12  F   UNL A   1      34.312  25.572  23.793  1.00  0.00    -0.207 F 
ATOM     13  C   UNL A   1      31.301  27.385  24.756  1.00  0.00     0.037 A 
BRANCH  13  14
ATOM     14  N   UNL A   1      30.575  28.449  24.268  1.00  0.00    -0.380 N 
ATOM     15  H   UNL A   1      30.672  29.283  24.780  1.00  0.00     0.160 HD
BRANCH  14  16
ATOM     16  C   UNL A   1      29.683  28.542  23.112  1.00  0.00     0.107 C 
ATOM     17  C   UNL A   1      28.200  28.263  23.370  1.00  0.00     0.027 C 
ATOM     18  C   UNL A   1      29.744  29.916  22.426  1.00  0.00     0.136 C 
ATOM     19  C   UNL A   1      27.439  29.382  22.649  1.00  0.00     0.005 C 
ATOM     20  C   UNL A   1      28.435  29.966  21.656  1.00  0.00     0.034 C 
BRANCH  18  21
ATOM     21  O   UNL A   1      30.867  30.037  21.564  1.00  0.00    -0.391 OA
ATOM     22  H   UNL A   1      31.490  29.316  21.743  1.00  0.00     0.211 HD
ENDBRANCH  18  21
ENDBRANCH  14  16
ENDBRANCH  13  14
ENDBRANCH   5   7
ENDBRANCH   3   5
ENDBRANCH   2   3
ENDBRANCH   1   2
BRANCH   1  23
ATOM     23  C   UNL A   1      35.906  20.626  25.147  1.00  0.00     0.275 C 
BRANCH  23  24
ATOM     24  O   UNL A   1      36.824  21.672  25.507  1.00  0.00    -0.458 OA
BRANCH  24  25
ATOM     25  C   UNL A   1      38.106  21.301  25.714  1.00  0.00     0.338 C 
ATOM     26  O   UNL A   1      38.639  20.248  25.400  1.00  0.00    -0.246 OA
BRANCH  25  27
ATOM     27  C   UNL A   1      38.833  22.432  26.308  1.00  0.00     0.060 A 
ATOM     28  C   UNL A   1      38.311  23.706  26.116  1.00  0.00     0.016 A 
ATOM     29  C   UNL A   1      40.055  22.266  26.960  1.00  0.00     0.016 A 
ATOM     30  C   UNL A   1      39.021  24.821  26.538  1.00  0.00     0.010 A 
ATOM     31  C   UNL A   1      40.751  23.395  27.420  1.00  0.00     0.010 A 
ATOM     32  C   UNL A   1      40.252  24.689  27.186  1.00  0.00    -0.014 A 
BRANCH  32  33
ATOM     33  C   UNL A   1      41.019  25.923  27.513  1.00  0.00     0.031 A 
ATOM     34  C   UNL A   1      40.385  26.998  28.352  1.00  0.00     0.074 A 
ATOM     35  C   UNL A   1      42.316  26.041  27.163  1.00  0.00     0.049 A 
ATOM     36  N   UNL A   1      40.879  28.152  28.724  1.00  0.00    -0.248 NA
ATOM     37  C   UNL A   1      39.030  26.734  28.862  1.00  0.00     0.031 C 
ATOM     38  C   UNL A   1      43.088  25.041  26.423  1.00  0.00     0.029 A 
ATOM     39  N   UNL A   1      43.220  27.052  27.392  1.00  0.00    -0.354 N 
ATOM     40  C   UNL A   1      39.883  28.768  29.471  1.00  0.00     0.074 A 
ATOM     41  C   UNL A   1      38.758  27.858  29.509  1.00  0.00     0.031 C 
ATOM     42  C   UNL A   1      44.346  25.483  26.267  1.00  0.00     0.029 A 
ATOM     43  C   UNL A   1      44.458  26.823  26.837  1.00  0.00     0.049 A 
ATOM     44  H   UNL A   1      43.001  27.864  27.905  1.00  0.00     0.167 HD
ATOM     45  C   UNL A   1      39.904  29.974  30.086  1.00  0.00     0.034 A 
ATOM     46  C   UNL A   1      45.549  27.613  26.762  1.00  0.00     0.034 A 
ATOM     47  C   UNL A   1      41.028  30.868  30.097  1.00  0.00     0.049 A 
ATOM     48  C   UNL A   1      45.508  28.990  27.369  1.00  0.00     0.074 A 
ATOM     49  C   UNL A   1      41.130  32.111  30.700  1.00  0.00     0.029 A 
ATOM     50  N   UNL A   1      42.244  30.621  29.482  1.00  0.00    -0.354 N 
ATOM     51  N   UNL A   1      44.572  29.542  28.102  1.00  0.00    -0.248 NA
ATOM     52  C   UNL A   1      46.678  29.852  27.140  1.00  0.00     0.031 C 
ATOM     53  C   UNL A   1      42.406  32.621  30.435  1.00  0.00     0.029 A 
ATOM     54  C   UNL A   1      43.099  31.693  29.677  1.00  0.00     0.049 A 
ATOM     55  H   UNL A   1      42.467  29.805  28.980  1.00  0.00     0.167 HD
ATOM     56  C   UNL A   1      45.045  30.807  28.434  1.00  0.00     0.074 A 
ATOM     57  C   UNL A   1      46.365  30.928  27.850  1.00  0.00     0.031 C 
ATOM     58  C   UNL A   1      44.431  31.788  29.139  1.00  0.00     0.034 A 
BRANCH  45  59
ATOM     59  C   UNL A   1      38.661  30.397  30.817  1.00  0.00     0.023 A 
ATOM     60  C   UNL A   1      38.507  30.068  32.177  1.00  0.00     0.012 A 
ATOM     61  C   UNL A   1      37.672  31.158  30.166  1.00  0.00     0.148 A 
ATOM     62  C   UNL A   1      37.374  30.478  32.878  1.00  0.00     0.002 A 
ATOM     63  C   UNL A   1      36.559  31.588  30.879  1.00  0.00     0.091 A 
ATOM     64  F   UNL A   1      37.825  31.429  28.862  1.00  0.00    -0.205 F 
ATOM     65  C   UNL A   1      36.406  31.245  32.233  1.00  0.00     0.022 A 
BRANCH  63  66
ATOM     66  S   UNL A   1      35.293  32.624  30.140  1.00  0.00     0.127 S 
ATOM     67  O   UNL A   1      34.942  31.856  28.946  1.00  0.00    -0.237 OA
ATOM     68  O   UNL A   1      34.260  32.644  31.176  1.00  0.00    -0.237 OA
ATOM     69  O   UNL A   1      35.928  33.912  29.897  1.00  0.00    -0.744 OA
ENDBRANCH  63  66
ENDBRANCH  45  59
BRANCH  46  70
ATOM     70  C   UNL A   1      46.781  27.126  26.077  1.00  0.00     0.023 A 
ATOM     71  C   UNL A   1      46.912  27.291  24.684  1.00  0.00     0.012 A 
ATOM     72  C   UNL A   1      47.821  26.507  26.795  1.00  0.00     0.148 A 
ATOM     73  C   UNL A   1      48.049  26.831  24.018  1.00  0.00     0.002 A 
ATOM     74  C   UNL A   1      48.976  26.104  26.134  1.00  0.00     0.091 A 
ATOM     75  F   UNL A   1      47.663  26.319  28.113  1.00  0.00    -0.205 F 
ATOM     76  C   UNL A   1      49.087  26.251  24.745  1.00  0.00     0.022 A 
BRANCH  74  77
ATOM     77  S   UNL A   1      50.405  25.474  27.024  1.00  0.00     0.127 S 
ATOM     78  O   UNL A   1      49.853  24.289  27.675  1.00  0.00    -0.237 OA
ATOM     79  O   UNL A   1      51.347  25.199  25.939  1.00  0.00    -0.237 OA
ATOM     80  O   UNL A   1      50.814  26.558  27.907  1.00  0.00    -0.744 OA
ENDBRANCH  74  77
ENDBRANCH  46  70
BRANCH  58  81
ATOM     81  C   UNL A   1      45.173  33.084  29.332  1.00  0.00     0.023 A 
ATOM     82  C   UNL A   1      46.009  33.240  30.455  1.00  0.00     0.012 A 
ATOM     83  C   UNL A   1      45.111  34.110  28.370  1.00  0.00     0.148 A 
ATOM     84  C   UNL A   1      46.754  34.406  30.630  1.00  0.00     0.002 A 
ATOM     85  C   UNL A   1      45.889  35.252  28.529  1.00  0.00     0.091 A 
ATOM     86  F   UNL A   1      44.293  33.955  27.318  1.00  0.00    -0.205 F 
ATOM     87  C   UNL A   1      46.704  35.406  29.662  1.00  0.00     0.022 A 
BRANCH  85  88
ATOM     88  S   UNL A   1      45.953  36.546  27.281  1.00  0.00     0.127 S 
ATOM     89  O   UNL A   1      44.561  36.989  27.239  1.00  0.00    -0.237 OA
ATOM     90  O   UNL A   1      46.882  37.509  27.874  1.00  0.00    -0.237 OA
ATOM     91  O   UNL A   1      46.448  35.902  26.071  1.00  0.00    -0.744 OA
ENDBRANCH  85  88
ENDBRANCH  58  81
ENDBRANCH  32  33
ENDBRANCH  25  27
ENDBRANCH  24  25
ENDBRANCH  23  24
ENDBRANCH   1  23
TORSDOF 18
ENDMDL
MODEL 3
REMARK VINA RESULT:     -11.6      4.695      7.787
REMARK SMILES C[C@@H](C(=O)OCCOC(=O)c1ccc(-c2c3nc(c(-c4cccc(S(=O)(=O)[O-])c4F)c4ccc([nH]4)c(-c4cccc(S(=O)(=O)[O-])c4F)c4nc(c(-c5cccc(S(=O)(=O)[O-])c5F)c5ccc2[nH]5)C=C4)C=C3)cc1)c1ccc(N[C@H]2CCC[C@@H]2O)cc1F
REMARK SMILES IDX 6 1 5 2 3 3 4 4 2 5 1 6 74 7 75 8 86 9 76 10 85 11 87 12
REMARK SMILES IDX 77 13 78 14 79 16 80 17 83 18 81 19 82 20 84 21 7 23 8 24
REMARK SMILES IDX 9 25 10 26 11 27 12 28 73 29 13 30 72 31 14 32 15 33 16 34
REMARK SMILES IDX 66 35 17 36 71 37 65 38 67 39 18 40 70 41 64 42 63 43 19 45
REMARK SMILES IDX 51 46 31 47 50 48 32 49 35 50 49 51 68 52 33 53 34 54 48 56
REMARK SMILES IDX 69 57 36 58 20 59 21 60 29 61 22 62 24 63 30 64 23 65 25 66
REMARK SMILES IDX 26 67 27 68 28 69 52 70 53 71 61 72 54 73 56 74 62 75 55 76
REMARK SMILES IDX 57 77 58 78 59 79 60 80 37 81 38 82 46 83 39 84 41 85 47 86
REMARK SMILES IDX 40 87 42 88 43 89 44 90 45 91
REMARK H PARENT 78 15 84 22 67 44 35 55
REMARK Flexibility Score: inf
ROOT
ATOM      1  C   UNL A   1      35.900  20.195  24.932  1.00  0.00     0.274 C 
ENDROOT
BRANCH   1   2
ATOM      2  O   UNL A   1      35.620  21.561  25.308  1.00  0.00    -0.462 OA
BRANCH   2   3
ATOM      3  C   UNL A   1      34.517  22.133  24.740  1.00  0.00     0.313 C 
ATOM      4  O   UNL A   1      33.381  21.935  25.151  1.00  0.00    -0.252 OA
BRANCH   3   5
ATOM      5  C   UNL A   1      34.867  22.985  23.497  1.00  0.00     0.129 C 
ATOM      6  C   UNL A   1      36.388  23.107  23.313  1.00  0.00     0.025 C 
BRANCH   5   7
ATOM      7  C   UNL A   1      34.147  24.337  23.502  1.00  0.00     0.002 A 
ATOM      8  C   UNL A   1      34.275  25.283  24.528  1.00  0.00     0.010 A 
ATOM      9  C   UNL A   1      33.265  24.657  22.465  1.00  0.00     0.129 A 
ATOM     10  C   UNL A   1      33.481  26.445  24.549  1.00  0.00     0.026 A 
ATOM     11  C   UNL A   1      32.444  25.787  22.514  1.00  0.00     0.065 A 
ATOM     12  F   UNL A   1      33.173  23.849  21.398  1.00  0.00    -0.207 F 
ATOM     13  C   UNL A   1      32.496  26.680  23.590  1.00  0.00     0.037 A 
BRANCH  13  14
ATOM     14  N   UNL A   1      31.594  27.719  23.631  1.00  0.00    -0.380 N 
ATOM     15  H   UNL A   1      31.762  28.384  24.338  1.00  0.00     0.160 HD
BRANCH  14  16
ATOM     16  C   UNL A   1      30.424  27.999  22.796  1.00  0.00     0.107 C 
ATOM     17  C   UNL A   1      29.087  27.436  23.284  1.00  0.00     0.027 C 
ATOM     18  C   UNL A   1      30.199  29.503  22.578  1.00  0.00     0.136 C 
ATOM     19  C   UNL A   1      28.080  28.583  23.141  1.00  0.00     0.005 C 
ATOM     20  C   UNL A   1      28.734  29.569  22.180  1.00  0.00     0.034 C 
BRANCH  18  21
ATOM     21  O   UNL A   1      31.043  30.032  21.565  1.00  0.00    -0.391 OA
ATOM     22  H   UNL A   1      30.522  30.196  20.765  1.00  0.00     0.211 HD
ENDBRANCH  18  21
ENDBRANCH  14  16
ENDBRANCH  13  14
ENDBRANCH   5   7
ENDBRANCH   3   5
ENDBRANCH   2   3
ENDBRANCH   1   2
BRANCH   1  23
ATOM     23  C   UNL A   1      37.396  19.893  25.003  1.00  0.00     0.275 C 
BRANCH  23  24
ATOM     24  O   UNL A   1      38.104  21.038  25.505  1.00  0.00    -0.458 OA
BRANCH  24  25
ATOM     25  C   UNL A   1      39.309  20.802  26.067  1.00  0.00     0.338 C 
ATOM     26  O   UNL A   1      39.963  19.771  26.027  1.00  0.00    -0.246 OA
BRANCH  25  27
ATOM     27  C   UNL A   1      39.795  22.046  26.680  1.00  0.00     0.060 A 
ATOM     28  C   UNL A   1      39.247  23.242  26.231  1.00  0.00     0.016 A 
ATOM     29  C   UNL A   1      40.837  22.056  27.608  1.00  0.00     0.016 A 
ATOM     30  C   UNL A   1      39.760  24.453  26.676  1.00  0.00     0.010 A 
ATOM     31  C   UNL A   1      41.325  23.283  28.084  1.00  0.00     0.010 A 
ATOM     32  C   UNL A   1      40.808  24.498  27.598  1.00  0.00    -0.014 A 
BRANCH  32  33
ATOM     33  C   UNL A   1      41.389  25.823  27.950  1.00  0.00     0.031 A 
ATOM     34  C   UNL A   1      42.782  26.173  27.501  1.00  0.00     0.074 A 
ATOM     35  C   UNL A   1      40.643  26.760  28.569  1.00  0.00     0.049 A 
ATOM     36  N   UNL A   1      43.471  27.263  27.726  1.00  0.00    -0.248 NA
ATOM     37  C   UNL A   1      43.483  25.182  26.669  1.00  0.00     0.031 C 
ATOM     38  C   UNL A   1      39.250  26.593  28.986  1.00  0.00     0.029 A 
ATOM     39  N   UNL A   1      40.949  28.047  28.946  1.00  0.00    -0.354 N 
ATOM     40  C   UNL A   1      44.698  27.071  27.104  1.00  0.00     0.074 A 
ATOM     41  C   UNL A   1      44.659  25.764  26.484  1.00  0.00     0.031 C 
ATOM     42  C   UNL A   1      38.821  27.732  29.553  1.00  0.00     0.029 A 
ATOM     43  C   UNL A   1      39.922  28.690  29.599  1.00  0.00     0.049 A 
ATOM     44  H   UNL A   1      41.821  28.467  28.767  1.00  0.00     0.167 HD
ATOM     45  C   UNL A   1      45.758  27.910  27.039  1.00  0.00     0.034 A 
ATOM     46  C   UNL A   1      39.880  29.897  30.198  1.00  0.00     0.034 A 
ATOM     47  C   UNL A   1      45.797  29.228  27.609  1.00  0.00     0.049 A 
ATOM     48  C   UNL A   1      41.109  30.768  30.195  1.00  0.00     0.074 A 
ATOM     49  C   UNL A   1      46.835  30.144  27.585  1.00  0.00     0.029 A 
ATOM     50  N   UNL A   1      44.756  29.822  28.304  1.00  0.00    -0.354 N 
ATOM     51  N   UNL A   1      42.247  30.587  29.573  1.00  0.00    -0.248 NA
ATOM     52  C   UNL A   1      41.043  32.013  30.977  1.00  0.00     0.031 C 
ATOM     53  C   UNL A   1      46.426  31.287  28.280  1.00  0.00     0.029 A 
ATOM     54  C   UNL A   1      45.131  31.086  28.727  1.00  0.00     0.049 A 
ATOM     55  H   UNL A   1      43.880  29.406  28.472  1.00  0.00     0.167 HD
ATOM     56  C   UNL A   1      43.026  31.699  29.874  1.00  0.00     0.074 A 
ATOM     57  C   UNL A   1      42.218  32.564  30.708  1.00  0.00     0.031 C 
ATOM     58  C   UNL A   1      44.305  31.966  29.512  1.00  0.00     0.034 A 
BRANCH  45  59
ATOM     59  C   UNL A   1      46.977  27.425  26.306  1.00  0.00     0.023 A 
ATOM     60  C   UNL A   1      47.910  26.607  26.970  1.00  0.00     0.012 A 
ATOM     61  C   UNL A   1      47.171  27.744  24.948  1.00  0.00     0.148 A 
ATOM     62  C   UNL A   1      49.032  26.125  26.297  1.00  0.00     0.002 A 
ATOM     63  C   UNL A   1      48.275  27.236  24.275  1.00  0.00     0.091 A 
ATOM     64  F   UNL A   1      46.286  28.552  24.347  1.00  0.00    -0.205 F 
ATOM     65  C   UNL A   1      49.209  26.430  24.949  1.00  0.00     0.022 A 
BRANCH  63  66
ATOM     66  S   UNL A   1      48.550  27.536  22.526  1.00  0.00     0.127 S 
ATOM     67  O   UNL A   1      49.798  28.298  22.551  1.00  0.00    -0.237 OA
ATOM     68  O   UNL A   1      48.674  26.180  21.992  1.00  0.00    -0.237 OA
ATOM     69  O   UNL A   1      47.377  28.263  22.061  1.00  0.00    -0.744 OA
ENDBRANCH  63  66
ENDBRANCH  45  59
BRANCH  46  70
ATOM     70  C   UNL A   1      38.628  30.361  30.862  1.00  0.00     0.023 A 
ATOM     71  C   UNL A   1      38.438  30.114  32.236  1.00  0.00     0.012 A 
ATOM     72  C   UNL A   1      37.629  31.046  30.146  1.00  0.00     0.148 A 
ATOM     73  C   UNL A   1      37.269  30.525  32.878  1.00  0.00     0.002 A 
ATOM     74  C   UNL A   1      36.494  31.505  30.804  1.00  0.00     0.091 A 
ATOM     75  F   UNL A   1      37.805  31.237  28.830  1.00  0.00    -0.205 F 
ATOM     76  C   UNL A   1      36.304  31.233  32.166  1.00  0.00     0.022 A 
BRANCH  74  77
ATOM     77  S   UNL A   1      35.275  32.538  29.981  1.00  0.00     0.127 S 
ATOM     78  O   UNL A   1      34.782  31.644  28.935  1.00  0.00    -0.237 OA
ATOM     79  O   UNL A   1      34.323  32.810  31.058  1.00  0.00    -0.237 OA
ATOM     80  O   UNL A   1      36.011  33.710  29.526  1.00  0.00    -0.744 OA
ENDBRANCH  74  77
ENDBRANCH  46  70
BRANCH  58  81
ATOM     81  C   UNL A   1      44.920  33.250  30.003  1.00  0.00     0.023 A 
ATOM     82  C   UNL A   1      44.802  34.416  29.221  1.00  0.00     0.012 A 
ATOM     83  C   UNL A   1      45.540  33.325  31.265  1.00  0.00     0.148 A 
ATOM     84  C   UNL A   1      45.310  35.632  29.678  1.00  0.00     0.002 A 
ATOM     85  C   UNL A   1      46.006  34.549  31.733  1.00  0.00     0.091 A 
ATOM     86  F   UNL A   1      45.664  32.201  31.987  1.00  0.00    -0.205 F 
ATOM     87  C   UNL A   1      45.900  35.701  30.937  1.00  0.00     0.022 A 
BRANCH  85  88
ATOM     88  S   UNL A   1      46.696  34.743  33.382  1.00  0.00     0.127 S 
ATOM     89  O   UNL A   1      46.910  36.188  33.448  1.00  0.00    -0.237 OA
ATOM     90  O   UNL A   1      45.615  34.247  34.236  1.00  0.00    -0.237 OA
ATOM     91  O   UNL A   1      47.901  33.925  33.404  1.00  0.00    -0.744 OA
ENDBRANCH  85  88
ENDBRANCH  58  81
ENDBRANCH  32  33
ENDBRANCH  25  27
ENDBRANCH  24  25
ENDBRANCH  23  24
ENDBRANCH   1  23
TORSDOF 18
ENDMDL
