MODEL 1
REMARK VINA RESULT:     -12.8      0.000      0.000
REMARK SMILES CC1=C[C@H](C)[C@H](CN2C[C@@]34C=C[C@@H](O3)[C@H](C(=O)OCCOC(=O)c3ccc(-c5c6nc(c(-c7cccc(S(=O)(=O)[O-])c7F)c7ccc([nH]7)c(-c7cccc(S(=O)(=O)[O-])c7F)c7nc(c(-c8cccc(S(=O)(=O)[O-])c8F)c8ccc5[nH]8)C=C7)C=C6)cc3)[C@@H]4C2=O)[C@H](C)C1
REMARK SMILES IDX 20 1 19 2 18 3 16 4 17 5 15 6 8 7 9 8 88 9 10 10 87 11 89 12
REMARK SMILES IDX 11 13 14 14 12 15 13 16 7 17 6 18 1 19 2 20 3 21 92 22 4 23
REMARK SMILES IDX 90 24 5 25 91 26 21 27 22 28 23 29 24 30 25 31 86 32 26 33
REMARK SMILES IDX 85 34 27 35 28 36 29 37 79 38 30 39 84 40 78 41 80 42 31 43
REMARK SMILES IDX 83 44 77 45 76 46 32 48 64 49 44 50 63 51 45 52 48 53 62 54
REMARK SMILES IDX 81 55 46 56 47 57 61 59 82 60 49 61 33 62 34 63 42 64 35 65
REMARK SMILES IDX 37 66 43 67 36 68 38 69 39 70 40 71 41 72 65 73 66 74 74 75
REMARK SMILES IDX 67 76 69 77 75 78 68 79 70 80 71 81 72 82 73 83 50 84 51 85
REMARK SMILES IDX 59 86 52 87 54 88 60 89 53 90 55 91 56 92 57 93 58 94
REMARK H PARENT 80 47 48 58
REMARK Flexibility Score: inf
ROOT
ATOM      1  C   UNL A   1      37.469  21.126  24.622  1.00  0.00     0.275 C 
ENDROOT
BRANCH   1   2
ATOM      2  C   UNL A   1      36.637  22.241  23.965  1.00  0.00     0.274 C 
BRANCH   2   3
ATOM      3  O   UNL A   1      35.271  21.801  23.895  1.00  0.00    -0.462 OA
BRANCH   3   4
ATOM      4  C   UNL A   1      34.350  22.683  23.399  1.00  0.00     0.312 C 
ATOM      5  O   UNL A   1      34.494  23.323  22.374  1.00  0.00    -0.252 OA
BRANCH   4   6
ATOM      6  C   UNL A   1      33.104  22.534  24.226  1.00  0.00     0.148 C 
ATOM      7  N   UNL A   1      32.452  25.491  26.370  1.00  0.00    -0.339 N 
ATOM      8  C   UNL A   1      31.334  24.552  26.657  1.00  0.00     0.160 C 
ATOM      9  C   UNL A   1      33.487  24.797  25.718  1.00  0.00     0.230 C 
ATOM     10  C   UNL A   1      31.989  23.219  26.242  1.00  0.00     0.117 C 
ATOM     11  C   UNL A   1      32.710  23.758  24.994  1.00  0.00     0.133 C 
ATOM     12  O   UNL A   1      34.676  24.993  25.743  1.00  0.00    -0.274 OA
ATOM     13  C   UNL A   1      32.986  22.570  27.185  1.00  0.00     0.009 C 
ATOM     14  O   UNL A   1      31.427  22.032  25.675  1.00  0.00    -0.360 OA
ATOM     15  C   UNL A   1      33.507  21.534  26.515  1.00  0.00     0.004 C 
ATOM     16  C   UNL A   1      32.757  21.449  25.221  1.00  0.00     0.157 C 
BRANCH   7  17
ATOM     17  C   UNL A   1      32.419  26.944  26.413  1.00  0.00     0.124 C 
BRANCH  17  18
ATOM     18  C   UNL A   1      31.300  27.596  25.528  1.00  0.00     0.018 C 
ATOM     19  C   UNL A   1      29.483  29.872  22.137  1.00  0.00     0.039 C 
ATOM     20  C   UNL A   1      30.095  29.163  23.309  1.00  0.00    -0.077 C 
ATOM     21  C   UNL A   1      30.801  29.809  24.252  1.00  0.00    -0.025 C 
ATOM     22  C   UNL A   1      29.904  27.681  23.391  1.00  0.00     0.034 C 
ATOM     23  C   UNL A   1      31.402  29.161  25.488  1.00  0.00     0.014 C 
ATOM     24  C   UNL A   1      31.097  27.005  24.094  1.00  0.00    -0.005 C 
ATOM     25  C   UNL A   1      32.798  29.740  25.726  1.00  0.00     0.012 C 
ATOM     26  C   UNL A   1      32.328  27.101  23.180  1.00  0.00     0.008 C 
ENDBRANCH  17  18
ENDBRANCH   7  17
ENDBRANCH   4   6
ENDBRANCH   3   4
ENDBRANCH   2   3
ENDBRANCH   1   2
BRANCH   1  27
ATOM     27  O   UNL A   1      37.877  21.449  25.977  1.00  0.00    -0.458 OA
BRANCH  27  28
ATOM     28  C   UNL A   1      39.207  21.364  26.240  1.00  0.00     0.338 C 
ATOM     29  O   UNL A   1      39.921  20.397  26.029  1.00  0.00    -0.246 OA
BRANCH  28  30
ATOM     30  C   UNL A   1      39.739  22.641  26.781  1.00  0.00     0.060 A 
ATOM     31  C   UNL A   1      39.306  23.839  26.200  1.00  0.00     0.016 A 
ATOM     32  C   UNL A   1      40.715  22.679  27.783  1.00  0.00     0.016 A 
ATOM     33  C   UNL A   1      39.813  25.067  26.641  1.00  0.00     0.010 A 
ATOM     34  C   UNL A   1      41.247  23.913  28.204  1.00  0.00     0.010 A 
ATOM     35  C   UNL A   1      40.801  25.118  27.636  1.00  0.00    -0.014 A 
BRANCH  35  36
ATOM     36  C   UNL A   1      41.365  26.441  28.034  1.00  0.00     0.031 A 
ATOM     37  C   UNL A   1      42.740  26.843  27.597  1.00  0.00     0.074 A 
ATOM     38  C   UNL A   1      40.644  27.314  28.761  1.00  0.00     0.049 A 
ATOM     39  N   UNL A   1      43.342  27.993  27.742  1.00  0.00    -0.248 NA
ATOM     40  C   UNL A   1      43.549  25.810  26.936  1.00  0.00     0.031 C 
ATOM     41  C   UNL A   1      39.336  27.022  29.315  1.00  0.00     0.029 A 
ATOM     42  N   UNL A   1      40.888  28.612  29.150  1.00  0.00    -0.354 N 
ATOM     43  C   UNL A   1      44.621  27.817  27.238  1.00  0.00     0.074 A 
ATOM     44  C   UNL A   1      44.695  26.452  26.752  1.00  0.00     0.031 C 
ATOM     45  C   UNL A   1      38.857  28.120  29.922  1.00  0.00     0.029 A 
ATOM     46  C   UNL A   1      39.836  29.192  29.825  1.00  0.00     0.049 A 
ATOM     47  H   UNL A   1      41.733  29.080  28.964  1.00  0.00     0.167 HD
ATOM     48  C   UNL A   1      45.646  28.702  27.200  1.00  0.00     0.034 A 
ATOM     49  C   UNL A   1      39.663  30.441  30.307  1.00  0.00     0.034 A 
ATOM     50  C   UNL A   1      45.584  30.053  27.692  1.00  0.00     0.049 A 
ATOM     51  C   UNL A   1      40.787  31.431  30.171  1.00  0.00     0.074 A 
ATOM     52  C   UNL A   1      46.576  31.019  27.669  1.00  0.00     0.029 A 
ATOM     53  N   UNL A   1      44.487  30.627  28.316  1.00  0.00    -0.354 N 
ATOM     54  N   UNL A   1      41.939  31.289  29.563  1.00  0.00    -0.248 NA
ATOM     55  C   UNL A   1      40.592  32.752  30.788  1.00  0.00     0.031 C 
ATOM     56  C   UNL A   1      46.088  32.169  28.299  1.00  0.00     0.029 A 
ATOM     57  C   UNL A   1      44.781  31.930  28.691  1.00  0.00     0.049 A 
ATOM     58  H   UNL A   1      43.626  30.177  28.471  1.00  0.00     0.167 HD
ATOM     59  C   UNL A   1      42.610  32.492  29.735  1.00  0.00     0.074 A 
ATOM     60  C   UNL A   1      41.712  33.377  30.449  1.00  0.00     0.031 C 
ATOM     61  C   UNL A   1      43.874  32.819  29.370  1.00  0.00     0.034 A 
BRANCH  48  62
ATOM     62  C   UNL A   1      46.940  28.220  26.610  1.00  0.00     0.023 A 
ATOM     63  C   UNL A   1      47.992  27.826  27.461  1.00  0.00     0.012 A 
ATOM     64  C   UNL A   1      47.101  28.125  25.214  1.00  0.00     0.148 A 
ATOM     65  C   UNL A   1      49.197  27.370  26.929  1.00  0.00     0.002 A 
ATOM     66  C   UNL A   1      48.290  27.634  24.693  1.00  0.00     0.091 A 
ATOM     67  F   UNL A   1      46.096  28.531  24.426  1.00  0.00    -0.205 F 
ATOM     68  C   UNL A   1      49.343  27.266  25.548  1.00  0.00     0.022 A 
BRANCH  66  69
ATOM     69  S   UNL A   1      48.549  27.401  22.932  1.00  0.00     0.127 S 
ATOM     70  O   UNL A   1      49.926  27.867  22.772  1.00  0.00    -0.237 OA
ATOM     71  O   UNL A   1      48.372  25.956  22.783  1.00  0.00    -0.237 OA
ATOM     72  O   UNL A   1      47.534  28.208  22.268  1.00  0.00    -0.744 OA
ENDBRANCH  66  69
ENDBRANCH  48  62
BRANCH  49  73
ATOM     73  C   UNL A   1      38.364  30.851  30.924  1.00  0.00     0.023 A 
ATOM     74  C   UNL A   1      38.146  30.620  32.298  1.00  0.00     0.012 A 
ATOM     75  C   UNL A   1      37.350  31.474  30.174  1.00  0.00     0.148 A 
ATOM     76  C   UNL A   1      36.938  30.976  32.903  1.00  0.00     0.002 A 
ATOM     77  C   UNL A   1      36.179  31.894  30.797  1.00  0.00     0.091 A 
ATOM     78  F   UNL A   1      37.548  31.656  28.860  1.00  0.00    -0.205 F 
ATOM     79  C   UNL A   1      35.961  31.627  32.155  1.00  0.00     0.022 A 
BRANCH  77  80
ATOM     80  S   UNL A   1      34.958  32.891  29.935  1.00  0.00     0.127 S 
ATOM     81  O   UNL A   1      34.440  31.946  28.950  1.00  0.00    -0.237 OA
ATOM     82  O   UNL A   1      34.027  33.236  31.010  1.00  0.00    -0.237 OA
ATOM     83  O   UNL A   1      35.701  34.028  29.407  1.00  0.00    -0.744 OA
ENDBRANCH  77  80
ENDBRANCH  49  73
BRANCH  61  84
ATOM     84  C   UNL A   1      44.372  34.192  29.741  1.00  0.00     0.023 A 
ATOM     85  C   UNL A   1      45.098  34.367  30.936  1.00  0.00     0.012 A 
ATOM     86  C   UNL A   1      44.180  35.290  28.882  1.00  0.00     0.148 A 
ATOM     87  C   UNL A   1      45.600  35.621  31.284  1.00  0.00     0.002 A 
ATOM     88  C   UNL A   1      44.722  36.526  29.213  1.00  0.00     0.091 A 
ATOM     89  F   UNL A   1      43.466  35.108  27.761  1.00  0.00    -0.205 F 
ATOM     90  C   UNL A   1      45.423  36.697  30.418  1.00  0.00     0.022 A 
BRANCH  88  91
ATOM     91  S   UNL A   1      44.619  37.945  28.115  1.00  0.00     0.127 S 
ATOM     92  O   UNL A   1      45.450  38.924  28.813  1.00  0.00    -0.237 OA
ATOM     93  O   UNL A   1      45.200  37.423  26.877  1.00  0.00    -0.237 OA
ATOM     94  O   UNL A   1      43.203  38.276  28.024  1.00  0.00    -0.744 OA
ENDBRANCH  88  91
ENDBRANCH  61  84
ENDBRANCH  35  36
ENDBRANCH  28  30
ENDBRANCH  27  28
ENDBRANCH   1  27
TORSDOF 16
ENDMDL
MODEL 2
REMARK VINA RESULT:     -12.6      4.957     10.218
REMARK SMILES CC1=C[C@H](C)[C@H](CN2C[C@@]34C=C[C@@H](O3)[C@H](C(=O)OCCOC(=O)c3ccc(-c5c6nc(c(-c7cccc(S(=O)(=O)[O-])c7F)c7ccc([nH]7)c(-c7cccc(S(=O)(=O)[O-])c7F)c7nc(c(-c8cccc(S(=O)(=O)[O-])c8F)c8ccc5[nH]8)C=C7)C=C6)cc3)[C@@H]4C2=O)[C@H](C)C1
REMARK SMILES IDX 20 1 19 2 18 3 16 4 17 5 15 6 8 7 9 8 88 9 10 10 87 11 89 12
REMARK SMILES IDX 11 13 14 14 12 15 13 16 7 17 6 18 1 19 2 20 3 21 92 22 4 23
REMARK SMILES IDX 90 24 5 25 91 26 21 27 22 28 23 29 24 30 25 31 86 32 26 33
REMARK SMILES IDX 85 34 27 35 28 36 29 37 79 38 30 39 84 40 78 41 80 42 31 43
REMARK SMILES IDX 83 44 77 45 76 46 32 48 64 49 44 50 63 51 45 52 48 53 62 54
REMARK SMILES IDX 81 55 46 56 47 57 61 59 82 60 49 61 33 62 34 63 42 64 35 65
REMARK SMILES IDX 37 66 43 67 36 68 38 69 39 70 40 71 41 72 65 73 66 74 74 75
REMARK SMILES IDX 67 76 69 77 75 78 68 79 70 80 71 81 72 82 73 83 50 84 51 85
REMARK SMILES IDX 59 86 52 87 54 88 60 89 53 90 55 91 56 92 57 93 58 94
REMARK H PARENT 80 47 48 58
REMARK Flexibility Score: inf
ROOT
ATOM      1  C   UNL A   1      31.884  30.274  26.824  1.00  0.00     0.275 C 
ENDROOT
BRANCH   1   2
ATOM      2  C   UNL A   1      31.952  28.740  26.729  1.00  0.00     0.274 C 
BRANCH   2   3
ATOM      3  O   UNL A   1      31.014  28.309  25.729  1.00  0.00    -0.462 OA
BRANCH   3   4
ATOM      4  C   UNL A   1      30.829  26.962  25.578  1.00  0.00     0.312 C 
ATOM      5  O   UNL A   1      30.363  26.233  26.435  1.00  0.00    -0.252 OA
BRANCH   4   6
ATOM      6  C   UNL A   1      31.099  26.636  24.137  1.00  0.00     0.148 C 
ATOM      7  N   UNL A   1      34.258  24.747  23.670  1.00  0.00    -0.339 N 
ATOM      8  C   UNL A   1      33.700  24.910  22.301  1.00  0.00     0.160 C 
ATOM      9  C   UNL A   1      33.618  25.645  24.543  1.00  0.00     0.230 C 
ATOM     10  C   UNL A   1      32.808  26.149  22.519  1.00  0.00     0.117 C 
ATOM     11  C   UNL A   1      32.280  25.744  23.906  1.00  0.00     0.133 C 
ATOM     12  O   UNL A   1      34.042  26.184  25.534  1.00  0.00    -0.274 OA
ATOM     13  C   UNL A   1      33.463  27.517  22.585  1.00  0.00     0.009 C 
ATOM     14  O   UNL A   1      31.570  26.534  21.916  1.00  0.00    -0.360 OA
ATOM     15  C   UNL A   1      32.494  28.373  22.937  1.00  0.00     0.004 C 
ATOM     16  C   UNL A   1      31.222  27.582  22.963  1.00  0.00     0.157 C 
BRANCH   7  17
ATOM     17  C   UNL A   1      35.072  23.650  24.168  1.00  0.00     0.124 C 
BRANCH  17  18
ATOM     18  C   UNL A   1      34.458  22.225  23.933  1.00  0.00     0.018 C 
ATOM     19  C   UNL A   1      32.600  18.284  24.933  1.00  0.00     0.039 C 
ATOM     20  C   UNL A   1      33.282  19.580  24.601  1.00  0.00    -0.077 C 
ATOM     21  C   UNL A   1      34.565  19.819  24.918  1.00  0.00    -0.025 C 
ATOM     22  C   UNL A   1      32.469  20.625  23.904  1.00  0.00     0.034 C 
ATOM     23  C   UNL A   1      35.329  21.085  24.566  1.00  0.00     0.014 C 
ATOM     24  C   UNL A   1      32.943  22.041  24.280  1.00  0.00    -0.005 C 
ATOM     25  C   UNL A   1      36.192  21.495  25.760  1.00  0.00     0.012 C 
ATOM     26  C   UNL A   1      32.585  22.309  25.749  1.00  0.00     0.008 C 
ENDBRANCH  17  18
ENDBRANCH   7  17
ENDBRANCH   4   6
ENDBRANCH   3   4
ENDBRANCH   2   3
ENDBRANCH   1   2
BRANCH   1  27
ATOM     27  O   UNL A   1      33.131  30.919  26.455  1.00  0.00    -0.458 OA
BRANCH  27  28
ATOM     28  C   UNL A   1      33.609  31.846  27.325  1.00  0.00     0.338 C 
ATOM     29  O   UNL A   1      33.037  32.865  27.675  1.00  0.00    -0.246 OA
BRANCH  28  30
ATOM     30  C   UNL A   1      34.930  31.448  27.876  1.00  0.00     0.060 A 
ATOM     31  C   UNL A   1      35.093  30.132  28.324  1.00  0.00     0.016 A 
ATOM     32  C   UNL A   1      35.978  32.361  28.039  1.00  0.00     0.016 A 
ATOM     33  C   UNL A   1      36.303  29.719  28.895  1.00  0.00     0.010 A 
ATOM     34  C   UNL A   1      37.183  31.953  28.642  1.00  0.00     0.010 A 
ATOM     35  C   UNL A   1      37.356  30.628  29.075  1.00  0.00    -0.014 A 
BRANCH  35  36
ATOM     36  C   UNL A   1      38.606  30.169  29.748  1.00  0.00     0.031 A 
ATOM     37  C   UNL A   1      38.901  30.571  31.160  1.00  0.00     0.074 A 
ATOM     38  C   UNL A   1      39.476  29.358  29.118  1.00  0.00     0.049 A 
ATOM     39  N   UNL A   1      39.869  30.170  31.940  1.00  0.00    -0.248 NA
ATOM     40  C   UNL A   1      38.009  31.572  31.759  1.00  0.00     0.031 C 
ATOM     41  C   UNL A   1      39.354  28.959  27.729  1.00  0.00     0.029 A 
ATOM     42  N   UNL A   1      40.616  28.718  29.548  1.00  0.00    -0.354 N 
ATOM     43  C   UNL A   1      39.740  30.902  33.110  1.00  0.00     0.074 A 
ATOM     44  C   UNL A   1      38.575  31.752  32.946  1.00  0.00     0.031 C 
ATOM     45  C   UNL A   1      40.336  28.095  27.428  1.00  0.00     0.029 A 
ATOM     46  C   UNL A   1      41.180  27.896  28.597  1.00  0.00     0.049 A 
ATOM     47  H   UNL A   1      40.993  28.836  30.450  1.00  0.00     0.167 HD
ATOM     48  C   UNL A   1      40.527  30.885  34.211  1.00  0.00     0.034 A 
ATOM     49  C   UNL A   1      42.245  27.068  28.648  1.00  0.00     0.034 A 
ATOM     50  C   UNL A   1      41.693  30.056  34.376  1.00  0.00     0.049 A 
ATOM     51  C   UNL A   1      43.050  27.003  29.916  1.00  0.00     0.074 A 
ATOM     52  C   UNL A   1      42.531  29.966  35.475  1.00  0.00     0.029 A 
ATOM     53  N   UNL A   1      42.202  29.193  33.418  1.00  0.00    -0.354 N 
ATOM     54  N   UNL A   1      42.828  27.598  31.063  1.00  0.00    -0.248 NA
ATOM     55  C   UNL A   1      44.253  26.156  29.902  1.00  0.00     0.031 C 
ATOM     56  C   UNL A   1      43.560  29.067  35.173  1.00  0.00     0.029 A 
ATOM     57  C   UNL A   1      43.348  28.575  33.895  1.00  0.00     0.049 A 
ATOM     58  H   UNL A   1      41.808  29.042  32.529  1.00  0.00     0.167 HD
ATOM     59  C   UNL A   1      43.867  27.210  31.899  1.00  0.00     0.074 A 
ATOM     60  C   UNL A   1      44.685  26.279  31.149  1.00  0.00     0.031 C 
ATOM     61  C   UNL A   1      44.140  27.623  33.160  1.00  0.00     0.034 A 
BRANCH  48  62
ATOM     62  C   UNL A   1      40.155  31.815  35.331  1.00  0.00     0.023 A 
ATOM     63  C   UNL A   1      40.770  33.079  35.424  1.00  0.00     0.012 A 
ATOM     64  C   UNL A   1      39.169  31.450  36.268  1.00  0.00     0.148 A 
ATOM     65  C   UNL A   1      40.430  33.956  36.452  1.00  0.00     0.002 A 
ATOM     66  C   UNL A   1      38.808  32.344  37.267  1.00  0.00     0.091 A 
ATOM     67  F   UNL A   1      38.618  30.231  36.174  1.00  0.00    -0.205 F 
ATOM     68  C   UNL A   1      39.444  33.592  37.367  1.00  0.00     0.022 A 
BRANCH  66  69
ATOM     69  S   UNL A   1      37.505  31.994  38.451  1.00  0.00     0.127 S 
ATOM     70  O   UNL A   1      37.209  30.592  38.158  1.00  0.00    -0.237 OA
ATOM     71  O   UNL A   1      38.180  32.221  39.728  1.00  0.00    -0.237 OA
ATOM     72  O   UNL A   1      36.432  32.934  38.156  1.00  0.00    -0.744 OA
ENDBRANCH  66  69
ENDBRANCH  48  62
BRANCH  49  73
ATOM     73  C   UNL A   1      42.594  26.196  27.484  1.00  0.00     0.023 A 
ATOM     74  C   UNL A   1      43.426  26.703  26.464  1.00  0.00     0.012 A 
ATOM     75  C   UNL A   1      42.124  24.874  27.381  1.00  0.00     0.148 A 
ATOM     76  C   UNL A   1      43.758  25.920  25.355  1.00  0.00     0.002 A 
ATOM     77  C   UNL A   1      42.519  24.075  26.312  1.00  0.00     0.091 A 
ATOM     78  F   UNL A   1      41.302  24.412  28.334  1.00  0.00    -0.205 F 
ATOM     79  C   UNL A   1      43.318  24.602  25.288  1.00  0.00     0.022 A 
BRANCH  77  80
ATOM     80  S   UNL A   1      42.133  22.322  26.252  1.00  0.00     0.127 S 
ATOM     81  O   UNL A   1      40.675  22.337  26.187  1.00  0.00    -0.237 OA
ATOM     82  O   UNL A   1      42.802  21.900  25.022  1.00  0.00    -0.237 OA
ATOM     83  O   UNL A   1      42.717  21.764  27.466  1.00  0.00    -0.744 OA
ENDBRANCH  77  80
ENDBRANCH  49  73
BRANCH  61  84
ATOM     84  C   UNL A   1      45.383  27.078  33.816  1.00  0.00     0.023 A 
ATOM     85  C   UNL A   1      46.590  27.798  33.722  1.00  0.00     0.012 A 
ATOM     86  C   UNL A   1      45.341  25.895  34.577  1.00  0.00     0.148 A 
ATOM     87  C   UNL A   1      47.745  27.333  34.350  1.00  0.00     0.002 A 
ATOM     88  C   UNL A   1      46.485  25.461  35.239  1.00  0.00     0.091 A 
ATOM     89  F   UNL A   1      44.189  25.211  34.635  1.00  0.00    -0.205 F 
ATOM     90  C   UNL A   1      47.690  26.172  35.118  1.00  0.00     0.022 A 
BRANCH  88  91
ATOM     91  S   UNL A   1      46.483  24.026  36.320  1.00  0.00     0.127 S 
ATOM     92  O   UNL A   1      45.213  24.186  37.025  1.00  0.00    -0.237 OA
ATOM     93  O   UNL A   1      46.516  22.917  35.365  1.00  0.00    -0.237 OA
ATOM     94  O   UNL A   1      47.678  24.146  37.145  1.00  0.00    -0.744 OA
ENDBRANCH  88  91
ENDBRANCH  61  84
ENDBRANCH  35  36
ENDBRANCH  28  30
ENDBRANCH  27  28
ENDBRANCH   1  27
TORSDOF 16
ENDMDL
MODEL 3
REMARK VINA RESULT:     -12.5      4.971     10.145
REMARK SMILES CC1=C[C@H](C)[C@H](CN2C[C@@]34C=C[C@@H](O3)[C@H](C(=O)OCCOC(=O)c3ccc(-c5c6nc(c(-c7cccc(S(=O)(=O)[O-])c7F)c7ccc([nH]7)c(-c7cccc(S(=O)(=O)[O-])c7F)c7nc(c(-c8cccc(S(=O)(=O)[O-])c8F)c8ccc5[nH]8)C=C7)C=C6)cc3)[C@@H]4C2=O)[C@H](C)C1
REMARK SMILES IDX 20 1 19 2 18 3 16 4 17 5 15 6 8 7 9 8 88 9 10 10 87 11 89 12
REMARK SMILES IDX 11 13 14 14 12 15 13 16 7 17 6 18 1 19 2 20 3 21 92 22 4 23
REMARK SMILES IDX 90 24 5 25 91 26 21 27 22 28 23 29 24 30 25 31 86 32 26 33
REMARK SMILES IDX 85 34 27 35 28 36 29 37 79 38 30 39 84 40 78 41 80 42 31 43
REMARK SMILES IDX 83 44 77 45 76 46 32 48 64 49 44 50 63 51 45 52 48 53 62 54
REMARK SMILES IDX 81 55 46 56 47 57 61 59 82 60 49 61 33 62 34 63 42 64 35 65
REMARK SMILES IDX 37 66 43 67 36 68 38 69 39 70 40 71 41 72 65 73 66 74 74 75
REMARK SMILES IDX 67 76 69 77 75 78 68 79 70 80 71 81 72 82 73 83 50 84 51 85
REMARK SMILES IDX 59 86 52 87 54 88 60 89 53 90 55 91 56 92 57 93 58 94
REMARK H PARENT 80 47 48 58
REMARK Flexibility Score: inf
ROOT
ATOM      1  C   UNL A   1      31.860  30.273  26.436  1.00  0.00     0.275 C 
ENDROOT
BRANCH   1   2
ATOM      2  C   UNL A   1      31.275  30.287  25.014  1.00  0.00     0.274 C 
BRANCH   2   3
ATOM      3  O   UNL A   1      31.977  29.308  24.229  1.00  0.00    -0.462 OA
BRANCH   3   4
ATOM      4  C   UNL A   1      31.226  28.386  23.553  1.00  0.00     0.312 C 
ATOM      5  O   UNL A   1      31.100  28.358  22.342  1.00  0.00    -0.252 OA
BRANCH   4   6
ATOM      6  C   UNL A   1      30.799  27.346  24.549  1.00  0.00     0.148 C 
ATOM      7  N   UNL A   1      33.449  24.839  25.222  1.00  0.00    -0.339 N 
ATOM      8  C   UNL A   1      32.302  24.426  26.075  1.00  0.00     0.160 C 
ATOM      9  C   UNL A   1      33.001  25.749  24.247  1.00  0.00     0.230 C 
ATOM     10  C   UNL A   1      31.142  25.091  25.306  1.00  0.00     0.117 C 
ATOM     11  C   UNL A   1      31.879  26.399  24.972  1.00  0.00     0.133 C 
ATOM     12  O   UNL A   1      33.414  25.943  23.132  1.00  0.00    -0.274 OA
ATOM     13  C   UNL A   1      30.637  24.433  24.035  1.00  0.00     0.009 C 
ATOM     14  O   UNL A   1      29.907  25.646  25.765  1.00  0.00    -0.360 OA
ATOM     15  C   UNL A   1      29.758  25.291  23.499  1.00  0.00     0.004 C 
ATOM     16  C   UNL A   1      29.610  26.411  24.484  1.00  0.00     0.157 C 
BRANCH   7  17
ATOM     17  C   UNL A   1      34.865  24.650  25.493  1.00  0.00     0.124 C 
BRANCH  17  18
ATOM     18  C   UNL A   1      35.461  23.309  24.936  1.00  0.00     0.018 C 
ATOM     19  C   UNL A   1      37.534  19.349  24.976  1.00  0.00     0.039 C 
ATOM     20  C   UNL A   1      36.894  20.706  24.949  1.00  0.00    -0.077 C 
ATOM     21  C   UNL A   1      37.596  21.836  25.142  1.00  0.00    -0.025 C 
ATOM     22  C   UNL A   1      35.418  20.766  24.712  1.00  0.00     0.034 C 
ATOM     23  C   UNL A   1      37.021  23.241  25.077  1.00  0.00     0.014 C 
ATOM     24  C   UNL A   1      34.789  21.981  25.419  1.00  0.00    -0.005 C 
ATOM     25  C   UNL A   1      37.621  24.078  26.208  1.00  0.00     0.012 C 
ATOM     26  C   UNL A   1      34.842  21.752  26.937  1.00  0.00     0.008 C 
ENDBRANCH  17  18
ENDBRANCH   7  17
ENDBRANCH   4   6
ENDBRANCH   3   4
ENDBRANCH   2   3
ENDBRANCH   1   2
BRANCH   1  27
ATOM     27  O   UNL A   1      33.303  30.427  26.456  1.00  0.00    -0.458 OA
BRANCH  27  28
ATOM     28  C   UNL A   1      33.793  31.394  27.274  1.00  0.00     0.338 C 
ATOM     29  O   UNL A   1      33.224  32.428  27.587  1.00  0.00    -0.246 OA
BRANCH  28  30
ATOM     30  C   UNL A   1      35.125  31.025  27.819  1.00  0.00     0.060 A 
ATOM     31  C   UNL A   1      35.329  29.703  28.232  1.00  0.00     0.016 A 
ATOM     32  C   UNL A   1      36.142  31.967  28.011  1.00  0.00     0.016 A 
ATOM     33  C   UNL A   1      36.550  29.315  28.797  1.00  0.00     0.010 A 
ATOM     34  C   UNL A   1      37.358  31.583  28.607  1.00  0.00     0.010 A 
ATOM     35  C   UNL A   1      37.573  30.252  29.006  1.00  0.00    -0.014 A 
BRANCH  35  36
ATOM     36  C   UNL A   1      38.835  29.816  29.671  1.00  0.00     0.031 A 
ATOM     37  C   UNL A   1      39.154  30.264  31.063  1.00  0.00     0.074 A 
ATOM     38  C   UNL A   1      39.695  28.987  29.052  1.00  0.00     0.049 A 
ATOM     39  N   UNL A   1      40.136  29.889  31.839  1.00  0.00    -0.248 NA
ATOM     40  C   UNL A   1      38.271  31.283  31.646  1.00  0.00     0.031 C 
ATOM     41  C   UNL A   1      39.549  28.543  27.679  1.00  0.00     0.029 A 
ATOM     42  N   UNL A   1      40.844  28.361  29.482  1.00  0.00    -0.354 N 
ATOM     43  C   UNL A   1      40.026  30.659  32.987  1.00  0.00     0.074 A 
ATOM     44  C   UNL A   1      38.858  31.501  32.816  1.00  0.00     0.031 C 
ATOM     45  C   UNL A   1      40.527  27.671  27.389  1.00  0.00     0.029 A 
ATOM     46  C   UNL A   1      41.392  27.510  28.549  1.00  0.00     0.049 A 
ATOM     47  H   UNL A   1      41.235  28.509  30.373  1.00  0.00     0.167 HD
ATOM     48  C   UNL A   1      40.833  30.678  34.074  1.00  0.00     0.034 A 
ATOM     49  C   UNL A   1      42.459  26.685  28.608  1.00  0.00     0.034 A 
ATOM     50  C   UNL A   1      42.002  29.855  34.245  1.00  0.00     0.049 A 
ATOM     51  C   UNL A   1      43.286  26.661  29.863  1.00  0.00     0.074 A 
ATOM     52  C   UNL A   1      42.860  29.802  35.331  1.00  0.00     0.029 A 
ATOM     53  N   UNL A   1      42.496  28.963  33.307  1.00  0.00    -0.354 N 
ATOM     54  N   UNL A   1      43.084  27.293  30.994  1.00  0.00    -0.248 NA
ATOM     55  C   UNL A   1      44.490  25.816  29.855  1.00  0.00     0.031 C 
ATOM     56  C   UNL A   1      43.885  28.895  35.040  1.00  0.00     0.029 A 
ATOM     57  C   UNL A   1      43.651  28.362  33.784  1.00  0.00     0.049 A 
ATOM     58  H   UNL A   1      42.087  28.782  32.430  1.00  0.00     0.167 HD
ATOM     59  C   UNL A   1      44.137  26.933  31.824  1.00  0.00     0.074 A 
ATOM     60  C   UNL A   1      44.944  25.979  31.090  1.00  0.00     0.031 C 
ATOM     61  C   UNL A   1      44.432  27.386  33.066  1.00  0.00     0.034 A 
BRANCH  48  62
ATOM     62  C   UNL A   1      40.479  31.643  35.170  1.00  0.00     0.023 A 
ATOM     63  C   UNL A   1      41.183  32.858  35.286  1.00  0.00     0.012 A 
ATOM     64  C   UNL A   1      39.424  31.361  36.060  1.00  0.00     0.148 A 
ATOM     65  C   UNL A   1      40.861  33.767  36.292  1.00  0.00     0.002 A 
ATOM     66  C   UNL A   1      39.085  32.288  37.035  1.00  0.00     0.091 A 
ATOM     67  F   UNL A   1      38.788  30.187  35.946  1.00  0.00    -0.205 F 
ATOM     68  C   UNL A   1      39.808  33.486  37.160  1.00  0.00     0.022 A 
BRANCH  66  69
ATOM     69  S   UNL A   1      37.704  32.048  38.157  1.00  0.00     0.127 S 
ATOM     70  O   UNL A   1      37.413  30.628  37.966  1.00  0.00    -0.237 OA
ATOM     71  O   UNL A   1      38.297  32.380  39.452  1.00  0.00    -0.237 OA
ATOM     72  O   UNL A   1      36.663  32.965  37.713  1.00  0.00    -0.744 OA
ENDBRANCH  66  69
ENDBRANCH  48  62
BRANCH  49  73
ATOM     73  C   UNL A   1      42.789  25.776  27.467  1.00  0.00     0.023 A 
ATOM     74  C   UNL A   1      43.643  26.233  26.442  1.00  0.00     0.012 A 
ATOM     75  C   UNL A   1      42.279  24.467  27.389  1.00  0.00     0.148 A 
ATOM     76  C   UNL A   1      43.958  25.416  25.353  1.00  0.00     0.002 A 
ATOM     77  C   UNL A   1      42.656  23.633  26.342  1.00  0.00     0.091 A 
ATOM     78  F   UNL A   1      41.436  24.053  28.347  1.00  0.00    -0.205 F 
ATOM     79  C   UNL A   1      43.478  24.111  25.312  1.00  0.00     0.022 A 
BRANCH  77  80
ATOM     80  S   UNL A   1      42.216  21.891  26.319  1.00  0.00     0.127 S 
ATOM     81  O   UNL A   1      42.603  21.466  27.660  1.00  0.00    -0.237 OA
ATOM     82  O   UNL A   1      40.773  21.941  26.078  1.00  0.00    -0.237 OA
ATOM     83  O   UNL A   1      42.981  21.321  25.217  1.00  0.00    -0.744 OA
ENDBRANCH  77  80
ENDBRANCH  49  73
BRANCH  61  84
ATOM     84  C   UNL A   1      45.686  26.864  33.717  1.00  0.00     0.023 A 
ATOM     85  C   UNL A   1      46.891  27.582  33.578  1.00  0.00     0.012 A 
ATOM     86  C   UNL A   1      45.660  25.706  34.517  1.00  0.00     0.148 A 
ATOM     87  C   UNL A   1      48.057  27.139  34.201  1.00  0.00     0.002 A 
ATOM     88  C   UNL A   1      46.816  25.295  35.171  1.00  0.00     0.091 A 
ATOM     89  F   UNL A   1      44.510  25.024  34.617  1.00  0.00    -0.205 F 
ATOM     90  C   UNL A   1      48.017  26.003  35.007  1.00  0.00     0.022 A 
BRANCH  88  91
ATOM     91  S   UNL A   1      46.835  23.896  36.298  1.00  0.00     0.127 S 
ATOM     92  O   UNL A   1      48.230  23.881  36.732  1.00  0.00    -0.237 OA
ATOM     93  O   UNL A   1      45.880  24.311  37.327  1.00  0.00    -0.237 OA
ATOM     94  O   UNL A   1      46.410  22.745  35.512  1.00  0.00    -0.744 OA
ENDBRANCH  88  91
ENDBRANCH  61  84
ENDBRANCH  35  36
ENDBRANCH  28  30
ENDBRANCH  27  28
ENDBRANCH   1  27
TORSDOF 16
ENDMDL
