MODEL 1
REMARK VINA RESULT:     -12.5      0.000      0.000
REMARK SMILES O=C(C[C@H](NC(=O)[C@]12C[C@H]3C[C@H](C[C@H](C3)C1)C2)c1cccc([N+](=O)[O-])c1)OCCOC(=O)c1ccc(-c2c3nc(c(-c4cccc(S(=O)(=O)[O-])c4F)c4ccc([nH]4)c(-c4cccc(S(=O)(=O)[O-])c4F)c4nc(c(-c5cccc(S(=O)(=O)[O-])c5F)c5ccc2[nH]5)C=C4)C=C3)cc1
REMARK SMILES IDX 28 1 27 2 2 3 1 4 3 5 4 6 18 7 19 8 26 9 20 10 22 11 21 12
REMARK SMILES IDX 23 13 24 14 25 15 5 16 6 17 7 19 8 20 9 21 16 22 17 23 10 24
REMARK SMILES IDX 14 25 12 26 11 27 15 28 13 29 29 30 30 31 31 32 32 33 33 34
REMARK SMILES IDX 34 35 95 36 35 37 94 38 36 39 37 40 38 41 88 42 39 43 93 44
REMARK SMILES IDX 87 45 89 46 40 47 92 48 86 49 85 50 41 52 73 53 53 54 72 55
REMARK SMILES IDX 54 56 57 57 71 58 90 59 55 60 56 61 70 63 91 64 58 65 42 66
REMARK SMILES IDX 43 67 51 68 44 69 46 70 52 71 45 72 47 73 48 74 49 75 50 76
REMARK SMILES IDX 74 77 75 78 83 79 76 80 78 81 84 82 77 83 79 84 80 85 81 86
REMARK SMILES IDX 82 87 59 88 60 89 68 90 61 91 63 92 69 93 62 94 64 95 65 96
REMARK SMILES IDX 66 97 67 98
REMARK H PARENT 5 18 89 51 57 62
REMARK Flexibility Score: inf
ROOT
ATOM      1  C   UNL A   1      32.017  31.464  27.030  1.00  0.00     0.274 C 
ENDROOT
BRANCH   1   2
ATOM      2  O   UNL A   1      31.939  30.854  25.728  1.00  0.00    -0.462 OA
BRANCH   2   3
ATOM      3  C   UNL A   1      32.643  29.771  25.343  1.00  0.00     0.308 C 
ATOM      4  O   UNL A   1      33.378  29.204  26.150  1.00  0.00    -0.252 OA
BRANCH   3   5
ATOM      5  C   UNL A   1      32.502  29.244  23.930  1.00  0.00     0.152 C 
BRANCH   5   6
ATOM      6  C   UNL A   1      31.759  27.906  23.715  1.00  0.00     0.123 C 
BRANCH   6   7
ATOM      7  C   UNL A   1      30.241  28.114  23.723  1.00  0.00    -0.018 A 
ATOM      8  C   UNL A   1      29.313  27.071  23.883  1.00  0.00     0.006 A 
ATOM      9  C   UNL A   1      29.740  29.399  23.420  1.00  0.00     0.091 A 
ATOM     10  C   UNL A   1      27.954  27.271  23.609  1.00  0.00     0.007 A 
ATOM     11  C   UNL A   1      28.395  29.575  23.073  1.00  0.00     0.269 A 
ATOM     12  C   UNL A   1      27.496  28.509  23.162  1.00  0.00     0.085 A 
BRANCH  11  13
ATOM     13  N   UNL A   1      27.952  30.860  22.521  1.00  0.00     0.062 N 
ATOM     14  O   UNL A   1      28.278  31.126  21.353  1.00  0.00    -0.258 OA
ATOM     15  O   UNL A   1      27.265  31.596  23.243  1.00  0.00    -0.258 OA
ENDBRANCH  11  13
ENDBRANCH   6   7
BRANCH   6  16
ATOM     16  N   UNL A   1      32.276  27.249  22.510  1.00  0.00    -0.348 N 
ATOM     17  C   UNL A   1      33.096  26.177  22.313  1.00  0.00     0.226 C 
ATOM     18  H   UNL A   1      31.969  27.667  21.674  1.00  0.00     0.164 HD
ATOM     19  O   UNL A   1      33.564  26.109  21.169  1.00  0.00    -0.274 OA
BRANCH  17  20
ATOM     20  C   UNL A   1      33.415  25.091  23.371  1.00  0.00     0.050 C 
ATOM     21  C   UNL A   1      32.074  24.438  23.847  1.00  0.00     0.020 C 
ATOM     22  C   UNL A   1      34.078  25.729  24.613  1.00  0.00     0.020 C 
ATOM     23  C   UNL A   1      34.297  23.939  22.856  1.00  0.00     0.020 C 
ATOM     24  C   UNL A   1      32.312  23.373  24.935  1.00  0.00    -0.010 C 
ATOM     25  C   UNL A   1      34.330  24.671  25.705  1.00  0.00    -0.010 C 
ATOM     26  C   UNL A   1      34.548  22.892  23.947  1.00  0.00    -0.010 C 
ATOM     27  C   UNL A   1      33.219  22.272  24.376  1.00  0.00     0.007 C 
ATOM     28  C   UNL A   1      33.004  24.029  26.141  1.00  0.00     0.007 C 
ATOM     29  C   UNL A   1      35.235  23.573  25.137  1.00  0.00     0.007 C 
ENDBRANCH  17  20
ENDBRANCH   6  16
ENDBRANCH   5   6
ENDBRANCH   3   5
ENDBRANCH   2   3
ENDBRANCH   1   2
BRANCH   1  30
ATOM     30  C   UNL A   1      32.203  32.980  26.948  1.00  0.00     0.275 C 
BRANCH  30  31
ATOM     31  O   UNL A   1      32.888  33.484  28.110  1.00  0.00    -0.458 OA
BRANCH  31  32
ATOM     32  C   UNL A   1      34.130  34.000  27.915  1.00  0.00     0.338 C 
ATOM     33  O   UNL A   1      34.395  35.108  27.484  1.00  0.00    -0.246 OA
BRANCH  32  34
ATOM     34  C   UNL A   1      35.130  33.065  28.484  1.00  0.00     0.060 A 
ATOM     35  C   UNL A   1      34.693  31.930  29.185  1.00  0.00     0.016 A 
ATOM     36  C   UNL A   1      36.493  33.290  28.304  1.00  0.00     0.016 A 
ATOM     37  C   UNL A   1      35.621  31.016  29.711  1.00  0.00     0.010 A 
ATOM     38  C   UNL A   1      37.412  32.383  28.833  1.00  0.00     0.010 A 
ATOM     39  C   UNL A   1      36.992  31.244  29.555  1.00  0.00    -0.014 A 
BRANCH  39  40
ATOM     40  C   UNL A   1      38.040  30.436  30.243  1.00  0.00     0.031 A 
ATOM     41  C   UNL A   1      38.486  30.897  31.604  1.00  0.00     0.074 A 
ATOM     42  C   UNL A   1      38.694  29.415  29.654  1.00  0.00     0.049 A 
ATOM     43  N   UNL A   1      39.527  30.539  32.305  1.00  0.00    -0.248 NA
ATOM     44  C   UNL A   1      37.642  31.919  32.247  1.00  0.00     0.031 C 
ATOM     45  C   UNL A   1      38.370  28.818  28.363  1.00  0.00     0.029 A 
ATOM     46  N   UNL A   1      39.840  28.754  30.043  1.00  0.00    -0.354 N 
ATOM     47  C   UNL A   1      39.478  31.305  33.461  1.00  0.00     0.074 A 
ATOM     48  C   UNL A   1      38.340  32.191  33.337  1.00  0.00     0.031 C 
ATOM     49  C   UNL A   1      39.356  27.972  28.008  1.00  0.00     0.029 A 
ATOM     50  C   UNL A   1      40.378  27.963  29.050  1.00  0.00     0.049 A 
ATOM     51  H   UNL A   1      40.236  28.839  30.940  1.00  0.00     0.167 HD
ATOM     52  C   UNL A   1      40.271  31.249  34.556  1.00  0.00     0.034 A 
ATOM     53  C   UNL A   1      41.570  27.333  28.973  1.00  0.00     0.034 A 
ATOM     54  C   UNL A   1      41.375  30.346  34.709  1.00  0.00     0.049 A 
ATOM     55  C   UNL A   1      42.494  27.339  30.166  1.00  0.00     0.074 A 
ATOM     56  C   UNL A   1      42.178  30.150  35.816  1.00  0.00     0.029 A 
ATOM     57  N   UNL A   1      41.839  29.496  33.719  1.00  0.00    -0.354 N 
ATOM     58  N   UNL A   1      42.344  27.941  31.320  1.00  0.00    -0.248 NA
ATOM     59  C   UNL A   1      43.714  26.519  30.075  1.00  0.00     0.031 C 
ATOM     60  C   UNL A   1      43.143  29.190  35.489  1.00  0.00     0.029 A 
ATOM     61  C   UNL A   1      42.923  28.777  34.185  1.00  0.00     0.049 A 
ATOM     62  H   UNL A   1      41.454  29.416  32.816  1.00  0.00     0.167 HD
ATOM     63  C   UNL A   1      43.397  27.505  32.119  1.00  0.00     0.074 A 
ATOM     64  C   UNL A   1      44.195  26.610  31.309  1.00  0.00     0.031 C 
ATOM     65  C   UNL A   1      43.664  27.813  33.411  1.00  0.00     0.034 A 
BRANCH  52  66
ATOM     66  C   UNL A   1      39.913  32.161  35.695  1.00  0.00     0.023 A 
ATOM     67  C   UNL A   1      40.603  33.382  35.843  1.00  0.00     0.012 A 
ATOM     68  C   UNL A   1      38.916  31.810  36.622  1.00  0.00     0.148 A 
ATOM     69  C   UNL A   1      40.346  34.214  36.929  1.00  0.00     0.002 A 
ATOM     70  C   UNL A   1      38.632  32.667  37.676  1.00  0.00     0.091 A 
ATOM     71  F   UNL A   1      38.292  30.632  36.478  1.00  0.00    -0.205 F 
ATOM     72  C   UNL A   1      39.357  33.861  37.841  1.00  0.00     0.022 A 
BRANCH  70  73
ATOM     73  S   UNL A   1      37.326  32.329  38.861  1.00  0.00     0.127 S 
ATOM     74  O   UNL A   1      37.716  33.183  39.981  1.00  0.00    -0.237 OA
ATOM     75  O   UNL A   1      36.132  32.773  38.142  1.00  0.00    -0.237 OA
ATOM     76  O   UNL A   1      37.381  30.896  39.111  1.00  0.00    -0.744 OA
ENDBRANCH  70  73
ENDBRANCH  52  66
BRANCH  53  77
ATOM     77  C   UNL A   1      41.948  26.580  27.742  1.00  0.00     0.023 A 
ATOM     78  C   UNL A   1      42.457  27.283  26.634  1.00  0.00     0.012 A 
ATOM     79  C   UNL A   1      41.784  25.184  27.654  1.00  0.00     0.148 A 
ATOM     80  C   UNL A   1      42.759  26.618  25.445  1.00  0.00     0.002 A 
ATOM     81  C   UNL A   1      42.120  24.520  26.477  1.00  0.00     0.091 A 
ATOM     82  F   UNL A   1      41.298  24.533  28.721  1.00  0.00    -0.205 F 
ATOM     83  C   UNL A   1      42.592  25.238  25.367  1.00  0.00     0.022 A 
BRANCH  81  84
ATOM     84  S   UNL A   1      42.015  22.735  26.295  1.00  0.00     0.127 S 
ATOM     85  O   UNL A   1      42.784  22.270  27.447  1.00  0.00    -0.237 OA
ATOM     86  O   UNL A   1      40.572  22.512  26.386  1.00  0.00    -0.237 OA
ATOM     87  O   UNL A   1      42.595  22.434  24.993  1.00  0.00    -0.744 OA
ENDBRANCH  81  84
ENDBRANCH  53  77
BRANCH  65  88
ATOM     88  C   UNL A   1      44.803  27.111  34.102  1.00  0.00     0.023 A 
ATOM     89  C   UNL A   1      46.093  27.672  34.093  1.00  0.00     0.012 A 
ATOM     90  C   UNL A   1      44.555  25.954  34.870  1.00  0.00     0.148 A 
ATOM     91  C   UNL A   1      47.123  27.087  34.833  1.00  0.00     0.002 A 
ATOM     92  C   UNL A   1      45.572  25.407  35.643  1.00  0.00     0.091 A 
ATOM     93  F   UNL A   1      43.324  25.423  34.846  1.00  0.00    -0.205 F 
ATOM     94  C   UNL A   1      46.859  25.967  35.620  1.00  0.00     0.022 A 
BRANCH  92  95
ATOM     95  S   UNL A   1      45.293  24.033  36.767  1.00  0.00     0.127 S 
ATOM     96  O   UNL A   1      44.336  24.607  37.710  1.00  0.00    -0.237 OA
ATOM     97  O   UNL A   1      44.736  23.012  35.878  1.00  0.00    -0.237 OA
ATOM     98  O   UNL A   1      46.597  23.699  37.326  1.00  0.00    -0.744 OA
ENDBRANCH  92  95
ENDBRANCH  65  88
ENDBRANCH  39  40
ENDBRANCH  32  34
ENDBRANCH  31  32
ENDBRANCH  30  31
ENDBRANCH   1  30
TORSDOF 19
ENDMDL
MODEL 2
REMARK VINA RESULT:     -12.2      1.860      7.665
REMARK SMILES O=C(C[C@H](NC(=O)[C@]12C[C@H]3C[C@H](C[C@H](C3)C1)C2)c1cccc([N+](=O)[O-])c1)OCCOC(=O)c1ccc(-c2c3nc(c(-c4cccc(S(=O)(=O)[O-])c4F)c4ccc([nH]4)c(-c4cccc(S(=O)(=O)[O-])c4F)c4nc(c(-c5cccc(S(=O)(=O)[O-])c5F)c5ccc2[nH]5)C=C4)C=C3)cc1
REMARK SMILES IDX 28 1 27 2 2 3 1 4 3 5 4 6 18 7 19 8 26 9 20 10 22 11 21 12
REMARK SMILES IDX 23 13 24 14 25 15 5 16 6 17 7 19 8 20 9 21 16 22 17 23 10 24
REMARK SMILES IDX 14 25 12 26 11 27 15 28 13 29 29 30 30 31 31 32 32 33 33 34
REMARK SMILES IDX 34 35 95 36 35 37 94 38 36 39 37 40 38 41 88 42 39 43 93 44
REMARK SMILES IDX 87 45 89 46 40 47 92 48 86 49 85 50 41 52 73 53 53 54 72 55
REMARK SMILES IDX 54 56 57 57 71 58 90 59 55 60 56 61 70 63 91 64 58 65 42 66
REMARK SMILES IDX 43 67 51 68 44 69 46 70 52 71 45 72 47 73 48 74 49 75 50 76
REMARK SMILES IDX 74 77 75 78 83 79 76 80 78 81 84 82 77 83 79 84 80 85 81 86
REMARK SMILES IDX 82 87 59 88 60 89 68 90 61 91 63 92 69 93 62 94 64 95 65 96
REMARK SMILES IDX 66 97 67 98
REMARK H PARENT 5 18 89 51 57 62
REMARK Flexibility Score: inf
ROOT
ATOM      1  C   UNL A   1      32.878  30.831  26.983  1.00  0.00     0.274 C 
ENDROOT
BRANCH   1   2
ATOM      2  O   UNL A   1      33.790  29.821  26.511  1.00  0.00    -0.462 OA
BRANCH   2   3
ATOM      3  C   UNL A   1      33.451  28.544  26.247  1.00  0.00     0.308 C 
ATOM      4  O   UNL A   1      33.243  27.764  27.176  1.00  0.00    -0.252 OA
BRANCH   3   5
ATOM      5  C   UNL A   1      33.302  28.086  24.810  1.00  0.00     0.152 C 
BRANCH   5   6
ATOM      6  C   UNL A   1      32.443  26.833  24.524  1.00  0.00     0.123 C 
BRANCH   6   7
ATOM      7  C   UNL A   1      30.981  27.216  24.272  1.00  0.00    -0.018 A 
ATOM      8  C   UNL A   1      29.908  26.320  24.404  1.00  0.00     0.006 A 
ATOM      9  C   UNL A   1      30.706  28.499  23.751  1.00  0.00     0.091 A 
ATOM     10  C   UNL A   1      28.640  26.639  23.901  1.00  0.00     0.007 A 
ATOM     11  C   UNL A   1      29.459  28.784  23.181  1.00  0.00     0.269 A 
ATOM     12  C   UNL A   1      28.421  27.852  23.251  1.00  0.00     0.085 A 
BRANCH  11  13
ATOM     13  N   UNL A   1      29.275  30.027  22.424  1.00  0.00     0.062 N 
ATOM     14  O   UNL A   1      29.675  30.048  21.249  1.00  0.00    -0.258 OA
ATOM     15  O   UNL A   1      28.718  30.976  22.993  1.00  0.00    -0.258 OA
ENDBRANCH  11  13
ENDBRANCH   6   7
BRANCH   6  16
ATOM     16  N   UNL A   1      33.062  26.054  23.446  1.00  0.00    -0.348 N 
ATOM     17  C   UNL A   1      33.555  24.784  23.380  1.00  0.00     0.226 C 
ATOM     18  H   UNL A   1      33.135  26.549  22.598  1.00  0.00     0.164 HD
ATOM     19  O   UNL A   1      34.283  24.581  22.399  1.00  0.00    -0.274 OA
BRANCH  17  20
ATOM     20  C   UNL A   1      33.237  23.650  24.385  1.00  0.00     0.050 C 
ATOM     21  C   UNL A   1      33.723  24.082  25.809  1.00  0.00     0.020 C 
ATOM     22  C   UNL A   1      34.010  22.366  24.009  1.00  0.00     0.020 C 
ATOM     23  C   UNL A   1      31.738  23.323  24.522  1.00  0.00     0.020 C 
ATOM     24  C   UNL A   1      33.475  22.981  26.857  1.00  0.00    -0.010 C 
ATOM     25  C   UNL A   1      33.762  21.252  25.045  1.00  0.00    -0.010 C 
ATOM     26  C   UNL A   1      31.498  22.212  25.550  1.00  0.00    -0.010 C 
ATOM     27  C   UNL A   1      31.975  22.677  26.926  1.00  0.00     0.007 C 
ATOM     28  C   UNL A   1      34.227  21.707  26.438  1.00  0.00     0.007 C 
ATOM     29  C   UNL A   1      32.261  20.956  25.111  1.00  0.00     0.007 C 
ENDBRANCH  17  20
ENDBRANCH   6  16
ENDBRANCH   5   6
ENDBRANCH   3   5
ENDBRANCH   2   3
ENDBRANCH   1   2
BRANCH   1  30
ATOM     30  C   UNL A   1      33.596  31.950  27.741  1.00  0.00     0.275 C 
BRANCH  30  31
ATOM     31  O   UNL A   1      32.929  33.213  27.558  1.00  0.00    -0.458 OA
BRANCH  31  32
ATOM     32  C   UNL A   1      33.223  34.197  28.448  1.00  0.00     0.338 C 
ATOM     33  O   UNL A   1      32.518  35.146  28.737  1.00  0.00    -0.246 OA
BRANCH  32  34
ATOM     34  C   UNL A   1      34.475  33.840  29.157  1.00  0.00     0.060 A 
ATOM     35  C   UNL A   1      35.711  34.214  28.606  1.00  0.00     0.016 A 
ATOM     36  C   UNL A   1      34.432  33.164  30.375  1.00  0.00     0.016 A 
ATOM     37  C   UNL A   1      36.910  33.908  29.272  1.00  0.00     0.010 A 
ATOM     38  C   UNL A   1      35.625  32.859  31.031  1.00  0.00     0.010 A 
ATOM     39  C   UNL A   1      36.879  33.212  30.484  1.00  0.00    -0.014 A 
BRANCH  39  40
ATOM     40  C   UNL A   1      38.100  32.680  31.155  1.00  0.00     0.031 A 
ATOM     41  C   UNL A   1      38.731  31.448  30.567  1.00  0.00     0.074 A 
ATOM     42  C   UNL A   1      38.572  33.160  32.323  1.00  0.00     0.049 A 
ATOM     43  N   UNL A   1      39.629  30.649  31.076  1.00  0.00    -0.248 NA
ATOM     44  C   UNL A   1      38.262  31.060  29.225  1.00  0.00     0.031 C 
ATOM     45  C   UNL A   1      38.106  34.361  33.009  1.00  0.00     0.029 A 
ATOM     46  N   UNL A   1      39.505  32.629  33.188  1.00  0.00    -0.354 N 
ATOM     47  C   UNL A   1      39.819  29.652  30.128  1.00  0.00     0.074 A 
ATOM     48  C   UNL A   1      38.896  29.914  29.044  1.00  0.00     0.031 C 
ATOM     49  C   UNL A   1      38.660  34.411  34.235  1.00  0.00     0.029 A 
ATOM     50  C   UNL A   1      39.523  33.248  34.420  1.00  0.00     0.049 A 
ATOM     51  H   UNL A   1      40.099  31.881  32.950  1.00  0.00     0.167 HD
ATOM     52  C   UNL A   1      40.713  28.637  30.126  1.00  0.00     0.034 A 
ATOM     53  C   UNL A   1      40.134  32.901  35.572  1.00  0.00     0.034 A 
ATOM     54  C   UNL A   1      41.662  28.392  31.173  1.00  0.00     0.049 A 
ATOM     55  C   UNL A   1      41.070  31.717  35.592  1.00  0.00     0.074 A 
ATOM     56  C   UNL A   1      42.669  27.447  31.218  1.00  0.00     0.029 A 
ATOM     57  N   UNL A   1      41.712  29.092  32.367  1.00  0.00    -0.354 N 
ATOM     58  N   UNL A   1      41.361  30.882  34.625  1.00  0.00    -0.248 NA
ATOM     59  C   UNL A   1      41.816  31.471  36.837  1.00  0.00     0.031 C 
ATOM     60  C   UNL A   1      43.320  27.564  32.451  1.00  0.00     0.029 A 
ATOM     61  C   UNL A   1      42.729  28.596  33.162  1.00  0.00     0.049 A 
ATOM     62  H   UNL A   1      41.113  29.833  32.614  1.00  0.00     0.167 HD
ATOM     63  C   UNL A   1      42.383  30.074  35.113  1.00  0.00     0.074 A 
ATOM     64  C   UNL A   1      42.642  30.498  36.472  1.00  0.00     0.031 C 
ATOM     65  C   UNL A   1      43.052  29.079  34.480  1.00  0.00     0.034 A 
BRANCH  52  66
ATOM     66  C   UNL A   1      40.733  27.759  28.906  1.00  0.00     0.023 A 
ATOM     67  C   UNL A   1      39.802  26.705  28.800  1.00  0.00     0.012 A 
ATOM     68  C   UNL A   1      41.673  27.961  27.880  1.00  0.00     0.148 A 
ATOM     69  C   UNL A   1      39.842  25.830  27.719  1.00  0.00     0.002 A 
ATOM     70  C   UNL A   1      41.677  27.112  26.781  1.00  0.00     0.091 A 
ATOM     71  F   UNL A   1      42.567  28.951  28.013  1.00  0.00    -0.205 F 
ATOM     72  C   UNL A   1      40.774  26.037  26.706  1.00  0.00     0.022 A 
BRANCH  70  73
ATOM     73  S   UNL A   1      42.794  27.344  25.396  1.00  0.00     0.127 S 
ATOM     74  O   UNL A   1      42.604  26.100  24.652  1.00  0.00    -0.237 OA
ATOM     75  O   UNL A   1      42.240  28.533  24.746  1.00  0.00    -0.237 OA
ATOM     76  O   UNL A   1      44.114  27.536  25.980  1.00  0.00    -0.744 OA
ENDBRANCH  70  73
ENDBRANCH  52  66
BRANCH  53  77
ATOM     77  C   UNL A   1      39.940  33.718  36.806  1.00  0.00     0.023 A 
ATOM     78  C   UNL A   1      40.601  34.955  36.925  1.00  0.00     0.012 A 
ATOM     79  C   UNL A   1      39.129  33.266  37.866  1.00  0.00     0.148 A 
ATOM     80  C   UNL A   1      40.493  35.712  38.092  1.00  0.00     0.002 A 
ATOM     81  C   UNL A   1      38.997  34.043  39.014  1.00  0.00     0.091 A 
ATOM     82  F   UNL A   1      38.508  32.086  37.732  1.00  0.00    -0.205 F 
ATOM     83  C   UNL A   1      39.690  35.257  39.135  1.00  0.00     0.022 A 
BRANCH  81  84
ATOM     84  S   UNL A   1      37.929  33.587  40.386  1.00  0.00     0.127 S 
ATOM     85  O   UNL A   1      38.678  32.493  41.000  1.00  0.00    -0.237 OA
ATOM     86  O   UNL A   1      37.898  34.827  41.162  1.00  0.00    -0.237 OA
ATOM     87  O   UNL A   1      36.653  33.213  39.790  1.00  0.00    -0.744 OA
ENDBRANCH  81  84
ENDBRANCH  53  77
BRANCH  65  88
ATOM     88  C   UNL A   1      44.212  28.426  35.183  1.00  0.00     0.023 A 
ATOM     89  C   UNL A   1      45.520  28.910  34.997  1.00  0.00     0.012 A 
ATOM     90  C   UNL A   1      43.978  27.410  36.133  1.00  0.00     0.148 A 
ATOM     91  C   UNL A   1      46.580  28.386  35.739  1.00  0.00     0.002 A 
ATOM     92  C   UNL A   1      45.029  26.928  36.904  1.00  0.00     0.091 A 
ATOM     93  F   UNL A   1      42.727  26.947  36.279  1.00  0.00    -0.205 F 
ATOM     94  C   UNL A   1      46.333  27.409  36.702  1.00  0.00     0.022 A 
BRANCH  92  95
ATOM     95  S   UNL A   1      44.783  25.751  38.239  1.00  0.00     0.127 S 
ATOM     96  O   UNL A   1      43.833  26.461  39.092  1.00  0.00    -0.237 OA
ATOM     97  O   UNL A   1      44.226  24.595  37.535  1.00  0.00    -0.237 OA
ATOM     98  O   UNL A   1      46.099  25.525  38.823  1.00  0.00    -0.744 OA
ENDBRANCH  92  95
ENDBRANCH  65  88
ENDBRANCH  39  40
ENDBRANCH  32  34
ENDBRANCH  31  32
ENDBRANCH  30  31
ENDBRANCH   1  30
TORSDOF 19
ENDMDL
MODEL 3
REMARK VINA RESULT:     -12.2      1.737      7.663
REMARK SMILES O=C(C[C@H](NC(=O)[C@]12C[C@H]3C[C@H](C[C@H](C3)C1)C2)c1cccc([N+](=O)[O-])c1)OCCOC(=O)c1ccc(-c2c3nc(c(-c4cccc(S(=O)(=O)[O-])c4F)c4ccc([nH]4)c(-c4cccc(S(=O)(=O)[O-])c4F)c4nc(c(-c5cccc(S(=O)(=O)[O-])c5F)c5ccc2[nH]5)C=C4)C=C3)cc1
REMARK SMILES IDX 28 1 27 2 2 3 1 4 3 5 4 6 18 7 19 8 26 9 20 10 22 11 21 12
REMARK SMILES IDX 23 13 24 14 25 15 5 16 6 17 7 19 8 20 9 21 16 22 17 23 10 24
REMARK SMILES IDX 14 25 12 26 11 27 15 28 13 29 29 30 30 31 31 32 32 33 33 34
REMARK SMILES IDX 34 35 95 36 35 37 94 38 36 39 37 40 38 41 88 42 39 43 93 44
REMARK SMILES IDX 87 45 89 46 40 47 92 48 86 49 85 50 41 52 73 53 53 54 72 55
REMARK SMILES IDX 54 56 57 57 71 58 90 59 55 60 56 61 70 63 91 64 58 65 42 66
REMARK SMILES IDX 43 67 51 68 44 69 46 70 52 71 45 72 47 73 48 74 49 75 50 76
REMARK SMILES IDX 74 77 75 78 83 79 76 80 78 81 84 82 77 83 79 84 80 85 81 86
REMARK SMILES IDX 82 87 59 88 60 89 68 90 61 91 63 92 69 93 62 94 64 95 65 96
REMARK SMILES IDX 66 97 67 98
REMARK H PARENT 5 18 89 51 57 62
REMARK Flexibility Score: inf
ROOT
ATOM      1  C   UNL A   1      34.175  28.481  24.438  1.00  0.00     0.274 C 
ENDROOT
BRANCH   1   2
ATOM      2  O   UNL A   1      33.863  27.244  23.771  1.00  0.00    -0.462 OA
BRANCH   2   3
ATOM      3  C   UNL A   1      33.450  27.145  22.492  1.00  0.00     0.308 C 
ATOM      4  O   UNL A   1      34.045  27.761  21.609  1.00  0.00    -0.252 OA
BRANCH   3   5
ATOM      5  C   UNL A   1      32.273  26.255  22.148  1.00  0.00     0.152 C 
BRANCH   5   6
ATOM      6  C   UNL A   1      31.423  25.681  23.304  1.00  0.00     0.123 C 
BRANCH   6   7
ATOM      7  C   UNL A   1      30.158  26.518  23.524  1.00  0.00    -0.018 A 
ATOM      8  C   UNL A   1      28.929  25.978  23.936  1.00  0.00     0.006 A 
ATOM      9  C   UNL A   1      30.190  27.884  23.167  1.00  0.00     0.091 A 
ATOM     10  C   UNL A   1      27.750  26.731  23.855  1.00  0.00     0.007 A 
ATOM     11  C   UNL A   1      29.000  28.607  23.014  1.00  0.00     0.269 A 
ATOM     12  C   UNL A   1      27.774  28.032  23.354  1.00  0.00     0.085 A 
BRANCH  11  13
ATOM     13  N   UNL A   1      29.037  29.941  22.402  1.00  0.00     0.062 N 
ATOM     14  O   UNL A   1      29.109  30.919  23.163  1.00  0.00    -0.258 OA
ATOM     15  O   UNL A   1      29.012  30.012  21.166  1.00  0.00    -0.258 OA
ENDBRANCH  11  13
ENDBRANCH   6   7
BRANCH   6  16
ATOM     16  N   UNL A   1      31.174  24.255  23.066  1.00  0.00    -0.348 N 
ATOM     17  C   UNL A   1      31.952  23.141  23.185  1.00  0.00     0.226 C 
ATOM     18  H   UNL A   1      30.259  24.064  22.757  1.00  0.00     0.164 HD
ATOM     19  O   UNL A   1      31.500  22.150  22.596  1.00  0.00    -0.274 OA
BRANCH  17  20
ATOM     20  C   UNL A   1      33.265  23.054  24.002  1.00  0.00     0.050 C 
ATOM     21  C   UNL A   1      33.559  21.551  24.330  1.00  0.00     0.020 C 
ATOM     22  C   UNL A   1      33.111  23.793  25.350  1.00  0.00     0.020 C 
ATOM     23  C   UNL A   1      34.510  23.586  23.267  1.00  0.00     0.020 C 
ATOM     24  C   UNL A   1      34.834  21.390  25.179  1.00  0.00    -0.010 C 
ATOM     25  C   UNL A   1      34.384  23.648  26.205  1.00  0.00    -0.010 C 
ATOM     26  C   UNL A   1      35.772  23.442  24.124  1.00  0.00    -0.010 C 
ATOM     27  C   UNL A   1      36.030  21.964  24.412  1.00  0.00     0.007 C 
ATOM     28  C   UNL A   1      34.664  22.165  26.496  1.00  0.00     0.007 C 
ATOM     29  C   UNL A   1      35.574  24.221  25.431  1.00  0.00     0.007 C 
ENDBRANCH  17  20
ENDBRANCH   6  16
ENDBRANCH   5   6
ENDBRANCH   3   5
ENDBRANCH   2   3
ENDBRANCH   1   2
BRANCH   1  30
ATOM     30  C   UNL A   1      32.917  29.260  24.830  1.00  0.00     0.275 C 
BRANCH  30  31
ATOM     31  O   UNL A   1      32.837  29.435  26.256  1.00  0.00    -0.458 OA
BRANCH  31  32
ATOM     32  C   UNL A   1      33.054  30.689  26.734  1.00  0.00     0.338 C 
ATOM     33  O   UNL A   1      32.289  31.633  26.665  1.00  0.00    -0.246 OA
BRANCH  32  34
ATOM     34  C   UNL A   1      34.309  30.687  27.523  1.00  0.00     0.060 A 
ATOM     35  C   UNL A   1      35.043  31.877  27.655  1.00  0.00     0.016 A 
ATOM     36  C   UNL A   1      34.748  29.525  28.154  1.00  0.00     0.016 A 
ATOM     37  C   UNL A   1      36.223  31.906  28.417  1.00  0.00     0.010 A 
ATOM     38  C   UNL A   1      35.923  29.557  28.907  1.00  0.00     0.010 A 
ATOM     39  C   UNL A   1      36.683  30.740  29.037  1.00  0.00    -0.014 A 
BRANCH  39  40
ATOM     40  C   UNL A   1      38.016  30.636  29.699  1.00  0.00     0.031 A 
ATOM     41  C   UNL A   1      38.996  29.648  29.127  1.00  0.00     0.074 A 
ATOM     42  C   UNL A   1      38.326  31.270  30.847  1.00  0.00     0.049 A 
ATOM     43  N   UNL A   1      40.104  29.184  29.637  1.00  0.00    -0.248 NA
ATOM     44  C   UNL A   1      38.659  29.098  27.802  1.00  0.00     0.031 C 
ATOM     45  C   UNL A   1      37.514  32.283  31.514  1.00  0.00     0.029 A 
ATOM     46  N   UNL A   1      39.386  31.081  31.707  1.00  0.00    -0.354 N 
ATOM     47  C   UNL A   1      40.587  28.273  28.708  1.00  0.00     0.074 A 
ATOM     48  C   UNL A   1      39.619  28.203  27.635  1.00  0.00     0.031 C 
ATOM     49  C   UNL A   1      38.036  32.536  32.729  1.00  0.00     0.029 A 
ATOM     50  C   UNL A   1      39.221  31.707  32.924  1.00  0.00     0.049 A 
ATOM     51  H   UNL A   1      40.182  30.551  31.475  1.00  0.00     0.167 HD
ATOM     52  C   UNL A   1      41.755  27.589  28.713  1.00  0.00     0.034 A 
ATOM     53  C   UNL A   1      39.922  31.600  34.073  1.00  0.00     0.034 A 
ATOM     54  C   UNL A   1      42.743  27.681  29.748  1.00  0.00     0.049 A 
ATOM     55  C   UNL A   1      41.182  30.769  34.102  1.00  0.00     0.074 A 
ATOM     56  C   UNL A   1      43.996  27.100  29.796  1.00  0.00     0.029 A 
ATOM     57  N   UNL A   1      42.583  28.393  30.925  1.00  0.00    -0.354 N 
ATOM     58  N   UNL A   1      41.711  30.042  33.149  1.00  0.00    -0.248 NA
ATOM     59  C   UNL A   1      41.980  30.802  35.339  1.00  0.00     0.031 C 
ATOM     60  C   UNL A   1      44.589  27.447  31.015  1.00  0.00     0.029 A 
ATOM     61  C   UNL A   1      43.712  28.261  31.713  1.00  0.00     0.049 A 
ATOM     62  H   UNL A   1      41.784  28.915  31.167  1.00  0.00     0.167 HD
ATOM     63  C   UNL A   1      42.940  29.607  33.637  1.00  0.00     0.074 A 
ATOM     64  C   UNL A   1      43.065  30.127  34.982  1.00  0.00     0.031 C 
ATOM     65  C   UNL A   1      43.880  28.856  33.014  1.00  0.00     0.034 A 
BRANCH  52  66
ATOM     66  C   UNL A   1      42.037  26.729  27.513  1.00  0.00     0.023 A 
ATOM     67  C   UNL A   1      42.543  27.327  26.340  1.00  0.00     0.012 A 
ATOM     68  C   UNL A   1      41.791  25.345  27.536  1.00  0.00     0.148 A 
ATOM     69  C   UNL A   1      42.745  26.570  25.189  1.00  0.00     0.002 A 
ATOM     70  C   UNL A   1      42.039  24.588  26.399  1.00  0.00     0.091 A 
ATOM     71  F   UNL A   1      41.284  24.801  28.652  1.00  0.00    -0.205 F 
ATOM     72  C   UNL A   1      42.500  25.201  25.220  1.00  0.00     0.022 A 
BRANCH  70  73
ATOM     73  S   UNL A   1      41.820  22.807  26.366  1.00  0.00     0.127 S 
ATOM     74  O   UNL A   1      42.504  22.403  27.593  1.00  0.00    -0.237 OA
ATOM     75  O   UNL A   1      40.364  22.672  26.407  1.00  0.00    -0.237 OA
ATOM     76  O   UNL A   1      42.433  22.356  25.125  1.00  0.00    -0.744 OA
ENDBRANCH  70  73
ENDBRANCH  52  66
BRANCH  53  77
ATOM     77  C   UNL A   1      39.494  32.347  35.292  1.00  0.00     0.023 A 
ATOM     78  C   UNL A   1      38.606  31.737  36.197  1.00  0.00     0.012 A 
ATOM     79  C   UNL A   1      39.940  33.660  35.543  1.00  0.00     0.148 A 
ATOM     80  C   UNL A   1      38.136  32.432  37.312  1.00  0.00     0.002 A 
ATOM     81  C   UNL A   1      39.494  34.336  36.676  1.00  0.00     0.091 A 
ATOM     82  F   UNL A   1      40.786  34.222  34.669  1.00  0.00    -0.205 F 
ATOM     83  C   UNL A   1      38.580  33.729  37.552  1.00  0.00     0.022 A 
BRANCH  81  84
ATOM     84  S   UNL A   1      40.063  35.982  37.120  1.00  0.00     0.127 S 
ATOM     85  O   UNL A   1      41.499  35.770  37.285  1.00  0.00    -0.237 OA
ATOM     86  O   UNL A   1      39.685  36.755  35.937  1.00  0.00    -0.237 OA
ATOM     87  O   UNL A   1      39.340  36.338  38.334  1.00  0.00    -0.744 OA
ENDBRANCH  81  84
ENDBRANCH  53  77
BRANCH  65  88
ATOM     88  C   UNL A   1      45.193  28.618  33.711  1.00  0.00     0.023 A 
ATOM     89  C   UNL A   1      46.260  29.521  33.545  1.00  0.00     0.012 A 
ATOM     90  C   UNL A   1      45.318  27.560  34.635  1.00  0.00     0.148 A 
ATOM     91  C   UNL A   1      47.435  29.369  34.284  1.00  0.00     0.002 A 
ATOM     92  C   UNL A   1      46.471  27.444  35.403  1.00  0.00     0.091 A 
ATOM     93  F   UNL A   1      44.298  26.697  34.761  1.00  0.00    -0.205 F 
ATOM     94  C   UNL A   1      47.534  28.343  35.223  1.00  0.00     0.022 A 
BRANCH  92  95
ATOM     95  S   UNL A   1      46.639  26.222  36.709  1.00  0.00     0.127 S 
ATOM     96  O   UNL A   1      45.363  26.355  37.409  1.00  0.00    -0.237 OA
ATOM     97  O   UNL A   1      46.793  24.978  35.952  1.00  0.00    -0.237 OA
ATOM     98  O   UNL A   1      47.815  26.611  37.475  1.00  0.00    -0.744 OA
ENDBRANCH  92  95
ENDBRANCH  65  88
ENDBRANCH  39  40
ENDBRANCH  32  34
ENDBRANCH  31  32
ENDBRANCH  30  31
ENDBRANCH   1  30
TORSDOF 19
ENDMDL
