MODEL 1
REMARK VINA RESULT:     -12.2      0.000      0.000
REMARK SMILES COc1ccc(Cl)c2c1N[C@@H](c1ccc(C(=O)OCCOC(=O)c3ccc(-c4c5nc(c(-c6cccc(S(=O)(=O)[O-])c6F)c6ccc([nH]6)c(-c6cccc(S(=O)(=O)[O-])c6F)c6nc(c(-c7cccc(S(=O)(=O)[O-])c7F)c7ccc4[nH]7)C=C6)C=C5)cc3)cc1)[C@@H]1CC=C[C@H]21
REMARK SMILES IDX 20 1 19 2 18 3 16 4 17 5 15 6 12 7 13 8 88 9 14 10 87 11
REMARK SMILES IDX 11 12 3 13 4 14 9 15 5 16 8 17 10 18 6 19 93 20 7 22 89 23
REMARK SMILES IDX 92 24 90 25 91 26 2 27 1 28 21 29 22 30 23 31 24 32 25 33
REMARK SMILES IDX 86 34 26 35 85 36 27 37 28 38 29 39 79 40 30 41 84 42 78 43
REMARK SMILES IDX 80 44 31 45 83 46 77 47 76 48 32 50 64 51 44 52 63 53 45 54
REMARK SMILES IDX 48 55 62 56 81 57 46 58 47 59 61 61 82 62 49 63 33 64 34 65
REMARK SMILES IDX 42 66 35 67 37 68 43 69 36 70 38 71 39 72 40 73 41 74 65 75
REMARK SMILES IDX 66 76 74 77 67 78 69 79 75 80 68 81 70 82 71 83 72 84 73 85
REMARK SMILES IDX 50 86 51 87 59 88 52 89 54 90 60 91 53 92 55 93 56 94 57 95
REMARK SMILES IDX 58 96
REMARK H PARENT 10 21 80 49 48 60
REMARK Flexibility Score: inf
ROOT
ATOM      1  C   UNL A   1      32.089  30.226  26.836  1.00  0.00     0.275 C 
ENDROOT
BRANCH   1   2
ATOM      2  C   UNL A   1      31.494  30.179  25.431  1.00  0.00     0.275 C 
BRANCH   2   3
ATOM      3  O   UNL A   1      32.397  29.505  24.534  1.00  0.00    -0.458 OA
BRANCH   3   4
ATOM      4  C   UNL A   1      31.883  28.435  23.875  1.00  0.00     0.338 C 
ATOM      5  O   UNL A   1      30.966  28.453  23.079  1.00  0.00    -0.246 OA
BRANCH   4   6
ATOM      6  C   UNL A   1      32.654  27.202  24.187  1.00  0.00     0.060 A 
ATOM      7  C   UNL A   1      34.053  24.863  24.903  1.00  0.00    -0.025 A 
ATOM      8  C   UNL A   1      33.242  25.523  25.837  1.00  0.00     0.007 A 
ATOM      9  C   UNL A   1      34.138  25.381  23.599  1.00  0.00     0.007 A 
ATOM     10  C   UNL A   1      32.559  26.686  25.486  1.00  0.00     0.016 A 
ATOM     11  C   UNL A   1      33.446  26.543  23.242  1.00  0.00     0.016 A 
BRANCH   7  12
ATOM     12  C   UNL A   1      34.891  23.657  25.310  1.00  0.00     0.114 C 
ATOM     13  C   UNL A   1      38.463  23.564  26.423  1.00  0.00     0.142 A 
ATOM     14  C   UNL A   1      39.540  22.688  26.543  1.00  0.00     0.050 A 
ATOM     15  C   UNL A   1      37.261  23.176  25.794  1.00  0.00     0.083 A 
ATOM     16  C   UNL A   1      39.422  21.389  26.059  1.00  0.00     0.025 A 
ATOM     17  C   UNL A   1      37.147  21.864  25.292  1.00  0.00     0.005 A 
ATOM     18  N   UNL A   1      36.234  24.092  25.634  1.00  0.00    -0.375 N 
ATOM     19  C   UNL A   1      38.240  20.981  25.437  1.00  0.00     0.047 A 
ATOM     20  C   UNL A   1      35.913  21.466  24.519  1.00  0.00     0.051 C 
ATOM     21  H   UNL A   1      36.420  25.052  25.742  1.00  0.00     0.161 HD
ATOM     22  Cl  UNL A   1      38.206  19.365  24.812  1.00  0.00    -0.084 Cl
ATOM     23  C   UNL A   1      34.944  22.617  24.170  1.00  0.00     0.031 C 
ATOM     24  C   UNL A   1      34.988  20.497  25.210  1.00  0.00    -0.023 C 
ATOM     25  C   UNL A   1      33.594  21.903  23.967  1.00  0.00     0.034 C 
ATOM     26  C   UNL A   1      33.709  20.729  24.885  1.00  0.00    -0.030 C 
BRANCH  13  27
ATOM     27  O   UNL A   1      38.659  24.853  26.853  1.00  0.00    -0.495 OA
ATOM     28  C   UNL A   1      39.958  25.334  26.508  1.00  0.00     0.278 C 
ENDBRANCH  13  27
ENDBRANCH   7  12
ENDBRANCH   4   6
ENDBRANCH   3   4
ENDBRANCH   2   3
ENDBRANCH   1   2
BRANCH   1  29
ATOM     29  O   UNL A   1      33.515  30.406  26.765  1.00  0.00    -0.458 OA
BRANCH  29  30
ATOM     30  C   UNL A   1      33.999  31.500  27.395  1.00  0.00     0.338 C 
ATOM     31  O   UNL A   1      33.491  32.606  27.462  1.00  0.00    -0.246 OA
BRANCH  30  32
ATOM     32  C   UNL A   1      35.261  31.153  28.063  1.00  0.00     0.060 A 
ATOM     33  C   UNL A   1      35.386  29.897  28.654  1.00  0.00     0.016 A 
ATOM     34  C   UNL A   1      36.268  32.108  28.206  1.00  0.00     0.016 A 
ATOM     35  C   UNL A   1      36.492  29.606  29.450  1.00  0.00     0.010 A 
ATOM     36  C   UNL A   1      37.404  31.794  28.959  1.00  0.00     0.010 A 
ATOM     37  C   UNL A   1      37.510  30.555  29.616  1.00  0.00    -0.014 A 
BRANCH  37  38
ATOM     38  C   UNL A   1      38.655  30.270  30.517  1.00  0.00     0.031 A 
ATOM     39  C   UNL A   1      39.732  29.312  30.082  1.00  0.00     0.074 A 
ATOM     40  C   UNL A   1      38.739  30.873  31.718  1.00  0.00     0.049 A 
ATOM     41  N   UNL A   1      40.755  28.860  30.760  1.00  0.00    -0.248 NA
ATOM     42  C   UNL A   1      39.649  28.794  28.706  1.00  0.00     0.031 C 
ATOM     43  C   UNL A   1      37.779  31.844  32.245  1.00  0.00     0.029 A 
ATOM     44  N   UNL A   1      39.674  30.751  32.716  1.00  0.00    -0.354 N 
ATOM     45  C   UNL A   1      41.411  27.976  29.914  1.00  0.00     0.074 A 
ATOM     46  C   UNL A   1      40.676  27.954  28.669  1.00  0.00     0.031 C 
ATOM     47  C   UNL A   1      38.176  32.232  33.467  1.00  0.00     0.029 A 
ATOM     48  C   UNL A   1      39.388  31.504  33.831  1.00  0.00     0.049 A 
ATOM     49  H   UNL A   1      40.471  30.180  32.642  1.00  0.00     0.167 HD
ATOM     50  C   UNL A   1      42.535  27.259  30.148  1.00  0.00     0.034 A 
ATOM     51  C   UNL A   1      40.014  31.582  35.021  1.00  0.00     0.034 A 
ATOM     52  C   UNL A   1      43.298  27.320  31.364  1.00  0.00     0.049 A 
ATOM     53  C   UNL A   1      41.244  30.754  35.266  1.00  0.00     0.074 A 
ATOM     54  C   UNL A   1      44.467  26.646  31.675  1.00  0.00     0.029 A 
ATOM     55  N   UNL A   1      42.980  28.102  32.461  1.00  0.00    -0.354 N 
ATOM     56  N   UNL A   1      41.872  29.952  34.441  1.00  0.00    -0.248 NA
ATOM     57  C   UNL A   1      41.858  30.845  36.599  1.00  0.00     0.031 C 
ATOM     58  C   UNL A   1      44.852  27.018  32.966  1.00  0.00     0.029 A 
ATOM     59  C   UNL A   1      43.927  27.927  33.454  1.00  0.00     0.049 A 
ATOM     60  H   UNL A   1      42.196  28.694  32.525  1.00  0.00     0.167 HD
ATOM     61  C   UNL A   1      42.963  29.457  35.147  1.00  0.00     0.074 A 
ATOM     62  C   UNL A   1      42.920  30.060  36.463  1.00  0.00     0.031 C 
ATOM     63  C   UNL A   1      43.902  28.569  34.742  1.00  0.00     0.034 A 
BRANCH  50  64
ATOM     64  C   UNL A   1      43.043  26.367  29.052  1.00  0.00     0.023 A 
ATOM     65  C   UNL A   1      42.617  25.025  29.003  1.00  0.00     0.012 A 
ATOM     66  C   UNL A   1      43.854  26.879  28.022  1.00  0.00     0.148 A 
ATOM     67  C   UNL A   1      43.001  24.201  27.946  1.00  0.00     0.002 A 
ATOM     68  C   UNL A   1      44.210  26.059  26.957  1.00  0.00     0.091 A 
ATOM     69  F   UNL A   1      44.255  28.156  28.100  1.00  0.00    -0.205 F 
ATOM     70  C   UNL A   1      43.786  24.720  26.921  1.00  0.00     0.022 A 
BRANCH  68  71
ATOM     71  S   UNL A   1      45.177  26.642  25.560  1.00  0.00     0.127 S 
ATOM     72  O   UNL A   1      44.308  27.685  25.016  1.00  0.00    -0.237 OA
ATOM     73  O   UNL A   1      46.389  27.136  26.212  1.00  0.00    -0.237 OA
ATOM     74  O   UNL A   1      45.374  25.488  24.694  1.00  0.00    -0.744 OA
ENDBRANCH  68  71
ENDBRANCH  50  64
BRANCH  51  75
ATOM     75  C   UNL A   1      39.491  32.508  36.062  1.00  0.00     0.023 A 
ATOM     76  C   UNL A   1      38.600  32.015  37.034  1.00  0.00     0.012 A 
ATOM     77  C   UNL A   1      39.922  33.847  36.132  1.00  0.00     0.148 A 
ATOM     78  C   UNL A   1      38.144  32.844  38.059  1.00  0.00     0.002 A 
ATOM     79  C   UNL A   1      39.495  34.655  37.179  1.00  0.00     0.091 A 
ATOM     80  F   UNL A   1      40.762  34.291  35.187  1.00  0.00    -0.205 F 
ATOM     81  C   UNL A   1      38.599  34.158  38.138  1.00  0.00     0.022 A 
BRANCH  79  82
ATOM     82  S   UNL A   1      40.105  36.326  37.425  1.00  0.00     0.127 S 
ATOM     83  O   UNL A   1      41.485  36.082  37.839  1.00  0.00    -0.237 OA
ATOM     84  O   UNL A   1      39.955  36.898  36.087  1.00  0.00    -0.237 OA
ATOM     85  O   UNL A   1      39.245  36.919  38.439  1.00  0.00    -0.744 OA
ENDBRANCH  79  82
ENDBRANCH  51  75
BRANCH  63  86
ATOM     86  C   UNL A   1      44.981  28.185  35.715  1.00  0.00     0.023 A 
ATOM     87  C   UNL A   1      46.207  28.876  35.687  1.00  0.00     0.012 A 
ATOM     88  C   UNL A   1      44.732  27.244  36.733  1.00  0.00     0.148 A 
ATOM     89  C   UNL A   1      47.175  28.634  36.661  1.00  0.00     0.002 A 
ATOM     90  C   UNL A   1      45.689  27.032  37.719  1.00  0.00     0.091 A 
ATOM     91  F   UNL A   1      43.558  26.596  36.729  1.00  0.00    -0.205 F 
ATOM     92  C   UNL A   1      46.911  27.723  37.682  1.00  0.00     0.022 A 
BRANCH  90  93
ATOM     93  S   UNL A   1      45.413  25.938  39.118  1.00  0.00     0.127 S 
ATOM     94  O   UNL A   1      45.152  24.663  38.450  1.00  0.00    -0.237 OA
ATOM     95  O   UNL A   1      46.693  26.008  39.821  1.00  0.00    -0.237 OA
ATOM     96  O   UNL A   1      44.285  26.495  39.851  1.00  0.00    -0.744 OA
ENDBRANCH  90  93
ENDBRANCH  63  86
ENDBRANCH  37  38
ENDBRANCH  30  32
ENDBRANCH  29  30
ENDBRANCH   1  29
TORSDOF 16
ENDMDL
MODEL 2
REMARK VINA RESULT:     -11.9      2.418      2.807
REMARK SMILES COc1ccc(Cl)c2c1N[C@@H](c1ccc(C(=O)OCCOC(=O)c3ccc(-c4c5nc(c(-c6cccc(S(=O)(=O)[O-])c6F)c6ccc([nH]6)c(-c6cccc(S(=O)(=O)[O-])c6F)c6nc(c(-c7cccc(S(=O)(=O)[O-])c7F)c7ccc4[nH]7)C=C6)C=C5)cc3)cc1)[C@@H]1CC=C[C@H]21
REMARK SMILES IDX 20 1 19 2 18 3 16 4 17 5 15 6 12 7 13 8 88 9 14 10 87 11
REMARK SMILES IDX 11 12 3 13 4 14 9 15 5 16 8 17 10 18 6 19 93 20 7 22 89 23
REMARK SMILES IDX 92 24 90 25 91 26 2 27 1 28 21 29 22 30 23 31 24 32 25 33
REMARK SMILES IDX 86 34 26 35 85 36 27 37 28 38 29 39 79 40 30 41 84 42 78 43
REMARK SMILES IDX 80 44 31 45 83 46 77 47 76 48 32 50 64 51 44 52 63 53 45 54
REMARK SMILES IDX 48 55 62 56 81 57 46 58 47 59 61 61 82 62 49 63 33 64 34 65
REMARK SMILES IDX 42 66 35 67 37 68 43 69 36 70 38 71 39 72 40 73 41 74 65 75
REMARK SMILES IDX 66 76 74 77 67 78 69 79 75 80 68 81 70 82 71 83 72 84 73 85
REMARK SMILES IDX 50 86 51 87 59 88 52 89 54 90 60 91 53 92 55 93 56 94 57 95
REMARK SMILES IDX 58 96
REMARK H PARENT 10 21 80 49 48 60
REMARK Flexibility Score: inf
ROOT
ATOM      1  C   UNL A   1      31.751  30.133  26.494  1.00  0.00     0.275 C 
ENDROOT
BRANCH   1   2
ATOM      2  C   UNL A   1      31.112  30.247  25.112  1.00  0.00     0.275 C 
BRANCH   2   3
ATOM      3  O   UNL A   1      30.748  28.940  24.627  1.00  0.00    -0.458 OA
BRANCH   3   4
ATOM      4  C   UNL A   1      31.521  28.448  23.625  1.00  0.00     0.338 C 
ATOM      5  O   UNL A   1      31.621  28.901  22.504  1.00  0.00    -0.246 OA
BRANCH   4   6
ATOM      6  C   UNL A   1      32.329  27.291  24.101  1.00  0.00     0.060 A 
ATOM      7  C   UNL A   1      33.937  25.117  24.890  1.00  0.00    -0.025 A 
ATOM      8  C   UNL A   1      34.127  25.728  23.643  1.00  0.00     0.007 A 
ATOM      9  C   UNL A   1      32.942  25.622  25.744  1.00  0.00     0.007 A 
ATOM     10  C   UNL A   1      33.324  26.798  23.248  1.00  0.00     0.016 A 
ATOM     11  C   UNL A   1      32.141  26.701  25.354  1.00  0.00     0.016 A 
BRANCH   7  12
ATOM     12  C   UNL A   1      34.733  23.878  25.282  1.00  0.00     0.114 C 
ATOM     13  C   UNL A   1      38.300  23.651  26.393  1.00  0.00     0.142 A 
ATOM     14  C   UNL A   1      39.346  22.737  26.502  1.00  0.00     0.050 A 
ATOM     15  C   UNL A   1      37.086  23.311  25.759  1.00  0.00     0.083 A 
ATOM     16  C   UNL A   1      39.185  21.449  26.002  1.00  0.00     0.025 A 
ATOM     17  C   UNL A   1      36.928  22.010  25.241  1.00  0.00     0.005 A 
ATOM     18  N   UNL A   1      36.090  24.263  25.611  1.00  0.00    -0.375 N 
ATOM     19  C   UNL A   1      37.990  21.089  25.375  1.00  0.00     0.047 A 
ATOM     20  C   UNL A   1      35.681  21.664  24.463  1.00  0.00     0.051 C 
ATOM     21  H   UNL A   1      36.308  25.215  25.731  1.00  0.00     0.161 HD
ATOM     22  Cl  UNL A   1      37.901  19.483  24.730  1.00  0.00    -0.084 Cl
ATOM     23  C   UNL A   1      34.752  22.851  24.129  1.00  0.00     0.031 C 
ATOM     24  C   UNL A   1      34.723  20.719  25.143  1.00  0.00    -0.023 C 
ATOM     25  C   UNL A   1      33.378  22.186  23.918  1.00  0.00     0.034 C 
ATOM     26  C   UNL A   1      33.454  20.997  24.821  1.00  0.00    -0.030 C 
BRANCH  13  27
ATOM     27  O   UNL A   1      38.540  24.927  26.839  1.00  0.00    -0.495 OA
ATOM     28  C   UNL A   1      39.072  24.933  28.163  1.00  0.00     0.278 C 
ENDBRANCH  13  27
ENDBRANCH   7  12
ENDBRANCH   4   6
ENDBRANCH   3   4
ENDBRANCH   2   3
ENDBRANCH   1   2
BRANCH   1  29
ATOM     29  O   UNL A   1      33.153  30.449  26.420  1.00  0.00    -0.458 OA
BRANCH  29  30
ATOM     30  C   UNL A   1      33.573  31.440  27.239  1.00  0.00     0.338 C 
ATOM     31  O   UNL A   1      32.964  32.445  27.565  1.00  0.00    -0.246 OA
BRANCH  30  32
ATOM     32  C   UNL A   1      34.912  31.112  27.747  1.00  0.00     0.060 A 
ATOM     33  C   UNL A   1      35.198  29.789  28.084  1.00  0.00     0.016 A 
ATOM     34  C   UNL A   1      35.837  32.123  28.001  1.00  0.00     0.016 A 
ATOM     35  C   UNL A   1      36.386  29.476  28.738  1.00  0.00     0.010 A 
ATOM     36  C   UNL A   1      37.055  31.799  28.607  1.00  0.00     0.010 A 
ATOM     37  C   UNL A   1      37.325  30.479  29.012  1.00  0.00    -0.014 A 
BRANCH  37  38
ATOM     38  C   UNL A   1      38.562  30.157  29.769  1.00  0.00     0.031 A 
ATOM     39  C   UNL A   1      39.606  29.264  29.154  1.00  0.00     0.074 A 
ATOM     40  C   UNL A   1      38.756  30.668  30.999  1.00  0.00     0.049 A 
ATOM     41  N   UNL A   1      40.701  28.789  29.688  1.00  0.00    -0.248 NA
ATOM     42  C   UNL A   1      39.393  28.850  27.756  1.00  0.00     0.031 C 
ATOM     43  C   UNL A   1      37.838  31.571  31.695  1.00  0.00     0.029 A 
ATOM     44  N   UNL A   1      39.790  30.496  31.886  1.00  0.00    -0.354 N 
ATOM     45  C   UNL A   1      41.284  27.990  28.714  1.00  0.00     0.074 A 
ATOM     46  C   UNL A   1      40.426  28.044  27.551  1.00  0.00     0.031 C 
ATOM     47  C   UNL A   1      38.350  31.875  32.897  1.00  0.00     0.029 A 
ATOM     48  C   UNL A   1      39.606  31.153  33.079  1.00  0.00     0.049 A 
ATOM     49  H   UNL A   1      40.587  29.953  31.687  1.00  0.00     0.167 HD
ATOM     50  C   UNL A   1      42.439  27.287  28.776  1.00  0.00     0.034 A 
ATOM     51  C   UNL A   1      40.349  31.156  34.203  1.00  0.00     0.034 A 
ATOM     52  C   UNL A   1      43.321  27.275  29.910  1.00  0.00     0.049 A 
ATOM     53  C   UNL A   1      41.613  30.345  34.257  1.00  0.00     0.074 A 
ATOM     54  C   UNL A   1      44.528  26.611  30.048  1.00  0.00     0.029 A 
ATOM     55  N   UNL A   1      43.102  27.962  31.092  1.00  0.00    -0.354 N 
ATOM     56  N   UNL A   1      42.169  29.626  33.313  1.00  0.00    -0.248 NA
ATOM     57  C   UNL A   1      42.359  30.350  35.525  1.00  0.00     0.031 C 
ATOM     58  C   UNL A   1      45.036  26.893  31.319  1.00  0.00     0.029 A 
ATOM     59  C   UNL A   1      44.149  27.737  31.967  1.00  0.00     0.049 A 
ATOM     60  H   UNL A   1      42.318  28.527  31.281  1.00  0.00     0.167 HD
ATOM     61  C   UNL A   1      43.334  29.107  33.864  1.00  0.00     0.074 A 
ATOM     62  C   UNL A   1      43.415  29.606  35.221  1.00  0.00     0.031 C 
ATOM     63  C   UNL A   1      44.243  28.278  33.298  1.00  0.00     0.034 A 
BRANCH  50  64
ATOM     64  C   UNL A   1      42.848  26.495  27.568  1.00  0.00     0.023 A 
ATOM     65  C   UNL A   1      43.415  27.163  26.465  1.00  0.00     0.012 A 
ATOM     66  C   UNL A   1      42.765  25.089  27.564  1.00  0.00     0.148 A 
ATOM     67  C   UNL A   1      43.888  26.442  25.369  1.00  0.00     0.002 A 
ATOM     68  C   UNL A   1      43.263  24.376  26.480  1.00  0.00     0.091 A 
ATOM     69  F   UNL A   1      42.209  24.480  28.621  1.00  0.00    -0.205 F 
ATOM     70  C   UNL A   1      43.821  25.052  25.382  1.00  0.00     0.022 A 
BRANCH  68  71
ATOM     71  S   UNL A   1      43.272  22.581  26.416  1.00  0.00     0.127 S 
ATOM     72  O   UNL A   1      44.705  22.296  26.371  1.00  0.00    -0.237 OA
ATOM     73  O   UNL A   1      42.619  22.228  27.677  1.00  0.00    -0.237 OA
ATOM     74  O   UNL A   1      42.530  22.214  25.218  1.00  0.00    -0.744 OA
ENDBRANCH  68  71
ENDBRANCH  50  64
BRANCH  51  75
ATOM     75  C   UNL A   1      39.918  31.986  35.361  1.00  0.00     0.023 A 
ATOM     76  C   UNL A   1      40.327  33.331  35.431  1.00  0.00     0.012 A 
ATOM     77  C   UNL A   1      39.055  31.471  36.347  1.00  0.00     0.148 A 
ATOM     78  C   UNL A   1      39.886  34.150  36.471  1.00  0.00     0.002 A 
ATOM     79  C   UNL A   1      38.588  32.304  37.357  1.00  0.00     0.091 A 
ATOM     80  F   UNL A   1      38.690  30.184  36.260  1.00  0.00    -0.205 F 
ATOM     81  C   UNL A   1      39.009  33.641  37.426  1.00  0.00     0.022 A 
BRANCH  79  82
ATOM     82  S   UNL A   1      37.376  31.770  38.571  1.00  0.00     0.127 S 
ATOM     83  O   UNL A   1      38.120  31.920  39.820  1.00  0.00    -0.237 OA
ATOM     84  O   UNL A   1      36.304  32.745  38.371  1.00  0.00    -0.237 OA
ATOM     85  O   UNL A   1      37.028  30.402  38.211  1.00  0.00    -0.744 OA
ENDBRANCH  79  82
ENDBRANCH  51  75
BRANCH  63  86
ATOM     86  C   UNL A   1      45.424  27.849  34.124  1.00  0.00     0.023 A 
ATOM     87  C   UNL A   1      45.337  26.665  34.882  1.00  0.00     0.012 A 
ATOM     88  C   UNL A   1      46.650  28.538  34.042  1.00  0.00     0.148 A 
ATOM     89  C   UNL A   1      46.457  26.173  35.551  1.00  0.00     0.002 A 
ATOM     90  C   UNL A   1      47.769  28.023  34.685  1.00  0.00     0.091 A 
ATOM     91  F   UNL A   1      46.700  29.666  33.320  1.00  0.00    -0.205 F 
ATOM     92  C   UNL A   1      47.674  26.843  35.442  1.00  0.00     0.022 A 
BRANCH  90  93
ATOM     93  S   UNL A   1      49.398  28.769  34.543  1.00  0.00     0.127 S 
ATOM     94  O   UNL A   1      49.158  30.108  35.080  1.00  0.00    -0.237 OA
ATOM     95  O   UNL A   1      50.209  27.905  35.399  1.00  0.00    -0.237 OA
ATOM     96  O   UNL A   1      49.743  28.722  33.128  1.00  0.00    -0.744 OA
ENDBRANCH  90  93
ENDBRANCH  63  86
ENDBRANCH  37  38
ENDBRANCH  30  32
ENDBRANCH  29  30
ENDBRANCH   1  29
TORSDOF 16
ENDMDL
MODEL 3
REMARK VINA RESULT:     -11.9      1.612      2.016
REMARK SMILES COc1ccc(Cl)c2c1N[C@@H](c1ccc(C(=O)OCCOC(=O)c3ccc(-c4c5nc(c(-c6cccc(S(=O)(=O)[O-])c6F)c6ccc([nH]6)c(-c6cccc(S(=O)(=O)[O-])c6F)c6nc(c(-c7cccc(S(=O)(=O)[O-])c7F)c7ccc4[nH]7)C=C6)C=C5)cc3)cc1)[C@@H]1CC=C[C@H]21
REMARK SMILES IDX 20 1 19 2 18 3 16 4 17 5 15 6 12 7 13 8 88 9 14 10 87 11
REMARK SMILES IDX 11 12 3 13 4 14 9 15 5 16 8 17 10 18 6 19 93 20 7 22 89 23
REMARK SMILES IDX 92 24 90 25 91 26 2 27 1 28 21 29 22 30 23 31 24 32 25 33
REMARK SMILES IDX 86 34 26 35 85 36 27 37 28 38 29 39 79 40 30 41 84 42 78 43
REMARK SMILES IDX 80 44 31 45 83 46 77 47 76 48 32 50 64 51 44 52 63 53 45 54
REMARK SMILES IDX 48 55 62 56 81 57 46 58 47 59 61 61 82 62 49 63 33 64 34 65
REMARK SMILES IDX 42 66 35 67 37 68 43 69 36 70 38 71 39 72 40 73 41 74 65 75
REMARK SMILES IDX 66 76 74 77 67 78 69 79 75 80 68 81 70 82 71 83 72 84 73 85
REMARK SMILES IDX 50 86 51 87 59 88 52 89 54 90 60 91 53 92 55 93 56 94 57 95
REMARK SMILES IDX 58 96
REMARK H PARENT 10 21 80 49 48 60
REMARK Flexibility Score: inf
ROOT
ATOM      1  C   UNL A   1      31.334  30.469  25.862  1.00  0.00     0.275 C 
ENDROOT
BRANCH   1   2
ATOM      2  C   UNL A   1      31.594  29.711  24.562  1.00  0.00     0.275 C 
BRANCH   2   3
ATOM      3  O   UNL A   1      30.407  29.000  24.159  1.00  0.00    -0.458 OA
BRANCH   3   4
ATOM      4  C   UNL A   1      30.582  28.066  23.190  1.00  0.00     0.338 C 
ATOM      5  O   UNL A   1      30.246  28.163  22.028  1.00  0.00    -0.246 OA
BRANCH   4   6
ATOM      6  C   UNL A   1      31.335  26.895  23.716  1.00  0.00     0.060 A 
ATOM      7  C   UNL A   1      32.869  24.716  24.630  1.00  0.00    -0.025 A 
ATOM      8  C   UNL A   1      33.341  25.535  23.595  1.00  0.00     0.007 A 
ATOM      9  C   UNL A   1      31.625  25.015  25.214  1.00  0.00     0.007 A 
ATOM     10  C   UNL A   1      32.577  26.607  23.136  1.00  0.00     0.016 A 
ATOM     11  C   UNL A   1      30.862  26.096  24.760  1.00  0.00     0.016 A 
BRANCH   7  12
ATOM     12  C   UNL A   1      33.644  23.477  25.061  1.00  0.00     0.114 C 
ATOM     13  C   UNL A   1      37.298  23.152  25.803  1.00  0.00     0.142 A 
ATOM     14  C   UNL A   1      38.306  22.194  25.894  1.00  0.00     0.050 A 
ATOM     15  C   UNL A   1      36.006  22.823  25.342  1.00  0.00     0.083 A 
ATOM     16  C   UNL A   1      38.029  20.874  25.551  1.00  0.00     0.025 A 
ATOM     17  C   UNL A   1      35.730  21.489  24.981  1.00  0.00     0.005 A 
ATOM     18  N   UNL A   1      35.046  23.813  25.202  1.00  0.00    -0.375 N 
ATOM     19  C   UNL A   1      36.755  20.525  25.096  1.00  0.00     0.047 A 
ATOM     20  C   UNL A   1      34.388  21.141  24.381  1.00  0.00     0.051 C 
ATOM     21  H   UNL A   1      35.321  24.757  25.199  1.00  0.00     0.161 HD
ATOM     22  Cl  UNL A   1      36.519  18.872  24.634  1.00  0.00    -0.084 Cl
ATOM     23  C   UNL A   1      33.485  22.343  24.026  1.00  0.00     0.031 C 
ATOM     24  C   UNL A   1      33.469  20.325  25.253  1.00  0.00    -0.023 C 
ATOM     25  C   UNL A   1      32.067  21.741  24.033  1.00  0.00     0.034 C 
ATOM     26  C   UNL A   1      32.186  20.645  25.042  1.00  0.00    -0.030 C 
BRANCH  13  27
ATOM     27  O   UNL A   1      37.647  24.449  26.086  1.00  0.00    -0.495 OA
ATOM     28  C   UNL A   1      38.909  24.526  26.748  1.00  0.00     0.278 C 
ENDBRANCH  13  27
ENDBRANCH   7  12
ENDBRANCH   4   6
ENDBRANCH   3   4
ENDBRANCH   2   3
ENDBRANCH   1   2
BRANCH   1  29
ATOM     29  O   UNL A   1      32.455  30.328  26.752  1.00  0.00    -0.458 OA
BRANCH  29  30
ATOM     30  C   UNL A   1      33.029  31.483  27.159  1.00  0.00     0.338 C 
ATOM     31  O   UNL A   1      32.532  32.596  27.174  1.00  0.00    -0.246 OA
BRANCH  30  32
ATOM     32  C   UNL A   1      34.385  31.201  27.649  1.00  0.00     0.060 A 
ATOM     33  C   UNL A   1      34.729  29.886  27.958  1.00  0.00     0.016 A 
ATOM     34  C   UNL A   1      35.269  32.246  27.915  1.00  0.00     0.016 A 
ATOM     35  C   UNL A   1      35.936  29.611  28.595  1.00  0.00     0.010 A 
ATOM     36  C   UNL A   1      36.506  31.961  28.504  1.00  0.00     0.010 A 
ATOM     37  C   UNL A   1      36.835  30.647  28.881  1.00  0.00    -0.014 A 
BRANCH  37  38
ATOM     38  C   UNL A   1      38.091  30.363  29.620  1.00  0.00     0.031 A 
ATOM     39  C   UNL A   1      39.163  29.520  28.982  1.00  0.00     0.074 A 
ATOM     40  C   UNL A   1      38.279  30.864  30.856  1.00  0.00     0.049 A 
ATOM     41  N   UNL A   1      40.281  29.081  29.498  1.00  0.00    -0.248 NA
ATOM     42  C   UNL A   1      38.951  29.118  27.580  1.00  0.00     0.031 C 
ATOM     43  C   UNL A   1      37.333  31.720  31.573  1.00  0.00     0.029 A 
ATOM     44  N   UNL A   1      39.328  30.720  31.730  1.00  0.00    -0.354 N 
ATOM     45  C   UNL A   1      40.885  28.320  28.506  1.00  0.00     0.074 A 
ATOM     46  C   UNL A   1      40.013  28.356  27.353  1.00  0.00     0.031 C 
ATOM     47  C   UNL A   1      37.846  32.027  32.775  1.00  0.00     0.029 A 
ATOM     48  C   UNL A   1      39.131  31.352  32.934  1.00  0.00     0.049 A 
ATOM     49  H   UNL A   1      40.143  30.211  31.514  1.00  0.00     0.167 HD
ATOM     50  C   UNL A   1      42.067  27.662  28.547  1.00  0.00     0.034 A 
ATOM     51  C   UNL A   1      39.885  31.369  34.050  1.00  0.00     0.034 A 
ATOM     52  C   UNL A   1      42.961  27.668  29.672  1.00  0.00     0.049 A 
ATOM     53  C   UNL A   1      41.180  30.607  34.080  1.00  0.00     0.074 A 
ATOM     54  C   UNL A   1      44.194  27.050  29.788  1.00  0.00     0.029 A 
ATOM     55  N   UNL A   1      42.727  28.329  30.865  1.00  0.00    -0.354 N 
ATOM     56  N   UNL A   1      41.753  29.924  33.120  1.00  0.00    -0.248 NA
ATOM     57  C   UNL A   1      41.938  30.624  35.340  1.00  0.00     0.031 C 
ATOM     58  C   UNL A   1      44.704  27.333  31.058  1.00  0.00     0.029 A 
ATOM     59  C   UNL A   1      43.792  28.133  31.727  1.00  0.00     0.049 A 
ATOM     60  H   UNL A   1      41.924  28.860  31.070  1.00  0.00     0.167 HD
ATOM     61  C   UNL A   1      42.944  29.444  33.652  1.00  0.00     0.074 A 
ATOM     62  C   UNL A   1      43.020  29.926  35.015  1.00  0.00     0.031 C 
ATOM     63  C   UNL A   1      43.879  28.659  33.064  1.00  0.00     0.034 A 
BRANCH  50  64
ATOM     64  C   UNL A   1      42.494  26.903  27.323  1.00  0.00     0.023 A 
ATOM     65  C   UNL A   1      43.054  27.605  26.238  1.00  0.00     0.012 A 
ATOM     66  C   UNL A   1      42.434  25.497  27.287  1.00  0.00     0.148 A 
ATOM     67  C   UNL A   1      43.543  26.917  25.129  1.00  0.00     0.002 A 
ATOM     68  C   UNL A   1      42.948  24.816  26.190  1.00  0.00     0.091 A 
ATOM     69  F   UNL A   1      41.883  24.856  28.329  1.00  0.00    -0.205 F 
ATOM     70  C   UNL A   1      43.499  25.525  25.110  1.00  0.00     0.022 A 
BRANCH  68  71
ATOM     71  S   UNL A   1      42.986  23.024  26.087  1.00  0.00     0.127 S 
ATOM     72  O   UNL A   1      43.956  22.690  27.129  1.00  0.00    -0.237 OA
ATOM     73  O   UNL A   1      41.603  22.670  26.406  1.00  0.00    -0.237 OA
ATOM     74  O   UNL A   1      43.403  22.704  24.729  1.00  0.00    -0.744 OA
ENDBRANCH  68  71
ENDBRANCH  50  64
BRANCH  51  75
ATOM     75  C   UNL A   1      39.434  32.164  35.224  1.00  0.00     0.023 A 
ATOM     76  C   UNL A   1      38.629  31.550  36.201  1.00  0.00     0.012 A 
ATOM     77  C   UNL A   1      39.853  33.496  35.408  1.00  0.00     0.148 A 
ATOM     78  C   UNL A   1      38.244  32.252  37.343  1.00  0.00     0.002 A 
ATOM     79  C   UNL A   1      39.499  34.176  36.568  1.00  0.00     0.091 A 
ATOM     80  F   UNL A   1      40.610  34.059  34.457  1.00  0.00    -0.205 F 
ATOM     81  C   UNL A   1      38.688  33.559  37.532  1.00  0.00     0.022 A 
BRANCH  79  82
ATOM     82  S   UNL A   1      40.106  35.823  36.949  1.00  0.00     0.127 S 
ATOM     83  O   UNL A   1      39.425  36.107  38.211  1.00  0.00    -0.237 OA
ATOM     84  O   UNL A   1      41.545  35.591  37.065  1.00  0.00    -0.237 OA
ATOM     85  O   UNL A   1      39.714  36.663  35.826  1.00  0.00    -0.744 OA
ENDBRANCH  79  82
ENDBRANCH  51  75
BRANCH  63  86
ATOM     86  C   UNL A   1      45.084  28.265  33.873  1.00  0.00     0.023 A 
ATOM     87  C   UNL A   1      46.197  29.126  33.908  1.00  0.00     0.012 A 
ATOM     88  C   UNL A   1      45.057  27.123  34.696  1.00  0.00     0.148 A 
ATOM     89  C   UNL A   1      47.273  28.852  34.752  1.00  0.00     0.002 A 
ATOM     90  C   UNL A   1      46.119  26.875  35.559  1.00  0.00     0.091 A 
ATOM     91  F   UNL A   1      43.987  26.317  34.636  1.00  0.00    -0.205 F 
ATOM     92  C   UNL A   1      47.228  27.737  35.585  1.00  0.00     0.022 A 
BRANCH  90  93
ATOM     93  S   UNL A   1      46.121  25.508  36.726  1.00  0.00     0.127 S 
ATOM     94  O   UNL A   1      46.128  24.353  35.829  1.00  0.00    -0.237 OA
ATOM     95  O   UNL A   1      47.372  25.725  37.452  1.00  0.00    -0.237 OA
ATOM     96  O   UNL A   1      44.916  25.661  37.530  1.00  0.00    -0.744 OA
ENDBRANCH  90  93
ENDBRANCH  63  86
ENDBRANCH  37  38
ENDBRANCH  30  32
ENDBRANCH  29  30
ENDBRANCH   1  29
TORSDOF 16
ENDMDL
