MODEL 1
REMARK VINA RESULT:     -11.6      0.000      0.000
REMARK SMILES O=C(OCCOC(=O)[C@H]1CC[C@H]2CCCC[C@@H]2[N@H+]1[C@@H]1CCCSC1)c1ccc(-c2c3nc(c(-c4cccc(S(=O)(=O)[O-])c4F)c4ccc([nH]4)c(-c4cccc(S(=O)(=O)[O-])c4F)c4nc(c(-c5cccc(S(=O)(=O)[O-])c5F)c5ccc2[nH]5)C=C4)C=C3)cc1
REMARK SMILES IDX 4 1 3 2 2 3 1 4 25 5 26 6 87 7 27 8 86 9 28 10 29 11 30 12
REMARK SMILES IDX 80 13 31 14 85 15 79 16 81 17 32 18 84 19 78 20 77 21 33 23
REMARK SMILES IDX 65 24 45 25 64 26 46 27 49 28 63 29 82 30 47 31 48 32 62 34
REMARK SMILES IDX 83 35 50 36 34 37 35 38 43 39 36 40 38 41 44 42 37 43 39 44
REMARK SMILES IDX 40 45 41 46 42 47 66 48 67 49 75 50 68 51 70 52 76 53 69 54
REMARK SMILES IDX 71 55 72 56 73 57 74 58 51 59 52 60 60 61 53 62 55 63 61 64
REMARK SMILES IDX 54 65 56 66 57 67 58 68 59 69 5 70 6 71 7 72 8 73 9 74 10 75
REMARK SMILES IDX 18 76 11 77 17 78 12 80 16 81 13 82 15 83 14 84 19 85 20 86
REMARK SMILES IDX 24 87 21 88 23 89 22 90
REMARK H PARENT 81 22 49 33 18 79
REMARK Flexibility Score: inf
ROOT
ATOM      1  C   UNL A   1      32.151  32.064  27.229  1.00  0.00     0.275 C 
ENDROOT
BRANCH   1   2
ATOM      2  O   UNL A   1      32.980  33.240  27.230  1.00  0.00    -0.458 OA
BRANCH   2   3
ATOM      3  C   UNL A   1      33.702  33.788  28.237  1.00  0.00     0.338 C 
ATOM      4  O   UNL A   1      33.530  34.971  28.522  1.00  0.00    -0.246 OA
BRANCH   3   5
ATOM      5  C   UNL A   1      34.819  33.058  28.914  1.00  0.00     0.060 A 
ATOM      6  C   UNL A   1      34.692  32.249  30.047  1.00  0.00     0.016 A 
ATOM      7  C   UNL A   1      36.092  33.178  28.329  1.00  0.00     0.016 A 
ATOM      8  C   UNL A   1      35.757  31.469  30.507  1.00  0.00     0.010 A 
ATOM      9  C   UNL A   1      37.163  32.403  28.789  1.00  0.00     0.010 A 
ATOM     10  C   UNL A   1      36.995  31.525  29.873  1.00  0.00    -0.014 A 
BRANCH  10  11
ATOM     11  C   UNL A   1      38.166  30.837  30.463  1.00  0.00     0.031 A 
ATOM     12  C   UNL A   1      38.678  31.371  31.764  1.00  0.00     0.074 A 
ATOM     13  C   UNL A   1      38.750  29.760  29.900  1.00  0.00     0.049 A 
ATOM     14  N   UNL A   1      39.651  30.915  32.500  1.00  0.00    -0.248 NA
ATOM     15  C   UNL A   1      37.953  32.513  32.354  1.00  0.00     0.031 C 
ATOM     16  C   UNL A   1      38.257  29.011  28.750  1.00  0.00     0.029 A 
ATOM     17  N   UNL A   1      39.941  29.138  30.187  1.00  0.00    -0.354 N 
ATOM     18  C   UNL A   1      39.617  31.668  33.661  1.00  0.00     0.074 A 
ATOM     19  C   UNL A   1      38.584  32.665  33.507  1.00  0.00     0.031 C 
ATOM     20  C   UNL A   1      39.219  28.189  28.298  1.00  0.00     0.029 A 
ATOM     21  C   UNL A   1      40.361  28.280  29.193  1.00  0.00     0.049 A 
ATOM     22  H   UNL A   1      40.444  29.291  31.019  1.00  0.00     0.167 HD
ATOM     23  C   UNL A   1      40.343  31.492  34.783  1.00  0.00     0.034 A 
ATOM     24  C   UNL A   1      41.530  27.631  29.034  1.00  0.00     0.034 A 
ATOM     25  C   UNL A   1      41.383  30.514  34.907  1.00  0.00     0.049 A 
ATOM     26  C   UNL A   1      42.459  27.603  30.214  1.00  0.00     0.074 A 
ATOM     27  C   UNL A   1      42.174  30.234  36.002  1.00  0.00     0.029 A 
ATOM     28  N   UNL A   1      41.805  29.686  33.878  1.00  0.00    -0.354 N 
ATOM     29  N   UNL A   1      42.324  28.205  31.371  1.00  0.00    -0.248 NA
ATOM     30  C   UNL A   1      43.625  26.713  30.128  1.00  0.00     0.031 C 
ATOM     31  C   UNL A   1      43.112  29.272  35.619  1.00  0.00     0.029 A 
ATOM     32  C   UNL A   1      42.875  28.921  34.299  1.00  0.00     0.049 A 
ATOM     33  H   UNL A   1      41.401  29.649  32.981  1.00  0.00     0.167 HD
ATOM     34  C   UNL A   1      43.325  27.696  32.184  1.00  0.00     0.074 A 
ATOM     35  C   UNL A   1      44.075  26.754  31.375  1.00  0.00     0.031 C 
ATOM     36  C   UNL A   1      43.582  27.964  33.487  1.00  0.00     0.034 A 
BRANCH  23  37
ATOM     37  C   UNL A   1      40.018  32.376  35.948  1.00  0.00     0.023 A 
ATOM     38  C   UNL A   1      40.743  33.570  36.148  1.00  0.00     0.012 A 
ATOM     39  C   UNL A   1      38.991  32.026  36.840  1.00  0.00     0.148 A 
ATOM     40  C   UNL A   1      40.463  34.392  37.237  1.00  0.00     0.002 A 
ATOM     41  C   UNL A   1      38.690  32.870  37.899  1.00  0.00     0.091 A 
ATOM     42  F   UNL A   1      38.345  30.869  36.644  1.00  0.00    -0.205 F 
ATOM     43  C   UNL A   1      39.431  34.047  38.107  1.00  0.00     0.022 A 
BRANCH  41  44
ATOM     44  S   UNL A   1      37.344  32.544  39.037  1.00  0.00     0.127 S 
ATOM     45  O   UNL A   1      37.577  33.555  40.068  1.00  0.00    -0.237 OA
ATOM     46  O   UNL A   1      36.173  32.788  38.195  1.00  0.00    -0.237 OA
ATOM     47  O   UNL A   1      37.509  31.166  39.476  1.00  0.00    -0.744 OA
ENDBRANCH  41  44
ENDBRANCH  23  37
BRANCH  24  48
ATOM     48  C   UNL A   1      41.834  26.874  27.786  1.00  0.00     0.023 A 
ATOM     49  C   UNL A   1      42.244  27.557  26.625  1.00  0.00     0.012 A 
ATOM     50  C   UNL A   1      41.681  25.472  27.735  1.00  0.00     0.148 A 
ATOM     51  C   UNL A   1      42.445  26.870  25.426  1.00  0.00     0.002 A 
ATOM     52  C   UNL A   1      41.915  24.788  26.543  1.00  0.00     0.091 A 
ATOM     53  F   UNL A   1      41.289  24.835  28.848  1.00  0.00    -0.205 F 
ATOM     54  C   UNL A   1      42.281  25.488  25.384  1.00  0.00     0.022 A 
BRANCH  52  55
ATOM     55  S   UNL A   1      41.802  22.998  26.413  1.00  0.00     0.127 S 
ATOM     56  O   UNL A   1      40.355  22.787  26.467  1.00  0.00    -0.237 OA
ATOM     57  O   UNL A   1      42.409  22.751  25.103  1.00  0.00    -0.237 OA
ATOM     58  O   UNL A   1      42.561  22.471  27.534  1.00  0.00    -0.744 OA
ENDBRANCH  52  55
ENDBRANCH  24  48
BRANCH  36  59
ATOM     59  C   UNL A   1      44.696  27.199  34.142  1.00  0.00     0.023 A 
ATOM     60  C   UNL A   1      46.016  27.686  34.079  1.00  0.00     0.012 A 
ATOM     61  C   UNL A   1      44.413  26.042  34.893  1.00  0.00     0.148 A 
ATOM     62  C   UNL A   1      47.045  27.010  34.729  1.00  0.00     0.002 A 
ATOM     63  C   UNL A   1      45.432  25.411  35.588  1.00  0.00     0.091 A 
ATOM     64  F   UNL A   1      43.151  25.590  34.920  1.00  0.00    -0.205 F 
ATOM     65  C   UNL A   1      46.751  25.884  35.496  1.00  0.00     0.022 A 
BRANCH  63  66
ATOM     66  S   UNL A   1      45.129  24.025  36.689  1.00  0.00     0.127 S 
ATOM     67  O   UNL A   1      46.482  23.697  37.134  1.00  0.00    -0.237 OA
ATOM     68  O   UNL A   1      44.276  24.628  37.714  1.00  0.00    -0.237 OA
ATOM     69  O   UNL A   1      44.473  23.005  35.881  1.00  0.00    -0.744 OA
ENDBRANCH  63  66
ENDBRANCH  36  59
ENDBRANCH  10  11
ENDBRANCH   3   5
ENDBRANCH   2   3
ENDBRANCH   1   2
BRANCH   1  70
ATOM     70  C   UNL A   1      32.884  30.719  27.174  1.00  0.00     0.274 C 
BRANCH  70  71
ATOM     71  O   UNL A   1      32.095  29.630  26.673  1.00  0.00    -0.458 OA
BRANCH  71  72
ATOM     72  C   UNL A   1      32.507  29.124  25.465  1.00  0.00     0.365 C 
ATOM     73  O   UNL A   1      33.204  29.770  24.691  1.00  0.00    -0.245 OA
BRANCH  72  74
ATOM     74  C   UNL A   1      32.084  27.639  25.314  1.00  0.00     0.295 C 
ATOM     75  C   UNL A   1      31.347  27.086  26.543  1.00  0.00     0.078 C 
ATOM     76  N   UNL A   1      31.475  27.282  24.009  1.00  0.00    -0.317 N 
ATOM     77  C   UNL A   1      30.631  25.748  26.303  1.00  0.00     0.016 C 
ATOM     78  C   UNL A   1      31.246  25.820  23.876  1.00  0.00     0.188 C 
ATOM     79  H   UNL A   1      32.174  27.501  23.299  1.00  0.00     0.349 HD
ATOM     80  C   UNL A   1      31.339  25.008  25.188  1.00  0.00     0.048 C 
ATOM     81  C   UNL A   1      32.265  25.181  22.912  1.00  0.00     0.065 C 
ATOM     82  C   UNL A   1      30.810  23.590  24.951  1.00  0.00     0.010 C 
ATOM     83  C   UNL A   1      31.898  23.713  22.640  1.00  0.00     0.006 C 
ATOM     84  C   UNL A   1      31.679  22.882  23.909  1.00  0.00     0.001 C 
BRANCH  76  85
ATOM     85  C   UNL A   1      30.340  28.147  23.604  1.00  0.00     0.195 C 
ATOM     86  C   UNL A   1      28.989  27.433  23.435  1.00  0.00     0.067 C 
ATOM     87  C   UNL A   1      30.690  28.997  22.366  1.00  0.00     0.134 C 
ATOM     88  C   UNL A   1      27.833  28.413  23.301  1.00  0.00     0.017 C 
ATOM     89  S   UNL A   1      29.442  30.296  22.040  1.00  0.00    -0.156 SA
ATOM     90  C   UNL A   1      27.941  29.271  22.056  1.00  0.00     0.070 C 
ENDBRANCH  76  85
ENDBRANCH  72  74
ENDBRANCH  71  72
ENDBRANCH  70  71
ENDBRANCH   1  70
TORSDOF 15
ENDMDL
MODEL 2
REMARK VINA RESULT:     -11.3      2.621      3.604
REMARK SMILES O=C(OCCOC(=O)[C@H]1CC[C@H]2CCCC[C@@H]2[N@H+]1[C@@H]1CCCSC1)c1ccc(-c2c3nc(c(-c4cccc(S(=O)(=O)[O-])c4F)c4ccc([nH]4)c(-c4cccc(S(=O)(=O)[O-])c4F)c4nc(c(-c5cccc(S(=O)(=O)[O-])c5F)c5ccc2[nH]5)C=C4)C=C3)cc1
REMARK SMILES IDX 4 1 3 2 2 3 1 4 25 5 26 6 87 7 27 8 86 9 28 10 29 11 30 12
REMARK SMILES IDX 80 13 31 14 85 15 79 16 81 17 32 18 84 19 78 20 77 21 33 23
REMARK SMILES IDX 65 24 45 25 64 26 46 27 49 28 63 29 82 30 47 31 48 32 62 34
REMARK SMILES IDX 83 35 50 36 34 37 35 38 43 39 36 40 38 41 44 42 37 43 39 44
REMARK SMILES IDX 40 45 41 46 42 47 66 48 67 49 75 50 68 51 70 52 76 53 69 54
REMARK SMILES IDX 71 55 72 56 73 57 74 58 51 59 52 60 60 61 53 62 55 63 61 64
REMARK SMILES IDX 54 65 56 66 57 67 58 68 59 69 5 70 6 71 7 72 8 73 9 74 10 75
REMARK SMILES IDX 18 76 11 77 17 78 12 80 16 81 13 82 15 83 14 84 19 85 20 86
REMARK SMILES IDX 24 87 21 88 23 89 22 90
REMARK H PARENT 81 22 49 33 18 79
REMARK Flexibility Score: inf
ROOT
ATOM      1  C   UNL A   1      32.376  29.634  26.838  1.00  0.00     0.275 C 
ENDROOT
BRANCH   1   2
ATOM      2  O   UNL A   1      33.742  30.082  26.768  1.00  0.00    -0.458 OA
BRANCH   2   3
ATOM      3  C   UNL A   1      34.472  30.778  27.674  1.00  0.00     0.338 C 
ATOM      4  O   UNL A   1      34.135  31.926  27.958  1.00  0.00    -0.246 OA
BRANCH   3   5
ATOM      5  C   UNL A   1      35.766  30.269  28.225  1.00  0.00     0.060 A 
ATOM      6  C   UNL A   1      35.948  29.727  29.501  1.00  0.00     0.016 A 
ATOM      7  C   UNL A   1      36.875  30.312  27.362  1.00  0.00     0.016 A 
ATOM      8  C   UNL A   1      37.153  29.118  29.866  1.00  0.00     0.010 A 
ATOM      9  C   UNL A   1      38.084  29.708  27.726  1.00  0.00     0.010 A 
ATOM     10  C   UNL A   1      38.224  29.088  28.978  1.00  0.00    -0.014 A 
BRANCH  10  11
ATOM     11  C   UNL A   1      39.549  28.602  29.426  1.00  0.00     0.031 A 
ATOM     12  C   UNL A   1      40.302  29.476  30.380  1.00  0.00     0.074 A 
ATOM     13  C   UNL A   1      40.071  27.420  29.038  1.00  0.00     0.049 A 
ATOM     14  N   UNL A   1      41.450  29.250  30.951  1.00  0.00    -0.248 NA
ATOM     15  C   UNL A   1      39.644  30.724  30.809  1.00  0.00     0.031 C 
ATOM     16  C   UNL A   1      39.388  26.380  28.278  1.00  0.00     0.029 A 
ATOM     17  N   UNL A   1      41.341  26.916  29.181  1.00  0.00    -0.354 N 
ATOM     18  C   UNL A   1      41.624  30.289  31.848  1.00  0.00     0.074 A 
ATOM     19  C   UNL A   1      40.508  31.193  31.694  1.00  0.00     0.031 C 
ATOM     20  C   UNL A   1      40.283  25.480  27.837  1.00  0.00     0.029 A 
ATOM     21  C   UNL A   1      41.588  25.826  28.374  1.00  0.00     0.049 A 
ATOM     22  H   UNL A   1      42.008  27.295  29.798  1.00  0.00     0.167 HD
ATOM     23  C   UNL A   1      42.599  30.435  32.768  1.00  0.00     0.034 A 
ATOM     24  C   UNL A   1      42.737  25.174  28.111  1.00  0.00     0.034 A 
ATOM     25  C   UNL A   1      43.713  29.541  32.886  1.00  0.00     0.049 A 
ATOM     26  C   UNL A   1      43.911  25.480  28.998  1.00  0.00     0.074 A 
ATOM     27  C   UNL A   1      44.753  29.580  33.792  1.00  0.00     0.029 A 
ATOM     28  N   UNL A   1      43.952  28.471  32.039  1.00  0.00    -0.354 N 
ATOM     29  N   UNL A   1      43.997  26.372  29.955  1.00  0.00    -0.248 NA
ATOM     30  C   UNL A   1      45.092  24.617  28.867  1.00  0.00     0.031 C 
ATOM     31  C   UNL A   1      45.651  28.563  33.458  1.00  0.00     0.029 A 
ATOM     32  C   UNL A   1      45.146  27.863  32.372  1.00  0.00     0.049 A 
ATOM     33  H   UNL A   1      43.358  28.186  31.307  1.00  0.00     0.167 HD
ATOM     34  C   UNL A   1      45.195  26.116  30.605  1.00  0.00     0.074 A 
ATOM     35  C   UNL A   1      45.811  25.000  29.913  1.00  0.00     0.031 C 
ATOM     36  C   UNL A   1      45.721  26.732  31.691  1.00  0.00     0.034 A 
BRANCH  23  37
ATOM     37  C   UNL A   1      42.481  31.597  33.705  1.00  0.00     0.023 A 
ATOM     38  C   UNL A   1      42.947  32.869  33.310  1.00  0.00     0.012 A 
ATOM     39  C   UNL A   1      41.903  31.430  34.974  1.00  0.00     0.148 A 
ATOM     40  C   UNL A   1      42.861  33.954  34.178  1.00  0.00     0.002 A 
ATOM     41  C   UNL A   1      41.782  32.524  35.818  1.00  0.00     0.091 A 
ATOM     42  F   UNL A   1      41.502  30.203  35.334  1.00  0.00    -0.205 F 
ATOM     43  C   UNL A   1      42.270  33.784  35.428  1.00  0.00     0.022 A 
BRANCH  41  44
ATOM     44  S   UNL A   1      40.984  32.420  37.421  1.00  0.00     0.127 S 
ATOM     45  O   UNL A   1      39.706  31.800  37.075  1.00  0.00    -0.237 OA
ATOM     46  O   UNL A   1      41.905  31.555  38.158  1.00  0.00    -0.237 OA
ATOM     47  O   UNL A   1      40.894  33.785  37.917  1.00  0.00    -0.744 OA
ENDBRANCH  41  44
ENDBRANCH  23  37
BRANCH  24  48
ATOM     48  C   UNL A   1      42.805  24.110  27.068  1.00  0.00     0.023 A 
ATOM     49  C   UNL A   1      43.398  24.380  25.820  1.00  0.00     0.012 A 
ATOM     50  C   UNL A   1      42.247  22.835  27.298  1.00  0.00     0.148 A 
ATOM     51  C   UNL A   1      43.389  23.422  24.804  1.00  0.00     0.002 A 
ATOM     52  C   UNL A   1      42.270  21.873  26.291  1.00  0.00     0.091 A 
ATOM     53  F   UNL A   1      41.685  22.594  28.492  1.00  0.00    -0.205 F 
ATOM     54  C   UNL A   1      42.826  22.170  25.038  1.00  0.00     0.022 A 
BRANCH  52  55
ATOM     55  S   UNL A   1      41.636  20.206  26.526  1.00  0.00     0.127 S 
ATOM     56  O   UNL A   1      42.233  19.839  27.811  1.00  0.00    -0.237 OA
ATOM     57  O   UNL A   1      40.189  20.437  26.566  1.00  0.00    -0.237 OA
ATOM     58  O   UNL A   1      42.090  19.444  25.376  1.00  0.00    -0.744 OA
ENDBRANCH  52  55
ENDBRANCH  24  48
BRANCH  36  59
ATOM     59  C   UNL A   1      47.012  26.189  32.233  1.00  0.00     0.023 A 
ATOM     60  C   UNL A   1      48.240  26.718  31.791  1.00  0.00     0.012 A 
ATOM     61  C   UNL A   1      46.998  25.212  33.248  1.00  0.00     0.148 A 
ATOM     62  C   UNL A   1      49.438  26.257  32.329  1.00  0.00     0.002 A 
ATOM     63  C   UNL A   1      48.192  24.803  33.821  1.00  0.00     0.091 A 
ATOM     64  F   UNL A   1      45.816  24.711  33.637  1.00  0.00    -0.205 F 
ATOM     65  C   UNL A   1      49.414  25.312  33.353  1.00  0.00     0.022 A 
BRANCH  63  66
ATOM     66  S   UNL A   1      48.249  23.679  35.220  1.00  0.00     0.127 S 
ATOM     67  O   UNL A   1      47.722  22.448  34.635  1.00  0.00    -0.237 OA
ATOM     68  O   UNL A   1      49.679  23.647  35.529  1.00  0.00    -0.237 OA
ATOM     69  O   UNL A   1      47.421  24.282  36.256  1.00  0.00    -0.744 OA
ENDBRANCH  63  66
ENDBRANCH  36  59
ENDBRANCH  10  11
ENDBRANCH   3   5
ENDBRANCH   2   3
ENDBRANCH   1   2
BRANCH   1  70
ATOM     70  C   UNL A   1      32.140  28.295  27.547  1.00  0.00     0.274 C 
BRANCH  70  71
ATOM     71  O   UNL A   1      32.800  27.176  26.940  1.00  0.00    -0.458 OA
BRANCH  71  72
ATOM     72  C   UNL A   1      31.988  26.104  26.664  1.00  0.00     0.365 C 
ATOM     73  O   UNL A   1      30.770  26.214  26.572  1.00  0.00    -0.245 OA
BRANCH  72  74
ATOM     74  C   UNL A   1      32.829  24.834  26.368  1.00  0.00     0.295 C 
ATOM     75  C   UNL A   1      32.004  23.538  26.380  1.00  0.00     0.078 C 
ATOM     76  N   UNL A   1      33.783  24.954  25.238  1.00  0.00    -0.317 N 
ATOM     77  C   UNL A   1      32.721  22.324  25.772  1.00  0.00     0.016 C 
ATOM     78  C   UNL A   1      34.664  23.764  25.117  1.00  0.00     0.188 C 
ATOM     79  H   UNL A   1      34.413  25.720  25.478  1.00  0.00     0.349 HD
ATOM     80  C   UNL A   1      34.216  22.518  25.915  1.00  0.00     0.048 C 
ATOM     81  C   UNL A   1      36.096  24.077  25.593  1.00  0.00     0.065 C 
ATOM     82  C   UNL A   1      35.043  21.306  25.478  1.00  0.00     0.010 C 
ATOM     83  C   UNL A   1      37.033  22.900  25.285  1.00  0.00     0.006 C 
ATOM     84  C   UNL A   1      36.522  21.547  25.793  1.00  0.00     0.001 C 
BRANCH  76  85
ATOM     85  C   UNL A   1      33.179  25.434  23.972  1.00  0.00     0.195 C 
ATOM     86  C   UNL A   1      33.233  24.449  22.795  1.00  0.00     0.067 C 
ATOM     87  C   UNL A   1      33.723  26.822  23.575  1.00  0.00     0.134 C 
ATOM     88  C   UNL A   1      32.355  24.890  21.633  1.00  0.00     0.017 C 
ATOM     89  S   UNL A   1      32.771  27.578  22.208  1.00  0.00    -0.156 SA
ATOM     90  C   UNL A   1      32.815  26.200  21.023  1.00  0.00     0.070 C 
ENDBRANCH  76  85
ENDBRANCH  72  74
ENDBRANCH  71  72
ENDBRANCH  70  71
ENDBRANCH   1  70
TORSDOF 15
ENDMDL
MODEL 3
REMARK VINA RESULT:     -11.2      5.316     10.623
REMARK SMILES O=C(OCCOC(=O)[C@H]1CC[C@H]2CCCC[C@@H]2[N@H+]1[C@@H]1CCCSC1)c1ccc(-c2c3nc(c(-c4cccc(S(=O)(=O)[O-])c4F)c4ccc([nH]4)c(-c4cccc(S(=O)(=O)[O-])c4F)c4nc(c(-c5cccc(S(=O)(=O)[O-])c5F)c5ccc2[nH]5)C=C4)C=C3)cc1
REMARK SMILES IDX 4 1 3 2 2 3 1 4 25 5 26 6 87 7 27 8 86 9 28 10 29 11 30 12
REMARK SMILES IDX 80 13 31 14 85 15 79 16 81 17 32 18 84 19 78 20 77 21 33 23
REMARK SMILES IDX 65 24 45 25 64 26 46 27 49 28 63 29 82 30 47 31 48 32 62 34
REMARK SMILES IDX 83 35 50 36 34 37 35 38 43 39 36 40 38 41 44 42 37 43 39 44
REMARK SMILES IDX 40 45 41 46 42 47 66 48 67 49 75 50 68 51 70 52 76 53 69 54
REMARK SMILES IDX 71 55 72 56 73 57 74 58 51 59 52 60 60 61 53 62 55 63 61 64
REMARK SMILES IDX 54 65 56 66 57 67 58 68 59 69 5 70 6 71 7 72 8 73 9 74 10 75
REMARK SMILES IDX 18 76 11 77 17 78 12 80 16 81 13 82 15 83 14 84 19 85 20 86
REMARK SMILES IDX 24 87 21 88 23 89 22 90
REMARK H PARENT 81 22 49 33 18 79
REMARK Flexibility Score: inf
ROOT
ATOM      1  C   UNL A   1      37.712  21.112  24.629  1.00  0.00     0.275 C 
ENDROOT
BRANCH   1   2
ATOM      2  O   UNL A   1      38.181  21.346  25.970  1.00  0.00    -0.458 OA
BRANCH   2   3
ATOM      3  C   UNL A   1      39.447  21.515  26.425  1.00  0.00     0.338 C 
ATOM      4  O   UNL A   1      40.158  20.526  26.595  1.00  0.00    -0.246 OA
BRANCH   3   5
ATOM      5  C   UNL A   1      39.965  22.840  26.886  1.00  0.00     0.060 A 
ATOM      6  C   UNL A   1      40.820  23.046  27.972  1.00  0.00     0.016 A 
ATOM      7  C   UNL A   1      39.578  23.961  26.131  1.00  0.00     0.016 A 
ATOM      8  C   UNL A   1      41.390  24.298  28.222  1.00  0.00     0.010 A 
ATOM      9  C   UNL A   1      40.141  25.217  26.381  1.00  0.00     0.010 A 
ATOM     10  C   UNL A   1      41.070  25.389  27.421  1.00  0.00    -0.014 A 
BRANCH  10  11
ATOM     11  C   UNL A   1      41.534  26.746  27.790  1.00  0.00     0.031 A 
ATOM     12  C   UNL A   1      43.001  27.016  27.666  1.00  0.00     0.074 A 
ATOM     13  C   UNL A   1      40.700  27.727  28.193  1.00  0.00     0.049 A 
ATOM     14  N   UNL A   1      43.640  28.130  27.879  1.00  0.00    -0.248 NA
ATOM     15  C   UNL A   1      43.845  25.917  27.160  1.00  0.00     0.031 C 
ATOM     16  C   UNL A   1      39.243  27.682  28.180  1.00  0.00     0.029 A 
ATOM     17  N   UNL A   1      40.968  28.948  28.762  1.00  0.00    -0.354 N 
ATOM     18  C   UNL A   1      44.942  27.888  27.477  1.00  0.00     0.074 A 
ATOM     19  C   UNL A   1      45.030  26.501  27.083  1.00  0.00     0.031 C 
ATOM     20  C   UNL A   1      38.751  28.704  28.902  1.00  0.00     0.029 A 
ATOM     21  C   UNL A   1      39.862  29.534  29.340  1.00  0.00     0.049 A 
ATOM     22  H   UNL A   1      41.860  29.363  28.757  1.00  0.00     0.167 HD
ATOM     23  C   UNL A   1      45.957  28.770  27.382  1.00  0.00     0.034 A 
ATOM     24  C   UNL A   1      39.758  30.625  30.122  1.00  0.00     0.034 A 
ATOM     25  C   UNL A   1      45.859  30.136  27.805  1.00  0.00     0.049 A 
ATOM     26  C   UNL A   1      40.961  31.522  30.203  1.00  0.00     0.074 A 
ATOM     27  C   UNL A   1      46.817  31.127  27.741  1.00  0.00     0.029 A 
ATOM     28  N   UNL A   1      44.742  30.689  28.413  1.00  0.00    -0.354 N 
ATOM     29  N   UNL A   1      42.148  31.341  29.675  1.00  0.00    -0.248 NA
ATOM     30  C   UNL A   1      40.785  32.821  30.864  1.00  0.00     0.031 C 
ATOM     31  C   UNL A   1      46.297  32.267  28.361  1.00  0.00     0.029 A 
ATOM     32  C   UNL A   1      45.000  31.998  28.769  1.00  0.00     0.049 A 
ATOM     33  H   UNL A   1      43.891  30.218  28.568  1.00  0.00     0.167 HD
ATOM     34  C   UNL A   1      42.828  32.535  29.852  1.00  0.00     0.074 A 
ATOM     35  C   UNL A   1      41.927  33.424  30.560  1.00  0.00     0.031 C 
ATOM     36  C   UNL A   1      44.074  32.873  29.441  1.00  0.00     0.034 A 
BRANCH  23  37
ATOM     37  C   UNL A   1      47.240  28.270  26.795  1.00  0.00     0.023 A 
ATOM     38  C   UNL A   1      48.339  27.996  27.637  1.00  0.00     0.012 A 
ATOM     39  C   UNL A   1      47.356  28.065  25.410  1.00  0.00     0.148 A 
ATOM     40  C   UNL A   1      49.545  27.548  27.102  1.00  0.00     0.002 A 
ATOM     41  C   UNL A   1      48.545  27.578  24.889  1.00  0.00     0.091 A 
ATOM     42  F   UNL A   1      46.307  28.368  24.634  1.00  0.00    -0.205 F 
ATOM     43  C   UNL A   1      49.644  27.330  25.730  1.00  0.00     0.022 A 
BRANCH  41  44
ATOM     44  S   UNL A   1      48.754  27.210  23.146  1.00  0.00     0.127 S 
ATOM     45  O   UNL A   1      48.038  28.322  22.522  1.00  0.00    -0.237 OA
ATOM     46  O   UNL A   1      50.209  27.260  23.001  1.00  0.00    -0.237 OA
ATOM     47  O   UNL A   1      48.160  25.898  22.935  1.00  0.00    -0.744 OA
ENDBRANCH  41  44
ENDBRANCH  23  37
BRANCH  24  48
ATOM     48  C   UNL A   1      38.470  30.990  30.779  1.00  0.00     0.023 A 
ATOM     49  C   UNL A   1      38.202  30.567  32.095  1.00  0.00     0.012 A 
ATOM     50  C   UNL A   1      37.488  31.728  30.086  1.00  0.00     0.148 A 
ATOM     51  C   UNL A   1      36.965  30.825  32.690  1.00  0.00     0.002 A 
ATOM     52  C   UNL A   1      36.268  32.010  30.697  1.00  0.00     0.091 A 
ATOM     53  F   UNL A   1      37.757  32.123  28.832  1.00  0.00    -0.205 F 
ATOM     54  C   UNL A   1      35.999  31.546  31.992  1.00  0.00     0.022 A 
BRANCH  52  55
ATOM     55  S   UNL A   1      34.990  32.997  29.903  1.00  0.00     0.127 S 
ATOM     56  O   UNL A   1      34.455  32.055  28.919  1.00  0.00    -0.237 OA
ATOM     57  O   UNL A   1      34.092  33.287  31.024  1.00  0.00    -0.237 OA
ATOM     58  O   UNL A   1      35.669  34.161  29.361  1.00  0.00    -0.744 OA
ENDBRANCH  52  55
ENDBRANCH  24  48
BRANCH  36  59
ATOM     59  C   UNL A   1      44.530  34.280  29.706  1.00  0.00     0.023 A 
ATOM     60  C   UNL A   1      45.192  34.591  30.909  1.00  0.00     0.012 A 
ATOM     61  C   UNL A   1      44.375  35.271  28.718  1.00  0.00     0.148 A 
ATOM     62  C   UNL A   1      45.665  35.880  31.138  1.00  0.00     0.002 A 
ATOM     63  C   UNL A   1      44.903  36.535  28.928  1.00  0.00     0.091 A 
ATOM     64  F   UNL A   1      43.723  34.954  27.589  1.00  0.00    -0.205 F 
ATOM     65  C   UNL A   1      45.534  36.847  30.143  1.00  0.00     0.022 A 
BRANCH  63  66
ATOM     66  S   UNL A   1      44.883  37.807  27.660  1.00  0.00     0.127 S 
ATOM     67  O   UNL A   1      45.497  38.934  28.359  1.00  0.00    -0.237 OA
ATOM     68  O   UNL A   1      45.713  37.210  26.613  1.00  0.00    -0.237 OA
ATOM     69  O   UNL A   1      43.484  37.988  27.292  1.00  0.00    -0.744 OA
ENDBRANCH  63  66
ENDBRANCH  36  59
ENDBRANCH  10  11
ENDBRANCH   3   5
ENDBRANCH   2   3
ENDBRANCH   1   2
BRANCH   1  70
ATOM     70  C   UNL A   1      36.384  21.778  24.251  1.00  0.00     0.274 C 
BRANCH  70  71
ATOM     71  O   UNL A   1      36.397  23.211  24.314  1.00  0.00    -0.458 OA
BRANCH  71  72
ATOM     72  C   UNL A   1      35.679  23.752  25.353  1.00  0.00     0.365 C 
ATOM     73  O   UNL A   1      36.096  23.748  26.506  1.00  0.00    -0.245 OA
BRANCH  72  74
ATOM     74  C   UNL A   1      34.394  24.450  24.833  1.00  0.00     0.295 C 
ATOM     75  C   UNL A   1      34.529  24.992  23.403  1.00  0.00     0.078 C 
ATOM     76  N   UNL A   1      33.126  23.732  25.111  1.00  0.00    -0.317 N 
ATOM     77  C   UNL A   1      33.197  25.383  22.745  1.00  0.00     0.016 C 
ATOM     78  C   UNL A   1      31.933  24.531  24.732  1.00  0.00     0.188 C 
ATOM     79  H   UNL A   1      33.067  23.641  26.126  1.00  0.00     0.349 HD
ATOM     80  C   UNL A   1      32.208  25.755  23.828  1.00  0.00     0.048 C 
ATOM     81  C   UNL A   1      31.211  25.082  25.978  1.00  0.00     0.065 C 
ATOM     82  C   UNL A   1      30.883  26.307  23.296  1.00  0.00     0.010 C 
ATOM     83  C   UNL A   1      29.882  25.742  25.580  1.00  0.00     0.006 C 
ATOM     84  C   UNL A   1      30.014  26.783  24.463  1.00  0.00     0.001 C 
BRANCH  76  85
ATOM     85  C   UNL A   1      33.113  22.316  24.671  1.00  0.00     0.195 C 
ATOM     86  C   UNL A   1      32.141  21.985  23.527  1.00  0.00     0.067 C 
ATOM     87  C   UNL A   1      32.933  21.354  25.863  1.00  0.00     0.134 C 
ATOM     88  C   UNL A   1      32.386  20.600  22.946  1.00  0.00     0.017 C 
ATOM     89  S   UNL A   1      33.235  19.609  25.401  1.00  0.00    -0.156 SA
ATOM     90  C   UNL A   1      32.138  19.496  23.955  1.00  0.00     0.070 C 
ENDBRANCH  76  85
ENDBRANCH  72  74
ENDBRANCH  71  72
ENDBRANCH  70  71
ENDBRANCH   1  70
TORSDOF 15
ENDMDL
