MODEL 1
REMARK VINA RESULT:     -12.5      0.000      0.000
REMARK SMILES Cc1cc2c(=O)c3ccccc3oc2c(C(=O)OCCOC(=O)c2ccc(-c3c4nc(c(-c5cccc(S(=O)(=O)[O-])c5F)c5ccc([nH]5)c(-c5cccc(S(=O)(=O)[O-])c5F)c5nc(c(-c6cccc(S(=O)(=O)[O-])c6F)c6ccc3[nH]6)C=C5)C=C4)cc2)c1C
REMARK SMILES IDX 21 1 20 2 19 3 18 4 16 5 17 6 15 7 1 8 2 9 3 10 87 11 4 12
REMARK SMILES IDX 88 13 5 14 14 15 6 16 7 17 13 18 8 19 12 20 9 21 11 22 10 23
REMARK SMILES IDX 22 24 23 25 24 26 25 27 86 28 26 29 85 30 27 31 28 32 29 33
REMARK SMILES IDX 79 34 30 35 84 36 78 37 80 38 31 39 83 40 77 41 76 42 32 44
REMARK SMILES IDX 64 45 44 46 63 47 45 48 48 49 62 50 81 51 46 52 47 53 61 55
REMARK SMILES IDX 82 56 49 57 33 58 34 59 42 60 35 61 37 62 43 63 36 64 38 65
REMARK SMILES IDX 39 66 40 67 41 68 65 69 66 70 74 71 67 72 69 73 75 74 68 75
REMARK SMILES IDX 70 76 71 77 72 78 73 79 50 80 51 81 59 82 52 83 54 84 60 85
REMARK SMILES IDX 53 86 55 87 56 88 57 89 58 90
REMARK H PARENT 80 43 48 54
REMARK Flexibility Score: inf
ROOT
ATOM      1  O   UNL A   1      32.548  29.843  26.202  1.00  0.00    -0.458 OA
ENDROOT
BRANCH   1   2
ATOM      2  C   UNL A   1      32.999  29.703  24.846  1.00  0.00     0.275 C 
BRANCH   2   3
ATOM      3  C   UNL A   1      33.466  28.268  24.590  1.00  0.00     0.275 C 
BRANCH   3   4
ATOM      4  O   UNL A   1      33.621  28.028  23.176  1.00  0.00    -0.458 OA
BRANCH   4   5
ATOM      5  C   UNL A   1      33.160  26.856  22.664  1.00  0.00     0.342 C 
ATOM      6  O   UNL A   1      33.656  26.257  21.729  1.00  0.00    -0.246 OA
BRANCH   5   7
ATOM      7  C   UNL A   1      31.949  26.397  23.431  1.00  0.00     0.106 A 
ATOM      8  C   UNL A   1      28.177  27.116  23.876  1.00  0.00     0.044 C 
ATOM      9  C   UNL A   1      29.569  26.565  24.031  1.00  0.00    -0.046 A 
ATOM     10  C   UNL A   1      29.770  25.586  25.005  1.00  0.00     0.019 A 
ATOM     11  C   UNL A   1      30.669  27.010  23.253  1.00  0.00    -0.030 A 
ATOM     12  C   UNL A   1      31.018  24.992  25.167  1.00  0.00     0.067 A 
ATOM     13  C   UNL A   1      30.466  28.145  22.276  1.00  0.00     0.046 C 
ATOM     14  C   UNL A   1      31.204  24.033  26.265  1.00  0.00     0.200 A 
ATOM     15  C   UNL A   1      32.095  25.328  24.348  1.00  0.00     0.153 A 
ATOM     16  O   UNL A   1      30.282  23.732  27.013  1.00  0.00    -0.288 OA
ATOM     17  C   UNL A   1      32.542  23.467  26.423  1.00  0.00     0.065 A 
ATOM     18  O   UNL A   1      33.282  24.627  24.403  1.00  0.00    -0.455 OA
ATOM     19  C   UNL A   1      32.865  22.691  27.539  1.00  0.00     0.016 A 
ATOM     20  C   UNL A   1      33.471  23.714  25.418  1.00  0.00     0.138 A 
ATOM     21  C   UNL A   1      34.129  22.116  27.628  1.00  0.00     0.001 A 
ATOM     22  C   UNL A   1      34.701  23.059  25.470  1.00  0.00     0.048 A 
ATOM     23  C   UNL A   1      35.032  22.270  26.578  1.00  0.00     0.004 A 
ENDBRANCH   5   7
ENDBRANCH   4   5
ENDBRANCH   3   4
ENDBRANCH   2   3
ENDBRANCH   1   2
BRANCH   1  24
ATOM     24  C   UNL A   1      32.898  31.009  26.798  1.00  0.00     0.338 C 
ATOM     25  O   UNL A   1      32.246  32.039  26.834  1.00  0.00    -0.246 OA
BRANCH  24  26
ATOM     26  C   UNL A   1      34.110  30.775  27.602  1.00  0.00     0.060 A 
ATOM     27  C   UNL A   1      34.997  31.798  27.951  1.00  0.00     0.016 A 
ATOM     28  C   UNL A   1      34.355  29.464  28.002  1.00  0.00     0.016 A 
ATOM     29  C   UNL A   1      36.167  31.488  28.663  1.00  0.00     0.010 A 
ATOM     30  C   UNL A   1      35.512  29.166  28.713  1.00  0.00     0.010 A 
ATOM     31  C   UNL A   1      36.449  30.159  29.014  1.00  0.00    -0.014 A 
BRANCH  31  32
ATOM     32  C   UNL A   1      37.643  29.776  29.804  1.00  0.00     0.031 A 
ATOM     33  C   UNL A   1      37.872  30.295  31.198  1.00  0.00     0.074 A 
ATOM     34  C   UNL A   1      38.617  29.090  29.180  1.00  0.00     0.049 A 
ATOM     35  N   UNL A   1      38.912  30.128  31.977  1.00  0.00    -0.248 NA
ATOM     36  C   UNL A   1      36.831  31.160  31.772  1.00  0.00     0.031 C 
ATOM     37  C   UNL A   1      38.570  28.659  27.782  1.00  0.00     0.029 A 
ATOM     38  N   UNL A   1      39.842  28.667  29.625  1.00  0.00    -0.354 N 
ATOM     39  C   UNL A   1      38.684  30.909  33.106  1.00  0.00     0.074 A 
ATOM     40  C   UNL A   1      37.402  31.555  32.906  1.00  0.00     0.031 C 
ATOM     41  C   UNL A   1      39.710  28.017  27.488  1.00  0.00     0.029 A 
ATOM     42  C   UNL A   1      40.561  27.986  28.674  1.00  0.00     0.049 A 
ATOM     43  H   UNL A   1      40.174  28.836  30.537  1.00  0.00     0.167 HD
ATOM     44  C   UNL A   1      39.469  31.061  34.202  1.00  0.00     0.034 A 
ATOM     45  C   UNL A   1      41.756  27.371  28.757  1.00  0.00     0.034 A 
ATOM     46  C   UNL A   1      40.691  30.327  34.424  1.00  0.00     0.049 A 
ATOM     47  C   UNL A   1      42.499  27.369  30.059  1.00  0.00     0.074 A 
ATOM     48  C   UNL A   1      41.461  30.275  35.575  1.00  0.00     0.029 A 
ATOM     49  N   UNL A   1      41.310  29.507  33.495  1.00  0.00    -0.354 N 
ATOM     50  N   UNL A   1      42.193  27.981  31.176  1.00  0.00    -0.248 NA
ATOM     51  C   UNL A   1      43.725  26.562  30.129  1.00  0.00     0.031 C 
ATOM     52  C   UNL A   1      42.544  29.423  35.341  1.00  0.00     0.029 A 
ATOM     53  C   UNL A   1      42.440  28.931  34.051  1.00  0.00     0.049 A 
ATOM     54  H   UNL A   1      40.994  29.356  32.576  1.00  0.00     0.167 HD
ATOM     55  C   UNL A   1      43.173  27.615  32.090  1.00  0.00     0.074 A 
ATOM     56  C   UNL A   1      44.077  26.717  31.400  1.00  0.00     0.031 C 
ATOM     57  C   UNL A   1      43.312  28.004  33.380  1.00  0.00     0.034 A 
BRANCH  44  58
ATOM     58  C   UNL A   1      39.005  31.966  35.319  1.00  0.00     0.023 A 
ATOM     59  C   UNL A   1      38.157  31.443  36.315  1.00  0.00     0.012 A 
ATOM     60  C   UNL A   1      39.541  33.263  35.484  1.00  0.00     0.148 A 
ATOM     61  C   UNL A   1      37.834  32.195  37.445  1.00  0.00     0.002 A 
ATOM     62  C   UNL A   1      39.246  33.991  36.634  1.00  0.00     0.091 A 
ATOM     63  F   UNL A   1      40.350  33.746  34.530  1.00  0.00    -0.205 F 
ATOM     64  C   UNL A   1      38.389  33.460  37.611  1.00  0.00     0.022 A 
BRANCH  62  65
ATOM     65  S   UNL A   1      39.972  35.598  36.996  1.00  0.00     0.127 S 
ATOM     66  O   UNL A   1      39.299  35.949  38.246  1.00  0.00    -0.237 OA
ATOM     67  O   UNL A   1      41.389  35.268  37.140  1.00  0.00    -0.237 OA
ATOM     68  O   UNL A   1      39.653  36.451  35.860  1.00  0.00    -0.744 OA
ENDBRANCH  62  65
ENDBRANCH  44  58
BRANCH  45  69
ATOM     69  C   UNL A   1      42.215  26.568  27.596  1.00  0.00     0.023 A 
ATOM     70  C   UNL A   1      43.100  27.166  26.678  1.00  0.00     0.012 A 
ATOM     71  C   UNL A   1      41.889  25.207  27.465  1.00  0.00     0.148 A 
ATOM     72  C   UNL A   1      43.655  26.419  25.641  1.00  0.00     0.002 A 
ATOM     73  C   UNL A   1      42.472  24.460  26.449  1.00  0.00     0.091 A 
ATOM     74  F   UNL A   1      41.057  24.665  28.366  1.00  0.00    -0.205 F 
ATOM     75  C   UNL A   1      43.349  25.065  25.532  1.00  0.00     0.022 A 
BRANCH  73  76
ATOM     76  S   UNL A   1      42.222  22.690  26.277  1.00  0.00     0.127 S 
ATOM     77  O   UNL A   1      42.914  22.177  27.457  1.00  0.00    -0.237 OA
ATOM     78  O   UNL A   1      40.763  22.590  26.326  1.00  0.00    -0.237 OA
ATOM     79  O   UNL A   1      42.816  22.327  24.999  1.00  0.00    -0.744 OA
ENDBRANCH  73  76
ENDBRANCH  45  69
BRANCH  57  80
ATOM     80  C   UNL A   1      44.474  27.460  34.166  1.00  0.00     0.023 A 
ATOM     81  C   UNL A   1      45.672  28.198  34.234  1.00  0.00     0.012 A 
ATOM     82  C   UNL A   1      44.334  26.287  34.935  1.00  0.00     0.148 A 
ATOM     83  C   UNL A   1      46.717  27.774  35.053  1.00  0.00     0.002 A 
ATOM     84  C   UNL A   1      45.370  25.886  35.771  1.00  0.00     0.091 A 
ATOM     85  F   UNL A   1      43.186  25.601  34.849  1.00  0.00    -0.205 F 
ATOM     86  C   UNL A   1      46.562  26.626  35.828  1.00  0.00     0.022 A 
BRANCH  84  87
ATOM     87  S   UNL A   1      45.249  24.458  36.854  1.00  0.00     0.127 S 
ATOM     88  O   UNL A   1      46.575  24.436  37.468  1.00  0.00    -0.237 OA
ATOM     89  O   UNL A   1      44.164  24.845  37.756  1.00  0.00    -0.237 OA
ATOM     90  O   UNL A   1      44.951  23.320  35.994  1.00  0.00    -0.744 OA
ENDBRANCH  84  87
ENDBRANCH  57  80
ENDBRANCH  31  32
ENDBRANCH  24  26
ENDBRANCH   1  24
TORSDOF 14
ENDMDL
MODEL 2
REMARK VINA RESULT:     -12.5      1.340      1.631
REMARK SMILES Cc1cc2c(=O)c3ccccc3oc2c(C(=O)OCCOC(=O)c2ccc(-c3c4nc(c(-c5cccc(S(=O)(=O)[O-])c5F)c5ccc([nH]5)c(-c5cccc(S(=O)(=O)[O-])c5F)c5nc(c(-c6cccc(S(=O)(=O)[O-])c6F)c6ccc3[nH]6)C=C5)C=C4)cc2)c1C
REMARK SMILES IDX 21 1 20 2 19 3 18 4 16 5 17 6 15 7 1 8 2 9 3 10 87 11 4 12
REMARK SMILES IDX 88 13 5 14 14 15 6 16 7 17 13 18 8 19 12 20 9 21 11 22 10 23
REMARK SMILES IDX 22 24 23 25 24 26 25 27 86 28 26 29 85 30 27 31 28 32 29 33
REMARK SMILES IDX 79 34 30 35 84 36 78 37 80 38 31 39 83 40 77 41 76 42 32 44
REMARK SMILES IDX 64 45 44 46 63 47 45 48 48 49 62 50 81 51 46 52 47 53 61 55
REMARK SMILES IDX 82 56 49 57 33 58 34 59 42 60 35 61 37 62 43 63 36 64 38 65
REMARK SMILES IDX 39 66 40 67 41 68 65 69 66 70 74 71 67 72 69 73 75 74 68 75
REMARK SMILES IDX 70 76 71 77 72 78 73 79 50 80 51 81 59 82 52 83 54 84 60 85
REMARK SMILES IDX 53 86 55 87 56 88 57 89 58 90
REMARK H PARENT 80 43 48 54
REMARK Flexibility Score: inf
ROOT
ATOM      1  O   UNL A   1      32.964  30.329  27.088  1.00  0.00    -0.458 OA
ENDROOT
BRANCH   1   2
ATOM      2  C   UNL A   1      32.560  30.087  25.732  1.00  0.00     0.275 C 
BRANCH   2   3
ATOM      3  C   UNL A   1      33.491  29.062  25.078  1.00  0.00     0.275 C 
BRANCH   3   4
ATOM      4  O   UNL A   1      33.384  29.123  23.640  1.00  0.00    -0.458 OA
BRANCH   4   5
ATOM      5  C   UNL A   1      33.131  27.972  22.961  1.00  0.00     0.342 C 
ATOM      6  O   UNL A   1      33.805  27.536  22.048  1.00  0.00    -0.246 OA
BRANCH   5   7
ATOM      7  C   UNL A   1      31.898  27.307  23.511  1.00  0.00     0.106 A 
ATOM      8  C   UNL A   1      28.043  27.599  23.551  1.00  0.00     0.044 C 
ATOM      9  C   UNL A   1      29.461  27.170  23.818  1.00  0.00    -0.046 A 
ATOM     10  C   UNL A   1      29.656  26.100  24.694  1.00  0.00     0.019 A 
ATOM     11  C   UNL A   1      30.587  27.812  23.242  1.00  0.00    -0.030 A 
ATOM     12  C   UNL A   1      30.935  25.612  24.946  1.00  0.00     0.067 A 
ATOM     13  C   UNL A   1      30.373  29.036  22.381  1.00  0.00     0.046 C 
ATOM     14  C   UNL A   1      31.098  24.546  25.943  1.00  0.00     0.200 A 
ATOM     15  C   UNL A   1      32.055  26.150  24.313  1.00  0.00     0.153 A 
ATOM     16  O   UNL A   1      30.136  24.067  26.529  1.00  0.00    -0.288 OA
ATOM     17  C   UNL A   1      32.463  24.096  26.204  1.00  0.00     0.065 A 
ATOM     18  O   UNL A   1      33.298  25.565  24.440  1.00  0.00    -0.455 OA
ATOM     19  C   UNL A   1      32.740  23.220  27.259  1.00  0.00     0.016 A 
ATOM     20  C   UNL A   1      33.469  24.554  25.361  1.00  0.00     0.138 A 
ATOM     21  C   UNL A   1      34.041  22.763  27.442  1.00  0.00     0.001 A 
ATOM     22  C   UNL A   1      34.750  24.020  25.494  1.00  0.00     0.048 A 
ATOM     23  C   UNL A   1      35.036  23.134  26.539  1.00  0.00     0.004 A 
ENDBRANCH   5   7
ENDBRANCH   4   5
ENDBRANCH   3   4
ENDBRANCH   2   3
ENDBRANCH   1   2
BRANCH   1  24
ATOM     24  C   UNL A   1      33.695  31.455  27.269  1.00  0.00     0.338 C 
ATOM     25  O   UNL A   1      33.334  32.604  27.069  1.00  0.00    -0.246 OA
BRANCH  24  26
ATOM     26  C   UNL A   1      34.940  31.095  27.969  1.00  0.00     0.060 A 
ATOM     27  C   UNL A   1      36.029  31.966  28.074  1.00  0.00     0.016 A 
ATOM     28  C   UNL A   1      35.002  29.820  28.525  1.00  0.00     0.016 A 
ATOM     29  C   UNL A   1      37.209  31.529  28.698  1.00  0.00     0.010 A 
ATOM     30  C   UNL A   1      36.171  29.396  29.147  1.00  0.00     0.010 A 
ATOM     31  C   UNL A   1      37.297  30.224  29.206  1.00  0.00    -0.014 A 
BRANCH  31  32
ATOM     32  C   UNL A   1      38.498  29.719  29.915  1.00  0.00     0.031 A 
ATOM     33  C   UNL A   1      38.896  30.242  31.268  1.00  0.00     0.074 A 
ATOM     34  C   UNL A   1      39.331  28.907  29.241  1.00  0.00     0.049 A 
ATOM     35  N   UNL A   1      39.968  29.970  31.971  1.00  0.00    -0.248 NA
ATOM     36  C   UNL A   1      38.014  31.239  31.891  1.00  0.00     0.031 C 
ATOM     37  C   UNL A   1      39.122  28.450  27.866  1.00  0.00     0.029 A 
ATOM     38  N   UNL A   1      40.529  28.351  29.605  1.00  0.00    -0.354 N 
ATOM     39  C   UNL A   1      39.924  30.801  33.087  1.00  0.00     0.074 A 
ATOM     40  C   UNL A   1      38.715  31.591  32.963  1.00  0.00     0.031 C 
ATOM     41  C   UNL A   1      40.152  27.669  27.508  1.00  0.00     0.029 A 
ATOM     42  C   UNL A   1      41.085  27.565  28.626  1.00  0.00     0.049 A 
ATOM     43  H   UNL A   1      40.951  28.501  30.483  1.00  0.00     0.167 HD
ATOM     44  C   UNL A   1      40.806  30.884  34.114  1.00  0.00     0.034 A 
ATOM     45  C   UNL A   1      42.203  26.814  28.638  1.00  0.00     0.034 A 
ATOM     46  C   UNL A   1      41.948  30.015  34.267  1.00  0.00     0.049 A 
ATOM     47  C   UNL A   1      43.042  26.756  29.879  1.00  0.00     0.074 A 
ATOM     48  C   UNL A   1      42.796  29.899  35.356  1.00  0.00     0.029 A 
ATOM     49  N   UNL A   1      42.390  29.104  33.322  1.00  0.00    -0.354 N 
ATOM     50  N   UNL A   1      42.899  27.427  30.995  1.00  0.00    -0.248 NA
ATOM     51  C   UNL A   1      44.166  25.810  29.883  1.00  0.00     0.031 C 
ATOM     52  C   UNL A   1      43.749  28.919  35.070  1.00  0.00     0.029 A 
ATOM     53  C   UNL A   1      43.485  28.412  33.809  1.00  0.00     0.049 A 
ATOM     54  H   UNL A   1      41.986  28.970  32.434  1.00  0.00     0.167 HD
ATOM     55  C   UNL A   1      43.900  26.969  31.844  1.00  0.00     0.074 A 
ATOM     56  C   UNL A   1      44.635  25.953  31.117  1.00  0.00     0.031 C 
ATOM     57  C   UNL A   1      44.187  27.370  33.105  1.00  0.00     0.034 A 
BRANCH  44  58
ATOM     58  C   UNL A   1      40.543  31.866  35.232  1.00  0.00     0.023 A 
ATOM     59  C   UNL A   1      41.246  33.087  35.249  1.00  0.00     0.012 A 
ATOM     60  C   UNL A   1      39.490  31.667  36.153  1.00  0.00     0.148 A 
ATOM     61  C   UNL A   1      40.922  34.085  36.167  1.00  0.00     0.002 A 
ATOM     62  C   UNL A   1      39.146  32.683  37.040  1.00  0.00     0.091 A 
ATOM     63  F   UNL A   1      38.827  30.501  36.122  1.00  0.00    -0.205 F 
ATOM     64  C   UNL A   1      39.865  33.889  37.051  1.00  0.00     0.022 A 
BRANCH  62  65
ATOM     65  S   UNL A   1      37.747  32.576  38.166  1.00  0.00     0.127 S 
ATOM     66  O   UNL A   1      38.088  33.598  39.156  1.00  0.00    -0.237 OA
ATOM     67  O   UNL A   1      36.625  32.923  37.295  1.00  0.00    -0.237 OA
ATOM     68  O   UNL A   1      37.735  31.209  38.667  1.00  0.00    -0.744 OA
ENDBRANCH  62  65
ENDBRANCH  44  58
BRANCH  45  69
ATOM     69  C   UNL A   1      42.470  25.934  27.474  1.00  0.00     0.023 A 
ATOM     70  C   UNL A   1      43.286  26.427  26.436  1.00  0.00     0.012 A 
ATOM     71  C   UNL A   1      42.037  24.597  27.444  1.00  0.00     0.148 A 
ATOM     72  C   UNL A   1      43.666  25.600  25.381  1.00  0.00     0.002 A 
ATOM     73  C   UNL A   1      42.446  23.768  26.407  1.00  0.00     0.091 A 
ATOM     74  F   UNL A   1      41.276  24.155  28.456  1.00  0.00    -0.205 F 
ATOM     75  C   UNL A   1      43.255  24.270  25.371  1.00  0.00     0.022 A 
BRANCH  73  76
ATOM     76  S   UNL A   1      42.056  22.017  26.348  1.00  0.00     0.127 S 
ATOM     77  O   UNL A   1      42.452  21.579  27.684  1.00  0.00    -0.237 OA
ATOM     78  O   UNL A   1      40.612  22.043  26.111  1.00  0.00    -0.237 OA
ATOM     79  O   UNL A   1      42.844  21.471  25.253  1.00  0.00    -0.744 OA
ENDBRANCH  73  76
ENDBRANCH  45  69
BRANCH  57  80
ATOM     80  C   UNL A   1      45.336  26.710  33.818  1.00  0.00     0.023 A 
ATOM     81  C   UNL A   1      46.602  27.326  33.810  1.00  0.00     0.012 A 
ATOM     82  C   UNL A   1      45.129  25.553  34.596  1.00  0.00     0.148 A 
ATOM     83  C   UNL A   1      47.649  26.797  34.563  1.00  0.00     0.002 A 
ATOM     84  C   UNL A   1      46.169  25.048  35.366  1.00  0.00     0.091 A 
ATOM     85  F   UNL A   1      43.915  24.984  34.582  1.00  0.00    -0.205 F 
ATOM     86  C   UNL A   1      47.430  25.666  35.348  1.00  0.00     0.022 A 
BRANCH  84  87
ATOM     87  S   UNL A   1      45.975  23.633  36.456  1.00  0.00     0.127 S 
ATOM     88  O   UNL A   1      45.048  24.154  37.459  1.00  0.00    -0.237 OA
ATOM     89  O   UNL A   1      45.402  22.629  35.559  1.00  0.00    -0.237 OA
ATOM     90  O   UNL A   1      47.308  23.318  36.954  1.00  0.00    -0.744 OA
ENDBRANCH  84  87
ENDBRANCH  57  80
ENDBRANCH  31  32
ENDBRANCH  24  26
ENDBRANCH   1  24
TORSDOF 14
ENDMDL
MODEL 3
REMARK VINA RESULT:     -12.4      5.035      9.985
REMARK SMILES Cc1cc2c(=O)c3ccccc3oc2c(C(=O)OCCOC(=O)c2ccc(-c3c4nc(c(-c5cccc(S(=O)(=O)[O-])c5F)c5ccc([nH]5)c(-c5cccc(S(=O)(=O)[O-])c5F)c5nc(c(-c6cccc(S(=O)(=O)[O-])c6F)c6ccc3[nH]6)C=C5)C=C4)cc2)c1C
REMARK SMILES IDX 21 1 20 2 19 3 18 4 16 5 17 6 15 7 1 8 2 9 3 10 87 11 4 12
REMARK SMILES IDX 88 13 5 14 14 15 6 16 7 17 13 18 8 19 12 20 9 21 11 22 10 23
REMARK SMILES IDX 22 24 23 25 24 26 25 27 86 28 26 29 85 30 27 31 28 32 29 33
REMARK SMILES IDX 79 34 30 35 84 36 78 37 80 38 31 39 83 40 77 41 76 42 32 44
REMARK SMILES IDX 64 45 44 46 63 47 45 48 48 49 62 50 81 51 46 52 47 53 61 55
REMARK SMILES IDX 82 56 49 57 33 58 34 59 42 60 35 61 37 62 43 63 36 64 38 65
REMARK SMILES IDX 39 66 40 67 41 68 65 69 66 70 74 71 67 72 69 73 75 74 68 75
REMARK SMILES IDX 70 76 71 77 72 78 73 79 50 80 51 81 59 82 52 83 54 84 60 85
REMARK SMILES IDX 53 86 55 87 56 88 57 89 58 90
REMARK H PARENT 80 43 48 54
REMARK Flexibility Score: inf
ROOT
ATOM      1  O   UNL A   1      37.799  21.982  25.377  1.00  0.00    -0.458 OA
ENDROOT
BRANCH   1   2
ATOM      2  C   UNL A   1      36.514  21.530  25.831  1.00  0.00     0.275 C 
BRANCH   2   3
ATOM      3  C   UNL A   1      35.554  22.716  25.965  1.00  0.00     0.275 C 
BRANCH   3   4
ATOM      4  O   UNL A   1      34.617  22.492  27.039  1.00  0.00    -0.458 OA
BRANCH   4   5
ATOM      5  C   UNL A   1      33.297  22.715  26.801  1.00  0.00     0.342 C 
ATOM      6  O   UNL A   1      32.463  22.953  27.654  1.00  0.00    -0.246 OA
BRANCH   5   7
ATOM      7  C   UNL A   1      33.015  22.636  25.325  1.00  0.00     0.106 A 
ATOM      8  C   UNL A   1      32.191  20.110  22.516  1.00  0.00     0.044 C 
ATOM      9  C   UNL A   1      32.529  21.366  23.275  1.00  0.00    -0.046 A 
ATOM     10  C   UNL A   1      32.646  22.549  22.543  1.00  0.00     0.019 A 
ATOM     11  C   UNL A   1      32.748  21.389  24.676  1.00  0.00    -0.030 A 
ATOM     12  C   UNL A   1      32.901  23.758  23.184  1.00  0.00     0.067 A 
ATOM     13  C   UNL A   1      32.726  20.087  25.444  1.00  0.00     0.046 C 
ATOM     14  C   UNL A   1      33.106  24.960  22.364  1.00  0.00     0.200 A 
ATOM     15  C   UNL A   1      33.015  23.834  24.572  1.00  0.00     0.153 A 
ATOM     16  O   UNL A   1      33.031  24.920  21.143  1.00  0.00    -0.288 OA
ATOM     17  C   UNL A   1      33.412  26.197  23.079  1.00  0.00     0.065 A 
ATOM     18  O   UNL A   1      33.107  25.052  25.216  1.00  0.00    -0.455 OA
ATOM     19  C   UNL A   1      33.802  27.347  22.387  1.00  0.00     0.016 A 
ATOM     20  C   UNL A   1      33.288  26.192  24.464  1.00  0.00     0.138 A 
ATOM     21  C   UNL A   1      34.027  28.525  23.092  1.00  0.00     0.001 A 
ATOM     22  C   UNL A   1      33.424  27.397  25.152  1.00  0.00     0.048 A 
ATOM     23  C   UNL A   1      33.802  28.558  24.467  1.00  0.00     0.004 A 
ENDBRANCH   5   7
ENDBRANCH   4   5
ENDBRANCH   3   4
ENDBRANCH   2   3
ENDBRANCH   1   2
BRANCH   1  24
ATOM     24  C   UNL A   1      38.837  21.635  26.177  1.00  0.00     0.338 C 
ATOM     25  O   UNL A   1      39.262  20.509  26.379  1.00  0.00    -0.246 OA
BRANCH  24  26
ATOM     26  C   UNL A   1      39.530  22.863  26.600  1.00  0.00     0.060 A 
ATOM     27  C   UNL A   1      40.490  22.880  27.617  1.00  0.00     0.016 A 
ATOM     28  C   UNL A   1      39.179  24.041  25.945  1.00  0.00     0.016 A 
ATOM     29  C   UNL A   1      41.060  24.101  28.012  1.00  0.00     0.010 A 
ATOM     30  C   UNL A   1      39.753  25.245  26.337  1.00  0.00     0.010 A 
ATOM     31  C   UNL A   1      40.664  25.297  27.396  1.00  0.00    -0.014 A 
BRANCH  31  32
ATOM     32  C   UNL A   1      41.262  26.611  27.738  1.00  0.00     0.031 A 
ATOM     33  C   UNL A   1      42.689  26.944  27.396  1.00  0.00     0.074 A 
ATOM     34  C   UNL A   1      40.553  27.439  28.525  1.00  0.00     0.049 A 
ATOM     35  N   UNL A   1      43.382  28.010  27.712  1.00  0.00    -0.248 NA
ATOM     36  C   UNL A   1      43.457  25.933  26.656  1.00  0.00     0.031 C 
ATOM     37  C   UNL A   1      39.213  27.157  29.042  1.00  0.00     0.029 A 
ATOM     38  N   UNL A   1      40.870  28.663  29.053  1.00  0.00    -0.354 N 
ATOM     39  C   UNL A   1      44.680  27.778  27.266  1.00  0.00     0.074 A 
ATOM     40  C   UNL A   1      44.676  26.463  26.658  1.00  0.00     0.031 C 
ATOM     41  C   UNL A   1      38.816  28.189  29.801  1.00  0.00     0.029 A 
ATOM     42  C   UNL A   1      39.866  29.203  29.818  1.00  0.00     0.049 A 
ATOM     43  H   UNL A   1      41.734  29.111  28.899  1.00  0.00     0.167 HD
ATOM     44  C   UNL A   1      45.762  28.592  27.353  1.00  0.00     0.034 A 
ATOM     45  C   UNL A   1      39.783  30.397  30.434  1.00  0.00     0.034 A 
ATOM     46  C   UNL A   1      45.716  29.938  27.870  1.00  0.00     0.049 A 
ATOM     47  C   UNL A   1      40.919  31.369  30.321  1.00  0.00     0.074 A 
ATOM     48  C   UNL A   1      46.711  30.903  27.836  1.00  0.00     0.029 A 
ATOM     49  N   UNL A   1      44.623  30.518  28.493  1.00  0.00    -0.354 N 
ATOM     50  N   UNL A   1      42.087  31.199  29.754  1.00  0.00    -0.248 NA
ATOM     51  C   UNL A   1      40.713  32.708  30.891  1.00  0.00     0.031 C 
ATOM     52  C   UNL A   1      46.219  32.064  28.437  1.00  0.00     0.029 A 
ATOM     53  C   UNL A   1      44.912  31.829  28.830  1.00  0.00     0.049 A 
ATOM     54  H   UNL A   1      43.768  30.065  28.670  1.00  0.00     0.167 HD
ATOM     55  C   UNL A   1      42.749  32.415  29.877  1.00  0.00     0.074 A 
ATOM     56  C   UNL A   1      41.846  33.318  30.560  1.00  0.00     0.031 C 
ATOM     57  C   UNL A   1      43.999  32.741  29.468  1.00  0.00     0.034 A 
BRANCH  44  58
ATOM     58  C   UNL A   1      47.081  28.125  26.784  1.00  0.00     0.023 A 
ATOM     59  C   UNL A   1      48.034  27.551  27.650  1.00  0.00     0.012 A 
ATOM     60  C   UNL A   1      47.309  28.087  25.390  1.00  0.00     0.148 A 
ATOM     61  C   UNL A   1      49.194  26.965  27.146  1.00  0.00     0.002 A 
ATOM     62  C   UNL A   1      48.451  27.465  24.893  1.00  0.00     0.091 A 
ATOM     63  F   UNL A   1      46.392  28.633  24.579  1.00  0.00    -0.205 F 
ATOM     64  C   UNL A   1      49.396  26.909  25.771  1.00  0.00     0.022 A 
BRANCH  62  65
ATOM     65  S   UNL A   1      48.774  27.256  23.136  1.00  0.00     0.127 S 
ATOM     66  O   UNL A   1      50.231  27.366  23.089  1.00  0.00    -0.237 OA
ATOM     67  O   UNL A   1      48.256  25.911  22.886  1.00  0.00    -0.237 OA
ATOM     68  O   UNL A   1      48.051  28.326  22.462  1.00  0.00    -0.744 OA
ENDBRANCH  62  65
ENDBRANCH  44  58
BRANCH  45  69
ATOM     69  C   UNL A   1      38.493  30.775  31.062  1.00  0.00     0.023 A 
ATOM     70  C   UNL A   1      38.352  30.605  32.454  1.00  0.00     0.012 A 
ATOM     71  C   UNL A   1      37.471  31.406  30.331  1.00  0.00     0.148 A 
ATOM     72  C   UNL A   1      37.208  31.056  33.110  1.00  0.00     0.002 A 
ATOM     73  C   UNL A   1      36.349  31.883  30.996  1.00  0.00     0.091 A 
ATOM     74  F   UNL A   1      37.645  31.567  29.011  1.00  0.00    -0.205 F 
ATOM     75  C   UNL A   1      36.212  31.703  32.383  1.00  0.00     0.022 A 
BRANCH  73  76
ATOM     76  S   UNL A   1      35.054  32.815  30.173  1.00  0.00     0.127 S 
ATOM     77  O   UNL A   1      34.139  33.091  31.277  1.00  0.00    -0.237 OA
ATOM     78  O   UNL A   1      35.793  33.978  29.680  1.00  0.00    -0.237 OA
ATOM     79  O   UNL A   1      34.533  31.939  29.134  1.00  0.00    -0.744 OA
ENDBRANCH  73  76
ENDBRANCH  45  69
BRANCH  57  80
ATOM     80  C   UNL A   1      44.488  34.140  29.724  1.00  0.00     0.023 A 
ATOM     81  C   UNL A   1      45.169  34.429  30.922  1.00  0.00     0.012 A 
ATOM     82  C   UNL A   1      44.385  35.130  28.725  1.00  0.00     0.148 A 
ATOM     83  C   UNL A   1      45.736  35.686  31.127  1.00  0.00     0.002 A 
ATOM     84  C   UNL A   1      44.978  36.371  28.924  1.00  0.00     0.091 A 
ATOM     85  F   UNL A   1      43.728  34.831  27.596  1.00  0.00    -0.205 F 
ATOM     86  C   UNL A   1      45.650  36.652  30.125  1.00  0.00     0.022 A 
BRANCH  84  87
ATOM     87  S   UNL A   1      44.975  37.662  27.675  1.00  0.00     0.127 S 
ATOM     88  O   UNL A   1      45.643  38.757  28.377  1.00  0.00    -0.237 OA
ATOM     89  O   UNL A   1      45.762  37.055  26.602  1.00  0.00    -0.237 OA
ATOM     90  O   UNL A   1      43.577  37.906  27.346  1.00  0.00    -0.744 OA
ENDBRANCH  84  87
ENDBRANCH  57  80
ENDBRANCH  31  32
ENDBRANCH  24  26
ENDBRANCH   1  24
TORSDOF 14
ENDMDL
