MODEL 1
REMARK VINA RESULT:     -12.9      0.000      0.000
REMARK SMILES Cc1ccc(C(=O)NC2CC2)cc1NC(=O)[C@@H]1[C@@H](C(=O)OCCOC(=O)c2ccc(-c3c4nc(c(-c5cccc(S(=O)(=O)[O-])c5F)c5ccc([nH]5)c(-c5cccc(S(=O)(=O)[O-])c5F)c5nc(c(-c6cccc(S(=O)(=O)[O-])c6F)c6ccc3[nH]6)C=C5)C=C4)cc2)[C@H]2C=C[C@@H]1C2
REMARK SMILES IDX 22 1 21 2 19 3 20 4 18 5 17 6 93 7 90 8 92 9 94 10 91 11
REMARK SMILES IDX 15 12 14 13 16 15 13 16 1 17 2 18 3 19 4 20 12 21 5 22 6 23
REMARK SMILES IDX 7 24 8 25 9 27 10 28 11 29 23 30 24 31 25 32 26 33 27 34
REMARK SMILES IDX 28 35 89 36 29 37 88 38 30 39 31 40 32 41 82 42 33 43 87 44
REMARK SMILES IDX 81 45 83 46 34 47 86 48 80 49 79 50 35 52 67 53 47 54 66 55
REMARK SMILES IDX 48 56 51 57 65 58 84 59 49 60 50 61 64 63 85 64 52 65 36 66
REMARK SMILES IDX 37 67 45 68 38 69 40 70 46 71 39 72 41 73 42 74 43 75 44 76
REMARK SMILES IDX 68 77 69 78 77 79 70 80 72 81 78 82 71 83 73 84 74 85 75 86
REMARK SMILES IDX 76 87 53 88 54 89 62 90 55 91 57 92 63 93 56 94 58 95 59 96
REMARK SMILES IDX 60 97 61 98
REMARK H PARENT 14 14 8 26 83 51 51 62
REMARK Flexibility Score: inf
ROOT
ATOM      1  C   UNL A   1      36.184  24.132  25.733  1.00  0.00     0.274 C 
ENDROOT
BRANCH   1   2
ATOM      2  O   UNL A   1      35.242  24.427  24.670  1.00  0.00    -0.462 OA
BRANCH   2   3
ATOM      3  C   UNL A   1      34.353  25.414  25.033  1.00  0.00     0.310 C 
ATOM      4  O   UNL A   1      34.305  25.830  26.186  1.00  0.00    -0.252 OA
BRANCH   3   5
ATOM      5  C   UNL A   1      33.353  25.826  23.938  1.00  0.00     0.119 C 
ATOM      6  C   UNL A   1      33.755  26.020  22.392  1.00  0.00     0.100 C 
ATOM      7  C   UNL A   1      33.277  27.480  22.126  1.00  0.00     0.025 C 
ATOM      8  C   UNL A   1      32.898  27.278  24.309  1.00  0.00     0.027 C 
ATOM      9  C   UNL A   1      34.264  28.386  22.803  1.00  0.00    -0.027 C 
ATOM     10  C   UNL A   1      32.088  27.637  23.076  1.00  0.00     0.017 C 
ATOM     11  C   UNL A   1      34.038  28.270  24.116  1.00  0.00    -0.027 C 
BRANCH   6  12
ATOM     12  C   UNL A   1      33.040  25.102  21.389  1.00  0.00     0.228 C 
ATOM     13  N   UNL A   1      32.482  23.878  21.679  1.00  0.00    -0.326 N 
ATOM     14  H   UNL A   1      32.146  23.442  20.863  1.00  0.00     0.169 HD
ATOM     15  O   UNL A   1      32.953  25.463  20.206  1.00  0.00    -0.274 OA
BRANCH  13  16
ATOM     16  C   UNL A   1      32.252  23.061  22.826  1.00  0.00     0.044 A 
ATOM     17  C   UNL A   1      30.266  24.537  23.640  1.00  0.00     0.046 C 
ATOM     18  C   UNL A   1      31.201  23.361  23.733  1.00  0.00    -0.027 A 
ATOM     19  C   UNL A   1      31.020  22.576  24.902  1.00  0.00     0.006 A 
ATOM     20  C   UNL A   1      31.917  21.576  25.242  1.00  0.00     0.014 A 
ATOM     21  C   UNL A   1      33.079  21.996  23.164  1.00  0.00     0.040 A 
ATOM     22  C   UNL A   1      32.993  21.340  24.402  1.00  0.00     0.041 A 
BRANCH  22  23
ATOM     23  C   UNL A   1      34.104  20.504  24.925  1.00  0.00     0.251 C 
ATOM     24  O   UNL A   1      35.079  21.040  25.450  1.00  0.00    -0.269 OA
ATOM     25  N   UNL A   1      34.046  19.135  24.779  1.00  0.00    -0.349 N 
ATOM     26  H   UNL A   1      34.845  18.646  25.081  1.00  0.00     0.164 HD
BRANCH  25  27
ATOM     27  C   UNL A   1      32.999  18.325  24.254  1.00  0.00     0.082 C 
ATOM     28  C   UNL A   1      32.455  18.332  22.898  1.00  0.00     0.027 C 
ATOM     29  C   UNL A   1      33.404  17.232  23.281  1.00  0.00     0.027 C 
ENDBRANCH  25  27
ENDBRANCH  22  23
ENDBRANCH  13  16
ENDBRANCH   6  12
ENDBRANCH   3   5
ENDBRANCH   2   3
ENDBRANCH   1   2
BRANCH   1  30
ATOM     30  C   UNL A   1      37.590  23.694  25.294  1.00  0.00     0.275 C 
BRANCH  30  31
ATOM     31  O   UNL A   1      38.418  23.051  26.286  1.00  0.00    -0.458 OA
BRANCH  31  32
ATOM     32  C   UNL A   1      39.626  23.511  26.682  1.00  0.00     0.338 C 
ATOM     33  O   UNL A   1      40.688  22.968  26.398  1.00  0.00    -0.246 OA
BRANCH  32  34
ATOM     34  C   UNL A   1      39.614  24.771  27.417  1.00  0.00     0.060 A 
ATOM     35  C   UNL A   1      40.185  25.870  26.785  1.00  0.00     0.016 A 
ATOM     36  C   UNL A   1      38.991  24.877  28.659  1.00  0.00     0.016 A 
ATOM     37  C   UNL A   1      40.070  27.116  27.368  1.00  0.00     0.010 A 
ATOM     38  C   UNL A   1      38.972  26.111  29.286  1.00  0.00     0.010 A 
ATOM     39  C   UNL A   1      39.557  27.213  28.656  1.00  0.00    -0.014 A 
BRANCH  39  40
ATOM     40  C   UNL A   1      39.761  28.432  29.424  1.00  0.00     0.031 A 
ATOM     41  C   UNL A   1      38.839  29.597  29.213  1.00  0.00     0.074 A 
ATOM     42  C   UNL A   1      40.922  28.523  30.129  1.00  0.00     0.049 A 
ATOM     43  N   UNL A   1      39.177  30.837  29.351  1.00  0.00    -0.248 NA
ATOM     44  C   UNL A   1      37.472  29.455  28.689  1.00  0.00     0.031 C 
ATOM     45  C   UNL A   1      41.250  29.547  31.096  1.00  0.00     0.029 A 
ATOM     46  N   UNL A   1      42.147  27.817  29.979  1.00  0.00    -0.354 N 
ATOM     47  C   UNL A   1      38.012  31.590  29.290  1.00  0.00     0.074 A 
ATOM     48  C   UNL A   1      37.032  30.720  28.698  1.00  0.00     0.031 C 
ATOM     49  C   UNL A   1      42.584  29.612  31.213  1.00  0.00     0.029 A 
ATOM     50  C   UNL A   1      43.176  28.748  30.192  1.00  0.00     0.049 A 
ATOM     51  H   UNL A   1      42.252  26.861  29.768  1.00  0.00     0.167 HD
ATOM     52  C   UNL A   1      37.935  32.767  29.979  1.00  0.00     0.034 A 
ATOM     53  C   UNL A   1      44.235  29.105  29.386  1.00  0.00     0.034 A 
ATOM     54  C   UNL A   1      39.217  33.026  30.625  1.00  0.00     0.049 A 
ATOM     55  C   UNL A   1      44.294  30.637  29.319  1.00  0.00     0.074 A 
ATOM     56  C   UNL A   1      39.682  32.664  31.879  1.00  0.00     0.029 A 
ATOM     57  N   UNL A   1      40.317  33.416  29.879  1.00  0.00    -0.354 N 
ATOM     58  N   UNL A   1      43.232  31.404  29.429  1.00  0.00    -0.248 NA
ATOM     59  C   UNL A   1      45.523  31.421  29.264  1.00  0.00     0.031 C 
ATOM     60  C   UNL A   1      41.092  32.768  31.863  1.00  0.00     0.029 A 
ATOM     61  C   UNL A   1      41.476  33.217  30.609  1.00  0.00     0.049 A 
ATOM     62  H   UNL A   1      40.282  33.780  28.965  1.00  0.00     0.167 HD
ATOM     63  C   UNL A   1      43.623  32.705  29.681  1.00  0.00     0.074 A 
ATOM     64  C   UNL A   1      45.065  32.669  29.491  1.00  0.00     0.031 C 
ATOM     65  C   UNL A   1      42.759  33.684  30.114  1.00  0.00     0.034 A 
BRANCH  52  66
ATOM     66  C   UNL A   1      36.636  33.410  30.462  1.00  0.00     0.023 A 
ATOM     67  C   UNL A   1      36.218  33.094  31.779  1.00  0.00     0.012 A 
ATOM     68  C   UNL A   1      35.752  34.223  29.716  1.00  0.00     0.148 A 
ATOM     69  C   UNL A   1      34.953  33.422  32.277  1.00  0.00     0.002 A 
ATOM     70  C   UNL A   1      34.468  34.523  30.199  1.00  0.00     0.091 A 
ATOM     71  F   UNL A   1      36.167  34.748  28.557  1.00  0.00    -0.205 F 
ATOM     72  C   UNL A   1      34.061  34.106  31.472  1.00  0.00     0.022 A 
BRANCH  70  73
ATOM     73  S   UNL A   1      33.222  35.388  29.223  1.00  0.00     0.127 S 
ATOM     74  O   UNL A   1      32.680  34.309  28.393  1.00  0.00    -0.237 OA
ATOM     75  O   UNL A   1      32.304  35.883  30.247  1.00  0.00    -0.237 OA
ATOM     76  O   UNL A   1      33.934  36.418  28.477  1.00  0.00    -0.744 OA
ENDBRANCH  70  73
ENDBRANCH  52  66
BRANCH  53  77
ATOM     77  C   UNL A   1      44.956  28.109  28.487  1.00  0.00     0.023 A 
ATOM     78  C   UNL A   1      46.291  27.808  28.861  1.00  0.00     0.012 A 
ATOM     79  C   UNL A   1      44.450  27.387  27.366  1.00  0.00     0.148 A 
ATOM     80  C   UNL A   1      47.037  26.783  28.268  1.00  0.00     0.002 A 
ATOM     81  C   UNL A   1      45.194  26.322  26.795  1.00  0.00     0.091 A 
ATOM     82  F   UNL A   1      43.240  27.703  26.888  1.00  0.00    -0.205 F 
ATOM     83  C   UNL A   1      46.476  26.016  27.264  1.00  0.00     0.022 A 
BRANCH  81  84
ATOM     84  S   UNL A   1      44.560  25.156  25.553  1.00  0.00     0.127 S 
ATOM     85  O   UNL A   1      44.108  24.036  26.373  1.00  0.00    -0.237 OA
ATOM     86  O   UNL A   1      43.482  25.919  24.919  1.00  0.00    -0.237 OA
ATOM     87  O   UNL A   1      45.685  24.871  24.681  1.00  0.00    -0.744 OA
ENDBRANCH  81  84
ENDBRANCH  53  77
BRANCH  65  88
ATOM     88  C   UNL A   1      42.994  35.193  30.239  1.00  0.00     0.023 A 
ATOM     89  C   UNL A   1      43.600  35.776  31.361  1.00  0.00     0.012 A 
ATOM     90  C   UNL A   1      42.778  36.065  29.122  1.00  0.00     0.148 A 
ATOM     91  C   UNL A   1      43.972  37.129  31.379  1.00  0.00     0.002 A 
ATOM     92  C   UNL A   1      43.260  37.367  29.101  1.00  0.00     0.091 A 
ATOM     93  F   UNL A   1      42.068  35.656  28.062  1.00  0.00    -0.205 F 
ATOM     94  C   UNL A   1      43.841  37.914  30.239  1.00  0.00     0.022 A 
BRANCH  92  95
ATOM     95  S   UNL A   1      43.313  38.311  27.564  1.00  0.00     0.127 S 
ATOM     96  O   UNL A   1      43.961  39.550  27.988  1.00  0.00    -0.237 OA
ATOM     97  O   UNL A   1      44.134  37.457  26.704  1.00  0.00    -0.237 OA
ATOM     98  O   UNL A   1      41.926  38.428  27.134  1.00  0.00    -0.744 OA
ENDBRANCH  92  95
ENDBRANCH  65  88
ENDBRANCH  39  40
ENDBRANCH  32  34
ENDBRANCH  31  32
ENDBRANCH  30  31
ENDBRANCH   1  30
TORSDOF 18
ENDMDL
MODEL 2
REMARK VINA RESULT:     -12.8      4.069     10.062
REMARK SMILES Cc1ccc(C(=O)NC2CC2)cc1NC(=O)[C@@H]1[C@@H](C(=O)OCCOC(=O)c2ccc(-c3c4nc(c(-c5cccc(S(=O)(=O)[O-])c5F)c5ccc([nH]5)c(-c5cccc(S(=O)(=O)[O-])c5F)c5nc(c(-c6cccc(S(=O)(=O)[O-])c6F)c6ccc3[nH]6)C=C5)C=C4)cc2)[C@H]2C=C[C@@H]1C2
REMARK SMILES IDX 22 1 21 2 19 3 20 4 18 5 17 6 93 7 90 8 92 9 94 10 91 11
REMARK SMILES IDX 15 12 14 13 16 15 13 16 1 17 2 18 3 19 4 20 12 21 5 22 6 23
REMARK SMILES IDX 7 24 8 25 9 27 10 28 11 29 23 30 24 31 25 32 26 33 27 34
REMARK SMILES IDX 28 35 89 36 29 37 88 38 30 39 31 40 32 41 82 42 33 43 87 44
REMARK SMILES IDX 81 45 83 46 34 47 86 48 80 49 79 50 35 52 67 53 47 54 66 55
REMARK SMILES IDX 48 56 51 57 65 58 84 59 49 60 50 61 64 63 85 64 52 65 36 66
REMARK SMILES IDX 37 67 45 68 38 69 40 70 46 71 39 72 41 73 42 74 43 75 44 76
REMARK SMILES IDX 68 77 69 78 77 79 70 80 72 81 78 82 71 83 73 84 74 85 75 86
REMARK SMILES IDX 76 87 53 88 54 89 62 90 55 91 57 92 63 93 56 94 58 95 59 96
REMARK SMILES IDX 60 97 61 98
REMARK H PARENT 14 14 8 26 83 51 51 62
REMARK Flexibility Score: inf
ROOT
ATOM      1  C   UNL A   1      33.608  27.099  26.488  1.00  0.00     0.274 C 
ENDROOT
BRANCH   1   2
ATOM      2  O   UNL A   1      33.422  26.443  25.207  1.00  0.00    -0.462 OA
BRANCH   2   3
ATOM      3  C   UNL A   1      33.969  25.179  25.194  1.00  0.00     0.310 C 
ATOM      4  O   UNL A   1      35.141  25.000  24.875  1.00  0.00    -0.252 OA
BRANCH   3   5
ATOM      5  C   UNL A   1      32.974  24.036  25.457  1.00  0.00     0.119 C 
ATOM      6  C   UNL A   1      32.093  23.912  26.797  1.00  0.00     0.100 C 
ATOM      7  C   UNL A   1      32.485  22.488  27.298  1.00  0.00     0.025 C 
ATOM      8  C   UNL A   1      33.843  22.736  25.554  1.00  0.00     0.027 C 
ATOM      9  C   UNL A   1      33.871  22.597  27.865  1.00  0.00    -0.027 C 
ATOM     10  C   UNL A   1      32.794  21.735  26.002  1.00  0.00     0.017 C 
ATOM     11  C   UNL A   1      34.692  22.744  26.820  1.00  0.00    -0.027 C 
BRANCH   6  12
ATOM     12  C   UNL A   1      30.570  23.940  26.608  1.00  0.00     0.228 C 
ATOM     13  N   UNL A   1      29.893  24.674  25.662  1.00  0.00    -0.326 N 
ATOM     14  H   UNL A   1      28.919  24.590  25.780  1.00  0.00     0.169 HD
ATOM     15  O   UNL A   1      29.861  23.260  27.366  1.00  0.00    -0.274 OA
BRANCH  13  16
ATOM     16  C   UNL A   1      30.200  25.525  24.558  1.00  0.00     0.044 A 
ATOM     17  C   UNL A   1      31.006  23.535  23.083  1.00  0.00     0.046 C 
ATOM     18  C   UNL A   1      30.704  24.986  23.344  1.00  0.00    -0.027 A 
ATOM     19  C   UNL A   1      31.062  25.848  22.274  1.00  0.00     0.006 A 
ATOM     20  C   UNL A   1      31.034  27.226  22.421  1.00  0.00     0.014 A 
ATOM     21  C   UNL A   1      30.109  26.909  24.632  1.00  0.00     0.040 A 
ATOM     22  C   UNL A   1      30.625  27.753  23.635  1.00  0.00     0.041 A 
BRANCH  22  23
ATOM     23  C   UNL A   1      30.898  29.190  23.888  1.00  0.00     0.251 C 
ATOM     24  O   UNL A   1      31.910  29.522  24.505  1.00  0.00    -0.269 OA
ATOM     25  N   UNL A   1      29.991  30.135  23.461  1.00  0.00    -0.349 N 
ATOM     26  H   UNL A   1      30.195  31.062  23.724  1.00  0.00     0.164 HD
BRANCH  25  27
ATOM     27  C   UNL A   1      28.802  29.967  22.697  1.00  0.00     0.082 C 
ATOM     28  C   UNL A   1      27.496  29.507  23.162  1.00  0.00     0.027 C 
ATOM     29  C   UNL A   1      27.692  30.978  22.929  1.00  0.00     0.027 C 
ENDBRANCH  25  27
ENDBRANCH  22  23
ENDBRANCH  13  16
ENDBRANCH   6  12
ENDBRANCH   3   5
ENDBRANCH   2   3
ENDBRANCH   1   2
BRANCH   1  30
ATOM     30  C   UNL A   1      34.100  28.555  26.442  1.00  0.00     0.275 C 
BRANCH  30  31
ATOM     31  O   UNL A   1      34.161  29.267  27.696  1.00  0.00    -0.458 OA
BRANCH  31  32
ATOM     32  C   UNL A   1      35.052  30.245  27.972  1.00  0.00     0.338 C 
ATOM     33  O   UNL A   1      34.750  31.427  28.096  1.00  0.00    -0.246 OA
BRANCH  32  34
ATOM     34  C   UNL A   1      36.422  29.805  28.205  1.00  0.00     0.060 A 
ATOM     35  C   UNL A   1      37.321  29.973  27.159  1.00  0.00     0.016 A 
ATOM     36  C   UNL A   1      36.821  29.310  29.446  1.00  0.00     0.016 A 
ATOM     37  C   UNL A   1      38.660  29.713  27.372  1.00  0.00     0.010 A 
ATOM     38  C   UNL A   1      38.146  28.951  29.620  1.00  0.00     0.010 A 
ATOM     39  C   UNL A   1      39.048  29.109  28.563  1.00  0.00    -0.014 A 
BRANCH  39  40
ATOM     40  C   UNL A   1      40.363  28.496  28.666  1.00  0.00     0.031 A 
ATOM     41  C   UNL A   1      40.494  27.008  28.522  1.00  0.00     0.074 A 
ATOM     42  C   UNL A   1      41.374  29.289  29.115  1.00  0.00     0.049 A 
ATOM     43  N   UNL A   1      41.394  26.289  29.107  1.00  0.00    -0.248 NA
ATOM     44  C   UNL A   1      39.515  26.182  27.799  1.00  0.00     0.031 C 
ATOM     45  C   UNL A   1      42.780  28.950  29.122  1.00  0.00     0.029 A 
ATOM     46  N   UNL A   1      41.332  30.505  29.850  1.00  0.00    -0.354 N 
ATOM     47  C   UNL A   1      41.324  25.016  28.557  1.00  0.00     0.074 A 
ATOM     48  C   UNL A   1      40.044  24.956  27.906  1.00  0.00     0.031 C 
ATOM     49  C   UNL A   1      43.397  29.708  30.040  1.00  0.00     0.029 A 
ATOM     50  C   UNL A   1      42.378  30.445  30.786  1.00  0.00     0.049 A 
ATOM     51  H   UNL A   1      40.694  31.245  29.728  1.00  0.00     0.167 HD
ATOM     52  C   UNL A   1      42.453  24.249  28.490  1.00  0.00     0.034 A 
ATOM     53  C   UNL A   1      42.355  30.573  32.157  1.00  0.00     0.034 A 
ATOM     54  C   UNL A   1      43.556  24.968  29.119  1.00  0.00     0.049 A 
ATOM     55  C   UNL A   1      43.155  29.412  32.763  1.00  0.00     0.074 A 
ATOM     56  C   UNL A   1      44.479  25.850  28.580  1.00  0.00     0.029 A 
ATOM     57  N   UNL A   1      43.611  25.111  30.496  1.00  0.00    -0.354 N 
ATOM     58  N   UNL A   1      43.261  28.234  32.190  1.00  0.00    -0.248 NA
ATOM     59  C   UNL A   1      43.994  29.511  33.953  1.00  0.00     0.031 C 
ATOM     60  C   UNL A   1      45.045  26.587  29.646  1.00  0.00     0.029 A 
ATOM     61  C   UNL A   1      44.483  26.133  30.829  1.00  0.00     0.049 A 
ATOM     62  H   UNL A   1      43.105  24.567  31.143  1.00  0.00     0.167 HD
ATOM     63  C   UNL A   1      44.300  27.529  32.766  1.00  0.00     0.074 A 
ATOM     64  C   UNL A   1      44.671  28.346  33.911  1.00  0.00     0.031 C 
ATOM     65  C   UNL A   1      44.838  26.388  32.214  1.00  0.00     0.034 A 
BRANCH  52  66
ATOM     66  C   UNL A   1      42.686  23.127  27.479  1.00  0.00     0.023 A 
ATOM     67  C   UNL A   1      41.964  21.924  27.682  1.00  0.00     0.012 A 
ATOM     68  C   UNL A   1      43.606  23.118  26.406  1.00  0.00     0.148 A 
ATOM     69  C   UNL A   1      42.236  20.745  26.980  1.00  0.00     0.002 A 
ATOM     70  C   UNL A   1      43.907  21.927  25.725  1.00  0.00     0.091 A 
ATOM     71  F   UNL A   1      44.160  24.269  26.009  1.00  0.00    -0.205 F 
ATOM     72  C   UNL A   1      43.235  20.736  26.024  1.00  0.00     0.022 A 
BRANCH  70  73
ATOM     73  S   UNL A   1      45.206  21.800  24.480  1.00  0.00     0.127 S 
ATOM     74  O   UNL A   1      44.807  22.828  23.516  1.00  0.00    -0.237 OA
ATOM     75  O   UNL A   1      46.410  22.122  25.244  1.00  0.00    -0.237 OA
ATOM     76  O   UNL A   1      45.143  20.438  23.965  1.00  0.00    -0.744 OA
ENDBRANCH  70  73
ENDBRANCH  52  66
BRANCH  53  77
ATOM     77  C   UNL A   1      41.404  31.519  32.879  1.00  0.00     0.023 A 
ATOM     78  C   UNL A   1      41.834  32.868  32.961  1.00  0.00     0.012 A 
ATOM     79  C   UNL A   1      40.111  31.248  33.418  1.00  0.00     0.148 A 
ATOM     80  C   UNL A   1      41.012  33.905  33.418  1.00  0.00     0.002 A 
ATOM     81  C   UNL A   1      39.267  32.306  33.842  1.00  0.00     0.091 A 
ATOM     82  F   UNL A   1      39.691  29.978  33.478  1.00  0.00    -0.205 F 
ATOM     83  C   UNL A   1      39.718  33.631  33.820  1.00  0.00     0.022 A 
BRANCH  81  84
ATOM     84  S   UNL A   1      37.515  32.127  34.291  1.00  0.00     0.127 S 
ATOM     85  O   UNL A   1      37.590  31.577  35.642  1.00  0.00    -0.237 OA
ATOM     86  O   UNL A   1      37.025  33.506  34.223  1.00  0.00    -0.237 OA
ATOM     87  O   UNL A   1      36.948  31.240  33.291  1.00  0.00    -0.744 OA
ENDBRANCH  81  84
ENDBRANCH  53  77
BRANCH  65  88
ATOM     88  C   UNL A   1      45.836  25.399  32.824  1.00  0.00     0.023 A 
ATOM     89  C   UNL A   1      47.215  25.646  32.872  1.00  0.00     0.012 A 
ATOM     90  C   UNL A   1      45.381  24.252  33.552  1.00  0.00     0.148 A 
ATOM     91  C   UNL A   1      48.088  24.818  33.595  1.00  0.00     0.002 A 
ATOM     92  C   UNL A   1      46.229  23.511  34.364  1.00  0.00     0.091 A 
ATOM     93  F   UNL A   1      44.112  23.833  33.447  1.00  0.00    -0.205 F 
ATOM     94  C   UNL A   1      47.594  23.776  34.372  1.00  0.00     0.022 A 
BRANCH  92  95
ATOM     95  S   UNL A   1      45.572  22.322  35.552  1.00  0.00     0.127 S 
ATOM     96  O   UNL A   1      46.791  21.745  36.113  1.00  0.00    -0.237 OA
ATOM     97  O   UNL A   1      44.827  23.184  36.472  1.00  0.00    -0.237 OA
ATOM     98  O   UNL A   1      44.735  21.420  34.773  1.00  0.00    -0.744 OA
ENDBRANCH  92  95
ENDBRANCH  65  88
ENDBRANCH  39  40
ENDBRANCH  32  34
ENDBRANCH  31  32
ENDBRANCH  30  31
ENDBRANCH   1  30
TORSDOF 18
ENDMDL
MODEL 3
REMARK VINA RESULT:     -12.8      2.150      4.377
REMARK SMILES Cc1ccc(C(=O)NC2CC2)cc1NC(=O)[C@@H]1[C@@H](C(=O)OCCOC(=O)c2ccc(-c3c4nc(c(-c5cccc(S(=O)(=O)[O-])c5F)c5ccc([nH]5)c(-c5cccc(S(=O)(=O)[O-])c5F)c5nc(c(-c6cccc(S(=O)(=O)[O-])c6F)c6ccc3[nH]6)C=C5)C=C4)cc2)[C@H]2C=C[C@@H]1C2
REMARK SMILES IDX 22 1 21 2 19 3 20 4 18 5 17 6 93 7 90 8 92 9 94 10 91 11
REMARK SMILES IDX 15 12 14 13 16 15 13 16 1 17 2 18 3 19 4 20 12 21 5 22 6 23
REMARK SMILES IDX 7 24 8 25 9 27 10 28 11 29 23 30 24 31 25 32 26 33 27 34
REMARK SMILES IDX 28 35 89 36 29 37 88 38 30 39 31 40 32 41 82 42 33 43 87 44
REMARK SMILES IDX 81 45 83 46 34 47 86 48 80 49 79 50 35 52 67 53 47 54 66 55
REMARK SMILES IDX 48 56 51 57 65 58 84 59 49 60 50 61 64 63 85 64 52 65 36 66
REMARK SMILES IDX 37 67 45 68 38 69 40 70 46 71 39 72 41 73 42 74 43 75 44 76
REMARK SMILES IDX 68 77 69 78 77 79 70 80 72 81 78 82 71 83 73 84 74 85 75 86
REMARK SMILES IDX 76 87 53 88 54 89 62 90 55 91 57 92 63 93 56 94 58 95 59 96
REMARK SMILES IDX 60 97 61 98
REMARK H PARENT 14 14 8 26 83 51 51 62
REMARK Flexibility Score: inf
ROOT
ATOM      1  C   UNL A   1      35.637  22.032  25.169  1.00  0.00     0.274 C 
ENDROOT
BRANCH   1   2
ATOM      2  O   UNL A   1      34.642  23.031  24.828  1.00  0.00    -0.462 OA
BRANCH   2   3
ATOM      3  C   UNL A   1      33.565  22.479  24.170  1.00  0.00     0.310 C 
ATOM      4  O   UNL A   1      33.425  21.262  24.096  1.00  0.00    -0.252 OA
BRANCH   3   5
ATOM      5  C   UNL A   1      32.668  23.485  23.430  1.00  0.00     0.119 C 
ATOM      6  C   UNL A   1      32.723  25.075  23.672  1.00  0.00     0.100 C 
ATOM      7  C   UNL A   1      31.242  25.387  24.042  1.00  0.00     0.025 C 
ATOM      8  C   UNL A   1      31.206  23.167  23.895  1.00  0.00     0.027 C 
ATOM      9  C   UNL A   1      31.032  24.883  25.441  1.00  0.00    -0.027 C 
ATOM     10  C   UNL A   1      30.457  24.327  23.265  1.00  0.00     0.017 C 
ATOM     11  C   UNL A   1      31.008  23.549  25.358  1.00  0.00    -0.027 C 
BRANCH   6  12
ATOM     12  C   UNL A   1      33.092  25.930  22.451  1.00  0.00     0.228 C 
ATOM     13  N   UNL A   1      32.598  27.184  22.173  1.00  0.00    -0.326 N 
ATOM     14  H   UNL A   1      32.921  27.505  21.300  1.00  0.00     0.169 HD
ATOM     15  O   UNL A   1      33.893  25.475  21.621  1.00  0.00    -0.274 OA
BRANCH  13  16
ATOM     16  C   UNL A   1      31.749  28.152  22.789  1.00  0.00     0.044 A 
ATOM     17  C   UNL A   1      33.371  28.485  24.799  1.00  0.00     0.046 C 
ATOM     18  C   UNL A   1      32.122  28.774  24.010  1.00  0.00    -0.027 A 
ATOM     19  C   UNL A   1      31.243  29.690  24.643  1.00  0.00     0.006 A 
ATOM     20  C   UNL A   1      29.967  29.919  24.152  1.00  0.00     0.014 A 
ATOM     21  C   UNL A   1      30.493  28.473  22.287  1.00  0.00     0.040 A 
ATOM     22  C   UNL A   1      29.569  29.246  23.009  1.00  0.00     0.041 A 
BRANCH  22  23
ATOM     23  C   UNL A   1      28.122  29.249  22.678  1.00  0.00     0.251 C 
ATOM     24  O   UNL A   1      27.371  28.428  23.204  1.00  0.00    -0.269 OA
ATOM     25  N   UNL A   1      27.643  30.149  21.751  1.00  0.00    -0.349 N 
ATOM     26  H   UNL A   1      26.690  30.050  21.523  1.00  0.00     0.164 HD
BRANCH  25  27
ATOM     27  C   UNL A   1      28.324  31.200  21.074  1.00  0.00     0.082 C 
ATOM     28  C   UNL A   1      27.759  32.437  20.540  1.00  0.00     0.027 C 
ATOM     29  C   UNL A   1      28.510  32.498  21.840  1.00  0.00     0.027 C 
ENDBRANCH  25  27
ENDBRANCH  22  23
ENDBRANCH  13  16
ENDBRANCH   6  12
ENDBRANCH   3   5
ENDBRANCH   2   3
ENDBRANCH   1   2
BRANCH   1  30
ATOM     30  C   UNL A   1      37.097  22.390  24.849  1.00  0.00     0.275 C 
BRANCH  30  31
ATOM     31  O   UNL A   1      37.665  23.517  25.550  1.00  0.00    -0.458 OA
BRANCH  31  32
ATOM     32  C   UNL A   1      38.855  23.492  26.192  1.00  0.00     0.338 C 
ATOM     33  O   UNL A   1      39.668  22.580  26.083  1.00  0.00    -0.246 OA
BRANCH  32  34
ATOM     34  C   UNL A   1      39.173  24.676  26.981  1.00  0.00     0.060 A 
ATOM     35  C   UNL A   1      38.620  24.748  28.254  1.00  0.00     0.016 A 
ATOM     36  C   UNL A   1      40.051  25.647  26.503  1.00  0.00     0.016 A 
ATOM     37  C   UNL A   1      39.004  25.771  29.098  1.00  0.00     0.010 A 
ATOM     38  C   UNL A   1      40.350  26.726  27.317  1.00  0.00     0.010 A 
ATOM     39  C   UNL A   1      39.784  26.805  28.593  1.00  0.00    -0.014 A 
BRANCH  39  40
ATOM     40  C   UNL A   1      39.894  28.053  29.333  1.00  0.00     0.031 A 
ATOM     41  C   UNL A   1      38.996  29.201  28.975  1.00  0.00     0.074 A 
ATOM     42  C   UNL A   1      40.966  28.180  30.161  1.00  0.00     0.049 A 
ATOM     43  N   UNL A   1      39.311  30.448  29.103  1.00  0.00    -0.248 NA
ATOM     44  C   UNL A   1      37.699  29.028  28.304  1.00  0.00     0.031 C 
ATOM     45  C   UNL A   1      41.177  29.242  31.120  1.00  0.00     0.029 A 
ATOM     46  N   UNL A   1      42.203  27.480  30.179  1.00  0.00    -0.354 N 
ATOM     47  C   UNL A   1      38.157  31.188  28.881  1.00  0.00     0.074 A 
ATOM     48  C   UNL A   1      37.255  30.288  28.215  1.00  0.00     0.031 C 
ATOM     49  C   UNL A   1      42.489  29.323  31.386  1.00  0.00     0.029 A 
ATOM     50  C   UNL A   1      43.197  28.427  30.472  1.00  0.00     0.049 A 
ATOM     51  H   UNL A   1      42.336  26.518  30.018  1.00  0.00     0.167 HD
ATOM     52  C   UNL A   1      37.996  32.389  29.512  1.00  0.00     0.034 A 
ATOM     53  C   UNL A   1      44.340  28.763  29.780  1.00  0.00     0.034 A 
ATOM     54  C   UNL A   1      39.195  32.683  30.290  1.00  0.00     0.049 A 
ATOM     55  C   UNL A   1      44.399  30.293  29.661  1.00  0.00     0.074 A 
ATOM     56  C   UNL A   1      39.515  32.372  31.601  1.00  0.00     0.029 A 
ATOM     57  N   UNL A   1      40.372  33.055  29.660  1.00  0.00    -0.354 N 
ATOM     58  N   UNL A   1      43.328  31.053  29.621  1.00  0.00    -0.248 NA
ATOM     59  C   UNL A   1      45.622  31.084  29.718  1.00  0.00     0.031 C 
ATOM     60  C   UNL A   1      40.918  32.487  31.742  1.00  0.00     0.029 A 
ATOM     61  C   UNL A   1      41.441  32.893  30.524  1.00  0.00     0.049 A 
ATOM     62  H   UNL A   1      40.439  33.385  28.734  1.00  0.00     0.167 HD
ATOM     63  C   UNL A   1      43.682  32.366  29.867  1.00  0.00     0.074 A 
ATOM     64  C   UNL A   1      45.136  32.336  29.844  1.00  0.00     0.031 C 
ATOM     65  C   UNL A   1      42.769  33.353  30.161  1.00  0.00     0.034 A 
BRANCH  52  66
ATOM     66  C   UNL A   1      36.648  33.038  29.820  1.00  0.00     0.023 A 
ATOM     67  C   UNL A   1      36.021  33.742  28.761  1.00  0.00     0.012 A 
ATOM     68  C   UNL A   1      35.988  33.092  31.069  1.00  0.00     0.148 A 
ATOM     69  C   UNL A   1      34.907  34.567  28.949  1.00  0.00     0.002 A 
ATOM     70  C   UNL A   1      34.892  33.947  31.269  1.00  0.00     0.091 A 
ATOM     71  F   UNL A   1      36.387  32.281  32.055  1.00  0.00    -0.205 F 
ATOM     72  C   UNL A   1      34.363  34.700  30.214  1.00  0.00     0.022 A 
BRANCH  70  73
ATOM     73  S   UNL A   1      34.124  34.211  32.879  1.00  0.00     0.127 S 
ATOM     74  O   UNL A   1      35.279  34.537  33.719  1.00  0.00    -0.237 OA
ATOM     75  O   UNL A   1      33.225  35.334  32.623  1.00  0.00    -0.237 OA
ATOM     76  O   UNL A   1      33.467  32.956  33.226  1.00  0.00    -0.744 OA
ENDBRANCH  70  73
ENDBRANCH  52  66
BRANCH  53  77
ATOM     77  C   UNL A   1      45.163  27.741  29.006  1.00  0.00     0.023 A 
ATOM     78  C   UNL A   1      46.011  26.922  29.795  1.00  0.00     0.012 A 
ATOM     79  C   UNL A   1      45.144  27.448  27.611  1.00  0.00     0.148 A 
ATOM     80  C   UNL A   1      46.693  25.813  29.282  1.00  0.00     0.002 A 
ATOM     81  C   UNL A   1      45.803  26.301  27.102  1.00  0.00     0.091 A 
ATOM     82  F   UNL A   1      44.455  28.255  26.792  1.00  0.00    -0.205 F 
ATOM     83  C   UNL A   1      46.559  25.479  27.946  1.00  0.00     0.022 A 
BRANCH  81  84
ATOM     84  S   UNL A   1      45.636  25.667  25.407  1.00  0.00     0.127 S 
ATOM     85  O   UNL A   1      46.430  24.441  25.448  1.00  0.00    -0.237 OA
ATOM     86  O   UNL A   1      44.192  25.451  25.287  1.00  0.00    -0.237 OA
ATOM     87  O   UNL A   1      46.159  26.715  24.549  1.00  0.00    -0.744 OA
ENDBRANCH  81  84
ENDBRANCH  53  77
BRANCH  65  88
ATOM     88  C   UNL A   1      42.982  34.867  30.255  1.00  0.00     0.023 A 
ATOM     89  C   UNL A   1      43.479  35.494  31.407  1.00  0.00     0.012 A 
ATOM     90  C   UNL A   1      42.863  35.699  29.094  1.00  0.00     0.148 A 
ATOM     91  C   UNL A   1      43.838  36.851  31.412  1.00  0.00     0.002 A 
ATOM     92  C   UNL A   1      43.335  37.005  29.071  1.00  0.00     0.091 A 
ATOM     93  F   UNL A   1      42.255  35.248  27.988  1.00  0.00    -0.205 F 
ATOM     94  C   UNL A   1      43.806  37.595  30.238  1.00  0.00     0.022 A 
BRANCH  92  95
ATOM     95  S   UNL A   1      43.522  37.897  27.514  1.00  0.00     0.127 S 
ATOM     96  O   UNL A   1      44.065  39.178  27.959  1.00  0.00    -0.237 OA
ATOM     97  O   UNL A   1      44.470  37.052  26.785  1.00  0.00    -0.237 OA
ATOM     98  O   UNL A   1      42.188  37.935  26.929  1.00  0.00    -0.744 OA
ENDBRANCH  92  95
ENDBRANCH  65  88
ENDBRANCH  39  40
ENDBRANCH  32  34
ENDBRANCH  31  32
ENDBRANCH  30  31
ENDBRANCH   1  30
TORSDOF 18
ENDMDL
