MODEL 1
REMARK VINA RESULT:     -11.7      0.000      0.000
REMARK SMILES COc1ccc(-c2noc(CC(=O)OCCOC(=O)c3ccc(-c4c5nc(c(-c6cccc(S(=O)(=O)[O-])c6F)c6ccc([nH]6)c(-c6cccc(S(=O)(=O)[O-])c6F)c6nc(c(-c7cccc(S(=O)(=O)[O-])c7F)c7ccc4[nH]7)C=C6)C=C5)cc3)c2-c2ccc(OC)cc2)cc1
REMARK SMILES IDX 15 1 14 2 12 3 13 4 11 5 10 6 7 7 8 8 83 9 9 10 6 11 3 12
REMARK SMILES IDX 4 13 93 14 5 15 92 16 2 17 1 18 84 19 85 20 91 21 86 22
REMARK SMILES IDX 90 23 87 24 88 25 89 26 16 27 17 28 18 29 19 30 20 31 21 32
REMARK SMILES IDX 82 33 22 34 81 35 23 36 24 37 25 38 75 39 26 40 80 41 74 42
REMARK SMILES IDX 76 43 27 44 79 45 73 46 72 47 28 49 60 50 40 51 59 52 41 53
REMARK SMILES IDX 44 54 58 55 77 56 42 57 43 58 57 60 78 61 45 62 29 63 30 64
REMARK SMILES IDX 38 65 31 66 33 67 39 68 32 69 34 70 35 71 36 72 37 73 61 74
REMARK SMILES IDX 62 75 70 76 63 77 65 78 71 79 64 80 66 81 67 82 68 83 69 84
REMARK SMILES IDX 46 85 47 86 55 87 48 88 50 89 56 90 49 91 51 92 52 93 53 94
REMARK SMILES IDX 54 95
REMARK H PARENT 76 48 44 59
REMARK Flexibility Score: inf
ROOT
ATOM      1  C   UNL A   1      34.611  21.117  25.008  1.00  0.00     0.274 C 
ENDROOT
BRANCH   1   2
ATOM      2  O   UNL A   1      34.159  21.640  26.272  1.00  0.00    -0.462 OA
BRANCH   2   3
ATOM      3  C   UNL A   1      33.241  22.637  26.192  1.00  0.00     0.313 C 
ATOM      4  O   UNL A   1      32.260  22.734  26.927  1.00  0.00    -0.252 OA
BRANCH   3   5
ATOM      5  C   UNL A   1      33.443  23.587  25.047  1.00  0.00     0.201 C 
BRANCH   5   6
ATOM      6  C   UNL A   1      32.230  24.270  24.542  1.00  0.00     0.156 A 
ATOM      7  C   UNL A   1      30.613  25.608  23.824  1.00  0.00     0.122 A 
ATOM      8  N   UNL A   1      30.381  24.407  23.274  1.00  0.00    -0.079 NA
ATOM      9  C   UNL A   1      31.758  25.558  24.662  1.00  0.00     0.053 A 
ATOM     10  O   UNL A   1      31.408  23.581  23.705  1.00  0.00    -0.359 OA
BRANCH   7  11
ATOM     11  C   UNL A   1      29.792  26.773  23.529  1.00  0.00     0.005 A 
ATOM     12  C   UNL A   1      28.139  28.935  22.835  1.00  0.00     0.118 A 
ATOM     13  C   UNL A   1      29.497  28.945  22.507  1.00  0.00     0.047 A 
ATOM     14  C   UNL A   1      27.607  27.841  23.516  1.00  0.00     0.047 A 
ATOM     15  C   UNL A   1      30.327  27.878  22.863  1.00  0.00     0.014 A 
ATOM     16  C   UNL A   1      28.431  26.765  23.861  1.00  0.00     0.014 A 
BRANCH  12  17
ATOM     17  O   UNL A   1      27.428  30.025  22.414  1.00  0.00    -0.497 OA
ATOM     18  C   UNL A   1      28.181  31.053  21.781  1.00  0.00     0.278 C 
ENDBRANCH  12  17
ENDBRANCH   7  11
BRANCH   9  19
ATOM     19  C   UNL A   1      32.385  26.568  25.478  1.00  0.00    -0.012 A 
ATOM     20  C   UNL A   1      33.580  27.156  25.060  1.00  0.00     0.013 A 
ATOM     21  C   UNL A   1      31.780  26.991  26.666  1.00  0.00     0.013 A 
ATOM     22  C   UNL A   1      34.143  28.189  25.809  1.00  0.00     0.047 A 
ATOM     23  C   UNL A   1      32.345  28.029  27.410  1.00  0.00     0.047 A 
ATOM     24  C   UNL A   1      33.520  28.644  26.975  1.00  0.00     0.118 A 
BRANCH  24  25
ATOM     25  O   UNL A   1      34.153  29.683  27.598  1.00  0.00    -0.497 OA
ATOM     26  C   UNL A   1      35.558  29.547  27.775  1.00  0.00     0.278 C 
ENDBRANCH  24  25
ENDBRANCH   9  19
ENDBRANCH   5   6
ENDBRANCH   3   5
ENDBRANCH   2   3
ENDBRANCH   1   2
BRANCH   1  27
ATOM     27  C   UNL A   1      36.114  20.840  25.003  1.00  0.00     0.275 C 
BRANCH  27  28
ATOM     28  O   UNL A   1      36.825  21.763  25.846  1.00  0.00    -0.458 OA
BRANCH  28  29
ATOM     29  C   UNL A   1      38.168  21.601  25.864  1.00  0.00     0.338 C 
ATOM     30  O   UNL A   1      38.808  20.687  25.376  1.00  0.00    -0.246 OA
BRANCH  29  31
ATOM     31  C   UNL A   1      38.805  22.756  26.515  1.00  0.00     0.060 A 
ATOM     32  C   UNL A   1      38.282  24.029  26.276  1.00  0.00     0.016 A 
ATOM     33  C   UNL A   1      39.990  22.595  27.231  1.00  0.00     0.016 A 
ATOM     34  C   UNL A   1      38.960  25.157  26.734  1.00  0.00     0.010 A 
ATOM     35  C   UNL A   1      40.667  23.728  27.694  1.00  0.00     0.010 A 
ATOM     36  C   UNL A   1      40.172  25.016  27.422  1.00  0.00    -0.014 A 
BRANCH  36  37
ATOM     37  C   UNL A   1      40.969  26.219  27.766  1.00  0.00     0.031 A 
ATOM     38  C   UNL A   1      40.335  27.325  28.566  1.00  0.00     0.074 A 
ATOM     39  C   UNL A   1      42.252  26.319  27.372  1.00  0.00     0.049 A 
ATOM     40  N   UNL A   1      40.837  28.479  28.921  1.00  0.00    -0.248 NA
ATOM     41  C   UNL A   1      38.954  27.103  29.023  1.00  0.00     0.031 C 
ATOM     42  C   UNL A   1      42.978  25.313  26.598  1.00  0.00     0.029 A 
ATOM     43  N   UNL A   1      43.166  27.327  27.553  1.00  0.00    -0.354 N 
ATOM     44  C   UNL A   1      39.821  29.140  29.601  1.00  0.00     0.074 A 
ATOM     45  C   UNL A   1      38.675  28.257  29.612  1.00  0.00     0.031 C 
ATOM     46  C   UNL A   1      44.223  25.759  26.360  1.00  0.00     0.029 A 
ATOM     47  C   UNL A   1      44.373  27.091  26.940  1.00  0.00     0.049 A 
ATOM     48  H   UNL A   1      42.975  28.141  28.074  1.00  0.00     0.167 HD
ATOM     49  C   UNL A   1      39.845  30.363  30.181  1.00  0.00     0.034 A 
ATOM     50  C   UNL A   1      45.471  27.868  26.845  1.00  0.00     0.034 A 
ATOM     51  C   UNL A   1      41.000  31.220  30.216  1.00  0.00     0.049 A 
ATOM     52  C   UNL A   1      45.479  29.214  27.521  1.00  0.00     0.074 A 
ATOM     53  C   UNL A   1      41.133  32.465  30.805  1.00  0.00     0.029 A 
ATOM     54  N   UNL A   1      42.228  30.913  29.647  1.00  0.00    -0.354 N 
ATOM     55  N   UNL A   1      44.540  29.784  28.237  1.00  0.00    -0.248 NA
ATOM     56  C   UNL A   1      46.709  30.010  27.402  1.00  0.00     0.031 C 
ATOM     57  C   UNL A   1      42.443  32.912  30.593  1.00  0.00     0.029 A 
ATOM     58  C   UNL A   1      43.125  31.942  29.877  1.00  0.00     0.049 A 
ATOM     59  H   UNL A   1      42.430  30.087  29.152  1.00  0.00     0.167 HD
ATOM     60  C   UNL A   1      45.074  30.988  28.679  1.00  0.00     0.074 A 
ATOM     61  C   UNL A   1      46.429  31.056  28.167  1.00  0.00     0.031 C 
ATOM     62  C   UNL A   1      44.490  31.961  29.420  1.00  0.00     0.034 A 
BRANCH  49  63
ATOM     63  C   UNL A   1      38.591  30.835  30.864  1.00  0.00     0.023 A 
ATOM     64  C   UNL A   1      38.360  30.478  32.208  1.00  0.00     0.012 A 
ATOM     65  C   UNL A   1      37.667  31.665  30.201  1.00  0.00     0.148 A 
ATOM     66  C   UNL A   1      37.217  30.921  32.873  1.00  0.00     0.002 A 
ATOM     67  C   UNL A   1      36.548  32.131  30.881  1.00  0.00     0.091 A 
ATOM     68  F   UNL A   1      37.889  31.970  28.914  1.00  0.00    -0.205 F 
ATOM     69  C   UNL A   1      36.318  31.754  32.214  1.00  0.00     0.022 A 
BRANCH  67  70
ATOM     70  S   UNL A   1      35.372  33.264  30.130  1.00  0.00     0.127 S 
ATOM     71  O   UNL A   1      36.250  34.113  29.327  1.00  0.00    -0.237 OA
ATOM     72  O   UNL A   1      34.520  32.364  29.354  1.00  0.00    -0.237 OA
ATOM     73  O   UNL A   1      34.696  33.924  31.240  1.00  0.00    -0.744 OA
ENDBRANCH  67  70
ENDBRANCH  49  63
BRANCH  50  74
ATOM     74  C   UNL A   1      46.675  27.361  26.129  1.00  0.00     0.023 A 
ATOM     75  C   UNL A   1      46.813  27.611  24.749  1.00  0.00     0.012 A 
ATOM     76  C   UNL A   1      47.698  26.669  26.806  1.00  0.00     0.148 A 
ATOM     77  C   UNL A   1      47.937  27.163  24.054  1.00  0.00     0.002 A 
ATOM     78  C   UNL A   1      48.838  26.272  26.119  1.00  0.00     0.091 A 
ATOM     79  F   UNL A   1      47.538  26.416  28.114  1.00  0.00    -0.205 F 
ATOM     80  C   UNL A   1      48.954  26.506  24.740  1.00  0.00     0.022 A 
BRANCH  78  81
ATOM     81  S   UNL A   1      50.249  25.542  26.959  1.00  0.00     0.127 S 
ATOM     82  O   UNL A   1      50.595  26.580  27.925  1.00  0.00    -0.237 OA
ATOM     83  O   UNL A   1      49.671  24.329  27.538  1.00  0.00    -0.237 OA
ATOM     84  O   UNL A   1      51.229  25.289  25.910  1.00  0.00    -0.744 OA
ENDBRANCH  78  81
ENDBRANCH  50  74
BRANCH  62  85
ATOM     85  C   UNL A   1      45.317  33.174  29.753  1.00  0.00     0.023 A 
ATOM     86  C   UNL A   1      46.067  33.197  30.946  1.00  0.00     0.012 A 
ATOM     87  C   UNL A   1      45.412  34.255  28.856  1.00  0.00     0.148 A 
ATOM     88  C   UNL A   1      46.878  34.288  31.252  1.00  0.00     0.002 A 
ATOM     89  C   UNL A   1      46.252  35.324  29.150  1.00  0.00     0.091 A 
ATOM     90  F   UNL A   1      44.673  34.229  27.737  1.00  0.00    -0.205 F 
ATOM     91  C   UNL A   1      46.980  35.345  30.350  1.00  0.00     0.022 A 
BRANCH  89  92
ATOM     92  S   UNL A   1      46.496  36.678  27.995  1.00  0.00     0.127 S 
ATOM     93  O   UNL A   1      47.469  37.506  28.702  1.00  0.00    -0.237 OA
ATOM     94  O   UNL A   1      47.022  35.998  26.809  1.00  0.00    -0.237 OA
ATOM     95  O   UNL A   1      45.176  37.269  27.806  1.00  0.00    -0.744 OA
ENDBRANCH  89  92
ENDBRANCH  62  85
ENDBRANCH  36  37
ENDBRANCH  29  31
ENDBRANCH  28  29
ENDBRANCH  27  28
ENDBRANCH   1  27
TORSDOF 19
ENDMDL
MODEL 2
REMARK VINA RESULT:     -11.6      5.068      9.882
REMARK SMILES COc1ccc(-c2noc(CC(=O)OCCOC(=O)c3ccc(-c4c5nc(c(-c6cccc(S(=O)(=O)[O-])c6F)c6ccc([nH]6)c(-c6cccc(S(=O)(=O)[O-])c6F)c6nc(c(-c7cccc(S(=O)(=O)[O-])c7F)c7ccc4[nH]7)C=C6)C=C5)cc3)c2-c2ccc(OC)cc2)cc1
REMARK SMILES IDX 15 1 14 2 12 3 13 4 11 5 10 6 7 7 8 8 83 9 9 10 6 11 3 12
REMARK SMILES IDX 4 13 93 14 5 15 92 16 2 17 1 18 84 19 85 20 91 21 86 22
REMARK SMILES IDX 90 23 87 24 88 25 89 26 16 27 17 28 18 29 19 30 20 31 21 32
REMARK SMILES IDX 82 33 22 34 81 35 23 36 24 37 25 38 75 39 26 40 80 41 74 42
REMARK SMILES IDX 76 43 27 44 79 45 73 46 72 47 28 49 60 50 40 51 59 52 41 53
REMARK SMILES IDX 44 54 58 55 77 56 42 57 43 58 57 60 78 61 45 62 29 63 30 64
REMARK SMILES IDX 38 65 31 66 33 67 39 68 32 69 34 70 35 71 36 72 37 73 61 74
REMARK SMILES IDX 62 75 70 76 63 77 65 78 71 79 64 80 66 81 67 82 68 83 69 84
REMARK SMILES IDX 46 85 47 86 55 87 48 88 50 89 56 90 49 91 51 92 52 93 53 94
REMARK SMILES IDX 54 95
REMARK H PARENT 76 48 44 59
REMARK Flexibility Score: inf
ROOT
ATOM      1  C   UNL A   1      31.864  28.795  26.785  1.00  0.00     0.274 C 
ENDROOT
BRANCH   1   2
ATOM      2  O   UNL A   1      32.011  28.249  25.461  1.00  0.00    -0.462 OA
BRANCH   2   3
ATOM      3  C   UNL A   1      31.952  26.894  25.382  1.00  0.00     0.313 C 
ATOM      4  O   UNL A   1      31.656  26.161  26.322  1.00  0.00    -0.252 OA
BRANCH   3   5
ATOM      5  C   UNL A   1      32.386  26.321  24.063  1.00  0.00     0.201 C 
BRANCH   5   6
ATOM      6  C   UNL A   1      32.112  24.881  23.854  1.00  0.00     0.156 A 
ATOM      7  C   UNL A   1      31.973  22.669  23.791  1.00  0.00     0.122 A 
ATOM      8  N   UNL A   1      30.767  23.133  23.433  1.00  0.00    -0.079 NA
ATOM      9  C   UNL A   1      32.867  23.745  24.036  1.00  0.00     0.053 A 
ATOM     10  O   UNL A   1      30.851  24.516  23.497  1.00  0.00    -0.359 OA
BRANCH   7  11
ATOM     11  C   UNL A   1      32.252  21.248  23.933  1.00  0.00     0.005 A 
ATOM     12  C   UNL A   1      32.627  18.476  24.187  1.00  0.00     0.118 A 
ATOM     13  C   UNL A   1      32.674  19.305  25.311  1.00  0.00     0.047 A 
ATOM     14  C   UNL A   1      32.396  19.036  22.931  1.00  0.00     0.047 A 
ATOM     15  C   UNL A   1      32.502  20.687  25.187  1.00  0.00     0.014 A 
ATOM     16  C   UNL A   1      32.209  20.416  22.806  1.00  0.00     0.014 A 
BRANCH  12  17
ATOM     17  O   UNL A   1      32.788  17.140  24.439  1.00  0.00    -0.497 OA
ATOM     18  C   UNL A   1      33.662  16.442  23.560  1.00  0.00     0.278 C 
ENDBRANCH  12  17
ENDBRANCH   7  11
BRANCH   9  19
ATOM     19  C   UNL A   1      34.258  23.759  24.417  1.00  0.00    -0.012 A 
ATOM     20  C   UNL A   1      34.615  24.061  25.732  1.00  0.00     0.013 A 
ATOM     21  C   UNL A   1      35.247  23.431  23.485  1.00  0.00     0.013 A 
ATOM     22  C   UNL A   1      35.954  23.997  26.118  1.00  0.00     0.047 A 
ATOM     23  C   UNL A   1      36.585  23.363  23.878  1.00  0.00     0.047 A 
ATOM     24  C   UNL A   1      36.941  23.628  25.201  1.00  0.00     0.118 A 
BRANCH  24  25
ATOM     25  O   UNL A   1      38.208  23.569  25.713  1.00  0.00    -0.497 OA
ATOM     26  C   UNL A   1      38.460  24.368  26.862  1.00  0.00     0.278 C 
ENDBRANCH  24  25
ENDBRANCH   9  19
ENDBRANCH   5   6
ENDBRANCH   3   5
ENDBRANCH   2   3
ENDBRANCH   1   2
BRANCH   1  27
ATOM     27  C   UNL A   1      31.977  30.319  26.797  1.00  0.00     0.275 C 
BRANCH  27  28
ATOM     28  O   UNL A   1      33.317  30.752  26.501  1.00  0.00    -0.458 OA
BRANCH  28  29
ATOM     29  C   UNL A   1      33.832  31.649  27.373  1.00  0.00     0.338 C 
ATOM     30  O   UNL A   1      33.287  32.643  27.819  1.00  0.00    -0.246 OA
BRANCH  29  31
ATOM     31  C   UNL A   1      35.174  31.223  27.797  1.00  0.00     0.060 A 
ATOM     32  C   UNL A   1      35.409  29.863  28.007  1.00  0.00     0.016 A 
ATOM     33  C   UNL A   1      36.143  32.171  28.125  1.00  0.00     0.016 A 
ATOM     34  C   UNL A   1      36.610  29.441  28.572  1.00  0.00     0.010 A 
ATOM     35  C   UNL A   1      37.351  31.747  28.689  1.00  0.00     0.010 A 
ATOM     36  C   UNL A   1      37.579  30.382  28.943  1.00  0.00    -0.014 A 
BRANCH  36  37
ATOM     37  C   UNL A   1      38.784  29.946  29.689  1.00  0.00     0.031 A 
ATOM     38  C   UNL A   1      39.699  28.916  29.083  1.00  0.00     0.074 A 
ATOM     39  C   UNL A   1      39.062  30.470  30.897  1.00  0.00     0.049 A 
ATOM     40  N   UNL A   1      40.767  28.359  29.591  1.00  0.00    -0.248 NA
ATOM     41  C   UNL A   1      39.365  28.451  27.727  1.00  0.00     0.031 C 
ATOM     42  C   UNL A   1      38.256  31.477  31.586  1.00  0.00     0.029 A 
ATOM     43  N   UNL A   1      40.093  30.212  31.767  1.00  0.00    -0.354 N 
ATOM     44  C   UNL A   1      41.206  27.445  28.640  1.00  0.00     0.074 A 
ATOM     45  C   UNL A   1      40.290  27.523  27.523  1.00  0.00     0.031 C 
ATOM     46  C   UNL A   1      38.816  31.744  32.778  1.00  0.00     0.029 A 
ATOM     47  C   UNL A   1      40.002  30.908  32.949  1.00  0.00     0.049 A 
ATOM     48  H   UNL A   1      40.827  29.588  31.563  1.00  0.00     0.167 HD
ATOM     49  C   UNL A   1      42.284  26.627  28.685  1.00  0.00     0.034 A 
ATOM     50  C   UNL A   1      40.779  30.866  34.049  1.00  0.00     0.034 A 
ATOM     51  C   UNL A   1      43.224  26.585  29.773  1.00  0.00     0.049 A 
ATOM     52  C   UNL A   1      41.987  29.966  34.061  1.00  0.00     0.074 A 
ATOM     53  C   UNL A   1      44.364  25.811  29.898  1.00  0.00     0.029 A 
ATOM     54  N   UNL A   1      43.138  27.360  30.921  1.00  0.00    -0.354 N 
ATOM     55  N   UNL A   1      42.437  29.176  33.116  1.00  0.00    -0.248 NA
ATOM     56  C   UNL A   1      42.811  29.975  35.279  1.00  0.00     0.031 C 
ATOM     57  C   UNL A   1      44.970  26.120  31.122  1.00  0.00     0.029 A 
ATOM     58  C   UNL A   1      44.209  27.088  31.755  1.00  0.00     0.049 A 
ATOM     59  H   UNL A   1      42.421  28.007  31.113  1.00  0.00     0.167 HD
ATOM     60  C   UNL A   1      43.610  28.618  33.612  1.00  0.00     0.074 A 
ATOM     61  C   UNL A   1      43.812  29.177  34.933  1.00  0.00     0.031 C 
ATOM     62  C   UNL A   1      44.432  27.707  33.036  1.00  0.00     0.034 A 
BRANCH  49  63
ATOM     63  C   UNL A   1      42.530  25.734  27.500  1.00  0.00     0.023 A 
ATOM     64  C   UNL A   1      43.214  26.246  26.379  1.00  0.00     0.012 A 
ATOM     65  C   UNL A   1      42.133  24.383  27.509  1.00  0.00     0.148 A 
ATOM     66  C   UNL A   1      43.476  25.435  25.276  1.00  0.00     0.002 A 
ATOM     67  C   UNL A   1      42.428  23.571  26.420  1.00  0.00     0.091 A 
ATOM     68  F   UNL A   1      41.458  23.922  28.572  1.00  0.00    -0.205 F 
ATOM     69  C   UNL A   1      43.093  24.097  25.300  1.00  0.00     0.022 A 
BRANCH  67  70
ATOM     70  S   UNL A   1      42.032  21.818  26.396  1.00  0.00     0.127 S 
ATOM     71  O   UNL A   1      40.603  21.841  26.094  1.00  0.00    -0.237 OA
ATOM     72  O   UNL A   1      42.877  21.321  25.310  1.00  0.00    -0.237 OA
ATOM     73  O   UNL A   1      42.392  21.315  27.716  1.00  0.00    -0.744 OA
ENDBRANCH  67  70
ENDBRANCH  49  63
BRANCH  50  74
ATOM     74  C   UNL A   1      40.470  31.751  35.207  1.00  0.00     0.023 A 
ATOM     75  C   UNL A   1      41.260  32.895  35.431  1.00  0.00     0.012 A 
ATOM     76  C   UNL A   1      39.383  31.490  36.063  1.00  0.00     0.148 A 
ATOM     77  C   UNL A   1      40.986  33.752  36.498  1.00  0.00     0.002 A 
ATOM     78  C   UNL A   1      39.082  32.375  37.091  1.00  0.00     0.091 A 
ATOM     79  F   UNL A   1      38.657  30.382  35.851  1.00  0.00    -0.205 F 
ATOM     80  C   UNL A   1      39.891  33.499  37.319  1.00  0.00     0.022 A 
BRANCH  78  81
ATOM     81  S   UNL A   1      37.611  32.191  38.106  1.00  0.00     0.127 S 
ATOM     82  O   UNL A   1      36.651  33.034  37.400  1.00  0.00    -0.237 OA
ATOM     83  O   UNL A   1      37.351  30.753  38.017  1.00  0.00    -0.237 OA
ATOM     84  O   UNL A   1      38.005  32.641  39.435  1.00  0.00    -0.744 OA
ENDBRANCH  78  81
ENDBRANCH  50  74
BRANCH  62  85
ATOM     85  C   UNL A   1      45.646  27.275  33.813  1.00  0.00     0.023 A 
ATOM     86  C   UNL A   1      46.860  27.971  33.647  1.00  0.00     0.012 A 
ATOM     87  C   UNL A   1      45.570  26.235  34.759  1.00  0.00     0.148 A 
ATOM     88  C   UNL A   1      47.985  27.621  34.392  1.00  0.00     0.002 A 
ATOM     89  C   UNL A   1      46.686  25.916  35.526  1.00  0.00     0.091 A 
ATOM     90  F   UNL A   1      44.414  25.567  34.888  1.00  0.00    -0.205 F 
ATOM     91  C   UNL A   1      47.896  26.603  35.339  1.00  0.00     0.022 A 
BRANCH  89  92
ATOM     92  S   UNL A   1      46.616  24.673  36.821  1.00  0.00     0.127 S 
ATOM     93  O   UNL A   1      47.920  24.831  37.461  1.00  0.00    -0.237 OA
ATOM     94  O   UNL A   1      45.482  25.118  37.633  1.00  0.00    -0.237 OA
ATOM     95  O   UNL A   1      46.394  23.407  36.132  1.00  0.00    -0.744 OA
ENDBRANCH  89  92
ENDBRANCH  62  85
ENDBRANCH  36  37
ENDBRANCH  29  31
ENDBRANCH  28  29
ENDBRANCH  27  28
ENDBRANCH   1  27
TORSDOF 19
ENDMDL
MODEL 3
REMARK VINA RESULT:     -11.6      4.559      7.670
REMARK SMILES COc1ccc(-c2noc(CC(=O)OCCOC(=O)c3ccc(-c4c5nc(c(-c6cccc(S(=O)(=O)[O-])c6F)c6ccc([nH]6)c(-c6cccc(S(=O)(=O)[O-])c6F)c6nc(c(-c7cccc(S(=O)(=O)[O-])c7F)c7ccc4[nH]7)C=C6)C=C5)cc3)c2-c2ccc(OC)cc2)cc1
REMARK SMILES IDX 15 1 14 2 12 3 13 4 11 5 10 6 7 7 8 8 83 9 9 10 6 11 3 12
REMARK SMILES IDX 4 13 93 14 5 15 92 16 2 17 1 18 84 19 85 20 91 21 86 22
REMARK SMILES IDX 90 23 87 24 88 25 89 26 16 27 17 28 18 29 19 30 20 31 21 32
REMARK SMILES IDX 82 33 22 34 81 35 23 36 24 37 25 38 75 39 26 40 80 41 74 42
REMARK SMILES IDX 76 43 27 44 79 45 73 46 72 47 28 49 60 50 40 51 59 52 41 53
REMARK SMILES IDX 44 54 58 55 77 56 42 57 43 58 57 60 78 61 45 62 29 63 30 64
REMARK SMILES IDX 38 65 31 66 33 67 39 68 32 69 34 70 35 71 36 72 37 73 61 74
REMARK SMILES IDX 62 75 70 76 63 77 65 78 71 79 64 80 66 81 67 82 68 83 69 84
REMARK SMILES IDX 46 85 47 86 55 87 48 88 50 89 56 90 49 91 51 92 52 93 53 94
REMARK SMILES IDX 54 95
REMARK H PARENT 76 48 44 59
REMARK Flexibility Score: inf
ROOT
ATOM      1  C   UNL A   1      31.785  28.706  26.604  1.00  0.00     0.274 C 
ENDROOT
BRANCH   1   2
ATOM      2  O   UNL A   1      32.193  28.122  25.352  1.00  0.00    -0.462 OA
BRANCH   2   3
ATOM      3  C   UNL A   1      32.200  26.765  25.320  1.00  0.00     0.313 C 
ATOM      4  O   UNL A   1      31.954  26.050  26.289  1.00  0.00    -0.252 OA
BRANCH   3   5
ATOM      5  C   UNL A   1      32.645  26.168  24.015  1.00  0.00     0.201 C 
BRANCH   5   6
ATOM      6  C   UNL A   1      32.332  24.735  23.811  1.00  0.00     0.156 A 
ATOM      7  C   UNL A   1      32.128  22.528  23.763  1.00  0.00     0.122 A 
ATOM      8  N   UNL A   1      30.946  23.024  23.371  1.00  0.00    -0.079 NA
ATOM      9  C   UNL A   1      33.048  23.578  24.021  1.00  0.00     0.053 A 
ATOM     10  O   UNL A   1      31.070  24.405  23.426  1.00  0.00    -0.359 OA
BRANCH   7  11
ATOM     11  C   UNL A   1      32.360  21.100  23.924  1.00  0.00     0.005 A 
ATOM     12  C   UNL A   1      32.643  18.322  24.229  1.00  0.00     0.118 A 
ATOM     13  C   UNL A   1      32.826  19.179  25.318  1.00  0.00     0.047 A 
ATOM     14  C   UNL A   1      32.320  18.857  22.983  1.00  0.00     0.047 A 
ATOM     15  C   UNL A   1      32.702  20.564  25.167  1.00  0.00     0.014 A 
ATOM     16  C   UNL A   1      32.179  20.240  22.832  1.00  0.00     0.014 A 
BRANCH  12  17
ATOM     17  O   UNL A   1      32.771  16.988  24.507  1.00  0.00    -0.497 OA
ATOM     18  C   UNL A   1      33.702  16.272  23.705  1.00  0.00     0.278 C 
ENDBRANCH  12  17
ENDBRANCH   7  11
BRANCH   9  19
ATOM     19  C   UNL A   1      34.428  23.554  24.437  1.00  0.00    -0.012 A 
ATOM     20  C   UNL A   1      34.754  23.766  25.777  1.00  0.00     0.013 A 
ATOM     21  C   UNL A   1      35.438  23.278  23.510  1.00  0.00     0.013 A 
ATOM     22  C   UNL A   1      36.083  23.663  26.191  1.00  0.00     0.047 A 
ATOM     23  C   UNL A   1      36.765  23.171  23.930  1.00  0.00     0.047 A 
ATOM     24  C   UNL A   1      37.090  23.346  25.276  1.00  0.00     0.118 A 
BRANCH  24  25
ATOM     25  O   UNL A   1      38.343  23.241  25.814  1.00  0.00    -0.497 OA
ATOM     26  C   UNL A   1      38.829  24.385  26.505  1.00  0.00     0.278 C 
ENDBRANCH  24  25
ENDBRANCH   9  19
ENDBRANCH   5   6
ENDBRANCH   3   5
ENDBRANCH   2   3
ENDBRANCH   1   2
BRANCH   1  27
ATOM     27  C   UNL A   1      31.756  30.233  26.546  1.00  0.00     0.275 C 
BRANCH  27  28
ATOM     28  O   UNL A   1      33.052  30.775  26.240  1.00  0.00    -0.458 OA
BRANCH  28  29
ATOM     29  C   UNL A   1      33.547  31.627  27.169  1.00  0.00     0.338 C 
ATOM     30  O   UNL A   1      33.002  32.612  27.633  1.00  0.00    -0.246 OA
BRANCH  29  31
ATOM     31  C   UNL A   1      34.863  31.159  27.629  1.00  0.00     0.060 A 
ATOM     32  C   UNL A   1      35.053  29.789  27.829  1.00  0.00     0.016 A 
ATOM     33  C   UNL A   1      35.848  32.075  27.997  1.00  0.00     0.016 A 
ATOM     34  C   UNL A   1      36.224  29.328  28.426  1.00  0.00     0.010 A 
ATOM     35  C   UNL A   1      37.025  31.610  28.592  1.00  0.00     0.010 A 
ATOM     36  C   UNL A   1      37.207  30.237  28.837  1.00  0.00    -0.014 A 
BRANCH  36  37
ATOM     37  C   UNL A   1      38.377  29.758  29.614  1.00  0.00     0.031 A 
ATOM     38  C   UNL A   1      38.533  30.175  31.052  1.00  0.00     0.074 A 
ATOM     39  C   UNL A   1      39.289  28.953  29.040  1.00  0.00     0.049 A 
ATOM     40  N   UNL A   1      39.506  29.916  31.885  1.00  0.00    -0.248 NA
ATOM     41  C   UNL A   1      37.452  30.993  31.625  1.00  0.00     0.031 C 
ATOM     42  C   UNL A   1      39.244  28.477  27.657  1.00  0.00     0.029 A 
ATOM     43  N   UNL A   1      40.443  28.408  29.546  1.00  0.00    -0.354 N 
ATOM     44  C   UNL A   1      39.181  30.576  33.064  1.00  0.00     0.074 A 
ATOM     45  C   UNL A   1      37.919  31.246  32.839  1.00  0.00     0.031 C 
ATOM     46  C   UNL A   1      40.329  27.720  27.421  1.00  0.00     0.029 A 
ATOM     47  C   UNL A   1      41.157  27.680  28.623  1.00  0.00     0.049 A 
ATOM     48  H   UNL A   1      40.731  28.526  30.480  1.00  0.00     0.167 HD
ATOM     49  C   UNL A   1      39.862  30.607  34.233  1.00  0.00     0.034 A 
ATOM     50  C   UNL A   1      42.350  27.063  28.733  1.00  0.00     0.034 A 
ATOM     51  C   UNL A   1      41.091  29.899  34.474  1.00  0.00     0.049 A 
ATOM     52  C   UNL A   1      43.074  27.092  30.054  1.00  0.00     0.074 A 
ATOM     53  C   UNL A   1      41.842  29.845  35.635  1.00  0.00     0.029 A 
ATOM     54  N   UNL A   1      41.745  29.112  33.537  1.00  0.00    -0.354 N 
ATOM     55  N   UNL A   1      42.706  27.646  31.185  1.00  0.00    -0.248 NA
ATOM     56  C   UNL A   1      44.362  26.386  30.123  1.00  0.00     0.031 C 
ATOM     57  C   UNL A   1      42.950  29.022  35.401  1.00  0.00     0.029 A 
ATOM     58  C   UNL A   1      42.886  28.562  34.096  1.00  0.00     0.049 A 
ATOM     59  H   UNL A   1      41.443  28.968  32.611  1.00  0.00     0.167 HD
ATOM     60  C   UNL A   1      43.699  27.330  32.105  1.00  0.00     0.074 A 
ATOM     61  C   UNL A   1      44.674  26.518  31.405  1.00  0.00     0.031 C 
ATOM     62  C   UNL A   1      43.807  27.698  33.405  1.00  0.00     0.034 A 
BRANCH  49  63
ATOM     63  C   UNL A   1      39.270  31.404  35.363  1.00  0.00     0.023 A 
ATOM     64  C   UNL A   1      38.327  30.798  36.217  1.00  0.00     0.012 A 
ATOM     65  C   UNL A   1      39.676  32.730  35.612  1.00  0.00     0.148 A 
ATOM     66  C   UNL A   1      37.778  31.505  37.286  1.00  0.00     0.002 A 
ATOM     67  C   UNL A   1      39.150  33.418  36.700  1.00  0.00     0.091 A 
ATOM     68  F   UNL A   1      40.552  33.299  34.772  1.00  0.00    -0.205 F 
ATOM     69  C   UNL A   1      38.197  32.810  37.533  1.00  0.00     0.022 A 
BRANCH  67  70
ATOM     70  S   UNL A   1      39.685  35.078  37.133  1.00  0.00     0.127 S 
ATOM     71  O   UNL A   1      39.275  35.838  35.954  1.00  0.00    -0.237 OA
ATOM     72  O   UNL A   1      38.903  35.356  38.338  1.00  0.00    -0.237 OA
ATOM     73  O   UNL A   1      41.122  34.984  37.357  1.00  0.00    -0.744 OA
ENDBRANCH  67  70
ENDBRANCH  49  63
BRANCH  50  74
ATOM     74  C   UNL A   1      42.904  26.313  27.571  1.00  0.00     0.023 A 
ATOM     75  C   UNL A   1      43.796  26.961  26.694  1.00  0.00     0.012 A 
ATOM     76  C   UNL A   1      42.586  24.960  27.349  1.00  0.00     0.148 A 
ATOM     77  C   UNL A   1      44.344  26.281  25.606  1.00  0.00     0.002 A 
ATOM     78  C   UNL A   1      43.176  24.273  26.294  1.00  0.00     0.091 A 
ATOM     79  F   UNL A   1      41.714  24.366  28.178  1.00  0.00    -0.205 F 
ATOM     80  C   UNL A   1      44.044  24.935  25.414  1.00  0.00     0.022 A 
BRANCH  78  81
ATOM     81  S   UNL A   1      42.945  22.507  26.061  1.00  0.00     0.127 S 
ATOM     82  O   UNL A   1      44.009  21.952  26.893  1.00  0.00    -0.237 OA
ATOM     83  O   UNL A   1      41.590  22.300  26.575  1.00  0.00    -0.237 OA
ATOM     84  O   UNL A   1      43.074  22.291  24.626  1.00  0.00    -0.744 OA
ENDBRANCH  78  81
ENDBRANCH  50  74
BRANCH  62  85
ATOM     85  C   UNL A   1      45.005  27.205  34.171  1.00  0.00     0.023 A 
ATOM     86  C   UNL A   1      46.169  27.996  34.224  1.00  0.00     0.012 A 
ATOM     87  C   UNL A   1      44.954  26.000  34.898  1.00  0.00     0.148 A 
ATOM     88  C   UNL A   1      47.274  27.583  34.968  1.00  0.00     0.002 A 
ATOM     89  C   UNL A   1      46.046  25.612  35.668  1.00  0.00     0.091 A 
ATOM     90  F   UNL A   1      43.848  25.246  34.818  1.00  0.00    -0.205 F 
ATOM     91  C   UNL A   1      47.208  26.399  35.698  1.00  0.00     0.022 A 
BRANCH  89  92
ATOM     92  S   UNL A   1      45.998  24.142  36.700  1.00  0.00     0.127 S 
ATOM     93  O   UNL A   1      45.866  23.080  35.705  1.00  0.00    -0.237 OA
ATOM     94  O   UNL A   1      47.295  24.184  37.378  1.00  0.00    -0.237 OA
ATOM     95  O   UNL A   1      44.856  24.328  37.587  1.00  0.00    -0.744 OA
ENDBRANCH  89  92
ENDBRANCH  62  85
ENDBRANCH  36  37
ENDBRANCH  29  31
ENDBRANCH  28  29
ENDBRANCH  27  28
ENDBRANCH   1  27
TORSDOF 19
ENDMDL
