MODEL 1
REMARK VINA RESULT:     -11.0      0.000      0.000
REMARK SMILES C/C=C/C=C/C(=O)N[C@@](C)(C(=O)OCCOC(=O)c1ccc(-c2c3nc(c(-c4cccc(S(=O)(=O)[O-])c4F)c4ccc([nH]4)c(-c4cccc(S(=O)(=O)[O-])c4F)c4nc(c(-c5cccc(S(=O)(=O)[O-])c5F)c5ccc2[nH]5)C=C4)C=C3)cc1)C(F)(F)F
REMARK SMILES IDX 14 1 13 2 11 3 12 4 9 5 10 6 8 7 6 8 7 9 5 11 4 12 3 13 1 14
REMARK SMILES IDX 2 15 82 16 83 17 84 18 85 19 15 20 16 21 17 22 18 23 19 24
REMARK SMILES IDX 20 25 81 26 21 27 80 28 22 29 23 30 24 31 74 32 25 33 79 34
REMARK SMILES IDX 73 35 75 36 26 37 78 38 72 39 71 40 27 42 59 43 39 44 58 45
REMARK SMILES IDX 40 46 43 47 57 48 76 49 41 50 42 51 56 53 77 54 44 55 28 56
REMARK SMILES IDX 29 57 37 58 30 59 32 60 38 61 31 62 33 63 34 64 35 65 36 66
REMARK SMILES IDX 60 67 61 68 69 69 62 70 64 71 70 72 63 73 65 74 66 75 67 76
REMARK SMILES IDX 68 77 45 78 46 79 54 80 47 81 49 82 55 83 48 84 50 85 51 86
REMARK SMILES IDX 52 87 53 88
REMARK H PARENT 8 10 75 41 43 52
REMARK Flexibility Score: inf
ROOT
ATOM      1  C   UNL A   1      35.841  22.375  23.842  1.00  0.00     0.274 C 
ENDROOT
BRANCH   1   2
ATOM      2  O   UNL A   1      34.434  22.321  23.519  1.00  0.00    -0.460 OA
BRANCH   2   3
ATOM      3  C   UNL A   1      33.577  22.584  24.555  1.00  0.00     0.341 C 
ATOM      4  O   UNL A   1      33.028  21.707  25.210  1.00  0.00    -0.249 OA
BRANCH   3   5
ATOM      5  C   UNL A   1      33.203  24.067  24.622  1.00  0.00     0.231 C 
ATOM      6  C   UNL A   1      31.666  24.089  24.815  1.00  0.00     0.058 C 
BRANCH   5   7
ATOM      7  N   UNL A   1      33.433  24.801  23.328  1.00  0.00    -0.329 N 
ATOM      8  C   UNL A   1      33.409  26.083  22.896  1.00  0.00     0.245 C 
ATOM      9  O   UNL A   1      33.805  26.310  21.753  1.00  0.00    -0.270 OA
ATOM     10  H   UNL A   1      33.663  24.181  22.599  1.00  0.00     0.165 HD
BRANCH   8  11
ATOM     11  C   UNL A   1      32.977  27.208  23.733  1.00  0.00     0.071 C 
ATOM     12  C   UNL A   1      31.718  27.667  23.742  1.00  0.00     0.005 C 
BRANCH  12  13
ATOM     13  C   UNL A   1      31.323  28.821  24.515  1.00  0.00    -0.004 C 
ATOM     14  C   UNL A   1      31.811  30.672  26.132  1.00  0.00     0.035 C 
ATOM     15  C   UNL A   1      32.168  29.450  25.345  1.00  0.00    -0.030 C 
ENDBRANCH  12  13
ENDBRANCH   8  11
ENDBRANCH   5   7
BRANCH   5  16
ATOM     16  C   UNL A   1      33.814  24.623  25.917  1.00  0.00     0.422 C 
ATOM     17  F   UNL A   1      34.006  23.686  26.863  1.00  0.00    -0.168 F 
ATOM     18  F   UNL A   1      35.011  25.211  25.663  1.00  0.00    -0.168 F 
ATOM     19  F   UNL A   1      33.046  25.595  26.470  1.00  0.00    -0.168 F 
ENDBRANCH   5  16
ENDBRANCH   3   5
ENDBRANCH   2   3
ENDBRANCH   1   2
BRANCH   1  20
ATOM     20  C   UNL A   1      36.295  21.142  24.616  1.00  0.00     0.275 C 
BRANCH  20  21
ATOM     21  O   UNL A   1      36.939  21.527  25.837  1.00  0.00    -0.458 OA
BRANCH  21  22
ATOM     22  C   UNL A   1      38.283  21.381  25.837  1.00  0.00     0.338 C 
ATOM     23  O   UNL A   1      38.932  20.473  25.337  1.00  0.00    -0.246 OA
BRANCH  22  24
ATOM     24  C   UNL A   1      38.906  22.525  26.504  1.00  0.00     0.060 A 
ATOM     25  C   UNL A   1      38.426  23.805  26.242  1.00  0.00     0.016 A 
ATOM     26  C   UNL A   1      40.056  22.337  27.264  1.00  0.00     0.016 A 
ATOM     27  C   UNL A   1      39.152  24.916  26.668  1.00  0.00     0.010 A 
ATOM     28  C   UNL A   1      40.734  23.453  27.762  1.00  0.00     0.010 A 
ATOM     29  C   UNL A   1      40.314  24.756  27.434  1.00  0.00    -0.014 A 
BRANCH  29  30
ATOM     30  C   UNL A   1      41.134  25.925  27.859  1.00  0.00     0.031 A 
ATOM     31  C   UNL A   1      40.517  26.994  28.722  1.00  0.00     0.074 A 
ATOM     32  C   UNL A   1      42.413  26.059  27.454  1.00  0.00     0.049 A 
ATOM     33  N   UNL A   1      40.941  28.207  28.967  1.00  0.00    -0.248 NA
ATOM     34  C   UNL A   1      39.243  26.660  29.380  1.00  0.00     0.031 C 
ATOM     35  C   UNL A   1      43.162  25.084  26.663  1.00  0.00     0.029 A 
ATOM     36  N   UNL A   1      43.305  27.088  27.641  1.00  0.00    -0.354 N 
ATOM     37  C   UNL A   1      39.944  28.811  29.725  1.00  0.00     0.074 A 
ATOM     38  C   UNL A   1      38.908  27.821  29.926  1.00  0.00     0.031 C 
ATOM     39  C   UNL A   1      44.401  25.548  26.448  1.00  0.00     0.029 A 
ATOM     40  C   UNL A   1      44.508  26.892  27.005  1.00  0.00     0.049 A 
ATOM     41  H   UNL A   1      43.102  27.887  28.178  1.00  0.00     0.167 HD
ATOM     42  C   UNL A   1      39.898  30.076  30.206  1.00  0.00     0.034 A 
ATOM     43  C   UNL A   1      45.562  27.718  26.841  1.00  0.00     0.034 A 
ATOM     44  C   UNL A   1      40.969  31.028  30.078  1.00  0.00     0.049 A 
ATOM     45  C   UNL A   1      45.494  29.114  27.394  1.00  0.00     0.074 A 
ATOM     46  C   UNL A   1      41.022  32.332  30.538  1.00  0.00     0.029 A 
ATOM     47  N   UNL A   1      42.186  30.769  29.467  1.00  0.00    -0.354 N 
ATOM     48  N   UNL A   1      44.539  29.678  28.092  1.00  0.00    -0.248 NA
ATOM     49  C   UNL A   1      46.647  29.988  27.135  1.00  0.00     0.031 C 
ATOM     50  C   UNL A   1      42.276  32.859  30.212  1.00  0.00     0.029 A 
ATOM     51  C   UNL A   1      43.003  31.882  29.552  1.00  0.00     0.049 A 
ATOM     52  H   UNL A   1      42.432  29.919  29.036  1.00  0.00     0.167 HD
ATOM     53  C   UNL A   1      44.981  30.967  28.369  1.00  0.00     0.074 A 
ATOM     54  C   UNL A   1      46.302  31.090  27.787  1.00  0.00     0.031 C 
ATOM     55  C   UNL A   1      44.341  31.966  29.023  1.00  0.00     0.034 A 
BRANCH  42  56
ATOM     56  C   UNL A   1      38.655  30.501  30.939  1.00  0.00     0.023 A 
ATOM     57  C   UNL A   1      38.537  30.256  32.321  1.00  0.00     0.012 A 
ATOM     58  C   UNL A   1      37.625  31.195  30.270  1.00  0.00     0.148 A 
ATOM     59  C   UNL A   1      37.403  30.669  33.021  1.00  0.00     0.002 A 
ATOM     60  C   UNL A   1      36.516  31.637  30.983  1.00  0.00     0.091 A 
ATOM     61  F   UNL A   1      37.739  31.395  28.950  1.00  0.00    -0.205 F 
ATOM     62  C   UNL A   1      36.400  31.369  32.356  1.00  0.00     0.022 A 
BRANCH  60  63
ATOM     63  S   UNL A   1      35.217  32.611  30.213  1.00  0.00     0.127 S 
ATOM     64  O   UNL A   1      35.966  33.760  29.708  1.00  0.00    -0.237 OA
ATOM     65  O   UNL A   1      34.715  31.708  29.175  1.00  0.00    -0.237 OA
ATOM     66  O   UNL A   1      34.259  32.895  31.274  1.00  0.00    -0.744 OA
ENDBRANCH  60  63
ENDBRANCH  42  56
BRANCH  43  67
ATOM     67  C   UNL A   1      46.779  27.227  26.133  1.00  0.00     0.023 A 
ATOM     68  C   UNL A   1      46.937  27.515  24.764  1.00  0.00     0.012 A 
ATOM     69  C   UNL A   1      47.803  26.537  26.811  1.00  0.00     0.148 A 
ATOM     70  C   UNL A   1      48.089  27.119  24.082  1.00  0.00     0.002 A 
ATOM     71  C   UNL A   1      48.975  26.203  26.142  1.00  0.00     0.091 A 
ATOM     72  F   UNL A   1      47.623  26.241  28.106  1.00  0.00    -0.205 F 
ATOM     73  C   UNL A   1      49.115  26.480  24.774  1.00  0.00     0.022 A 
BRANCH  71  74
ATOM     74  S   UNL A   1      50.398  25.525  27.005  1.00  0.00     0.127 S 
ATOM     75  O   UNL A   1      51.357  25.355  25.918  1.00  0.00    -0.237 OA
ATOM     76  O   UNL A   1      50.724  26.594  27.952  1.00  0.00    -0.237 OA
ATOM     77  O   UNL A   1      49.917  24.302  27.634  1.00  0.00    -0.744 OA
ENDBRANCH  71  74
ENDBRANCH  43  67
BRANCH  55  78
ATOM     78  C   UNL A   1      45.063  33.276  29.174  1.00  0.00     0.023 A 
ATOM     79  C   UNL A   1      45.907  33.476  30.284  1.00  0.00     0.012 A 
ATOM     80  C   UNL A   1      44.972  34.271  28.183  1.00  0.00     0.148 A 
ATOM     81  C   UNL A   1      46.637  34.657  30.413  1.00  0.00     0.002 A 
ATOM     82  C   UNL A   1      45.730  35.430  28.299  1.00  0.00     0.091 A 
ATOM     83  F   UNL A   1      44.144  34.068  27.146  1.00  0.00    -0.205 F 
ATOM     84  C   UNL A   1      46.559  35.627  29.416  1.00  0.00     0.022 A 
BRANCH  82  85
ATOM     85  S   UNL A   1      45.748  36.697  27.025  1.00  0.00     0.127 S 
ATOM     86  O   UNL A   1      46.192  35.939  25.856  1.00  0.00    -0.237 OA
ATOM     87  O   UNL A   1      44.347  37.119  26.982  1.00  0.00    -0.237 OA
ATOM     88  O   UNL A   1      46.670  37.722  27.496  1.00  0.00    -0.744 OA
ENDBRANCH  82  85
ENDBRANCH  55  78
ENDBRANCH  29  30
ENDBRANCH  22  24
ENDBRANCH  21  22
ENDBRANCH  20  21
ENDBRANCH   1  20
TORSDOF 18
ENDMDL
MODEL 2
REMARK VINA RESULT:     -10.9      4.881      9.994
REMARK SMILES C/C=C/C=C/C(=O)N[C@@](C)(C(=O)OCCOC(=O)c1ccc(-c2c3nc(c(-c4cccc(S(=O)(=O)[O-])c4F)c4ccc([nH]4)c(-c4cccc(S(=O)(=O)[O-])c4F)c4nc(c(-c5cccc(S(=O)(=O)[O-])c5F)c5ccc2[nH]5)C=C4)C=C3)cc1)C(F)(F)F
REMARK SMILES IDX 14 1 13 2 11 3 12 4 9 5 10 6 8 7 6 8 7 9 5 11 4 12 3 13 1 14
REMARK SMILES IDX 2 15 82 16 83 17 84 18 85 19 15 20 16 21 17 22 18 23 19 24
REMARK SMILES IDX 20 25 81 26 21 27 80 28 22 29 23 30 24 31 74 32 25 33 79 34
REMARK SMILES IDX 73 35 75 36 26 37 78 38 72 39 71 40 27 42 59 43 39 44 58 45
REMARK SMILES IDX 40 46 43 47 57 48 76 49 41 50 42 51 56 53 77 54 44 55 28 56
REMARK SMILES IDX 29 57 37 58 30 59 32 60 38 61 31 62 33 63 34 64 35 65 36 66
REMARK SMILES IDX 60 67 61 68 69 69 62 70 64 71 70 72 63 73 65 74 66 75 67 76
REMARK SMILES IDX 68 77 45 78 46 79 54 80 47 81 49 82 55 83 48 84 50 85 51 86
REMARK SMILES IDX 52 87 53 88
REMARK H PARENT 8 10 75 41 43 52
REMARK Flexibility Score: inf
ROOT
ATOM      1  C   UNL A   1      31.362  29.002  24.442  1.00  0.00     0.274 C 
ENDROOT
BRANCH   1   2
ATOM      2  O   UNL A   1      30.936  27.769  25.064  1.00  0.00    -0.460 OA
BRANCH   2   3
ATOM      3  C   UNL A   1      31.662  26.655  24.733  1.00  0.00     0.341 C 
ATOM      4  O   UNL A   1      32.836  26.699  24.387  1.00  0.00    -0.249 OA
BRANCH   3   5
ATOM      5  C   UNL A   1      30.775  25.414  24.604  1.00  0.00     0.231 C 
ATOM      6  C   UNL A   1      29.327  25.958  24.516  1.00  0.00     0.058 C 
BRANCH   5   7
ATOM      7  N   UNL A   1      30.779  24.547  25.835  1.00  0.00    -0.329 N 
ATOM      8  C   UNL A   1      31.693  23.879  26.575  1.00  0.00     0.245 C 
ATOM      9  O   UNL A   1      31.317  23.376  27.634  1.00  0.00    -0.270 OA
ATOM     10  H   UNL A   1      29.871  24.435  26.200  1.00  0.00     0.165 HD
BRANCH   8  11
ATOM     11  C   UNL A   1      33.107  23.764  26.199  1.00  0.00     0.071 C 
ATOM     12  C   UNL A   1      33.979  23.002  26.872  1.00  0.00     0.005 C 
BRANCH  12  13
ATOM     13  C   UNL A   1      35.383  22.954  26.535  1.00  0.00    -0.004 C 
ATOM     14  C   UNL A   1      37.295  23.358  24.968  1.00  0.00     0.035 C 
ATOM     15  C   UNL A   1      35.847  23.352  25.342  1.00  0.00    -0.030 C 
ENDBRANCH  12  13
ENDBRANCH   8  11
ENDBRANCH   5   7
BRANCH   5  16
ATOM     16  C   UNL A   1      31.087  24.780  23.240  1.00  0.00     0.422 C 
ATOM     17  F   UNL A   1      31.125  25.671  22.233  1.00  0.00    -0.168 F 
ATOM     18  F   UNL A   1      32.284  24.141  23.277  1.00  0.00    -0.168 F 
ATOM     19  F   UNL A   1      30.183  23.830  22.897  1.00  0.00    -0.168 F 
ENDBRANCH   5  16
ENDBRANCH   3   5
ENDBRANCH   2   3
ENDBRANCH   1   2
BRANCH   1  20
ATOM     20  C   UNL A   1      31.592  30.106  25.468  1.00  0.00     0.275 C 
BRANCH  20  21
ATOM     21  O   UNL A   1      32.925  30.035  25.988  1.00  0.00    -0.458 OA
BRANCH  21  22
ATOM     22  C   UNL A   1      33.235  31.005  26.878  1.00  0.00     0.338 C 
ATOM     23  O   UNL A   1      32.519  31.920  27.260  1.00  0.00    -0.246 OA
BRANCH  22  24
ATOM     24  C   UNL A   1      34.589  30.792  27.391  1.00  0.00     0.060 A 
ATOM     25  C   UNL A   1      35.033  29.491  27.610  1.00  0.00     0.016 A 
ATOM     26  C   UNL A   1      35.353  31.882  27.796  1.00  0.00     0.016 A 
ATOM     27  C   UNL A   1      36.212  29.273  28.321  1.00  0.00     0.010 A 
ATOM     28  C   UNL A   1      36.577  31.659  28.432  1.00  0.00     0.010 A 
ATOM     29  C   UNL A   1      37.000  30.353  28.740  1.00  0.00    -0.014 A 
BRANCH  29  30
ATOM     30  C   UNL A   1      38.237  30.148  29.545  1.00  0.00     0.031 A 
ATOM     31  C   UNL A   1      39.351  29.296  28.995  1.00  0.00     0.074 A 
ATOM     32  C   UNL A   1      38.362  30.686  30.775  1.00  0.00     0.049 A 
ATOM     33  N   UNL A   1      40.368  28.760  29.618  1.00  0.00    -0.248 NA
ATOM     34  C   UNL A   1      39.302  28.991  27.555  1.00  0.00     0.031 C 
ATOM     35  C   UNL A   1      37.395  31.573  31.418  1.00  0.00     0.029 A 
ATOM     36  N   UNL A   1      39.357  30.545  31.713  1.00  0.00    -0.354 N 
ATOM     37  C   UNL A   1      41.023  27.979  28.673  1.00  0.00     0.074 A 
ATOM     38  C   UNL A   1      40.307  28.137  27.425  1.00  0.00     0.031 C 
ATOM     39  C   UNL A   1      37.847  31.914  32.633  1.00  0.00     0.029 A 
ATOM     40  C   UNL A   1      39.091  31.197  32.894  1.00  0.00     0.049 A 
ATOM     41  H   UNL A   1      40.179  30.028  31.555  1.00  0.00     0.167 HD
ATOM     42  C   UNL A   1      42.121  27.202  28.833  1.00  0.00     0.034 A 
ATOM     43  C   UNL A   1      39.743  31.181  34.075  1.00  0.00     0.034 A 
ATOM     44  C   UNL A   1      42.879  27.117  30.052  1.00  0.00     0.049 A 
ATOM     45  C   UNL A   1      40.966  30.320  34.226  1.00  0.00     0.074 A 
ATOM     46  C   UNL A   1      44.010  26.364  30.312  1.00  0.00     0.029 A 
ATOM     47  N   UNL A   1      42.599  27.831  31.206  1.00  0.00    -0.354 N 
ATOM     48  N   UNL A   1      41.564  29.573  33.331  1.00  0.00    -0.248 NA
ATOM     49  C   UNL A   1      41.603  30.298  35.551  1.00  0.00     0.031 C 
ATOM     50  C   UNL A   1      44.420  26.630  31.623  1.00  0.00     0.029 A 
ATOM     51  C   UNL A   1      43.545  27.550  32.177  1.00  0.00     0.049 A 
ATOM     52  H   UNL A   1      41.840  28.448  31.319  1.00  0.00     0.167 HD
ATOM     53  C   UNL A   1      42.655  29.004  33.977  1.00  0.00     0.074 A 
ATOM     54  C   UNL A   1      42.651  29.514  35.333  1.00  0.00     0.031 C 
ATOM     55  C   UNL A   1      43.562  28.117  33.501  1.00  0.00     0.034 A 
BRANCH  42  56
ATOM     56  C   UNL A   1      42.584  26.393  27.651  1.00  0.00     0.023 A 
ATOM     57  C   UNL A   1      43.503  26.947  26.740  1.00  0.00     0.012 A 
ATOM     58  C   UNL A   1      42.151  25.062  27.474  1.00  0.00     0.148 A 
ATOM     59  C   UNL A   1      43.964  26.200  25.655  1.00  0.00     0.002 A 
ATOM     60  C   UNL A   1      42.645  24.312  26.413  1.00  0.00     0.091 A 
ATOM     61  F   UNL A   1      41.253  24.560  28.334  1.00  0.00    -0.205 F 
ATOM     62  C   UNL A   1      43.546  24.881  25.498  1.00  0.00     0.022 A 
BRANCH  60  63
ATOM     63  S   UNL A   1      42.211  22.583  26.187  1.00  0.00     0.127 S 
ATOM     64  O   UNL A   1      42.753  21.979  27.403  1.00  0.00    -0.237 OA
ATOM     65  O   UNL A   1      40.749  22.627  26.128  1.00  0.00    -0.237 OA
ATOM     66  O   UNL A   1      42.849  22.179  24.940  1.00  0.00    -0.744 OA
ENDBRANCH  60  63
ENDBRANCH  42  56
BRANCH  43  67
ATOM     67  C   UNL A   1      39.254  32.030  35.199  1.00  0.00     0.023 A 
ATOM     68  C   UNL A   1      38.383  31.468  36.152  1.00  0.00     0.012 A 
ATOM     69  C   UNL A   1      39.687  33.360  35.366  1.00  0.00     0.148 A 
ATOM     70  C   UNL A   1      37.949  32.216  37.247  1.00  0.00     0.002 A 
ATOM     71  C   UNL A   1      39.302  34.078  36.492  1.00  0.00     0.091 A 
ATOM     72  F   UNL A   1      40.488  33.892  34.432  1.00  0.00    -0.205 F 
ATOM     73  C   UNL A   1      38.422  33.514  37.427  1.00  0.00     0.022 A 
BRANCH  71  74
ATOM     74  S   UNL A   1      39.997  35.691  36.871  1.00  0.00     0.127 S 
ATOM     75  O   UNL A   1      39.626  36.465  35.690  1.00  0.00    -0.237 OA
ATOM     76  O   UNL A   1      39.284  36.056  38.096  1.00  0.00    -0.237 OA
ATOM     77  O   UNL A   1      41.423  35.458  37.063  1.00  0.00    -0.744 OA
ENDBRANCH  71  74
ENDBRANCH  43  67
BRANCH  55  78
ATOM     78  C   UNL A   1      44.648  27.660  34.435  1.00  0.00     0.023 A 
ATOM     79  C   UNL A   1      45.834  28.411  34.539  1.00  0.00     0.012 A 
ATOM     80  C   UNL A   1      44.462  26.538  35.266  1.00  0.00     0.148 A 
ATOM     81  C   UNL A   1      46.828  28.043  35.444  1.00  0.00     0.002 A 
ATOM     82  C   UNL A   1      45.440  26.198  36.192  1.00  0.00     0.091 A 
ATOM     83  F   UNL A   1      43.334  25.824  35.133  1.00  0.00    -0.205 F 
ATOM     84  C   UNL A   1      46.627  26.946  36.278  1.00  0.00     0.022 A 
BRANCH  82  85
ATOM     85  S   UNL A   1      45.230  24.846  37.357  1.00  0.00     0.127 S 
ATOM     86  O   UNL A   1      46.494  24.884  38.090  1.00  0.00    -0.237 OA
ATOM     87  O   UNL A   1      44.063  25.276  38.129  1.00  0.00    -0.237 OA
ATOM     88  O   UNL A   1      45.008  23.655  36.547  1.00  0.00    -0.744 OA
ENDBRANCH  82  85
ENDBRANCH  55  78
ENDBRANCH  29  30
ENDBRANCH  22  24
ENDBRANCH  21  22
ENDBRANCH  20  21
ENDBRANCH   1  20
TORSDOF 18
ENDMDL
MODEL 3
REMARK VINA RESULT:     -10.8      5.344     10.078
REMARK SMILES C/C=C/C=C/C(=O)N[C@@](C)(C(=O)OCCOC(=O)c1ccc(-c2c3nc(c(-c4cccc(S(=O)(=O)[O-])c4F)c4ccc([nH]4)c(-c4cccc(S(=O)(=O)[O-])c4F)c4nc(c(-c5cccc(S(=O)(=O)[O-])c5F)c5ccc2[nH]5)C=C4)C=C3)cc1)C(F)(F)F
REMARK SMILES IDX 14 1 13 2 11 3 12 4 9 5 10 6 8 7 6 8 7 9 5 11 4 12 3 13 1 14
REMARK SMILES IDX 2 15 82 16 83 17 84 18 85 19 15 20 16 21 17 22 18 23 19 24
REMARK SMILES IDX 20 25 81 26 21 27 80 28 22 29 23 30 24 31 74 32 25 33 79 34
REMARK SMILES IDX 73 35 75 36 26 37 78 38 72 39 71 40 27 42 59 43 39 44 58 45
REMARK SMILES IDX 40 46 43 47 57 48 76 49 41 50 42 51 56 53 77 54 44 55 28 56
REMARK SMILES IDX 29 57 37 58 30 59 32 60 38 61 31 62 33 63 34 64 35 65 36 66
REMARK SMILES IDX 60 67 61 68 69 69 62 70 64 71 70 72 63 73 65 74 66 75 67 76
REMARK SMILES IDX 68 77 45 78 46 79 54 80 47 81 49 82 55 83 48 84 50 85 51 86
REMARK SMILES IDX 52 87 53 88
REMARK H PARENT 8 10 75 41 43 52
REMARK Flexibility Score: inf
ROOT
ATOM      1  C   UNL A   1      33.357  29.152  25.229  1.00  0.00     0.274 C 
ENDROOT
BRANCH   1   2
ATOM      2  O   UNL A   1      32.764  28.617  24.025  1.00  0.00    -0.460 OA
BRANCH   2   3
ATOM      3  C   UNL A   1      31.893  27.575  24.205  1.00  0.00     0.341 C 
ATOM      4  O   UNL A   1      31.951  26.809  25.158  1.00  0.00    -0.249 OA
BRANCH   3   5
ATOM      5  C   UNL A   1      31.022  27.341  22.967  1.00  0.00     0.231 C 
ATOM      6  C   UNL A   1      30.114  26.140  23.332  1.00  0.00     0.058 C 
BRANCH   5   7
ATOM      7  N   UNL A   1      31.802  26.875  21.767  1.00  0.00    -0.329 N 
ATOM      8  C   UNL A   1      32.768  25.966  21.503  1.00  0.00     0.245 C 
ATOM      9  O   UNL A   1      33.065  25.771  20.324  1.00  0.00    -0.270 OA
ATOM     10  H   UNL A   1      31.539  27.365  20.954  1.00  0.00     0.165 HD
BRANCH   8  11
ATOM     11  C   UNL A   1      33.441  25.179  22.542  1.00  0.00     0.071 C 
ATOM     12  C   UNL A   1      33.093  23.920  22.842  1.00  0.00     0.005 C 
BRANCH  12  13
ATOM     13  C   UNL A   1      33.715  23.182  23.916  1.00  0.00    -0.004 C 
ATOM     14  C   UNL A   1      34.314  21.041  25.070  1.00  0.00     0.035 C 
ATOM     15  C   UNL A   1      33.649  21.845  23.998  1.00  0.00    -0.030 C 
ENDBRANCH  12  13
ENDBRANCH   8  11
ENDBRANCH   5   7
BRANCH   5  16
ATOM     16  C   UNL A   1      30.098  28.561  22.833  1.00  0.00     0.422 C 
ATOM     17  F   UNL A   1      29.959  29.254  23.978  1.00  0.00    -0.168 F 
ATOM     18  F   UNL A   1      30.570  29.411  21.886  1.00  0.00    -0.168 F 
ATOM     19  F   UNL A   1      28.853  28.219  22.421  1.00  0.00    -0.168 F 
ENDBRANCH   5  16
ENDBRANCH   3   5
ENDBRANCH   2   3
ENDBRANCH   1   2
BRANCH   1  20
ATOM     20  C   UNL A   1      32.506  30.261  25.837  1.00  0.00     0.275 C 
BRANCH  20  21
ATOM     21  O   UNL A   1      32.822  30.429  27.225  1.00  0.00    -0.458 OA
BRANCH  21  22
ATOM     22  C   UNL A   1      33.541  31.538  27.509  1.00  0.00     0.338 C 
ATOM     23  O   UNL A   1      33.159  32.699  27.488  1.00  0.00    -0.246 OA
BRANCH  22  24
ATOM     24  C   UNL A   1      34.897  31.159  27.913  1.00  0.00     0.060 A 
ATOM     25  C   UNL A   1      35.147  29.843  28.290  1.00  0.00     0.016 A 
ATOM     26  C   UNL A   1      35.872  32.140  28.060  1.00  0.00     0.016 A 
ATOM     27  C   UNL A   1      36.356  29.518  28.905  1.00  0.00     0.010 A 
ATOM     28  C   UNL A   1      37.114  31.792  28.598  1.00  0.00     0.010 A 
ATOM     29  C   UNL A   1      37.355  30.487  29.066  1.00  0.00    -0.014 A 
BRANCH  29  30
ATOM     30  C   UNL A   1      38.634  30.178  29.765  1.00  0.00     0.031 A 
ATOM     31  C   UNL A   1      39.623  29.237  29.129  1.00  0.00     0.074 A 
ATOM     32  C   UNL A   1      38.906  30.700  30.978  1.00  0.00     0.049 A 
ATOM     33  N   UNL A   1      40.640  28.616  29.667  1.00  0.00    -0.248 NA
ATOM     34  C   UNL A   1      39.428  28.940  27.699  1.00  0.00     0.031 C 
ATOM     35  C   UNL A   1      38.073  31.665  31.695  1.00  0.00     0.029 A 
ATOM     36  N   UNL A   1      39.960  30.475  31.830  1.00  0.00    -0.354 N 
ATOM     37  C   UNL A   1      41.146  27.786  28.674  1.00  0.00     0.074 A 
ATOM     38  C   UNL A   1      40.344  28.005  27.489  1.00  0.00     0.031 C 
ATOM     39  C   UNL A   1      38.653  31.964  32.867  1.00  0.00     0.029 A 
ATOM     40  C   UNL A   1      39.850  31.145  33.027  1.00  0.00     0.049 A 
ATOM     41  H   UNL A   1      40.720  29.891  31.607  1.00  0.00     0.167 HD
ATOM     42  C   UNL A   1      42.184  26.919  28.745  1.00  0.00     0.034 A 
ATOM     43  C   UNL A   1      40.595  31.072  34.148  1.00  0.00     0.034 A 
ATOM     44  C   UNL A   1      43.032  26.768  29.897  1.00  0.00     0.049 A 
ATOM     45  C   UNL A   1      41.750  30.111  34.201  1.00  0.00     0.074 A 
ATOM     46  C   UNL A   1      44.115  25.923  30.065  1.00  0.00     0.029 A 
ATOM     47  N   UNL A   1      42.911  27.501  31.067  1.00  0.00    -0.354 N 
ATOM     48  N   UNL A   1      42.207  29.319  33.263  1.00  0.00    -0.248 NA
ATOM     49  C   UNL A   1      42.492  30.033  35.468  1.00  0.00     0.031 C 
ATOM     50  C   UNL A   1      44.654  26.150  31.336  1.00  0.00     0.029 A 
ATOM     51  C   UNL A   1      43.908  27.140  31.957  1.00  0.00     0.049 A 
ATOM     52  H   UNL A   1      42.218  28.178  31.240  1.00  0.00     0.167 HD
ATOM     53  C   UNL A   1      43.297  28.659  33.818  1.00  0.00     0.074 A 
ATOM     54  C   UNL A   1      43.449  29.165  35.167  1.00  0.00     0.031 C 
ATOM     55  C   UNL A   1      44.083  27.701  33.272  1.00  0.00     0.034 A 
BRANCH  42  56
ATOM     56  C   UNL A   1      42.477  26.076  27.533  1.00  0.00     0.023 A 
ATOM     57  C   UNL A   1      43.220  26.618  26.466  1.00  0.00     0.012 A 
ATOM     58  C   UNL A   1      42.065  24.729  27.475  1.00  0.00     0.148 A 
ATOM     59  C   UNL A   1      43.525  25.841  25.348  1.00  0.00     0.002 A 
ATOM     60  C   UNL A   1      42.406  23.951  26.374  1.00  0.00     0.091 A 
ATOM     61  F   UNL A   1      41.333  24.237  28.485  1.00  0.00    -0.205 F 
ATOM     62  C   UNL A   1      43.129  24.507  25.307  1.00  0.00     0.022 A 
BRANCH  60  63
ATOM     63  S   UNL A   1      41.997  22.203  26.281  1.00  0.00     0.127 S 
ATOM     64  O   UNL A   1      40.542  22.245  26.150  1.00  0.00    -0.237 OA
ATOM     65  O   UNL A   1      42.706  21.775  25.073  1.00  0.00    -0.237 OA
ATOM     66  O   UNL A   1      42.507  21.617  27.514  1.00  0.00    -0.744 OA
ENDBRANCH  60  63
ENDBRANCH  42  56
BRANCH  43  67
ATOM     67  C   UNL A   1      40.274  31.956  35.305  1.00  0.00     0.023 A 
ATOM     68  C   UNL A   1      40.960  33.177  35.445  1.00  0.00     0.012 A 
ATOM     69  C   UNL A   1      39.261  31.630  36.227  1.00  0.00     0.148 A 
ATOM     70  C   UNL A   1      40.647  34.055  36.484  1.00  0.00     0.002 A 
ATOM     71  C   UNL A   1      38.910  32.537  37.221  1.00  0.00     0.091 A 
ATOM     72  F   UNL A   1      38.639  30.449  36.102  1.00  0.00    -0.205 F 
ATOM     73  C   UNL A   1      39.611  33.744  37.361  1.00  0.00     0.022 A 
BRANCH  71  74
ATOM     74  S   UNL A   1      37.483  32.275  38.282  1.00  0.00     0.127 S 
ATOM     75  O   UNL A   1      37.920  32.888  39.533  1.00  0.00    -0.237 OA
ATOM     76  O   UNL A   1      36.432  33.005  37.572  1.00  0.00    -0.237 OA
ATOM     77  O   UNL A   1      37.287  30.831  38.310  1.00  0.00    -0.744 OA
ENDBRANCH  71  74
ENDBRANCH  43  67
BRANCH  55  78
ATOM     78  C   UNL A   1      45.202  27.152  34.114  1.00  0.00     0.023 A 
ATOM     79  C   UNL A   1      46.442  27.818  34.137  1.00  0.00     0.012 A 
ATOM     80  C   UNL A   1      45.001  26.030  34.941  1.00  0.00     0.148 A 
ATOM     81  C   UNL A   1      47.473  27.365  34.959  1.00  0.00     0.002 A 
ATOM     82  C   UNL A   1      46.020  25.606  35.785  1.00  0.00     0.091 A 
ATOM     83  F   UNL A   1      43.818  25.398  34.885  1.00  0.00    -0.205 F 
ATOM     84  C   UNL A   1      47.259  26.269  35.791  1.00  0.00     0.022 A 
BRANCH  82  85
ATOM     85  S   UNL A   1      45.804  24.250  36.944  1.00  0.00     0.127 S 
ATOM     86  O   UNL A   1      47.184  23.963  37.329  1.00  0.00    -0.237 OA
ATOM     87  O   UNL A   1      44.991  24.863  37.996  1.00  0.00    -0.237 OA
ATOM     88  O   UNL A   1      45.126  23.196  36.200  1.00  0.00    -0.744 OA
ENDBRANCH  82  85
ENDBRANCH  55  78
ENDBRANCH  29  30
ENDBRANCH  22  24
ENDBRANCH  21  22
ENDBRANCH  20  21
ENDBRANCH   1  20
TORSDOF 18
ENDMDL
