MODEL 1
REMARK VINA RESULT:     -11.9      0.000      0.000
REMARK SMILES C[C@H](C(=O)OCCOC(=O)c1ccc(-c2c3nc(c(-c4cccc(S(=O)(=O)[O-])c4F)c4ccc([nH]4)c(-c4cccc(S(=O)(=O)[O-])c4F)c4nc(c(-c5cccc(S(=O)(=O)[O-])c5F)c5ccc2[nH]5)C=C4)C=C3)cc1)c1ccc(C[C@@H]2CCC[C@H]2O)cc1
REMARK SMILES IDX 6 1 5 2 3 3 4 4 2 5 1 6 74 7 75 8 86 9 76 10 85 11 77 12
REMARK SMILES IDX 78 13 79 14 80 15 83 16 81 17 82 18 84 19 7 21 8 22 9 23
REMARK SMILES IDX 10 24 11 25 12 26 73 27 13 28 72 29 14 30 15 31 16 32 66 33
REMARK SMILES IDX 17 34 71 35 65 36 67 37 18 38 70 39 64 40 63 41 19 43 51 44
REMARK SMILES IDX 31 45 50 46 32 47 35 48 49 49 68 50 33 51 34 52 48 54 69 55
REMARK SMILES IDX 36 56 20 57 21 58 29 59 22 60 24 61 30 62 23 63 25 64 26 65
REMARK SMILES IDX 27 66 28 67 52 68 53 69 61 70 54 71 56 72 62 73 55 74 57 75
REMARK SMILES IDX 58 76 59 77 60 78 37 79 38 80 46 81 39 82 41 83 47 84 40 85
REMARK SMILES IDX 42 86 43 87 44 88 45 89
REMARK H PARENT 84 20 67 42 35 53
REMARK Flexibility Score: inf
ROOT
ATOM      1  C   UNL A   1      36.802  22.408  23.745  1.00  0.00     0.274 C 
ENDROOT
BRANCH   1   2
ATOM      2  O   UNL A   1      35.407  22.613  24.060  1.00  0.00    -0.462 OA
BRANCH   2   3
ATOM      3  C   UNL A   1      35.080  23.846  24.549  1.00  0.00     0.313 C 
ATOM      4  O   UNL A   1      35.809  24.523  25.262  1.00  0.00    -0.252 OA
BRANCH   3   5
ATOM      5  C   UNL A   1      33.642  24.216  24.156  1.00  0.00     0.126 C 
ATOM      6  C   UNL A   1      33.728  25.183  22.973  1.00  0.00     0.025 C 
BRANCH   5   7
ATOM      7  C   UNL A   1      32.834  22.952  23.888  1.00  0.00    -0.034 A 
ATOM      8  C   UNL A   1      32.533  22.105  24.963  1.00  0.00     0.005 A 
ATOM      9  C   UNL A   1      32.555  22.505  22.590  1.00  0.00     0.005 A 
ATOM     10  C   UNL A   1      32.201  20.770  24.733  1.00  0.00     0.004 A 
ATOM     11  C   UNL A   1      32.194  21.178  22.365  1.00  0.00     0.004 A 
ATOM     12  C   UNL A   1      32.166  20.273  23.425  1.00  0.00    -0.048 A 
BRANCH  12  13
ATOM     13  C   UNL A   1      32.315  18.789  23.172  1.00  0.00     0.041 C 
BRANCH  13  14
ATOM     14  C   UNL A   1      33.215  18.033  24.195  1.00  0.00     0.022 C 
ATOM     15  C   UNL A   1      34.133  16.919  23.644  1.00  0.00     0.007 C 
ATOM     16  C   UNL A   1      32.416  17.352  25.327  1.00  0.00     0.117 C 
ATOM     17  C   UNL A   1      34.206  15.864  24.733  1.00  0.00     0.003 C 
ATOM     18  C   UNL A   1      32.804  15.874  25.309  1.00  0.00     0.032 C 
BRANCH  16  19
ATOM     19  O   UNL A   1      32.766  17.922  26.586  1.00  0.00    -0.393 OA
ATOM     20  H   UNL A   1      32.244  18.726  26.733  1.00  0.00     0.210 HD
ENDBRANCH  16  19
ENDBRANCH  13  14
ENDBRANCH  12  13
ENDBRANCH   5   7
ENDBRANCH   3   5
ENDBRANCH   2   3
ENDBRANCH   1   2
BRANCH   1  21
ATOM     21  C   UNL A   1      37.331  21.140  24.408  1.00  0.00     0.275 C 
BRANCH  21  22
ATOM     22  O   UNL A   1      37.721  21.437  25.759  1.00  0.00    -0.458 OA
BRANCH  22  23
ATOM     23  C   UNL A   1      38.997  21.145  26.089  1.00  0.00     0.338 C 
ATOM     24  O   UNL A   1      39.590  20.091  25.908  1.00  0.00    -0.246 OA
BRANCH  23  25
ATOM     25  C   UNL A   1      39.617  22.344  26.674  1.00  0.00     0.060 A 
ATOM     26  C   UNL A   1      39.165  23.586  26.246  1.00  0.00     0.016 A 
ATOM     27  C   UNL A   1      40.678  22.255  27.580  1.00  0.00     0.016 A 
ATOM     28  C   UNL A   1      39.794  24.740  26.700  1.00  0.00     0.010 A 
ATOM     29  C   UNL A   1      41.271  23.430  28.080  1.00  0.00     0.010 A 
ATOM     30  C   UNL A   1      40.831  24.684  27.639  1.00  0.00    -0.014 A 
BRANCH  30  31
ATOM     31  C   UNL A   1      41.445  25.970  28.061  1.00  0.00     0.031 A 
ATOM     32  C   UNL A   1      42.776  26.365  27.492  1.00  0.00     0.074 A 
ATOM     33  C   UNL A   1      40.754  26.860  28.801  1.00  0.00     0.049 A 
ATOM     34  N   UNL A   1      43.437  27.481  27.645  1.00  0.00    -0.248 NA
ATOM     35  C   UNL A   1      43.438  25.379  26.624  1.00  0.00     0.031 C 
ATOM     36  C   UNL A   1      39.411  26.645  29.331  1.00  0.00     0.029 A 
ATOM     37  N   UNL A   1      41.054  28.151  29.168  1.00  0.00    -0.354 N 
ATOM     38  C   UNL A   1      44.633  27.302  26.966  1.00  0.00     0.074 A 
ATOM     39  C   UNL A   1      44.568  26.004  26.326  1.00  0.00     0.031 C 
ATOM     40  C   UNL A   1      38.959  27.797  29.856  1.00  0.00     0.029 A 
ATOM     41  C   UNL A   1      40.005  28.815  29.765  1.00  0.00     0.049 A 
ATOM     42  H   UNL A   1      41.936  28.562  29.018  1.00  0.00     0.167 HD
ATOM     43  C   UNL A   1      45.711  28.119  26.922  1.00  0.00     0.034 A 
ATOM     44  C   UNL A   1      39.898  30.096  30.176  1.00  0.00     0.034 A 
ATOM     45  C   UNL A   1      45.791  29.406  27.553  1.00  0.00     0.049 A 
ATOM     46  C   UNL A   1      41.101  31.003  30.085  1.00  0.00     0.074 A 
ATOM     47  C   UNL A   1      46.885  30.247  27.659  1.00  0.00     0.029 A 
ATOM     48  N   UNL A   1      44.734  30.042  28.183  1.00  0.00    -0.354 N 
ATOM     49  N   UNL A   1      42.244  30.806  29.474  1.00  0.00    -0.248 NA
ATOM     50  C   UNL A   1      41.004  32.303  30.770  1.00  0.00     0.031 C 
ATOM     51  C   UNL A   1      46.492  31.390  28.365  1.00  0.00     0.029 A 
ATOM     52  C   UNL A   1      45.150  31.264  28.685  1.00  0.00     0.049 A 
ATOM     53  H   UNL A   1      43.823  29.680  28.263  1.00  0.00     0.167 HD
ATOM     54  C   UNL A   1      43.010  31.941  29.724  1.00  0.00     0.074 A 
ATOM     55  C   UNL A   1      42.176  32.853  30.480  1.00  0.00     0.031 C 
ATOM     56  C   UNL A   1      44.306  32.182  29.405  1.00  0.00     0.034 A 
BRANCH  43  57
ATOM     57  C   UNL A   1      46.932  27.582  26.235  1.00  0.00     0.023 A 
ATOM     58  C   UNL A   1      47.870  26.813  26.946  1.00  0.00     0.012 A 
ATOM     59  C   UNL A   1      47.141  27.856  24.870  1.00  0.00     0.148 A 
ATOM     60  C   UNL A   1      49.015  26.338  26.307  1.00  0.00     0.002 A 
ATOM     61  C   UNL A   1      48.268  27.356  24.234  1.00  0.00     0.091 A 
ATOM     62  F   UNL A   1      46.250  28.626  24.229  1.00  0.00    -0.205 F 
ATOM     63  C   UNL A   1      49.209  26.602  24.952  1.00  0.00     0.022 A 
BRANCH  61  64
ATOM     64  S   UNL A   1      48.568  27.616  22.483  1.00  0.00     0.127 S 
ATOM     65  O   UNL A   1      49.815  28.379  22.509  1.00  0.00    -0.237 OA
ATOM     66  O   UNL A   1      48.700  26.247  21.984  1.00  0.00    -0.237 OA
ATOM     67  O   UNL A   1      47.403  28.330  21.983  1.00  0.00    -0.744 OA
ENDBRANCH  61  64
ENDBRANCH  43  57
BRANCH  44  68
ATOM     68  C   UNL A   1      38.595  30.637  30.668  1.00  0.00     0.023 A 
ATOM     69  C   UNL A   1      38.312  30.576  32.048  1.00  0.00     0.012 A 
ATOM     70  C   UNL A   1      37.645  31.219  29.810  1.00  0.00     0.148 A 
ATOM     71  C   UNL A   1      37.107  31.068  32.556  1.00  0.00     0.002 A 
ATOM     72  C   UNL A   1      36.478  31.772  30.332  1.00  0.00     0.091 A 
ATOM     73  F   UNL A   1      37.890  31.233  28.491  1.00  0.00    -0.205 F 
ATOM     74  C   UNL A   1      36.197  31.682  31.700  1.00  0.00     0.022 A 
BRANCH  72  75
ATOM     75  S   UNL A   1      35.381  32.727  29.278  1.00  0.00     0.127 S 
ATOM     76  O   UNL A   1      36.242  33.822  28.847  1.00  0.00    -0.237 OA
ATOM     77  O   UNL A   1      35.026  31.772  28.227  1.00  0.00    -0.237 OA
ATOM     78  O   UNL A   1      34.269  33.077  30.156  1.00  0.00    -0.744 OA
ENDBRANCH  72  75
ENDBRANCH  44  68
BRANCH  56  79
ATOM     79  C   UNL A   1      44.934  33.451  29.921  1.00  0.00     0.023 A 
ATOM     80  C   UNL A   1      45.620  33.415  31.153  1.00  0.00     0.012 A 
ATOM     81  C   UNL A   1      44.931  34.640  29.168  1.00  0.00     0.148 A 
ATOM     82  C   UNL A   1      46.275  34.547  31.637  1.00  0.00     0.002 A 
ATOM     83  C   UNL A   1      45.616  35.757  29.641  1.00  0.00     0.091 A 
ATOM     84  F   UNL A   1      44.258  34.664  28.008  1.00  0.00    -0.205 F 
ATOM     85  C   UNL A   1      46.282  35.713  30.877  1.00  0.00     0.022 A 
BRANCH  83  86
ATOM     86  S   UNL A   1      45.745  37.278  28.691  1.00  0.00     0.127 S 
ATOM     87  O   UNL A   1      46.541  38.120  29.581  1.00  0.00    -0.237 OA
ATOM     88  O   UNL A   1      46.444  36.836  27.483  1.00  0.00    -0.237 OA
ATOM     89  O   UNL A   1      44.376  37.719  28.464  1.00  0.00    -0.744 OA
ENDBRANCH  83  86
ENDBRANCH  56  79
ENDBRANCH  30  31
ENDBRANCH  23  25
ENDBRANCH  22  23
ENDBRANCH  21  22
ENDBRANCH   1  21
TORSDOF 18
ENDMDL
MODEL 2
REMARK VINA RESULT:     -11.8      2.025      8.435
REMARK SMILES C[C@H](C(=O)OCCOC(=O)c1ccc(-c2c3nc(c(-c4cccc(S(=O)(=O)[O-])c4F)c4ccc([nH]4)c(-c4cccc(S(=O)(=O)[O-])c4F)c4nc(c(-c5cccc(S(=O)(=O)[O-])c5F)c5ccc2[nH]5)C=C4)C=C3)cc1)c1ccc(C[C@@H]2CCC[C@H]2O)cc1
REMARK SMILES IDX 6 1 5 2 3 3 4 4 2 5 1 6 74 7 75 8 86 9 76 10 85 11 77 12
REMARK SMILES IDX 78 13 79 14 80 15 83 16 81 17 82 18 84 19 7 21 8 22 9 23
REMARK SMILES IDX 10 24 11 25 12 26 73 27 13 28 72 29 14 30 15 31 16 32 66 33
REMARK SMILES IDX 17 34 71 35 65 36 67 37 18 38 70 39 64 40 63 41 19 43 51 44
REMARK SMILES IDX 31 45 50 46 32 47 35 48 49 49 68 50 33 51 34 52 48 54 69 55
REMARK SMILES IDX 36 56 20 57 21 58 29 59 22 60 24 61 30 62 23 63 25 64 26 65
REMARK SMILES IDX 27 66 28 67 52 68 53 69 61 70 54 71 56 72 62 73 55 74 57 75
REMARK SMILES IDX 58 76 59 77 60 78 37 79 38 80 46 81 39 82 41 83 47 84 40 85
REMARK SMILES IDX 42 86 43 87 44 88 45 89
REMARK H PARENT 84 20 67 42 35 53
REMARK Flexibility Score: inf
ROOT
ATOM      1  C   UNL A   1      34.852  20.276  25.049  1.00  0.00     0.274 C 
ENDROOT
BRANCH   1   2
ATOM      2  O   UNL A   1      33.918  20.821  26.007  1.00  0.00    -0.462 OA
BRANCH   2   3
ATOM      3  C   UNL A   1      32.632  20.966  25.571  1.00  0.00     0.313 C 
ATOM      4  O   UNL A   1      31.973  20.075  25.052  1.00  0.00    -0.252 OA
BRANCH   3   5
ATOM      5  C   UNL A   1      32.167  22.420  25.740  1.00  0.00     0.126 C 
ATOM      6  C   UNL A   1      33.164  23.111  26.673  1.00  0.00     0.025 C 
BRANCH   5   7
ATOM      7  C   UNL A   1      32.012  23.080  24.375  1.00  0.00    -0.034 A 
ATOM      8  C   UNL A   1      33.051  22.950  23.442  1.00  0.00     0.005 A 
ATOM      9  C   UNL A   1      30.969  23.971  24.089  1.00  0.00     0.005 A 
ATOM     10  C   UNL A   1      33.167  23.858  22.390  1.00  0.00     0.004 A 
ATOM     11  C   UNL A   1      31.074  24.857  23.019  1.00  0.00     0.004 A 
ATOM     12  C   UNL A   1      32.244  24.902  22.262  1.00  0.00    -0.048 A 
BRANCH  12  13
ATOM     13  C   UNL A   1      32.609  26.148  21.487  1.00  0.00     0.041 C 
BRANCH  13  14
ATOM     14  C   UNL A   1      32.946  27.393  22.361  1.00  0.00     0.022 C 
ATOM     15  C   UNL A   1      33.665  27.141  23.705  1.00  0.00     0.007 C 
ATOM     16  C   UNL A   1      31.705  28.230  22.738  1.00  0.00     0.117 C 
ATOM     17  C   UNL A   1      33.144  28.200  24.661  1.00  0.00     0.003 C 
ATOM     18  C   UNL A   1      31.687  28.327  24.263  1.00  0.00     0.032 C 
BRANCH  16  19
ATOM     19  O   UNL A   1      31.807  29.538  22.178  1.00  0.00    -0.393 OA
ATOM     20  H   UNL A   1      32.589  29.584  21.605  1.00  0.00     0.210 HD
ENDBRANCH  16  19
ENDBRANCH  13  14
ENDBRANCH  12  13
ENDBRANCH   5   7
ENDBRANCH   3   5
ENDBRANCH   2   3
ENDBRANCH   1   2
BRANCH   1  21
ATOM     21  C   UNL A   1      35.951  21.283  24.724  1.00  0.00     0.275 C 
BRANCH  21  22
ATOM     22  O   UNL A   1      36.753  21.506  25.895  1.00  0.00    -0.458 OA
BRANCH  22  23
ATOM     23  C   UNL A   1      38.069  21.225  25.781  1.00  0.00     0.338 C 
ATOM     24  O   UNL A   1      38.575  20.195  25.358  1.00  0.00    -0.246 OA
BRANCH  23  25
ATOM     25  C   UNL A   1      38.840  22.404  26.205  1.00  0.00     0.060 A 
ATOM     26  C   UNL A   1      38.344  23.659  25.873  1.00  0.00     0.016 A 
ATOM     27  C   UNL A   1      40.070  22.282  26.858  1.00  0.00     0.016 A 
ATOM     28  C   UNL A   1      39.094  24.793  26.168  1.00  0.00     0.010 A 
ATOM     29  C   UNL A   1      40.795  23.438  27.204  1.00  0.00     0.010 A 
ATOM     30  C   UNL A   1      40.309  24.705  26.858  1.00  0.00    -0.014 A 
BRANCH  30  31
ATOM     31  C   UNL A   1      41.041  25.970  27.123  1.00  0.00     0.031 A 
ATOM     32  C   UNL A   1      40.479  26.945  28.115  1.00  0.00     0.074 A 
ATOM     33  C   UNL A   1      42.278  26.174  26.628  1.00  0.00     0.049 A 
ATOM     34  N   UNL A   1      41.003  28.052  28.569  1.00  0.00    -0.248 NA
ATOM     35  C   UNL A   1      39.161  26.618  28.681  1.00  0.00     0.031 C 
ATOM     36  C   UNL A   1      42.985  25.260  25.736  1.00  0.00     0.029 A 
ATOM     37  N   UNL A   1      43.189  27.177  26.865  1.00  0.00    -0.354 N 
ATOM     38  C   UNL A   1      40.045  28.603  29.407  1.00  0.00     0.074 A 
ATOM     39  C   UNL A   1      38.945  27.663  29.469  1.00  0.00     0.031 C 
ATOM     40  C   UNL A   1      44.252  25.682  25.591  1.00  0.00     0.029 A 
ATOM     41  C   UNL A   1      44.432  26.937  26.320  1.00  0.00     0.049 A 
ATOM     42  H   UNL A   1      42.974  27.989  27.377  1.00  0.00     0.167 HD
ATOM     43  C   UNL A   1      40.054  29.805  30.027  1.00  0.00     0.034 A 
ATOM     44  C   UNL A   1      45.581  27.639  26.413  1.00  0.00     0.034 A 
ATOM     45  C   UNL A   1      41.136  30.747  29.973  1.00  0.00     0.049 A 
ATOM     46  C   UNL A   1      45.580  28.961  27.141  1.00  0.00     0.074 A 
ATOM     47  C   UNL A   1      41.182  32.037  30.473  1.00  0.00     0.029 A 
ATOM     48  N   UNL A   1      42.367  30.502  29.387  1.00  0.00    -0.354 N 
ATOM     49  N   UNL A   1      44.650  29.491  27.899  1.00  0.00    -0.248 NA
ATOM     50  C   UNL A   1      46.785  29.796  26.999  1.00  0.00     0.031 C 
ATOM     51  C   UNL A   1      42.439  32.577  30.178  1.00  0.00     0.029 A 
ATOM     52  C   UNL A   1      43.179  31.617  29.508  1.00  0.00     0.049 A 
ATOM     53  H   UNL A   1      42.626  29.660  28.949  1.00  0.00     0.167 HD
ATOM     54  C   UNL A   1      45.146  30.729  28.300  1.00  0.00     0.074 A 
ATOM     55  C   UNL A   1      46.486  30.840  27.761  1.00  0.00     0.031 C 
ATOM     56  C   UNL A   1      44.524  31.708  29.001  1.00  0.00     0.034 A 
BRANCH  43  57
ATOM     57  C   UNL A   1      38.797  30.201  30.743  1.00  0.00     0.023 A 
ATOM     58  C   UNL A   1      38.593  29.832  32.085  1.00  0.00     0.012 A 
ATOM     59  C   UNL A   1      37.813  30.944  30.063  1.00  0.00     0.148 A 
ATOM     60  C   UNL A   1      37.411  30.184  32.736  1.00  0.00     0.002 A 
ATOM     61  C   UNL A   1      36.652  31.314  30.727  1.00  0.00     0.091 A 
ATOM     62  F   UNL A   1      38.017  31.246  28.773  1.00  0.00    -0.205 F 
ATOM     63  C   UNL A   1      36.446  30.930  32.061  1.00  0.00     0.022 A 
BRANCH  61  64
ATOM     64  S   UNL A   1      35.382  32.311  29.941  1.00  0.00     0.127 S 
ATOM     65  O   UNL A   1      34.419  32.471  31.030  1.00  0.00    -0.237 OA
ATOM     66  O   UNL A   1      36.115  33.527  29.590  1.00  0.00    -0.237 OA
ATOM     67  O   UNL A   1      34.919  31.536  28.800  1.00  0.00    -0.744 OA
ENDBRANCH  61  64
ENDBRANCH  43  57
BRANCH  44  68
ATOM     68  C   UNL A   1      46.856  27.100  25.852  1.00  0.00     0.023 A 
ATOM     69  C   UNL A   1      47.127  27.287  24.480  1.00  0.00     0.012 A 
ATOM     70  C   UNL A   1      47.805  26.426  26.640  1.00  0.00     0.148 A 
ATOM     71  C   UNL A   1      48.305  26.801  23.909  1.00  0.00     0.002 A 
ATOM     72  C   UNL A   1      49.009  26.008  26.080  1.00  0.00     0.091 A 
ATOM     73  F   UNL A   1      47.527  26.203  27.933  1.00  0.00    -0.205 F 
ATOM     74  C   UNL A   1      49.255  26.176  24.712  1.00  0.00     0.022 A 
BRANCH  72  75
ATOM     75  S   UNL A   1      50.320  25.367  27.127  1.00  0.00     0.127 S 
ATOM     76  O   UNL A   1      49.677  24.221  27.761  1.00  0.00    -0.237 OA
ATOM     77  O   UNL A   1      51.370  25.029  26.165  1.00  0.00    -0.237 OA
ATOM     78  O   UNL A   1      50.656  26.490  27.996  1.00  0.00    -0.744 OA
ENDBRANCH  72  75
ENDBRANCH  44  68
BRANCH  56  79
ATOM     79  C   UNL A   1      45.252  33.016  29.181  1.00  0.00     0.023 A 
ATOM     80  C   UNL A   1      46.092  33.175  30.302  1.00  0.00     0.012 A 
ATOM     81  C   UNL A   1      45.186  34.041  28.218  1.00  0.00     0.148 A 
ATOM     82  C   UNL A   1      46.839  34.340  30.474  1.00  0.00     0.002 A 
ATOM     83  C   UNL A   1      45.960  35.187  28.378  1.00  0.00     0.091 A 
ATOM     84  F   UNL A   1      44.367  33.882  27.167  1.00  0.00    -0.205 F 
ATOM     85  C   UNL A   1      46.781  35.341  29.507  1.00  0.00     0.022 A 
BRANCH  83  86
ATOM     86  S   UNL A   1      46.008  36.493  27.143  1.00  0.00     0.127 S 
ATOM     87  O   UNL A   1      46.455  35.766  25.956  1.00  0.00    -0.237 OA
ATOM     88  O   UNL A   1      44.613  36.935  27.097  1.00  0.00    -0.237 OA
ATOM     89  O   UNL A   1      46.937  37.490  27.658  1.00  0.00    -0.744 OA
ENDBRANCH  83  86
ENDBRANCH  56  79
ENDBRANCH  30  31
ENDBRANCH  23  25
ENDBRANCH  22  23
ENDBRANCH  21  22
ENDBRANCH   1  21
TORSDOF 18
ENDMDL
MODEL 3
REMARK VINA RESULT:     -11.8      3.343      9.964
REMARK SMILES C[C@H](C(=O)OCCOC(=O)c1ccc(-c2c3nc(c(-c4cccc(S(=O)(=O)[O-])c4F)c4ccc([nH]4)c(-c4cccc(S(=O)(=O)[O-])c4F)c4nc(c(-c5cccc(S(=O)(=O)[O-])c5F)c5ccc2[nH]5)C=C4)C=C3)cc1)c1ccc(C[C@@H]2CCC[C@H]2O)cc1
REMARK SMILES IDX 6 1 5 2 3 3 4 4 2 5 1 6 74 7 75 8 86 9 76 10 85 11 77 12
REMARK SMILES IDX 78 13 79 14 80 15 83 16 81 17 82 18 84 19 7 21 8 22 9 23
REMARK SMILES IDX 10 24 11 25 12 26 73 27 13 28 72 29 14 30 15 31 16 32 66 33
REMARK SMILES IDX 17 34 71 35 65 36 67 37 18 38 70 39 64 40 63 41 19 43 51 44
REMARK SMILES IDX 31 45 50 46 32 47 35 48 49 49 68 50 33 51 34 52 48 54 69 55
REMARK SMILES IDX 36 56 20 57 21 58 29 59 22 60 24 61 30 62 23 63 25 64 26 65
REMARK SMILES IDX 27 66 28 67 52 68 53 69 61 70 54 71 56 72 62 73 55 74 57 75
REMARK SMILES IDX 58 76 59 77 60 78 37 79 38 80 46 81 39 82 41 83 47 84 40 85
REMARK SMILES IDX 42 86 43 87 44 88 45 89
REMARK H PARENT 84 20 67 42 35 53
REMARK Flexibility Score: inf
ROOT
ATOM      1  C   UNL A   1      42.326  20.433  26.474  1.00  0.00     0.274 C 
ENDROOT
BRANCH   1   2
ATOM      2  O   UNL A   1      43.102  20.849  25.329  1.00  0.00    -0.462 OA
BRANCH   2   3
ATOM      3  C   UNL A   1      43.494  22.157  25.316  1.00  0.00     0.313 C 
ATOM      4  O   UNL A   1      42.728  23.107  25.230  1.00  0.00    -0.252 OA
BRANCH   3   5
ATOM      5  C   UNL A   1      45.027  22.259  25.329  1.00  0.00     0.126 C 
ATOM      6  C   UNL A   1      45.441  23.042  24.082  1.00  0.00     0.025 C 
BRANCH   5   7
ATOM      7  C   UNL A   1      45.498  22.864  26.647  1.00  0.00    -0.034 A 
ATOM      8  C   UNL A   1      44.655  22.782  27.764  1.00  0.00     0.005 A 
ATOM      9  C   UNL A   1      46.641  23.668  26.734  1.00  0.00     0.005 A 
ATOM     10  C   UNL A   1      44.818  23.665  28.832  1.00  0.00     0.004 A 
ATOM     11  C   UNL A   1      46.818  24.527  27.817  1.00  0.00     0.004 A 
ATOM     12  C   UNL A   1      45.826  24.634  28.791  1.00  0.00    -0.048 A 
BRANCH  12  13
ATOM     13  C   UNL A   1      45.717  25.880  29.641  1.00  0.00     0.041 C 
BRANCH  13  14
ATOM     14  C   UNL A   1      44.531  25.887  30.651  1.00  0.00     0.022 C 
ATOM     15  C   UNL A   1      43.799  27.229  30.876  1.00  0.00     0.007 C 
ATOM     16  C   UNL A   1      44.930  25.422  32.068  1.00  0.00     0.117 C 
ATOM     17  C   UNL A   1      43.372  27.231  32.333  1.00  0.00     0.003 C 
ATOM     18  C   UNL A   1      44.531  26.544  33.026  1.00  0.00     0.032 C 
BRANCH  16  19
ATOM     19  O   UNL A   1      44.226  24.230  32.411  1.00  0.00    -0.393 OA
ATOM     20  H   UNL A   1      43.875  23.820  31.605  1.00  0.00     0.210 HD
ENDBRANCH  16  19
ENDBRANCH  13  14
ENDBRANCH  12  13
ENDBRANCH   5   7
ENDBRANCH   3   5
ENDBRANCH   2   3
ENDBRANCH   1   2
BRANCH   1  21
ATOM     21  C   UNL A   1      40.908  20.048  26.062  1.00  0.00     0.275 C 
BRANCH  21  22
ATOM     22  O   UNL A   1      39.970  20.653  26.967  1.00  0.00    -0.458 OA
BRANCH  22  23
ATOM     23  C   UNL A   1      39.201  21.639  26.458  1.00  0.00     0.338 C 
ATOM     24  O   UNL A   1      38.169  21.520  25.814  1.00  0.00    -0.246 OA
BRANCH  23  25
ATOM     25  C   UNL A   1      39.777  22.934  26.852  1.00  0.00     0.060 A 
ATOM     26  C   UNL A   1      39.460  24.048  26.085  1.00  0.00     0.016 A 
ATOM     27  C   UNL A   1      40.674  23.046  27.919  1.00  0.00     0.016 A 
ATOM     28  C   UNL A   1      40.064  25.270  26.365  1.00  0.00     0.010 A 
ATOM     29  C   UNL A   1      41.236  24.297  28.231  1.00  0.00     0.010 A 
ATOM     30  C   UNL A   1      40.934  25.421  27.451  1.00  0.00    -0.014 A 
BRANCH  30  31
ATOM     31  C   UNL A   1      41.534  26.762  27.669  1.00  0.00     0.031 A 
ATOM     32  C   UNL A   1      40.856  27.724  28.600  1.00  0.00     0.074 A 
ATOM     33  C   UNL A   1      42.758  27.062  27.189  1.00  0.00     0.049 A 
ATOM     34  N   UNL A   1      41.260  28.897  29.009  1.00  0.00    -0.248 NA
ATOM     35  C   UNL A   1      39.562  27.298  29.155  1.00  0.00     0.031 C 
ATOM     36  C   UNL A   1      43.571  26.180  26.358  1.00  0.00     0.029 A 
ATOM     37  N   UNL A   1      43.562  28.158  27.395  1.00  0.00    -0.354 N 
ATOM     38  C   UNL A   1      40.233  29.390  29.799  1.00  0.00     0.074 A 
ATOM     39  C   UNL A   1      39.227  28.352  29.885  1.00  0.00     0.031 C 
ATOM     40  C   UNL A   1      44.795  26.715  26.218  1.00  0.00     0.029 A 
ATOM     41  C   UNL A   1      44.835  28.015  26.889  1.00  0.00     0.049 A 
ATOM     42  H   UNL A   1      43.257  28.969  27.862  1.00  0.00     0.167 HD
ATOM     43  C   UNL A   1      40.111  30.616  30.360  1.00  0.00     0.034 A 
ATOM     44  C   UNL A   1      45.909  28.829  26.970  1.00  0.00     0.034 A 
ATOM     45  C   UNL A   1      41.099  31.655  30.281  1.00  0.00     0.049 A 
ATOM     46  C   UNL A   1      45.763  30.177  27.632  1.00  0.00     0.074 A 
ATOM     47  C   UNL A   1      41.008  32.966  30.717  1.00  0.00     0.029 A 
ATOM     48  N   UNL A   1      42.362  31.504  29.733  1.00  0.00    -0.354 N 
ATOM     49  N   UNL A   1      44.768  30.649  28.343  1.00  0.00    -0.248 NA
ATOM     50  C   UNL A   1      46.885  31.118  27.473  1.00  0.00     0.031 C 
ATOM     51  C   UNL A   1      42.214  33.611  30.421  1.00  0.00     0.029 A 
ATOM     52  C   UNL A   1      43.060  32.697  29.815  1.00  0.00     0.049 A 
ATOM     53  H   UNL A   1      42.711  30.671  29.342  1.00  0.00     0.167 HD
ATOM     54  C   UNL A   1      45.132  31.948  28.692  1.00  0.00     0.074 A 
ATOM     55  C   UNL A   1      46.468  32.162  28.176  1.00  0.00     0.031 C 
ATOM     56  C   UNL A   1      44.401  32.894  29.332  1.00  0.00     0.034 A 
BRANCH  43  57
ATOM     57  C   UNL A   1      38.804  30.921  31.029  1.00  0.00     0.023 A 
ATOM     58  C   UNL A   1      38.604  30.599  32.383  1.00  0.00     0.012 A 
ATOM     59  C   UNL A   1      37.770  31.531  30.293  1.00  0.00     0.148 A 
ATOM     60  C   UNL A   1      37.377  30.865  32.992  1.00  0.00     0.002 A 
ATOM     61  C   UNL A   1      36.563  31.818  30.914  1.00  0.00     0.091 A 
ATOM     62  F   UNL A   1      37.976  31.790  28.994  1.00  0.00    -0.205 F 
ATOM     63  C   UNL A   1      36.362  31.480  32.262  1.00  0.00     0.022 A 
BRANCH  61  64
ATOM     64  S   UNL A   1      35.223  32.647  30.054  1.00  0.00     0.127 S 
ATOM     65  O   UNL A   1      35.885  33.863  29.582  1.00  0.00    -0.237 OA
ATOM     66  O   UNL A   1      34.888  31.687  29.003  1.00  0.00    -0.237 OA
ATOM     67  O   UNL A   1      34.176  32.845  31.046  1.00  0.00    -0.744 OA
ENDBRANCH  61  64
ENDBRANCH  43  57
BRANCH  44  68
ATOM     68  C   UNL A   1      47.243  28.390  26.462  1.00  0.00     0.023 A 
ATOM     69  C   UNL A   1      48.275  28.141  27.390  1.00  0.00     0.012 A 
ATOM     70  C   UNL A   1      47.508  28.201  25.094  1.00  0.00     0.148 A 
ATOM     71  C   UNL A   1      49.540  27.730  26.964  1.00  0.00     0.002 A 
ATOM     72  C   UNL A   1      48.748  27.723  24.681  1.00  0.00     0.091 A 
ATOM     73  F   UNL A   1      46.543  28.486  24.206  1.00  0.00    -0.205 F 
ATOM     74  C   UNL A   1      49.773  27.504  25.610  1.00  0.00     0.022 A 
BRANCH  72  75
ATOM     75  S   UNL A   1      49.012  27.251  22.968  1.00  0.00     0.127 S 
ATOM     76  O   UNL A   1      48.266  26.000  22.874  1.00  0.00    -0.237 OA
ATOM     77  O   UNL A   1      48.429  28.371  22.228  1.00  0.00    -0.237 OA
ATOM     78  O   UNL A   1      50.463  27.156  22.849  1.00  0.00    -0.744 OA
ENDBRANCH  72  75
ENDBRANCH  44  68
BRANCH  56  79
ATOM     79  C   UNL A   1      44.995  34.273  29.461  1.00  0.00     0.023 A 
ATOM     80  C   UNL A   1      45.671  34.611  30.652  1.00  0.00     0.012 A 
ATOM     81  C   UNL A   1      44.973  35.194  28.397  1.00  0.00     0.148 A 
ATOM     82  C   UNL A   1      46.296  35.849  30.791  1.00  0.00     0.002 A 
ATOM     83  C   UNL A   1      45.628  36.416  28.529  1.00  0.00     0.091 A 
ATOM     84  F   UNL A   1      44.310  34.866  27.278  1.00  0.00    -0.205 F 
ATOM     85  C   UNL A   1      46.283  36.747  29.727  1.00  0.00     0.022 A 
BRANCH  83  86
ATOM     86  S   UNL A   1      45.731  37.601  27.181  1.00  0.00     0.127 S 
ATOM     87  O   UNL A   1      46.372  36.809  26.134  1.00  0.00    -0.237 OA
ATOM     88  O   UNL A   1      44.323  37.916  26.931  1.00  0.00    -0.237 OA
ATOM     89  O   UNL A   1      46.512  38.718  27.696  1.00  0.00    -0.744 OA
ENDBRANCH  83  86
ENDBRANCH  56  79
ENDBRANCH  30  31
ENDBRANCH  23  25
ENDBRANCH  22  23
ENDBRANCH  21  22
ENDBRANCH   1  21
TORSDOF 18
ENDMDL
