MODEL 1
REMARK VINA RESULT:     -12.4      0.000      0.000
REMARK SMILES Cc1ccc(NC(=O)C[C@H]2SC[C@H](C(=O)OCCOC(=O)c3ccc(-c4c5nc(c(-c6cccc(S(=O)(=O)[O-])c6F)c6ccc([nH]6)c(-c6cccc(S(=O)(=O)[O-])c6F)c6nc(c(-c7cccc(S(=O)(=O)[O-])c7F)c7ccc4[nH]7)C=C6)C=C5)cc3)NC2=O)cc1
REMARK SMILES IDX 17 1 16 2 14 3 15 4 13 5 10 6 11 7 86 8 12 9 85 10 87 11
REMARK SMILES IDX 9 13 7 14 6 15 8 17 5 18 1 19 2 20 3 21 89 22 4 23 88 24
REMARK SMILES IDX 18 25 19 26 20 27 21 28 22 29 23 30 84 31 24 32 83 33 25 34
REMARK SMILES IDX 26 35 27 36 77 37 28 38 82 39 76 40 78 41 29 42 81 43 75 44
REMARK SMILES IDX 74 45 30 47 62 48 42 49 61 50 43 51 46 52 60 53 79 54 44 55
REMARK SMILES IDX 45 56 59 58 80 59 47 60 31 61 32 62 40 63 33 64 35 65 41 66
REMARK SMILES IDX 34 67 36 68 37 69 38 70 39 71 63 72 64 73 72 74 65 75 67 76
REMARK SMILES IDX 73 77 66 78 68 79 69 80 70 81 71 82 48 83 49 84 57 85 50 86
REMARK SMILES IDX 52 87 58 88 51 89 53 90 54 91 55 92 56 93
REMARK H PARENT 85 12 6 16 78 46 46 57
REMARK Flexibility Score: inf
ROOT
ATOM      1  C   UNL A   1      32.393  29.632  24.618  1.00  0.00     0.274 C 
ENDROOT
BRANCH   1   2
ATOM      2  O   UNL A   1      31.010  29.579  24.238  1.00  0.00    -0.461 OA
BRANCH   2   3
ATOM      3  C   UNL A   1      30.694  28.781  23.194  1.00  0.00     0.329 C 
ATOM      4  O   UNL A   1      30.533  29.199  22.052  1.00  0.00    -0.250 OA
BRANCH   3   5
ATOM      5  C   UNL A   1      30.440  27.320  23.602  1.00  0.00     0.202 C 
ATOM      6  C   UNL A   1      31.107  24.673  24.979  1.00  0.00     0.145 C 
ATOM      7  S   UNL A   1      31.240  24.733  23.139  1.00  0.00    -0.145 SA
ATOM      8  C   UNL A   1      30.153  25.747  25.527  1.00  0.00     0.234 C 
ATOM      9  C   UNL A   1      31.555  26.502  22.967  1.00  0.00     0.107 C 
ATOM     10  N   UNL A   1      30.249  27.028  25.022  1.00  0.00    -0.341 N 
ATOM     11  O   UNL A   1      29.424  25.575  26.494  1.00  0.00    -0.274 OA
ATOM     12  H   UNL A   1      30.185  27.783  25.649  1.00  0.00     0.164 HD
BRANCH   6  13
ATOM     13  C   UNL A   1      30.903  23.200  25.357  1.00  0.00     0.124 C 
BRANCH  13  14
ATOM     14  C   UNL A   1      31.128  22.684  26.762  1.00  0.00     0.226 C 
ATOM     15  N   UNL A   1      32.313  22.215  27.221  1.00  0.00    -0.326 N 
ATOM     16  H   UNL A   1      32.313  22.028  28.188  1.00  0.00     0.169 HD
ATOM     17  O   UNL A   1      30.151  22.616  27.524  1.00  0.00    -0.275 OA
BRANCH  15  18
ATOM     18  C   UNL A   1      33.536  21.942  26.599  1.00  0.00     0.041 A 
ATOM     19  C   UNL A   1      37.311  21.486  24.587  1.00  0.00     0.044 C 
ATOM     20  C   UNL A   1      36.017  21.629  25.330  1.00  0.00    -0.051 A 
ATOM     21  C   UNL A   1      35.021  20.659  25.190  1.00  0.00     0.005 A 
ATOM     22  C   UNL A   1      35.780  22.740  26.142  1.00  0.00     0.005 A 
ATOM     23  C   UNL A   1      33.791  20.806  25.836  1.00  0.00     0.026 A 
ATOM     24  C   UNL A   1      34.551  22.886  26.782  1.00  0.00     0.026 A 
ENDBRANCH  15  18
ENDBRANCH  13  14
ENDBRANCH   6  13
ENDBRANCH   3   5
ENDBRANCH   2   3
ENDBRANCH   1   2
BRANCH   1  25
ATOM     25  C   UNL A   1      32.785  29.261  26.067  1.00  0.00     0.275 C 
BRANCH  25  26
ATOM     26  O   UNL A   1      34.086  29.560  26.667  1.00  0.00    -0.458 OA
BRANCH  26  27
ATOM     27  C   UNL A   1      34.492  30.418  27.637  1.00  0.00     0.338 C 
ATOM     28  O   UNL A   1      33.793  31.306  28.058  1.00  0.00    -0.246 OA
BRANCH  27  29
ATOM     29  C   UNL A   1      35.860  30.218  28.133  1.00  0.00     0.060 A 
ATOM     30  C   UNL A   1      36.075  29.758  29.444  1.00  0.00     0.016 A 
ATOM     31  C   UNL A   1      36.897  30.350  27.223  1.00  0.00     0.016 A 
ATOM     32  C   UNL A   1      37.313  29.207  29.779  1.00  0.00     0.010 A 
ATOM     33  C   UNL A   1      38.097  29.764  27.543  1.00  0.00     0.010 A 
ATOM     34  C   UNL A   1      38.294  29.135  28.792  1.00  0.00    -0.014 A 
BRANCH  34  35
ATOM     35  C   UNL A   1      39.619  28.542  28.941  1.00  0.00     0.031 A 
ATOM     36  C   UNL A   1      39.984  27.153  28.591  1.00  0.00     0.074 A 
ATOM     37  C   UNL A   1      40.577  29.460  29.175  1.00  0.00     0.049 A 
ATOM     38  N   UNL A   1      41.145  26.653  28.857  1.00  0.00    -0.248 NA
ATOM     39  C   UNL A   1      39.099  26.204  27.929  1.00  0.00     0.031 C 
ATOM     40  C   UNL A   1      41.999  29.405  28.898  1.00  0.00     0.029 A 
ATOM     41  N   UNL A   1      40.400  30.654  29.880  1.00  0.00    -0.354 N 
ATOM     42  C   UNL A   1      41.247  25.415  28.260  1.00  0.00     0.074 A 
ATOM     43  C   UNL A   1      39.917  25.153  27.757  1.00  0.00     0.031 C 
ATOM     44  C   UNL A   1      42.601  30.366  29.620  1.00  0.00     0.029 A 
ATOM     45  C   UNL A   1      41.603  30.889  30.546  1.00  0.00     0.049 A 
ATOM     46  H   UNL A   1      39.591  31.213  29.902  1.00  0.00     0.167 HD
ATOM     47  C   UNL A   1      42.477  24.825  28.183  1.00  0.00     0.034 A 
ATOM     48  C   UNL A   1      41.690  30.894  31.910  1.00  0.00     0.034 A 
ATOM     49  C   UNL A   1      43.498  25.666  28.836  1.00  0.00     0.049 A 
ATOM     50  C   UNL A   1      42.713  29.905  32.433  1.00  0.00     0.074 A 
ATOM     51  C   UNL A   1      44.428  26.571  28.351  1.00  0.00     0.029 A 
ATOM     52  N   UNL A   1      43.508  25.799  30.216  1.00  0.00    -0.354 N 
ATOM     53  N   UNL A   1      43.304  28.999  31.708  1.00  0.00    -0.248 NA
ATOM     54  C   UNL A   1      43.047  29.793  33.851  1.00  0.00     0.031 C 
ATOM     55  C   UNL A   1      44.999  27.256  29.461  1.00  0.00     0.029 A 
ATOM     56  C   UNL A   1      44.436  26.749  30.618  1.00  0.00     0.049 A 
ATOM     57  H   UNL A   1      42.932  25.288  30.829  1.00  0.00     0.167 HD
ATOM     58  C   UNL A   1      43.982  28.134  32.519  1.00  0.00     0.074 A 
ATOM     59  C   UNL A   1      43.793  28.676  33.856  1.00  0.00     0.031 C 
ATOM     60  C   UNL A   1      44.609  27.018  32.039  1.00  0.00     0.034 A 
BRANCH  47  61
ATOM     61  C   UNL A   1      42.900  23.587  27.384  1.00  0.00     0.023 A 
ATOM     62  C   UNL A   1      44.050  23.719  26.565  1.00  0.00     0.012 A 
ATOM     63  C   UNL A   1      42.268  22.324  27.330  1.00  0.00     0.148 A 
ATOM     64  C   UNL A   1      44.509  22.705  25.714  1.00  0.00     0.002 A 
ATOM     65  C   UNL A   1      42.731  21.300  26.488  1.00  0.00     0.091 A 
ATOM     66  F   UNL A   1      41.193  22.082  28.078  1.00  0.00    -0.205 F 
ATOM     67  C   UNL A   1      43.846  21.492  25.671  1.00  0.00     0.022 A 
BRANCH  65  68
ATOM     68  S   UNL A   1      41.929  19.684  26.404  1.00  0.00     0.127 S 
ATOM     69  O   UNL A   1      42.628  19.055  25.283  1.00  0.00    -0.237 OA
ATOM     70  O   UNL A   1      42.229  19.098  27.711  1.00  0.00    -0.237 OA
ATOM     71  O   UNL A   1      40.513  19.948  26.181  1.00  0.00    -0.744 OA
ENDBRANCH  65  68
ENDBRANCH  47  61
BRANCH  48  72
ATOM     72  C   UNL A   1      40.392  31.168  32.615  1.00  0.00     0.023 A 
ATOM     73  C   UNL A   1      39.596  30.072  33.031  1.00  0.00     0.012 A 
ATOM     74  C   UNL A   1      40.143  32.427  33.188  1.00  0.00     0.148 A 
ATOM     75  C   UNL A   1      38.673  30.209  34.073  1.00  0.00     0.002 A 
ATOM     76  C   UNL A   1      39.222  32.551  34.222  1.00  0.00     0.091 A 
ATOM     77  F   UNL A   1      40.860  33.484  32.784  1.00  0.00    -0.205 F 
ATOM     78  C   UNL A   1      38.504  31.444  34.688  1.00  0.00     0.022 A 
BRANCH  76  79
ATOM     79  S   UNL A   1      39.080  34.123  35.078  1.00  0.00     0.127 S 
ATOM     80  O   UNL A   1      38.087  33.837  36.113  1.00  0.00    -0.237 OA
ATOM     81  O   UNL A   1      40.430  34.335  35.580  1.00  0.00    -0.237 OA
ATOM     82  O   UNL A   1      38.621  35.001  34.006  1.00  0.00    -0.744 OA
ENDBRANCH  76  79
ENDBRANCH  48  72
BRANCH  60  83
ATOM     83  C   UNL A   1      45.450  26.094  32.892  1.00  0.00     0.023 A 
ATOM     84  C   UNL A   1      46.851  26.042  32.740  1.00  0.00     0.012 A 
ATOM     85  C   UNL A   1      44.869  25.161  33.786  1.00  0.00     0.148 A 
ATOM     86  C   UNL A   1      47.649  25.197  33.517  1.00  0.00     0.002 A 
ATOM     87  C   UNL A   1      45.659  24.269  34.504  1.00  0.00     0.091 A 
ATOM     88  F   UNL A   1      43.541  25.126  33.938  1.00  0.00    -0.205 F 
ATOM     89  C   UNL A   1      47.053  24.311  34.401  1.00  0.00     0.022 A 
BRANCH  87  90
ATOM     90  S   UNL A   1      44.968  22.972  35.540  1.00  0.00     0.127 S 
ATOM     91  O   UNL A   1      44.229  23.756  36.531  1.00  0.00    -0.237 OA
ATOM     92  O   UNL A   1      44.127  22.244  34.590  1.00  0.00    -0.237 OA
ATOM     93  O   UNL A   1      46.097  22.222  36.067  1.00  0.00    -0.744 OA
ENDBRANCH  87  90
ENDBRANCH  60  83
ENDBRANCH  34  35
ENDBRANCH  27  29
ENDBRANCH  26  27
ENDBRANCH  25  26
ENDBRANCH   1  25
TORSDOF 17
ENDMDL
MODEL 2
REMARK VINA RESULT:     -12.3      4.029     10.042
REMARK SMILES Cc1ccc(NC(=O)C[C@H]2SC[C@H](C(=O)OCCOC(=O)c3ccc(-c4c5nc(c(-c6cccc(S(=O)(=O)[O-])c6F)c6ccc([nH]6)c(-c6cccc(S(=O)(=O)[O-])c6F)c6nc(c(-c7cccc(S(=O)(=O)[O-])c7F)c7ccc4[nH]7)C=C6)C=C5)cc3)NC2=O)cc1
REMARK SMILES IDX 17 1 16 2 14 3 15 4 13 5 10 6 11 7 86 8 12 9 85 10 87 11
REMARK SMILES IDX 9 13 7 14 6 15 8 17 5 18 1 19 2 20 3 21 89 22 4 23 88 24
REMARK SMILES IDX 18 25 19 26 20 27 21 28 22 29 23 30 84 31 24 32 83 33 25 34
REMARK SMILES IDX 26 35 27 36 77 37 28 38 82 39 76 40 78 41 29 42 81 43 75 44
REMARK SMILES IDX 74 45 30 47 62 48 42 49 61 50 43 51 46 52 60 53 79 54 44 55
REMARK SMILES IDX 45 56 59 58 80 59 47 60 31 61 32 62 40 63 33 64 35 65 41 66
REMARK SMILES IDX 34 67 36 68 37 69 38 70 39 71 63 72 64 73 72 74 65 75 67 76
REMARK SMILES IDX 73 77 66 78 68 79 69 80 70 81 71 82 48 83 49 84 57 85 50 86
REMARK SMILES IDX 52 87 58 88 51 89 53 90 54 91 55 92 56 93
REMARK H PARENT 85 12 6 16 78 46 46 57
REMARK Flexibility Score: inf
ROOT
ATOM      1  C   UNL A   1      37.971  20.934  25.280  1.00  0.00     0.274 C 
ENDROOT
BRANCH   1   2
ATOM      2  O   UNL A   1      37.402  21.878  24.361  1.00  0.00    -0.461 OA
BRANCH   2   3
ATOM      3  C   UNL A   1      36.661  22.877  24.892  1.00  0.00     0.329 C 
ATOM      4  O   UNL A   1      37.137  23.947  25.255  1.00  0.00    -0.250 OA
BRANCH   3   5
ATOM      5  C   UNL A   1      35.187  22.492  25.104  1.00  0.00     0.202 C 
ATOM      6  C   UNL A   1      32.209  23.052  25.509  1.00  0.00     0.145 C 
ATOM      7  S   UNL A   1      33.168  22.450  26.967  1.00  0.00    -0.145 SA
ATOM      8  C   UNL A   1      32.868  22.658  24.178  1.00  0.00     0.234 C 
ATOM      9  C   UNL A   1      34.794  23.052  26.463  1.00  0.00     0.107 C 
ATOM     10  N   UNL A   1      34.232  22.823  24.048  1.00  0.00    -0.341 N 
ATOM     11  O   UNL A   1      32.238  22.356  23.173  1.00  0.00    -0.274 OA
ATOM     12  H   UNL A   1      34.580  23.183  23.201  1.00  0.00     0.164 HD
BRANCH   6  13
ATOM     13  C   UNL A   1      30.740  22.696  25.774  1.00  0.00     0.124 C 
BRANCH  13  14
ATOM     14  C   UNL A   1      29.893  23.444  26.782  1.00  0.00     0.226 C 
ATOM     15  N   UNL A   1      29.563  24.754  26.678  1.00  0.00    -0.326 N 
ATOM     16  H   UNL A   1      28.914  25.050  27.356  1.00  0.00     0.169 HD
ATOM     17  O   UNL A   1      29.537  22.844  27.807  1.00  0.00    -0.275 OA
BRANCH  15  18
ATOM     18  C   UNL A   1      29.957  25.770  25.801  1.00  0.00     0.041 A 
ATOM     19  C   UNL A   1      31.205  29.131  23.422  1.00  0.00     0.044 C 
ATOM     20  C   UNL A   1      30.809  27.934  24.234  1.00  0.00    -0.051 A 
ATOM     21  C   UNL A   1      29.773  27.105  23.796  1.00  0.00     0.005 A 
ATOM     22  C   UNL A   1      31.445  27.652  25.445  1.00  0.00     0.005 A 
ATOM     23  C   UNL A   1      29.360  26.017  24.568  1.00  0.00     0.026 A 
ATOM     24  C   UNL A   1      31.028  26.568  26.215  1.00  0.00     0.026 A 
ENDBRANCH  15  18
ENDBRANCH  13  14
ENDBRANCH   6  13
ENDBRANCH   3   5
ENDBRANCH   2   3
ENDBRANCH   1   2
BRANCH   1  25
ATOM     25  C   UNL A   1      39.358  21.233  25.894  1.00  0.00     0.275 C 
BRANCH  25  26
ATOM     26  O   UNL A   1      39.624  22.332  26.824  1.00  0.00    -0.458 OA
BRANCH  26  27
ATOM     27  C   UNL A   1      40.538  23.334  26.847  1.00  0.00     0.338 C 
ATOM     28  O   UNL A   1      41.697  23.168  26.562  1.00  0.00    -0.246 OA
BRANCH  27  29
ATOM     29  C   UNL A   1      40.032  24.647  27.269  1.00  0.00     0.060 A 
ATOM     30  C   UNL A   1      39.292  24.770  28.458  1.00  0.00     0.016 A 
ATOM     31  C   UNL A   1      40.442  25.755  26.544  1.00  0.00     0.016 A 
ATOM     32  C   UNL A   1      39.153  26.027  29.050  1.00  0.00     0.010 A 
ATOM     33  C   UNL A   1      40.344  26.982  27.154  1.00  0.00     0.010 A 
ATOM     34  C   UNL A   1      39.759  27.118  28.432  1.00  0.00    -0.014 A 
BRANCH  34  35
ATOM     35  C   UNL A   1      39.771  28.489  28.933  1.00  0.00     0.031 A 
ATOM     36  C   UNL A   1      38.708  29.493  28.720  1.00  0.00     0.074 A 
ATOM     37  C   UNL A   1      40.727  28.695  29.862  1.00  0.00     0.049 A 
ATOM     38  N   UNL A   1      38.832  30.724  29.089  1.00  0.00    -0.248 NA
ATOM     39  C   UNL A   1      37.429  29.224  28.076  1.00  0.00     0.031 C 
ATOM     40  C   UNL A   1      40.782  29.672  30.931  1.00  0.00     0.029 A 
ATOM     41  N   UNL A   1      41.970  28.059  29.898  1.00  0.00    -0.354 N 
ATOM     42  C   UNL A   1      37.626  31.367  28.919  1.00  0.00     0.074 A 
ATOM     43  C   UNL A   1      36.807  30.405  28.215  1.00  0.00     0.031 C 
ATOM     44  C   UNL A   1      42.054  29.748  31.359  1.00  0.00     0.029 A 
ATOM     45  C   UNL A   1      42.867  28.997  30.409  1.00  0.00     0.049 A 
ATOM     46  H   UNL A   1      42.172  27.137  29.619  1.00  0.00     0.167 HD
ATOM     47  C   UNL A   1      37.452  32.596  29.492  1.00  0.00     0.034 A 
ATOM     48  C   UNL A   1      43.906  29.489  29.669  1.00  0.00     0.034 A 
ATOM     49  C   UNL A   1      38.684  33.027  30.179  1.00  0.00     0.049 A 
ATOM     50  C   UNL A   1      43.884  31.001  29.566  1.00  0.00     0.074 A 
ATOM     51  C   UNL A   1      39.089  32.993  31.503  1.00  0.00     0.029 A 
ATOM     52  N   UNL A   1      39.799  33.389  29.439  1.00  0.00    -0.354 N 
ATOM     53  N   UNL A   1      42.893  31.755  29.949  1.00  0.00    -0.248 NA
ATOM     54  C   UNL A   1      44.940  31.761  28.901  1.00  0.00     0.031 C 
ATOM     55  C   UNL A   1      40.469  33.339  31.553  1.00  0.00     0.029 A 
ATOM     56  C   UNL A   1      40.893  33.608  30.264  1.00  0.00     0.049 A 
ATOM     57  H   UNL A   1      39.813  33.479  28.459  1.00  0.00     0.167 HD
ATOM     58  C   UNL A   1      43.093  33.032  29.509  1.00  0.00     0.074 A 
ATOM     59  C   UNL A   1      44.393  32.987  28.859  1.00  0.00     0.031 C 
ATOM     60  C   UNL A   1      42.160  34.018  29.672  1.00  0.00     0.034 A 
BRANCH  47  61
ATOM     61  C   UNL A   1      36.161  33.407  29.650  1.00  0.00     0.023 A 
ATOM     62  C   UNL A   1      35.578  33.917  28.462  1.00  0.00     0.012 A 
ATOM     63  C   UNL A   1      35.482  33.745  30.844  1.00  0.00     0.148 A 
ATOM     64  C   UNL A   1      34.448  34.746  28.453  1.00  0.00     0.002 A 
ATOM     65  C   UNL A   1      34.342  34.564  30.840  1.00  0.00     0.091 A 
ATOM     66  F   UNL A   1      35.929  33.298  32.015  1.00  0.00    -0.205 F 
ATOM     67  C   UNL A   1      33.829  35.075  29.646  1.00  0.00     0.022 A 
BRANCH  65  68
ATOM     68  S   UNL A   1      33.470  35.010  32.357  1.00  0.00     0.127 S 
ATOM     69  O   UNL A   1      34.425  35.909  33.005  1.00  0.00    -0.237 OA
ATOM     70  O   UNL A   1      32.259  35.667  31.861  1.00  0.00    -0.237 OA
ATOM     71  O   UNL A   1      33.221  33.759  33.061  1.00  0.00    -0.744 OA
ENDBRANCH  65  68
ENDBRANCH  47  61
BRANCH  48  72
ATOM     72  C   UNL A   1      44.334  28.604  28.534  1.00  0.00     0.023 A 
ATOM     73  C   UNL A   1      43.869  28.895  27.228  1.00  0.00     0.012 A 
ATOM     74  C   UNL A   1      45.447  27.756  28.671  1.00  0.00     0.148 A 
ATOM     75  C   UNL A   1      44.570  28.455  26.100  1.00  0.00     0.002 A 
ATOM     76  C   UNL A   1      46.135  27.324  27.542  1.00  0.00     0.091 A 
ATOM     77  F   UNL A   1      45.882  27.439  29.897  1.00  0.00    -0.205 F 
ATOM     78  C   UNL A   1      45.720  27.690  26.257  1.00  0.00     0.022 A 
BRANCH  76  79
ATOM     79  S   UNL A   1      47.672  26.422  27.753  1.00  0.00     0.127 S 
ATOM     80  O   UNL A   1      47.238  25.200  28.430  1.00  0.00    -0.237 OA
ATOM     81  O   UNL A   1      48.116  26.225  26.381  1.00  0.00    -0.237 OA
ATOM     82  O   UNL A   1      48.445  27.345  28.578  1.00  0.00    -0.744 OA
ENDBRANCH  76  79
ENDBRANCH  48  72
BRANCH  60  83
ATOM     83  C   UNL A   1      42.387  35.463  29.287  1.00  0.00     0.023 A 
ATOM     84  C   UNL A   1      41.915  35.970  28.060  1.00  0.00     0.012 A 
ATOM     85  C   UNL A   1      43.180  36.334  30.076  1.00  0.00     0.148 A 
ATOM     86  C   UNL A   1      42.111  37.302  27.683  1.00  0.00     0.002 A 
ATOM     87  C   UNL A   1      43.437  37.638  29.663  1.00  0.00     0.091 A 
ATOM     88  F   UNL A   1      43.699  35.898  31.228  1.00  0.00    -0.205 F 
ATOM     89  C   UNL A   1      42.872  38.136  28.486  1.00  0.00     0.022 A 
BRANCH  87  90
ATOM     90  S   UNL A   1      44.551  38.737  30.550  1.00  0.00     0.127 S 
ATOM     91  O   UNL A   1      45.760  37.917  30.636  1.00  0.00    -0.237 OA
ATOM     92  O   UNL A   1      44.648  39.871  29.632  1.00  0.00    -0.237 OA
ATOM     93  O   UNL A   1      43.913  39.026  31.825  1.00  0.00    -0.744 OA
ENDBRANCH  87  90
ENDBRANCH  60  83
ENDBRANCH  34  35
ENDBRANCH  27  29
ENDBRANCH  26  27
ENDBRANCH  25  26
ENDBRANCH   1  25
TORSDOF 17
ENDMDL
MODEL 3
REMARK VINA RESULT:     -11.9      1.640      2.093
REMARK SMILES Cc1ccc(NC(=O)C[C@H]2SC[C@H](C(=O)OCCOC(=O)c3ccc(-c4c5nc(c(-c6cccc(S(=O)(=O)[O-])c6F)c6ccc([nH]6)c(-c6cccc(S(=O)(=O)[O-])c6F)c6nc(c(-c7cccc(S(=O)(=O)[O-])c7F)c7ccc4[nH]7)C=C6)C=C5)cc3)NC2=O)cc1
REMARK SMILES IDX 17 1 16 2 14 3 15 4 13 5 10 6 11 7 86 8 12 9 85 10 87 11
REMARK SMILES IDX 9 13 7 14 6 15 8 17 5 18 1 19 2 20 3 21 89 22 4 23 88 24
REMARK SMILES IDX 18 25 19 26 20 27 21 28 22 29 23 30 84 31 24 32 83 33 25 34
REMARK SMILES IDX 26 35 27 36 77 37 28 38 82 39 76 40 78 41 29 42 81 43 75 44
REMARK SMILES IDX 74 45 30 47 62 48 42 49 61 50 43 51 46 52 60 53 79 54 44 55
REMARK SMILES IDX 45 56 59 58 80 59 47 60 31 61 32 62 40 63 33 64 35 65 41 66
REMARK SMILES IDX 34 67 36 68 37 69 38 70 39 71 63 72 64 73 72 74 65 75 67 76
REMARK SMILES IDX 73 77 66 78 68 79 69 80 70 81 71 82 48 83 49 84 57 85 50 86
REMARK SMILES IDX 52 87 58 88 51 89 53 90 54 91 55 92 56 93
REMARK H PARENT 85 12 6 16 78 46 46 57
REMARK Flexibility Score: inf
ROOT
ATOM      1  C   UNL A   1      32.741  29.638  25.116  1.00  0.00     0.274 C 
ENDROOT
BRANCH   1   2
ATOM      2  O   UNL A   1      31.339  29.611  24.806  1.00  0.00    -0.461 OA
BRANCH   2   3
ATOM      3  C   UNL A   1      30.983  29.033  23.638  1.00  0.00     0.329 C 
ATOM      4  O   UNL A   1      30.836  29.660  22.594  1.00  0.00    -0.250 OA
BRANCH   3   5
ATOM      5  C   UNL A   1      30.666  27.534  23.774  1.00  0.00     0.202 C 
ATOM      6  C   UNL A   1      31.233  24.648  24.607  1.00  0.00     0.145 C 
ATOM      7  S   UNL A   1      31.320  25.047  22.808  1.00  0.00    -0.145 SA
ATOM      8  C   UNL A   1      30.350  25.641  25.380  1.00  0.00     0.234 C 
ATOM      9  C   UNL A   1      31.721  26.801  22.959  1.00  0.00     0.107 C 
ATOM     10  N   UNL A   1      30.498  26.988  25.120  1.00  0.00    -0.341 N 
ATOM     11  O   UNL A   1      29.639  25.323  26.323  1.00  0.00    -0.274 OA
ATOM     12  H   UNL A   1      30.489  27.614  25.879  1.00  0.00     0.164 HD
BRANCH   6  13
ATOM     13  C   UNL A   1      30.964  23.140  24.710  1.00  0.00     0.124 C 
BRANCH  13  14
ATOM     14  C   UNL A   1      30.962  22.405  26.033  1.00  0.00     0.226 C 
ATOM     15  N   UNL A   1      32.071  21.908  26.630  1.00  0.00    -0.326 N 
ATOM     16  H   UNL A   1      31.907  21.562  27.537  1.00  0.00     0.169 HD
ATOM     17  O   UNL A   1      29.869  22.175  26.573  1.00  0.00    -0.275 OA
BRANCH  15  18
ATOM     18  C   UNL A   1      33.403  21.787  26.220  1.00  0.00     0.041 A 
ATOM     19  C   UNL A   1      37.455  21.023  24.991  1.00  0.00     0.044 C 
ATOM     20  C   UNL A   1      36.035  21.312  25.375  1.00  0.00    -0.051 A 
ATOM     21  C   UNL A   1      35.749  22.364  26.251  1.00  0.00     0.005 A 
ATOM     22  C   UNL A   1      34.990  20.521  24.893  1.00  0.00     0.005 A 
ATOM     23  C   UNL A   1      34.436  22.611  26.658  1.00  0.00     0.026 A 
ATOM     24  C   UNL A   1      33.682  20.769  25.304  1.00  0.00     0.026 A 
ENDBRANCH  15  18
ENDBRANCH  13  14
ENDBRANCH   6  13
ENDBRANCH   3   5
ENDBRANCH   2   3
ENDBRANCH   1   2
BRANCH   1  25
ATOM     25  C   UNL A   1      33.178  29.716  26.597  1.00  0.00     0.275 C 
BRANCH  25  26
ATOM     26  O   UNL A   1      34.572  29.773  27.039  1.00  0.00    -0.458 OA
BRANCH  26  27
ATOM     27  C   UNL A   1      35.327  30.736  27.624  1.00  0.00     0.338 C 
ATOM     28  O   UNL A   1      34.977  31.887  27.696  1.00  0.00    -0.246 OA
BRANCH  27  29
ATOM     29  C   UNL A   1      36.626  30.295  28.150  1.00  0.00     0.060 A 
ATOM     30  C   UNL A   1      36.726  29.802  29.463  1.00  0.00     0.016 A 
ATOM     31  C   UNL A   1      37.691  30.242  27.265  1.00  0.00     0.016 A 
ATOM     32  C   UNL A   1      37.839  29.039  29.823  1.00  0.00     0.010 A 
ATOM     33  C   UNL A   1      38.760  29.452  27.608  1.00  0.00     0.010 A 
ATOM     34  C   UNL A   1      38.814  28.796  28.858  1.00  0.00    -0.014 A 
BRANCH  34  35
ATOM     35  C   UNL A   1      40.008  27.977  29.033  1.00  0.00     0.031 A 
ATOM     36  C   UNL A   1      40.150  26.564  28.623  1.00  0.00     0.074 A 
ATOM     37  C   UNL A   1      41.095  28.704  29.361  1.00  0.00     0.049 A 
ATOM     38  N   UNL A   1      41.194  25.860  28.913  1.00  0.00    -0.248 NA
ATOM     39  C   UNL A   1      39.155  25.814  27.870  1.00  0.00     0.031 C 
ATOM     40  C   UNL A   1      42.499  28.417  29.146  1.00  0.00     0.029 A 
ATOM     41  N   UNL A   1      41.085  29.876  30.122  1.00  0.00    -0.354 N 
ATOM     42  C   UNL A   1      41.116  24.652  28.254  1.00  0.00     0.074 A 
ATOM     43  C   UNL A   1      39.790  24.647  27.677  1.00  0.00     0.031 C 
ATOM     44  C   UNL A   1      43.216  29.225  29.947  1.00  0.00     0.029 A 
ATOM     45  C   UNL A   1      42.272  29.868  30.854  1.00  0.00     0.049 A 
ATOM     46  H   UNL A   1      40.382  30.565  30.139  1.00  0.00     0.167 HD
ATOM     47  C   UNL A   1      42.230  23.863  28.200  1.00  0.00     0.034 A 
ATOM     48  C   UNL A   1      42.285  29.794  32.219  1.00  0.00     0.034 A 
ATOM     49  C   UNL A   1      43.343  24.483  28.944  1.00  0.00     0.049 A 
ATOM     50  C   UNL A   1      43.096  28.620  32.732  1.00  0.00     0.074 A 
ATOM     51  C   UNL A   1      44.437  25.236  28.553  1.00  0.00     0.029 A 
ATOM     52  N   UNL A   1      43.300  24.548  30.328  1.00  0.00    -0.354 N 
ATOM     53  N   UNL A   1      43.563  27.660  31.984  1.00  0.00    -0.248 NA
ATOM     54  C   UNL A   1      43.329  28.385  34.154  1.00  0.00     0.031 C 
ATOM     55  C   UNL A   1      45.056  25.759  29.723  1.00  0.00     0.029 A 
ATOM     56  C   UNL A   1      44.353  25.303  30.824  1.00  0.00     0.049 A 
ATOM     57  H   UNL A   1      42.614  24.115  30.885  1.00  0.00     0.167 HD
ATOM     58  C   UNL A   1      44.039  26.655  32.776  1.00  0.00     0.074 A 
ATOM     59  C   UNL A   1      43.873  27.157  34.131  1.00  0.00     0.031 C 
ATOM     60  C   UNL A   1      44.492  25.471  32.264  1.00  0.00     0.034 A 
BRANCH  47  61
ATOM     61  C   UNL A   1      42.479  22.609  27.352  1.00  0.00     0.023 A 
ATOM     62  C   UNL A   1      41.659  21.484  27.622  1.00  0.00     0.012 A 
ATOM     63  C   UNL A   1      43.452  22.414  26.346  1.00  0.00     0.148 A 
ATOM     64  C   UNL A   1      41.822  20.244  26.991  1.00  0.00     0.002 A 
ATOM     65  C   UNL A   1      43.612  21.176  25.701  1.00  0.00     0.091 A 
ATOM     66  F   UNL A   1      44.260  23.412  25.995  1.00  0.00    -0.205 F 
ATOM     67  C   UNL A   1      42.805  20.087  26.030  1.00  0.00     0.022 A 
BRANCH  65  68
ATOM     68  S   UNL A   1      44.856  20.910  24.420  1.00  0.00     0.127 S 
ATOM     69  O   UNL A   1      46.103  21.042  25.173  1.00  0.00    -0.237 OA
ATOM     70  O   UNL A   1      44.567  19.552  23.957  1.00  0.00    -0.237 OA
ATOM     71  O   UNL A   1      44.627  21.942  23.416  1.00  0.00    -0.744 OA
ENDBRANCH  65  68
ENDBRANCH  47  61
BRANCH  48  72
ATOM     72  C   UNL A   1      41.017  30.254  32.878  1.00  0.00     0.023 A 
ATOM     73  C   UNL A   1      39.869  29.427  32.804  1.00  0.00     0.012 A 
ATOM     74  C   UNL A   1      41.046  31.266  33.853  1.00  0.00     0.148 A 
ATOM     75  C   UNL A   1      38.846  29.529  33.754  1.00  0.00     0.002 A 
ATOM     76  C   UNL A   1      40.023  31.359  34.792  1.00  0.00     0.091 A 
ATOM     77  F   UNL A   1      42.106  32.083  33.918  1.00  0.00    -0.205 F 
ATOM     78  C   UNL A   1      38.936  30.479  34.765  1.00  0.00     0.022 A 
BRANCH  76  79
ATOM     79  S   UNL A   1      40.191  32.519  36.151  1.00  0.00     0.127 S 
ATOM     80  O   UNL A   1      39.828  33.794  35.532  1.00  0.00    -0.237 OA
ATOM     81  O   UNL A   1      39.222  32.020  37.116  1.00  0.00    -0.237 OA
ATOM     82  O   UNL A   1      41.604  32.375  36.488  1.00  0.00    -0.744 OA
ENDBRANCH  76  79
ENDBRANCH  48  72
BRANCH  60  83
ATOM     83  C   UNL A   1      45.117  24.377  33.101  1.00  0.00     0.023 A 
ATOM     84  C   UNL A   1      44.351  23.286  33.559  1.00  0.00     0.012 A 
ATOM     85  C   UNL A   1      46.456  24.455  33.560  1.00  0.00     0.148 A 
ATOM     86  C   UNL A   1      44.906  22.262  34.332  1.00  0.00     0.002 A 
ATOM     87  C   UNL A   1      46.986  23.473  34.391  1.00  0.00     0.091 A 
ATOM     88  F   UNL A   1      47.221  25.491  33.202  1.00  0.00    -0.205 F 
ATOM     89  C   UNL A   1      46.225  22.356  34.747  1.00  0.00     0.022 A 
BRANCH  87  90
ATOM     90  S   UNL A   1      48.626  23.596  35.118  1.00  0.00     0.127 S 
ATOM     91  O   UNL A   1      48.576  22.537  36.127  1.00  0.00    -0.237 OA
ATOM     92  O   UNL A   1      49.486  23.305  33.972  1.00  0.00    -0.237 OA
ATOM     93  O   UNL A   1      48.740  24.946  35.649  1.00  0.00    -0.744 OA
ENDBRANCH  87  90
ENDBRANCH  60  83
ENDBRANCH  34  35
ENDBRANCH  27  29
ENDBRANCH  26  27
ENDBRANCH  25  26
ENDBRANCH   1  25
TORSDOF 17
ENDMDL
