MODEL 1
REMARK VINA RESULT:     -11.3      0.000      0.000
REMARK SMILES CC(C)(C[NH2+]Cc1ccc2c(c1)OCO2)C(=O)OCCOC(=O)c1ccc(-c2c3nc(c(-c4cccc(S(=O)(=O)[O-])c4F)c4ccc([nH]4)c(-c4cccc(S(=O)(=O)[O-])c4F)c4nc(c(-c5cccc(S(=O)(=O)[O-])c5F)c5ccc2[nH]5)C=C4)C=C3)cc1
REMARK SMILES IDX 19 1 18 2 16 3 17 4 2 5 1 6 3 7 4 8 5 9 6 12 7 13 8 14 12 15
REMARK SMILES IDX 9 16 11 17 10 18 13 19 15 20 14 21 20 22 21 23 22 24 23 25
REMARK SMILES IDX 24 26 25 27 86 28 26 29 85 30 27 31 28 32 29 33 79 34 30 35
REMARK SMILES IDX 84 36 78 37 80 38 31 39 83 40 77 41 76 42 32 44 64 45 44 46
REMARK SMILES IDX 63 47 45 48 48 49 62 50 81 51 46 52 47 53 61 55 82 56 49 57
REMARK SMILES IDX 33 58 34 59 42 60 35 61 37 62 43 63 36 64 38 65 39 66 40 67
REMARK SMILES IDX 41 68 65 69 66 70 74 71 67 72 69 73 75 74 68 75 70 76 71 77
REMARK SMILES IDX 72 78 73 79 50 80 51 81 59 82 52 83 54 84 60 85 53 86 55 87
REMARK SMILES IDX 56 88 57 89 58 90
REMARK H PARENT 5 10 5 11 80 43 48 54
REMARK Flexibility Score: inf
ROOT
ATOM      1  C   UNL A   1      36.452  22.537  23.805  1.00  0.00     0.274 C 
ENDROOT
BRANCH   1   2
ATOM      2  O   UNL A   1      35.040  22.788  23.968  1.00  0.00    -0.461 OA
BRANCH   2   3
ATOM      3  C   UNL A   1      34.706  23.754  24.867  1.00  0.00     0.317 C 
ATOM      4  O   UNL A   1      35.267  24.843  24.945  1.00  0.00    -0.251 OA
BRANCH   3   5
ATOM      5  C   UNL A   1      33.646  23.296  25.868  1.00  0.00     0.111 C 
ATOM      6  C   UNL A   1      32.708  24.460  26.240  1.00  0.00     0.029 C 
ATOM      7  C   UNL A   1      34.430  22.901  27.135  1.00  0.00     0.029 C 
BRANCH   5   8
ATOM      8  C   UNL A   1      32.824  22.070  25.402  1.00  0.00     0.279 C 
BRANCH   8   9
ATOM      9  N   UNL A   1      33.493  20.765  25.478  1.00  0.00    -0.342 N 
ATOM     10  H   UNL A   1      33.108  20.247  26.268  1.00  0.00     0.346 HD
ATOM     11  H   UNL A   1      34.493  20.938  25.591  1.00  0.00     0.346 HD
BRANCH   9  12
ATOM     12  C   UNL A   1      33.316  19.964  24.257  1.00  0.00     0.297 C 
BRANCH  12  13
ATOM     13  C   UNL A   1      33.522  18.480  24.485  1.00  0.00     0.010 A 
ATOM     14  C   UNL A   1      34.788  17.888  24.258  1.00  0.00     0.013 A 
ATOM     15  C   UNL A   1      32.477  17.686  24.989  1.00  0.00     0.060 A 
ATOM     16  C   UNL A   1      35.036  16.552  24.582  1.00  0.00     0.051 A 
ATOM     17  C   UNL A   1      32.743  16.361  25.270  1.00  0.00     0.166 A 
ATOM     18  C   UNL A   1      33.991  15.815  25.088  1.00  0.00     0.165 A 
ATOM     19  O   UNL A   1      31.852  15.458  25.762  1.00  0.00    -0.454 OA
ATOM     20  O   UNL A   1      34.049  14.508  25.460  1.00  0.00    -0.454 OA
ATOM     21  C   UNL A   1      32.688  14.291  25.891  1.00  0.00     0.468 C 
ENDBRANCH  12  13
ENDBRANCH   9  12
ENDBRANCH   8   9
ENDBRANCH   5   8
ENDBRANCH   3   5
ENDBRANCH   2   3
ENDBRANCH   1   2
BRANCH   1  22
ATOM     22  C   UNL A   1      36.850  21.254  24.529  1.00  0.00     0.275 C 
BRANCH  22  23
ATOM     23  O   UNL A   1      37.391  21.597  25.812  1.00  0.00    -0.458 OA
BRANCH  23  24
ATOM     24  C   UNL A   1      38.712  21.360  25.980  1.00  0.00     0.338 C 
ATOM     25  O   UNL A   1      39.302  20.320  25.747  1.00  0.00    -0.246 OA
BRANCH  24  26
ATOM     26  C   UNL A   1      39.359  22.578  26.521  1.00  0.00     0.060 A 
ATOM     27  C   UNL A   1      38.899  23.851  26.176  1.00  0.00     0.016 A 
ATOM     28  C   UNL A   1      40.473  22.450  27.347  1.00  0.00     0.016 A 
ATOM     29  C   UNL A   1      39.578  24.993  26.599  1.00  0.00     0.010 A 
ATOM     30  C   UNL A   1      41.100  23.597  27.847  1.00  0.00     0.010 A 
ATOM     31  C   UNL A   1      40.677  24.882  27.458  1.00  0.00    -0.014 A 
BRANCH  31  32
ATOM     32  C   UNL A   1      41.408  26.088  27.946  1.00  0.00     0.031 A 
ATOM     33  C   UNL A   1      40.677  27.128  28.754  1.00  0.00     0.074 A 
ATOM     34  C   UNL A   1      42.702  26.286  27.622  1.00  0.00     0.049 A 
ATOM     35  N   UNL A   1      41.042  28.344  29.062  1.00  0.00    -0.248 NA
ATOM     36  C   UNL A   1      39.346  26.756  29.262  1.00  0.00     0.031 C 
ATOM     37  C   UNL A   1      43.540  25.360  26.859  1.00  0.00     0.029 A 
ATOM     38  N   UNL A   1      43.532  27.353  27.870  1.00  0.00    -0.354 N 
ATOM     39  C   UNL A   1      39.958  28.912  29.720  1.00  0.00     0.074 A 
ATOM     40  C   UNL A   1      38.925  27.900  29.784  1.00  0.00     0.031 C 
ATOM     41  C   UNL A   1      44.760  25.895  26.701  1.00  0.00     0.029 A 
ATOM     42  C   UNL A   1      44.771  27.233  27.282  1.00  0.00     0.049 A 
ATOM     43  H   UNL A   1      43.267  28.128  28.416  1.00  0.00     0.167 HD
ATOM     44  C   UNL A   1      39.834  30.160  30.231  1.00  0.00     0.034 A 
ATOM     45  C   UNL A   1      45.786  28.114  27.175  1.00  0.00     0.034 A 
ATOM     46  C   UNL A   1      40.891  31.136  30.243  1.00  0.00     0.049 A 
ATOM     47  C   UNL A   1      45.635  29.484  27.775  1.00  0.00     0.074 A 
ATOM     48  C   UNL A   1      40.882  32.408  30.788  1.00  0.00     0.029 A 
ATOM     49  N   UNL A   1      42.153  30.943  29.701  1.00  0.00    -0.354 N 
ATOM     50  N   UNL A   1      44.621  29.987  28.437  1.00  0.00    -0.248 NA
ATOM     51  C   UNL A   1      46.769  30.407  27.622  1.00  0.00     0.031 C 
ATOM     52  C   UNL A   1      42.136  32.987  30.571  1.00  0.00     0.029 A 
ATOM     53  C   UNL A   1      42.931  32.070  29.900  1.00  0.00     0.049 A 
ATOM     54  H   UNL A   1      42.451  30.125  29.241  1.00  0.00     0.167 HD
ATOM     55  C   UNL A   1      45.002  31.274  28.798  1.00  0.00     0.074 A 
ATOM     56  C   UNL A   1      46.352  31.464  28.305  1.00  0.00     0.031 C 
ATOM     57  C   UNL A   1      44.292  32.223  29.456  1.00  0.00     0.034 A 
BRANCH  44  58
ATOM     58  C   UNL A   1      38.515  30.540  30.849  1.00  0.00     0.023 A 
ATOM     59  C   UNL A   1      38.265  30.241  32.203  1.00  0.00     0.012 A 
ATOM     60  C   UNL A   1      37.549  31.250  30.107  1.00  0.00     0.148 A 
ATOM     61  C   UNL A   1      37.062  30.616  32.802  1.00  0.00     0.002 A 
ATOM     62  C   UNL A   1      36.371  31.657  30.722  1.00  0.00     0.091 A 
ATOM     63  F   UNL A   1      37.796  31.506  28.814  1.00  0.00    -0.205 F 
ATOM     64  C   UNL A   1      36.122  31.333  32.066  1.00  0.00     0.022 A 
BRANCH  62  65
ATOM     65  S   UNL A   1      35.135  32.651  29.878  1.00  0.00     0.127 S 
ATOM     66  O   UNL A   1      34.618  31.704  28.891  1.00  0.00    -0.237 OA
ATOM     67  O   UNL A   1      34.202  32.972  30.959  1.00  0.00    -0.237 OA
ATOM     68  O   UNL A   1      35.849  33.798  29.335  1.00  0.00    -0.744 OA
ENDBRANCH  62  65
ENDBRANCH  44  58
BRANCH  45  69
ATOM     69  C   UNL A   1      47.044  27.714  26.481  1.00  0.00     0.023 A 
ATOM     70  C   UNL A   1      48.070  27.092  27.217  1.00  0.00     0.012 A 
ATOM     71  C   UNL A   1      47.213  27.906  25.095  1.00  0.00     0.148 A 
ATOM     72  C   UNL A   1      49.248  26.682  26.590  1.00  0.00     0.002 A 
ATOM     73  C   UNL A   1      48.362  27.441  24.466  1.00  0.00     0.091 A 
ATOM     74  F   UNL A   1      46.239  28.527  24.414  1.00  0.00    -0.205 F 
ATOM     75  C   UNL A   1      49.388  26.842  25.214  1.00  0.00     0.022 A 
BRANCH  73  76
ATOM     76  S   UNL A   1      48.553  27.477  22.680  1.00  0.00     0.127 S 
ATOM     77  O   UNL A   1      49.884  28.058  22.532  1.00  0.00    -0.237 OA
ATOM     78  O   UNL A   1      48.457  26.059  22.331  1.00  0.00    -0.237 OA
ATOM     79  O   UNL A   1      47.444  28.286  22.190  1.00  0.00    -0.744 OA
ENDBRANCH  73  76
ENDBRANCH  45  69
BRANCH  57  80
ATOM     80  C   UNL A   1      44.964  33.545  29.710  1.00  0.00     0.023 A 
ATOM     81  C   UNL A   1      45.715  33.727  30.887  1.00  0.00     0.012 A 
ATOM     82  C   UNL A   1      44.915  34.576  28.751  1.00  0.00     0.148 A 
ATOM     83  C   UNL A   1      46.387  34.927  31.120  1.00  0.00     0.002 A 
ATOM     84  C   UNL A   1      45.620  35.753  28.970  1.00  0.00     0.091 A 
ATOM     85  F   UNL A   1      44.177  34.390  27.646  1.00  0.00    -0.205 F 
ATOM     86  C   UNL A   1      46.349  35.934  30.158  1.00  0.00     0.022 A 
BRANCH  84  87
ATOM     87  S   UNL A   1      45.698  37.066  27.746  1.00  0.00     0.127 S 
ATOM     88  O   UNL A   1      44.299  37.484  27.667  1.00  0.00    -0.237 OA
ATOM     89  O   UNL A   1      46.590  38.036  28.381  1.00  0.00    -0.237 OA
ATOM     90  O   UNL A   1      46.239  36.453  26.540  1.00  0.00    -0.744 OA
ENDBRANCH  84  87
ENDBRANCH  57  80
ENDBRANCH  31  32
ENDBRANCH  24  26
ENDBRANCH  23  24
ENDBRANCH  22  23
ENDBRANCH   1  22
TORSDOF 18
ENDMDL
MODEL 2
REMARK VINA RESULT:     -11.1      5.283      9.863
REMARK SMILES CC(C)(C[NH2+]Cc1ccc2c(c1)OCO2)C(=O)OCCOC(=O)c1ccc(-c2c3nc(c(-c4cccc(S(=O)(=O)[O-])c4F)c4ccc([nH]4)c(-c4cccc(S(=O)(=O)[O-])c4F)c4nc(c(-c5cccc(S(=O)(=O)[O-])c5F)c5ccc2[nH]5)C=C4)C=C3)cc1
REMARK SMILES IDX 19 1 18 2 16 3 17 4 2 5 1 6 3 7 4 8 5 9 6 12 7 13 8 14 12 15
REMARK SMILES IDX 9 16 11 17 10 18 13 19 15 20 14 21 20 22 21 23 22 24 23 25
REMARK SMILES IDX 24 26 25 27 86 28 26 29 85 30 27 31 28 32 29 33 79 34 30 35
REMARK SMILES IDX 84 36 78 37 80 38 31 39 83 40 77 41 76 42 32 44 64 45 44 46
REMARK SMILES IDX 63 47 45 48 48 49 62 50 81 51 46 52 47 53 61 55 82 56 49 57
REMARK SMILES IDX 33 58 34 59 42 60 35 61 37 62 43 63 36 64 38 65 39 66 40 67
REMARK SMILES IDX 41 68 65 69 66 70 74 71 67 72 69 73 75 74 68 75 70 76 71 77
REMARK SMILES IDX 72 78 73 79 50 80 51 81 59 82 52 83 54 84 60 85 53 86 55 87
REMARK SMILES IDX 56 88 57 89 58 90
REMARK H PARENT 5 10 5 11 80 43 48 54
REMARK Flexibility Score: inf
ROOT
ATOM      1  C   UNL A   1      31.543  28.595  24.447  1.00  0.00     0.274 C 
ENDROOT
BRANCH   1   2
ATOM      2  O   UNL A   1      30.723  27.531  24.973  1.00  0.00    -0.461 OA
BRANCH   2   3
ATOM      3  C   UNL A   1      31.318  26.715  25.886  1.00  0.00     0.317 C 
ATOM      4  O   UNL A   1      31.500  27.017  27.062  1.00  0.00    -0.251 OA
BRANCH   3   5
ATOM      5  C   UNL A   1      31.867  25.429  25.268  1.00  0.00     0.111 C 
ATOM      6  C   UNL A   1      30.879  24.264  25.465  1.00  0.00     0.029 C 
ATOM      7  C   UNL A   1      33.142  25.106  26.072  1.00  0.00     0.029 C 
BRANCH   5   8
ATOM      8  C   UNL A   1      32.253  25.560  23.774  1.00  0.00     0.279 C 
BRANCH   8   9
ATOM      9  N   UNL A   1      31.775  24.499  22.879  1.00  0.00    -0.342 N 
ATOM     10  H   UNL A   1      31.155  24.914  22.183  1.00  0.00     0.346 HD
ATOM     11  H   UNL A   1      31.290  23.807  23.451  1.00  0.00     0.346 HD
BRANCH   9  12
ATOM     12  C   UNL A   1      32.871  23.808  22.180  1.00  0.00     0.297 C 
BRANCH  12  13
ATOM     13  C   UNL A   1      33.734  22.976  23.107  1.00  0.00     0.010 A 
ATOM     14  C   UNL A   1      33.180  21.883  23.816  1.00  0.00     0.013 A 
ATOM     15  C   UNL A   1      35.110  23.238  23.222  1.00  0.00     0.060 A 
ATOM     16  C   UNL A   1      33.979  21.026  24.575  1.00  0.00     0.051 A 
ATOM     17  C   UNL A   1      35.871  22.393  24.005  1.00  0.00     0.166 A 
ATOM     18  C   UNL A   1      35.324  21.308  24.649  1.00  0.00     0.165 A 
ATOM     19  O   UNL A   1      37.210  22.500  24.223  1.00  0.00    -0.454 OA
ATOM     20  O   UNL A   1      36.249  20.586  25.334  1.00  0.00    -0.454 OA
ATOM     21  C   UNL A   1      37.444  21.347  25.054  1.00  0.00     0.468 C 
ENDBRANCH  12  13
ENDBRANCH   9  12
ENDBRANCH   8   9
ENDBRANCH   5   8
ENDBRANCH   3   5
ENDBRANCH   2   3
ENDBRANCH   1   2
BRANCH   1  22
ATOM     22  C   UNL A   1      31.513  29.800  25.383  1.00  0.00     0.275 C 
BRANCH  22  23
ATOM     23  O   UNL A   1      32.860  30.159  25.717  1.00  0.00    -0.458 OA
BRANCH  23  24
ATOM     24  C   UNL A   1      33.003  31.050  26.724  1.00  0.00     0.338 C 
ATOM     25  O   UNL A   1      32.207  31.911  27.055  1.00  0.00    -0.246 OA
BRANCH  24  26
ATOM     26  C   UNL A   1      34.315  30.838  27.378  1.00  0.00     0.060 A 
ATOM     27  C   UNL A   1      34.765  29.553  27.688  1.00  0.00     0.016 A 
ATOM     28  C   UNL A   1      35.088  31.941  27.734  1.00  0.00     0.016 A 
ATOM     29  C   UNL A   1      35.949  29.364  28.401  1.00  0.00     0.010 A 
ATOM     30  C   UNL A   1      36.320  31.748  28.369  1.00  0.00     0.010 A 
ATOM     31  C   UNL A   1      36.753  30.459  28.735  1.00  0.00    -0.014 A 
BRANCH  31  32
ATOM     32  C   UNL A   1      38.035  30.285  29.476  1.00  0.00     0.031 A 
ATOM     33  C   UNL A   1      39.125  29.425  28.892  1.00  0.00     0.074 A 
ATOM     34  C   UNL A   1      38.208  30.843  30.692  1.00  0.00     0.049 A 
ATOM     35  N   UNL A   1      40.198  28.946  29.465  1.00  0.00    -0.248 NA
ATOM     36  C   UNL A   1      38.974  29.033  27.481  1.00  0.00     0.031 C 
ATOM     37  C   UNL A   1      37.247  31.710  31.376  1.00  0.00     0.029 A 
ATOM     38  N   UNL A   1      39.247  30.734  31.586  1.00  0.00    -0.354 N 
ATOM     39  C   UNL A   1      40.802  28.127  28.517  1.00  0.00     0.074 A 
ATOM     40  C   UNL A   1      39.984  28.189  27.324  1.00  0.00     0.031 C 
ATOM     41  C   UNL A   1      37.738  32.054  32.576  1.00  0.00     0.029 A 
ATOM     42  C   UNL A   1      39.011  31.373  32.782  1.00  0.00     0.049 A 
ATOM     43  H   UNL A   1      40.080  30.248  31.389  1.00  0.00     0.167 HD
ATOM     44  C   UNL A   1      41.936  27.396  28.627  1.00  0.00     0.034 A 
ATOM     45  C   UNL A   1      39.709  31.373  33.935  1.00  0.00     0.034 A 
ATOM     46  C   UNL A   1      42.792  27.404  29.783  1.00  0.00     0.049 A 
ATOM     47  C   UNL A   1      40.980  30.575  34.024  1.00  0.00     0.074 A 
ATOM     48  C   UNL A   1      43.993  26.740  29.969  1.00  0.00     0.029 A 
ATOM     49  N   UNL A   1      42.550  28.123  30.943  1.00  0.00    -0.354 N 
ATOM     50  N   UNL A   1      41.563  29.846  33.102  1.00  0.00    -0.248 NA
ATOM     51  C   UNL A   1      41.698  30.604  35.306  1.00  0.00     0.031 C 
ATOM     52  C   UNL A   1      44.474  27.054  31.244  1.00  0.00     0.029 A 
ATOM     53  C   UNL A   1      43.578  27.923  31.848  1.00  0.00     0.049 A 
ATOM     54  H   UNL A   1      41.762  28.692  31.101  1.00  0.00     0.167 HD
ATOM     55  C   UNL A   1      42.722  29.349  33.684  1.00  0.00     0.074 A 
ATOM     56  C   UNL A   1      42.776  29.883  35.031  1.00  0.00     0.031 C 
ATOM     57  C   UNL A   1      43.647  28.507  33.162  1.00  0.00     0.034 A 
BRANCH  44  58
ATOM     58  C   UNL A   1      42.340  26.542  27.455  1.00  0.00     0.023 A 
ATOM     59  C   UNL A   1      43.144  27.088  26.436  1.00  0.00     0.012 A 
ATOM     60  C   UNL A   1      41.974  25.182  27.394  1.00  0.00     0.148 A 
ATOM     61  C   UNL A   1      43.557  26.302  25.359  1.00  0.00     0.002 A 
ATOM     62  C   UNL A   1      42.422  24.394  26.340  1.00  0.00     0.091 A 
ATOM     63  F   UNL A   1      41.189  24.686  28.361  1.00  0.00    -0.205 F 
ATOM     64  C   UNL A   1      43.206  24.955  25.318  1.00  0.00     0.022 A 
BRANCH  62  65
ATOM     65  S   UNL A   1      42.087  22.632  26.241  1.00  0.00     0.127 S 
ATOM     66  O   UNL A   1      42.731  22.279  24.977  1.00  0.00    -0.237 OA
ATOM     67  O   UNL A   1      42.764  22.119  27.433  1.00  0.00    -0.237 OA
ATOM     68  O   UNL A   1      40.637  22.500  26.266  1.00  0.00    -0.744 OA
ENDBRANCH  62  65
ENDBRANCH  44  58
BRANCH  45  69
ATOM     69  C   UNL A   1      39.224  32.173  35.096  1.00  0.00     0.023 A 
ATOM     70  C   UNL A   1      38.308  31.596  35.997  1.00  0.00     0.012 A 
ATOM     71  C   UNL A   1      39.693  33.479  35.339  1.00  0.00     0.148 A 
ATOM     72  C   UNL A   1      37.856  32.310  37.107  1.00  0.00     0.002 A 
ATOM     73  C   UNL A   1      39.287  34.162  36.479  1.00  0.00     0.091 A 
ATOM     74  F   UNL A   1      40.543  34.025  34.456  1.00  0.00    -0.205 F 
ATOM     75  C   UNL A   1      38.356  33.586  37.357  1.00  0.00     0.022 A 
BRANCH  73  76
ATOM     76  S   UNL A   1      39.996  35.746  36.947  1.00  0.00     0.127 S 
ATOM     77  O   UNL A   1      41.411  35.415  37.076  1.00  0.00    -0.237 OA
ATOM     78  O   UNL A   1      39.661  36.585  35.795  1.00  0.00    -0.237 OA
ATOM     79  O   UNL A   1      39.313  36.125  38.177  1.00  0.00    -0.744 OA
ENDBRANCH  73  76
ENDBRANCH  45  69
BRANCH  57  80
ATOM     80  C   UNL A   1      44.814  28.128  34.033  1.00  0.00     0.023 A 
ATOM     81  C   UNL A   1      45.972  28.931  34.030  1.00  0.00     0.012 A 
ATOM     82  C   UNL A   1      44.736  27.027  34.907  1.00  0.00     0.148 A 
ATOM     83  C   UNL A   1      47.047  28.627  34.865  1.00  0.00     0.002 A 
ATOM     84  C   UNL A   1      45.794  26.754  35.767  1.00  0.00     0.091 A 
ATOM     85  F   UNL A   1      43.633  26.263  34.880  1.00  0.00    -0.205 F 
ATOM     86  C   UNL A   1      46.952  27.547  35.740  1.00  0.00     0.022 A 
BRANCH  84  87
ATOM     87  S   UNL A   1      45.721  25.438  36.987  1.00  0.00     0.127 S 
ATOM     88  O   UNL A   1      44.526  25.800  37.747  1.00  0.00    -0.237 OA
ATOM     89  O   UNL A   1      45.575  24.244  36.154  1.00  0.00    -0.237 OA
ATOM     90  O   UNL A   1      46.977  25.507  37.721  1.00  0.00    -0.744 OA
ENDBRANCH  84  87
ENDBRANCH  57  80
ENDBRANCH  31  32
ENDBRANCH  24  26
ENDBRANCH  23  24
ENDBRANCH  22  23
ENDBRANCH   1  22
TORSDOF 18
ENDMDL
MODEL 3
REMARK VINA RESULT:     -11.0      1.829      4.208
REMARK SMILES CC(C)(C[NH2+]Cc1ccc2c(c1)OCO2)C(=O)OCCOC(=O)c1ccc(-c2c3nc(c(-c4cccc(S(=O)(=O)[O-])c4F)c4ccc([nH]4)c(-c4cccc(S(=O)(=O)[O-])c4F)c4nc(c(-c5cccc(S(=O)(=O)[O-])c5F)c5ccc2[nH]5)C=C4)C=C3)cc1
REMARK SMILES IDX 19 1 18 2 16 3 17 4 2 5 1 6 3 7 4 8 5 9 6 12 7 13 8 14 12 15
REMARK SMILES IDX 9 16 11 17 10 18 13 19 15 20 14 21 20 22 21 23 22 24 23 25
REMARK SMILES IDX 24 26 25 27 86 28 26 29 85 30 27 31 28 32 29 33 79 34 30 35
REMARK SMILES IDX 84 36 78 37 80 38 31 39 83 40 77 41 76 42 32 44 64 45 44 46
REMARK SMILES IDX 63 47 45 48 48 49 62 50 81 51 46 52 47 53 61 55 82 56 49 57
REMARK SMILES IDX 33 58 34 59 42 60 35 61 37 62 43 63 36 64 38 65 39 66 40 67
REMARK SMILES IDX 41 68 65 69 66 70 74 71 67 72 69 73 75 74 68 75 70 76 71 77
REMARK SMILES IDX 72 78 73 79 50 80 51 81 59 82 52 83 54 84 60 85 53 86 55 87
REMARK SMILES IDX 56 88 57 89 58 90
REMARK H PARENT 5 10 5 11 80 43 48 54
REMARK Flexibility Score: inf
ROOT
ATOM      1  C   UNL A   1      35.047  20.419  25.048  1.00  0.00     0.274 C 
ENDROOT
BRANCH   1   2
ATOM      2  O   UNL A   1      34.220  21.590  25.214  1.00  0.00    -0.461 OA
BRANCH   2   3
ATOM      3  C   UNL A   1      32.886  21.412  25.008  1.00  0.00     0.317 C 
ATOM      4  O   UNL A   1      32.374  20.335  24.717  1.00  0.00    -0.251 OA
BRANCH   3   5
ATOM      5  C   UNL A   1      32.099  22.721  25.040  1.00  0.00     0.111 C 
ATOM      6  C   UNL A   1      31.590  23.087  23.633  1.00  0.00     0.029 C 
ATOM      7  C   UNL A   1      33.119  23.797  25.465  1.00  0.00     0.029 C 
BRANCH   5   8
ATOM      8  C   UNL A   1      30.930  22.732  26.054  1.00  0.00     0.279 C 
BRANCH   8   9
ATOM      9  N   UNL A   1      30.791  23.937  26.882  1.00  0.00    -0.342 N 
ATOM     10  H   UNL A   1      31.656  24.474  26.823  1.00  0.00     0.346 HD
ATOM     11  H   UNL A   1      30.598  23.635  27.837  1.00  0.00     0.346 HD
BRANCH   9  12
ATOM     12  C   UNL A   1      29.675  24.795  26.453  1.00  0.00     0.297 C 
BRANCH  12  13
ATOM     13  C   UNL A   1      30.131  26.052  25.739  1.00  0.00     0.010 A 
ATOM     14  C   UNL A   1      31.104  26.897  26.326  1.00  0.00     0.013 A 
ATOM     15  C   UNL A   1      29.644  26.358  24.458  1.00  0.00     0.060 A 
ATOM     16  C   UNL A   1      31.633  27.989  25.635  1.00  0.00     0.051 A 
ATOM     17  C   UNL A   1      30.162  27.462  23.810  1.00  0.00     0.166 A 
ATOM     18  C   UNL A   1      31.141  28.244  24.376  1.00  0.00     0.165 A 
ATOM     19  O   UNL A   1      29.806  27.898  22.571  1.00  0.00    -0.454 OA
ATOM     20  O   UNL A   1      31.538  29.257  23.559  1.00  0.00    -0.454 OA
ATOM     21  C   UNL A   1      30.689  29.026  22.414  1.00  0.00     0.468 C 
ENDBRANCH  12  13
ENDBRANCH   9  12
ENDBRANCH   8   9
ENDBRANCH   5   8
ENDBRANCH   3   5
ENDBRANCH   2   3
ENDBRANCH   1   2
BRANCH   1  22
ATOM     22  C   UNL A   1      36.454  20.819  24.613  1.00  0.00     0.275 C 
BRANCH  22  23
ATOM     23  O   UNL A   1      37.120  21.441  25.720  1.00  0.00    -0.458 OA
BRANCH  23  24
ATOM     24  C   UNL A   1      38.437  21.163  25.852  1.00  0.00     0.338 C 
ATOM     25  O   UNL A   1      38.986  20.103  25.607  1.00  0.00    -0.246 OA
BRANCH  24  26
ATOM     26  C   UNL A   1      39.137  22.361  26.368  1.00  0.00     0.060 A 
ATOM     27  C   UNL A   1      38.666  23.646  26.091  1.00  0.00     0.016 A 
ATOM     28  C   UNL A   1      40.312  22.203  27.100  1.00  0.00     0.016 A 
ATOM     29  C   UNL A   1      39.388  24.771  26.486  1.00  0.00     0.010 A 
ATOM     30  C   UNL A   1      40.989  23.332  27.575  1.00  0.00     0.010 A 
ATOM     31  C   UNL A   1      40.551  24.630  27.251  1.00  0.00    -0.014 A 
BRANCH  31  32
ATOM     32  C   UNL A   1      41.331  25.817  27.708  1.00  0.00     0.031 A 
ATOM     33  C   UNL A   1      40.661  26.872  28.549  1.00  0.00     0.074 A 
ATOM     34  C   UNL A   1      42.613  25.985  27.327  1.00  0.00     0.049 A 
ATOM     35  N   UNL A   1      41.069  28.079  28.843  1.00  0.00    -0.248 NA
ATOM     36  C   UNL A   1      39.346  26.530  29.116  1.00  0.00     0.031 C 
ATOM     37  C   UNL A   1      43.395  25.042  26.526  1.00  0.00     0.029 A 
ATOM     38  N   UNL A   1      43.479  27.032  27.539  1.00  0.00    -0.354 N 
ATOM     39  C   UNL A   1      40.029  28.670  29.550  1.00  0.00     0.074 A 
ATOM     40  C   UNL A   1      38.976  27.682  29.658  1.00  0.00     0.031 C 
ATOM     41  C   UNL A   1      44.619  25.549  26.314  1.00  0.00     0.029 A 
ATOM     42  C   UNL A   1      44.687  26.884  26.896  1.00  0.00     0.049 A 
ATOM     43  H   UNL A   1      43.257  27.812  28.098  1.00  0.00     0.167 HD
ATOM     44  C   UNL A   1      39.957  29.919  30.067  1.00  0.00     0.034 A 
ATOM     45  C   UNL A   1      45.717  27.741  26.745  1.00  0.00     0.034 A 
ATOM     46  C   UNL A   1      41.037  30.870  30.034  1.00  0.00     0.049 A 
ATOM     47  C   UNL A   1      45.625  29.113  27.353  1.00  0.00     0.074 A 
ATOM     48  C   UNL A   1      41.082  32.140  30.581  1.00  0.00     0.029 A 
ATOM     49  N   UNL A   1      42.268  30.649  29.435  1.00  0.00    -0.354 N 
ATOM     50  N   UNL A   1      44.654  29.639  28.061  1.00  0.00    -0.248 NA
ATOM     51  C   UNL A   1      46.772  30.010  27.151  1.00  0.00     0.031 C 
ATOM     52  C   UNL A   1      42.339  32.690  30.308  1.00  0.00     0.029 A 
ATOM     53  C   UNL A   1      43.081  31.757  29.601  1.00  0.00     0.049 A 
ATOM     54  H   UNL A   1      42.526  29.825  28.962  1.00  0.00     0.167 HD
ATOM     55  C   UNL A   1      45.081  30.915  28.406  1.00  0.00     0.074 A 
ATOM     56  C   UNL A   1      46.412  31.075  27.854  1.00  0.00     0.031 C 
ATOM     57  C   UNL A   1      44.424  31.879  29.096  1.00  0.00     0.034 A 
BRANCH  44  58
ATOM     58  C   UNL A   1      38.677  30.329  30.745  1.00  0.00     0.023 A 
ATOM     59  C   UNL A   1      38.491  30.056  32.115  1.00  0.00     0.012 A 
ATOM     60  C   UNL A   1      37.684  31.039  30.040  1.00  0.00     0.148 A 
ATOM     61  C   UNL A   1      37.325  30.459  32.767  1.00  0.00     0.002 A 
ATOM     62  C   UNL A   1      36.544  31.474  30.706  1.00  0.00     0.091 A 
ATOM     63  F   UNL A   1      37.868  31.270  28.732  1.00  0.00    -0.205 F 
ATOM     64  C   UNL A   1      36.359  31.177  32.067  1.00  0.00     0.022 A 
BRANCH  62  65
ATOM     65  S   UNL A   1      35.280  32.471  29.908  1.00  0.00     0.127 S 
ATOM     66  O   UNL A   1      36.057  33.622  29.451  1.00  0.00    -0.237 OA
ATOM     67  O   UNL A   1      34.816  31.586  28.837  1.00  0.00    -0.237 OA
ATOM     68  O   UNL A   1      34.285  32.750  30.934  1.00  0.00    -0.744 OA
ENDBRANCH  62  65
ENDBRANCH  44  58
BRANCH  45  69
ATOM     69  C   UNL A   1      46.932  27.314  25.995  1.00  0.00     0.023 A 
ATOM     70  C   UNL A   1      47.864  26.461  26.618  1.00  0.00     0.012 A 
ATOM     71  C   UNL A   1      47.151  27.709  24.660  1.00  0.00     0.148 A 
ATOM     72  C   UNL A   1      48.997  26.023  25.932  1.00  0.00     0.002 A 
ATOM     73  C   UNL A   1      48.249  27.220  23.963  1.00  0.00     0.091 A 
ATOM     74  F   UNL A   1      46.270  28.545  24.090  1.00  0.00    -0.205 F 
ATOM     75  C   UNL A   1      49.182  26.389  24.601  1.00  0.00     0.022 A 
BRANCH  73  76
ATOM     76  S   UNL A   1      48.479  27.526  22.207  1.00  0.00     0.127 S 
ATOM     77  O   UNL A   1      48.700  26.179  21.693  1.00  0.00    -0.237 OA
ATOM     78  O   UNL A   1      47.198  28.127  21.829  1.00  0.00    -0.237 OA
ATOM     79  O   UNL A   1      49.612  28.439  22.119  1.00  0.00    -0.744 OA
ENDBRANCH  73  76
ENDBRANCH  45  69
BRANCH  57  80
ATOM     80  C   UNL A   1      45.137  33.184  29.322  1.00  0.00     0.023 A 
ATOM     81  C   UNL A   1      45.953  33.342  30.459  1.00  0.00     0.012 A 
ATOM     82  C   UNL A   1      45.061  34.222  28.373  1.00  0.00     0.148 A 
ATOM     83  C   UNL A   1      46.662  34.525  30.663  1.00  0.00     0.002 A 
ATOM     84  C   UNL A   1      45.803  35.382  28.561  1.00  0.00     0.091 A 
ATOM     85  F   UNL A   1      44.262  34.060  27.308  1.00  0.00    -0.205 F 
ATOM     86  C   UNL A   1      46.596  35.539  29.710  1.00  0.00     0.022 A 
BRANCH  84  87
ATOM     87  S   UNL A   1      45.846  36.701  27.342  1.00  0.00     0.127 S 
ATOM     88  O   UNL A   1      46.750  37.661  27.972  1.00  0.00    -0.237 OA
ATOM     89  O   UNL A   1      46.397  36.025  26.167  1.00  0.00    -0.237 OA
ATOM     90  O   UNL A   1      44.467  37.144  27.187  1.00  0.00    -0.744 OA
ENDBRANCH  84  87
ENDBRANCH  57  80
ENDBRANCH  31  32
ENDBRANCH  24  26
ENDBRANCH  23  24
ENDBRANCH  22  23
ENDBRANCH   1  22
TORSDOF 18
ENDMDL
