MODEL 1
REMARK VINA RESULT:     -11.4      0.000      0.000
REMARK SMILES Cn1cc(S[C@@H]2CCC[C@]([NH2+]C3CC3)(C(=O)OCCOC(=O)c3ccc(-c4c5nc(c(-c6cccc(S(=O)(=O)[O-])c6F)c6ccc([nH]6)c(-c6cccc(S(=O)(=O)[O-])c6F)c6nc(c(-c7cccc(S(=O)(=O)[O-])c7F)c7ccc4[nH]7)C=C6)C=C5)cc3)C2)cn1
REMARK SMILES IDX 19 1 18 2 17 3 15 4 16 5 10 6 6 7 7 8 86 9 8 10 9 11 5 12
REMARK SMILES IDX 4 13 1 14 2 15 3 16 88 17 87 18 11 19 12 22 13 23 14 24
REMARK SMILES IDX 20 25 21 26 22 27 23 28 24 29 85 30 25 31 84 32 26 33 27 34
REMARK SMILES IDX 28 35 78 36 29 37 83 38 77 39 79 40 30 41 82 42 76 43 75 44
REMARK SMILES IDX 31 46 63 47 43 48 62 49 44 50 47 51 61 52 80 53 45 54 46 55
REMARK SMILES IDX 60 57 81 58 48 59 32 60 33 61 41 62 34 63 36 64 42 65 35 66
REMARK SMILES IDX 37 67 38 68 39 69 40 70 64 71 65 72 73 73 66 74 68 75 74 76
REMARK SMILES IDX 67 77 69 78 70 79 71 80 72 81 49 82 50 83 58 84 51 85 53 86
REMARK SMILES IDX 59 87 52 88 54 89 55 90 56 91 57 92
REMARK H PARENT 11 20 11 21 79 45 47 56
REMARK Flexibility Score: inf
ROOT
ATOM      1  C   UNL A   1      38.854  19.532  25.375  1.00  0.00     0.275 C 
ENDROOT
BRANCH   1   2
ATOM      2  C   UNL A   1      37.513  19.676  24.654  1.00  0.00     0.274 C 
BRANCH   2   3
ATOM      3  O   UNL A   1      36.522  20.320  25.481  1.00  0.00    -0.457 OA
BRANCH   3   4
ATOM      4  C   UNL A   1      35.863  21.351  24.878  1.00  0.00     0.368 C 
ATOM      5  O   UNL A   1      36.349  22.028  23.974  1.00  0.00    -0.245 OA
BRANCH   4   6
ATOM      6  C   UNL A   1      34.396  21.569  25.415  1.00  0.00     0.195 C 
ATOM      7  C   UNL A   1      32.251  22.858  24.850  1.00  0.00     0.058 C 
ATOM      8  C   UNL A   1      32.298  23.615  26.182  1.00  0.00     0.015 C 
ATOM      9  C   UNL A   1      33.615  22.369  24.353  1.00  0.00     0.096 C 
ATOM     10  C   UNL A   1      33.140  22.928  27.253  1.00  0.00     0.008 C 
ATOM     11  C   UNL A   1      34.465  22.375  26.733  1.00  0.00     0.081 C 
BRANCH   7  12
ATOM     12  S   UNL A   1      31.347  23.727  23.516  1.00  0.00    -0.119 SA
BRANCH  12  13
ATOM     13  C   UNL A   1      32.322  25.072  23.010  1.00  0.00     0.046 A 
ATOM     14  C   UNL A   1      33.746  28.361  22.799  1.00  0.00     0.173 C 
ATOM     15  N   UNL A   1      33.347  26.978  22.699  1.00  0.00    -0.275 N 
ATOM     16  C   UNL A   1      32.624  26.266  23.615  1.00  0.00     0.123 A 
ATOM     17  N   UNL A   1      33.645  26.280  21.589  1.00  0.00    -0.181 NA
ATOM     18  C   UNL A   1      33.011  25.117  21.779  1.00  0.00     0.150 A 
ENDBRANCH  12  13
ENDBRANCH   7  12
BRANCH   6  19
ATOM     19  N   UNL A   1      33.876  20.187  25.552  1.00  0.00    -0.330 N 
ATOM     20  H   UNL A   1      33.076  20.261  26.180  1.00  0.00     0.347 HD
ATOM     21  H   UNL A   1      34.730  19.698  25.819  1.00  0.00     0.347 HD
BRANCH  19  22
ATOM     22  C   UNL A   1      33.431  19.348  24.461  1.00  0.00     0.183 C 
ATOM     23  C   UNL A   1      33.965  17.945  24.372  1.00  0.00     0.071 C 
ATOM     24  C   UNL A   1      32.550  18.173  24.802  1.00  0.00     0.071 C 
ENDBRANCH  19  22
ENDBRANCH   6  19
ENDBRANCH   4   6
ENDBRANCH   3   4
ENDBRANCH   2   3
ENDBRANCH   1   2
BRANCH   1  25
ATOM     25  O   UNL A   1      39.349  20.812  25.801  1.00  0.00    -0.458 OA
BRANCH  25  26
ATOM     26  C   UNL A   1      40.261  20.785  26.797  1.00  0.00     0.338 C 
ATOM     27  O   UNL A   1      40.856  19.808  27.229  1.00  0.00    -0.246 OA
BRANCH  26  28
ATOM     28  C   UNL A   1      40.515  22.146  27.289  1.00  0.00     0.060 A 
ATOM     29  C   UNL A   1      39.819  23.209  26.714  1.00  0.00     0.016 A 
ATOM     30  C   UNL A   1      41.550  22.390  28.189  1.00  0.00     0.016 A 
ATOM     31  C   UNL A   1      40.217  24.520  26.953  1.00  0.00     0.010 A 
ATOM     32  C   UNL A   1      41.891  23.711  28.499  1.00  0.00     0.010 A 
ATOM     33  C   UNL A   1      41.259  24.787  27.849  1.00  0.00    -0.014 A 
BRANCH  33  34
ATOM     34  C   UNL A   1      41.711  26.186  28.068  1.00  0.00     0.031 A 
ATOM     35  C   UNL A   1      43.073  26.621  27.598  1.00  0.00     0.074 A 
ATOM     36  C   UNL A   1      40.898  27.069  28.680  1.00  0.00     0.049 A 
ATOM     37  N   UNL A   1      43.692  27.756  27.799  1.00  0.00    -0.248 NA
ATOM     38  C   UNL A   1      43.846  25.652  26.802  1.00  0.00     0.031 C 
ATOM     39  C   UNL A   1      39.547  26.778  29.165  1.00  0.00     0.029 A 
ATOM     40  N   UNL A   1      41.090  28.387  29.008  1.00  0.00    -0.354 N 
ATOM     41  C   UNL A   1      44.944  27.616  27.214  1.00  0.00     0.074 A 
ATOM     42  C   UNL A   1      44.997  26.289  26.638  1.00  0.00     0.031 C 
ATOM     43  C   UNL A   1      39.030  27.886  29.719  1.00  0.00     0.029 A 
ATOM     44  C   UNL A   1      40.031  28.947  29.683  1.00  0.00     0.049 A 
ATOM     45  H   UNL A   1      41.909  28.885  28.781  1.00  0.00     0.167 HD
ATOM     46  C   UNL A   1      45.954  28.515  27.149  1.00  0.00     0.034 A 
ATOM     47  C   UNL A   1      39.890  30.166  30.239  1.00  0.00     0.034 A 
ATOM     48  C   UNL A   1      45.875  29.858  27.657  1.00  0.00     0.049 A 
ATOM     49  C   UNL A   1      41.023  31.149  30.140  1.00  0.00     0.074 A 
ATOM     50  C   UNL A   1      46.836  30.853  27.612  1.00  0.00     0.029 A 
ATOM     51  N   UNL A   1      44.768  30.399  28.290  1.00  0.00    -0.354 N 
ATOM     52  N   UNL A   1      42.178  31.016  29.535  1.00  0.00    -0.248 NA
ATOM     53  C   UNL A   1      40.829  32.454  30.789  1.00  0.00     0.031 C 
ATOM     54  C   UNL A   1      46.307  31.998  28.216  1.00  0.00     0.029 A 
ATOM     55  C   UNL A   1      45.018  31.715  28.638  1.00  0.00     0.049 A 
ATOM     56  H   UNL A   1      43.928  29.918  28.467  1.00  0.00     0.167 HD
ATOM     57  C   UNL A   1      42.843  32.223  29.716  1.00  0.00     0.074 A 
ATOM     58  C   UNL A   1      41.949  33.086  30.461  1.00  0.00     0.031 C 
ATOM     59  C   UNL A   1      44.092  32.577  29.325  1.00  0.00     0.034 A 
BRANCH  46  60
ATOM     60  C   UNL A   1      47.226  28.089  26.467  1.00  0.00     0.023 A 
ATOM     61  C   UNL A   1      48.309  27.632  27.242  1.00  0.00     0.012 A 
ATOM     62  C   UNL A   1      47.328  28.087  25.062  1.00  0.00     0.148 A 
ATOM     63  C   UNL A   1      49.484  27.198  26.630  1.00  0.00     0.002 A 
ATOM     64  C   UNL A   1      48.492  27.623  24.458  1.00  0.00     0.091 A 
ATOM     65  F   UNL A   1      46.296  28.554  24.343  1.00  0.00    -0.205 F 
ATOM     66  C   UNL A   1      49.572  27.184  25.240  1.00  0.00     0.022 A 
BRANCH  64  67
ATOM     67  S   UNL A   1      48.669  27.513  22.674  1.00  0.00     0.127 S 
ATOM     68  O   UNL A   1      49.975  28.137  22.468  1.00  0.00    -0.237 OA
ATOM     69  O   UNL A   1      48.640  26.069  22.443  1.00  0.00    -0.237 OA
ATOM     70  O   UNL A   1      47.531  28.234  22.119  1.00  0.00    -0.744 OA
ENDBRANCH  64  67
ENDBRANCH  46  60
BRANCH  47  71
ATOM     71  C   UNL A   1      38.611  30.530  30.911  1.00  0.00     0.023 A 
ATOM     72  C   UNL A   1      38.447  30.249  32.281  1.00  0.00     0.012 A 
ATOM     73  C   UNL A   1      37.579  31.191  30.218  1.00  0.00     0.148 A 
ATOM     74  C   UNL A   1      37.272  30.606  32.944  1.00  0.00     0.002 A 
ATOM     75  C   UNL A   1      36.435  31.595  30.898  1.00  0.00     0.091 A 
ATOM     76  F   UNL A   1      37.736  31.425  28.907  1.00  0.00    -0.205 F 
ATOM     77  C   UNL A   1      36.272  31.292  32.257  1.00  0.00     0.022 A 
BRANCH  75  78
ATOM     78  S   UNL A   1      35.181  32.607  30.103  1.00  0.00     0.127 S 
ATOM     79  O   UNL A   1      35.965  33.747  29.636  1.00  0.00    -0.237 OA
ATOM     80  O   UNL A   1      34.687  31.724  29.046  1.00  0.00    -0.237 OA
ATOM     81  O   UNL A   1      34.203  32.882  31.148  1.00  0.00    -0.744 OA
ENDBRANCH  75  78
ENDBRANCH  47  71
BRANCH  59  82
ATOM     82  C   UNL A   1      44.566  33.958  29.684  1.00  0.00     0.023 A 
ATOM     83  C   UNL A   1      45.275  34.152  30.885  1.00  0.00     0.012 A 
ATOM     84  C   UNL A   1      44.382  35.041  28.803  1.00  0.00     0.148 A 
ATOM     85  C   UNL A   1      45.777  35.410  31.215  1.00  0.00     0.002 A 
ATOM     86  C   UNL A   1      44.918  36.284  29.121  1.00  0.00     0.091 A 
ATOM     87  F   UNL A   1      43.682  34.840  27.676  1.00  0.00    -0.205 F 
ATOM     88  C   UNL A   1      45.610  36.472  30.329  1.00  0.00     0.022 A 
BRANCH  86  89
ATOM     89  S   UNL A   1      44.814  37.678  27.993  1.00  0.00     0.127 S 
ATOM     90  O   UNL A   1      43.371  37.889  27.910  1.00  0.00    -0.237 OA
ATOM     91  O   UNL A   1      45.542  38.724  28.713  1.00  0.00    -0.237 OA
ATOM     92  O   UNL A   1      45.461  37.236  26.765  1.00  0.00    -0.744 OA
ENDBRANCH  86  89
ENDBRANCH  59  82
ENDBRANCH  33  34
ENDBRANCH  26  28
ENDBRANCH  25  26
ENDBRANCH   1  25
TORSDOF 18
ENDMDL
MODEL 2
REMARK VINA RESULT:     -11.2      1.453      7.757
REMARK SMILES Cn1cc(S[C@@H]2CCC[C@]([NH2+]C3CC3)(C(=O)OCCOC(=O)c3ccc(-c4c5nc(c(-c6cccc(S(=O)(=O)[O-])c6F)c6ccc([nH]6)c(-c6cccc(S(=O)(=O)[O-])c6F)c6nc(c(-c7cccc(S(=O)(=O)[O-])c7F)c7ccc4[nH]7)C=C6)C=C5)cc3)C2)cn1
REMARK SMILES IDX 19 1 18 2 17 3 15 4 16 5 10 6 6 7 7 8 86 9 8 10 9 11 5 12
REMARK SMILES IDX 4 13 1 14 2 15 3 16 88 17 87 18 11 19 12 22 13 23 14 24
REMARK SMILES IDX 20 25 21 26 22 27 23 28 24 29 85 30 25 31 84 32 26 33 27 34
REMARK SMILES IDX 28 35 78 36 29 37 83 38 77 39 79 40 30 41 82 42 76 43 75 44
REMARK SMILES IDX 31 46 63 47 43 48 62 49 44 50 47 51 61 52 80 53 45 54 46 55
REMARK SMILES IDX 60 57 81 58 48 59 32 60 33 61 41 62 34 63 36 64 42 65 35 66
REMARK SMILES IDX 37 67 38 68 39 69 40 70 64 71 65 72 73 73 66 74 68 75 74 76
REMARK SMILES IDX 67 77 69 78 70 79 71 80 72 81 49 82 50 83 58 84 51 85 53 86
REMARK SMILES IDX 59 87 52 88 54 89 55 90 56 91 57 92
REMARK H PARENT 11 20 11 21 79 45 47 56
REMARK Flexibility Score: inf
ROOT
ATOM      1  C   UNL A   1      36.876  20.879  25.364  1.00  0.00     0.275 C 
ENDROOT
BRANCH   1   2
ATOM      2  C   UNL A   1      35.736  21.586  24.629  1.00  0.00     0.274 C 
BRANCH   2   3
ATOM      3  O   UNL A   1      35.420  22.863  25.223  1.00  0.00    -0.457 OA
BRANCH   3   4
ATOM      4  C   UNL A   1      34.359  22.843  26.080  1.00  0.00     0.368 C 
ATOM      5  O   UNL A   1      34.404  22.341  27.201  1.00  0.00    -0.245 OA
BRANCH   4   6
ATOM      6  C   UNL A   1      33.076  23.569  25.519  1.00  0.00     0.195 C 
ATOM      7  C   UNL A   1      32.173  25.928  25.069  1.00  0.00     0.058 C 
ATOM      8  C   UNL A   1      30.999  25.714  26.031  1.00  0.00     0.015 C 
ATOM      9  C   UNL A   1      33.404  25.069  25.374  1.00  0.00     0.096 C 
ATOM     10  C   UNL A   1      30.682  24.246  26.300  1.00  0.00     0.008 C 
ATOM     11  C   UNL A   1      31.919  23.380  26.527  1.00  0.00     0.081 C 
BRANCH   7  12
ATOM     12  S   UNL A   1      32.647  27.680  24.830  1.00  0.00    -0.119 SA
BRANCH  12  13
ATOM     13  C   UNL A   1      31.403  28.438  23.884  1.00  0.00     0.046 A 
ATOM     14  C   UNL A   1      28.648  30.531  22.927  1.00  0.00     0.173 C 
ATOM     15  N   UNL A   1      29.758  29.620  23.062  1.00  0.00    -0.275 N 
ATOM     16  C   UNL A   1      30.665  29.577  24.084  1.00  0.00     0.123 A 
ATOM     17  N   UNL A   1      29.940  28.656  22.141  1.00  0.00    -0.181 NA
ATOM     18  C   UNL A   1      30.942  27.932  22.651  1.00  0.00     0.150 A 
ENDBRANCH  12  13
ENDBRANCH   7  12
BRANCH   6  19
ATOM     19  N   UNL A   1      32.870  22.924  24.200  1.00  0.00    -0.330 N 
ATOM     20  H   UNL A   1      33.775  22.526  23.949  1.00  0.00     0.347 HD
ATOM     21  H   UNL A   1      32.458  23.700  23.681  1.00  0.00     0.347 HD
BRANCH  19  22
ATOM     22  C   UNL A   1      31.904  21.887  23.917  1.00  0.00     0.183 C 
ATOM     23  C   UNL A   1      32.022  21.130  22.622  1.00  0.00     0.071 C 
ATOM     24  C   UNL A   1      32.394  20.461  23.909  1.00  0.00     0.071 C 
ENDBRANCH  19  22
ENDBRANCH   6  19
ENDBRANCH   4   6
ENDBRANCH   3   4
ENDBRANCH   2   3
ENDBRANCH   1   2
BRANCH   1  25
ATOM     25  O   UNL A   1      38.136  21.515  25.089  1.00  0.00    -0.458 OA
BRANCH  25  26
ATOM     26  C   UNL A   1      39.128  21.250  25.967  1.00  0.00     0.338 C 
ATOM     27  O   UNL A   1      39.646  20.166  26.193  1.00  0.00    -0.246 OA
BRANCH  26  28
ATOM     28  C   UNL A   1      39.577  22.491  26.612  1.00  0.00     0.060 A 
ATOM     29  C   UNL A   1      39.065  23.707  26.161  1.00  0.00     0.016 A 
ATOM     30  C   UNL A   1      40.618  22.469  27.539  1.00  0.00     0.016 A 
ATOM     31  C   UNL A   1      39.654  24.905  26.549  1.00  0.00     0.010 A 
ATOM     32  C   UNL A   1      41.151  23.678  27.999  1.00  0.00     0.010 A 
ATOM     33  C   UNL A   1      40.706  24.905  27.474  1.00  0.00    -0.014 A 
BRANCH  33  34
ATOM     34  C   UNL A   1      41.362  26.183  27.853  1.00  0.00     0.031 A 
ATOM     35  C   UNL A   1      40.596  27.226  28.622  1.00  0.00     0.074 A 
ATOM     36  C   UNL A   1      42.648  26.406  27.518  1.00  0.00     0.049 A 
ATOM     37  N   UNL A   1      40.951  28.444  28.940  1.00  0.00    -0.248 NA
ATOM     38  C   UNL A   1      39.249  26.855  29.089  1.00  0.00     0.031 C 
ATOM     39  C   UNL A   1      43.507  25.468  26.791  1.00  0.00     0.029 A 
ATOM     40  N   UNL A   1      43.456  27.494  27.735  1.00  0.00    -0.354 N 
ATOM     41  C   UNL A   1      39.856  29.005  29.585  1.00  0.00     0.074 A 
ATOM     42  C   UNL A   1      38.824  27.991  29.624  1.00  0.00     0.031 C 
ATOM     43  C   UNL A   1      44.721  26.016  26.631  1.00  0.00     0.029 A 
ATOM     44  C   UNL A   1      44.711  27.364  27.188  1.00  0.00     0.049 A 
ATOM     45  H   UNL A   1      43.164  28.291  28.234  1.00  0.00     0.167 HD
ATOM     46  C   UNL A   1      39.726  30.246  30.110  1.00  0.00     0.034 A 
ATOM     47  C   UNL A   1      45.732  28.241  27.116  1.00  0.00     0.034 A 
ATOM     48  C   UNL A   1      40.776  31.227  30.135  1.00  0.00     0.049 A 
ATOM     49  C   UNL A   1      45.564  29.608  27.719  1.00  0.00     0.074 A 
ATOM     50  C   UNL A   1      40.750  32.503  30.672  1.00  0.00     0.029 A 
ATOM     51  N   UNL A   1      42.046  31.038  29.615  1.00  0.00    -0.354 N 
ATOM     52  N   UNL A   1      44.539  30.100  28.373  1.00  0.00    -0.248 NA
ATOM     53  C   UNL A   1      46.696  30.537  27.587  1.00  0.00     0.031 C 
ATOM     54  C   UNL A   1      42.007  33.084  30.478  1.00  0.00     0.029 A 
ATOM     55  C   UNL A   1      42.815  32.171  29.820  1.00  0.00     0.049 A 
ATOM     56  H   UNL A   1      42.356  30.219  29.165  1.00  0.00     0.167 HD
ATOM     57  C   UNL A   1      44.907  31.388  28.743  1.00  0.00     0.074 A 
ATOM     58  C   UNL A   1      46.260  31.589  28.267  1.00  0.00     0.031 C 
ATOM     59  C   UNL A   1      44.181  32.330  29.393  1.00  0.00     0.034 A 
BRANCH  46  60
ATOM     60  C   UNL A   1      38.407  30.603  30.739  1.00  0.00     0.023 A 
ATOM     61  C   UNL A   1      38.144  30.215  32.067  1.00  0.00     0.012 A 
ATOM     62  C   UNL A   1      37.454  31.369  30.039  1.00  0.00     0.148 A 
ATOM     63  C   UNL A   1      36.944  30.566  32.683  1.00  0.00     0.002 A 
ATOM     64  C   UNL A   1      36.273  31.742  30.671  1.00  0.00     0.091 A 
ATOM     65  F   UNL A   1      37.711  31.704  28.766  1.00  0.00    -0.205 F 
ATOM     66  C   UNL A   1      36.013  31.337  31.990  1.00  0.00     0.022 A 
BRANCH  64  67
ATOM     67  S   UNL A   1      35.047  32.785  29.874  1.00  0.00     0.127 S 
ATOM     68  O   UNL A   1      34.387  31.835  28.979  1.00  0.00    -0.237 OA
ATOM     69  O   UNL A   1      34.228  33.226  31.003  1.00  0.00    -0.237 OA
ATOM     70  O   UNL A   1      35.797  33.850  29.222  1.00  0.00    -0.744 OA
ENDBRANCH  64  67
ENDBRANCH  46  60
BRANCH  47  71
ATOM     71  C   UNL A   1      47.012  27.836  26.472  1.00  0.00     0.023 A 
ATOM     72  C   UNL A   1      48.026  27.255  27.256  1.00  0.00     0.012 A 
ATOM     73  C   UNL A   1      47.214  27.978  25.085  1.00  0.00     0.148 A 
ATOM     74  C   UNL A   1      49.224  26.837  26.674  1.00  0.00     0.002 A 
ATOM     75  C   UNL A   1      48.386  27.508  24.503  1.00  0.00     0.091 A 
ATOM     76  F   UNL A   1      46.252  28.561  24.355  1.00  0.00    -0.205 F 
ATOM     77  C   UNL A   1      49.398  26.949  25.296  1.00  0.00     0.022 A 
BRANCH  75  78
ATOM     78  S   UNL A   1      48.605  27.492  22.720  1.00  0.00     0.127 S 
ATOM     79  O   UNL A   1      49.888  28.173  22.568  1.00  0.00    -0.237 OA
ATOM     80  O   UNL A   1      48.629  26.060  22.418  1.00  0.00    -0.237 OA
ATOM     81  O   UNL A   1      47.439  28.188  22.192  1.00  0.00    -0.744 OA
ENDBRANCH  75  78
ENDBRANCH  47  71
BRANCH  59  82
ATOM     82  C   UNL A   1      44.834  33.661  29.640  1.00  0.00     0.023 A 
ATOM     83  C   UNL A   1      45.573  33.856  30.823  1.00  0.00     0.012 A 
ATOM     84  C   UNL A   1      44.784  34.685  28.675  1.00  0.00     0.148 A 
ATOM     85  C   UNL A   1      46.238  35.060  31.052  1.00  0.00     0.002 A 
ATOM     86  C   UNL A   1      45.479  35.870  28.894  1.00  0.00     0.091 A 
ATOM     87  F   UNL A   1      44.053  34.489  27.568  1.00  0.00    -0.205 F 
ATOM     88  C   UNL A   1      46.202  36.061  30.083  1.00  0.00     0.022 A 
BRANCH  86  89
ATOM     89  S   UNL A   1      45.547  37.171  27.658  1.00  0.00     0.127 S 
ATOM     90  O   UNL A   1      46.403  38.159  28.310  1.00  0.00    -0.237 OA
ATOM     91  O   UNL A   1      46.161  36.492  26.516  1.00  0.00    -0.237 OA
ATOM     92  O   UNL A   1      44.165  37.576  27.439  1.00  0.00    -0.744 OA
ENDBRANCH  86  89
ENDBRANCH  59  82
ENDBRANCH  33  34
ENDBRANCH  26  28
ENDBRANCH  25  26
ENDBRANCH   1  25
TORSDOF 18
ENDMDL
MODEL 3
REMARK VINA RESULT:     -11.2      1.665      2.305
REMARK SMILES Cn1cc(S[C@@H]2CCC[C@]([NH2+]C3CC3)(C(=O)OCCOC(=O)c3ccc(-c4c5nc(c(-c6cccc(S(=O)(=O)[O-])c6F)c6ccc([nH]6)c(-c6cccc(S(=O)(=O)[O-])c6F)c6nc(c(-c7cccc(S(=O)(=O)[O-])c7F)c7ccc4[nH]7)C=C6)C=C5)cc3)C2)cn1
REMARK SMILES IDX 19 1 18 2 17 3 15 4 16 5 10 6 6 7 7 8 86 9 8 10 9 11 5 12
REMARK SMILES IDX 4 13 1 14 2 15 3 16 88 17 87 18 11 19 12 22 13 23 14 24
REMARK SMILES IDX 20 25 21 26 22 27 23 28 24 29 85 30 25 31 84 32 26 33 27 34
REMARK SMILES IDX 28 35 78 36 29 37 83 38 77 39 79 40 30 41 82 42 76 43 75 44
REMARK SMILES IDX 31 46 63 47 43 48 62 49 44 50 47 51 61 52 80 53 45 54 46 55
REMARK SMILES IDX 60 57 81 58 48 59 32 60 33 61 41 62 34 63 36 64 42 65 35 66
REMARK SMILES IDX 37 67 38 68 39 69 40 70 64 71 65 72 73 73 66 74 68 75 74 76
REMARK SMILES IDX 67 77 69 78 70 79 71 80 72 81 49 82 50 83 58 84 51 85 53 86
REMARK SMILES IDX 59 87 52 88 54 89 55 90 56 91 57 92
REMARK H PARENT 11 20 11 21 79 45 47 56
REMARK Flexibility Score: inf
ROOT
ATOM      1  C   UNL A   1      36.600  21.032  25.455  1.00  0.00     0.275 C 
ENDROOT
BRANCH   1   2
ATOM      2  C   UNL A   1      35.527  21.553  24.498  1.00  0.00     0.274 C 
BRANCH   2   3
ATOM      3  O   UNL A   1      35.669  22.966  24.244  1.00  0.00    -0.457 OA
BRANCH   3   4
ATOM      4  C   UNL A   1      34.692  23.504  23.459  1.00  0.00     0.368 C 
ATOM      5  O   UNL A   1      34.506  23.173  22.289  1.00  0.00    -0.245 OA
BRANCH   4   6
ATOM      6  C   UNL A   1      33.787  24.558  24.204  1.00  0.00     0.195 C 
ATOM      7  C   UNL A   1      32.863  26.934  23.911  1.00  0.00     0.058 C 
ATOM      8  C   UNL A   1      33.576  27.419  25.178  1.00  0.00     0.015 C 
ATOM      9  C   UNL A   1      33.527  25.729  23.235  1.00  0.00     0.096 C 
ATOM     10  C   UNL A   1      33.955  26.298  26.140  1.00  0.00     0.008 C 
ATOM     11  C   UNL A   1      34.545  25.068  25.452  1.00  0.00     0.081 C 
BRANCH   7  12
ATOM     12  S   UNL A   1      32.511  28.251  22.689  1.00  0.00    -0.119 SA
BRANCH  12  13
ATOM     13  C   UNL A   1      30.799  28.542  22.707  1.00  0.00     0.046 A 
ATOM     14  C   UNL A   1      27.628  30.225  22.668  1.00  0.00     0.173 C 
ATOM     15  N   UNL A   1      28.760  29.332  22.684  1.00  0.00    -0.275 N 
ATOM     16  C   UNL A   1      30.051  29.637  22.355  1.00  0.00     0.123 A 
ATOM     17  N   UNL A   1      28.599  28.064  23.107  1.00  0.00    -0.181 NA
ATOM     18  C   UNL A   1      29.849  27.587  23.126  1.00  0.00     0.150 A 
ENDBRANCH  12  13
ENDBRANCH   7  12
BRANCH   6  19
ATOM     19  N   UNL A   1      32.546  23.799  24.491  1.00  0.00    -0.330 N 
ATOM     20  H   UNL A   1      32.557  23.010  23.845  1.00  0.00     0.347 HD
ATOM     21  H   UNL A   1      31.856  24.547  24.419  1.00  0.00     0.347 HD
BRANCH  19  22
ATOM     22  C   UNL A   1      32.184  23.240  25.774  1.00  0.00     0.183 C 
ATOM     23  C   UNL A   1      30.738  23.268  26.187  1.00  0.00     0.071 C 
ATOM     24  C   UNL A   1      31.367  21.973  25.776  1.00  0.00     0.071 C 
ENDBRANCH  19  22
ENDBRANCH   6  19
ENDBRANCH   4   6
ENDBRANCH   3   4
ENDBRANCH   2   3
ENDBRANCH   1   2
BRANCH   1  25
ATOM     25  O   UNL A   1      37.913  21.412  25.010  1.00  0.00    -0.458 OA
BRANCH  25  26
ATOM     26  C   UNL A   1      38.919  21.163  25.878  1.00  0.00     0.338 C 
ATOM     27  O   UNL A   1      39.445  20.084  26.110  1.00  0.00    -0.246 OA
BRANCH  26  28
ATOM     28  C   UNL A   1      39.371  22.414  26.501  1.00  0.00     0.060 A 
ATOM     29  C   UNL A   1      38.753  23.610  26.134  1.00  0.00     0.016 A 
ATOM     30  C   UNL A   1      40.504  22.430  27.311  1.00  0.00     0.016 A 
ATOM     31  C   UNL A   1      39.319  24.829  26.486  1.00  0.00     0.010 A 
ATOM     32  C   UNL A   1      41.022  23.657  27.740  1.00  0.00     0.010 A 
ATOM     33  C   UNL A   1      40.462  24.869  27.294  1.00  0.00    -0.014 A 
BRANCH  33  34
ATOM     34  C   UNL A   1      41.090  26.172  27.632  1.00  0.00     0.031 A 
ATOM     35  C   UNL A   1      42.508  26.457  27.216  1.00  0.00     0.074 A 
ATOM     36  C   UNL A   1      40.387  27.106  28.303  1.00  0.00     0.049 A 
ATOM     37  N   UNL A   1      43.267  27.479  27.516  1.00  0.00    -0.248 NA
ATOM     38  C   UNL A   1      43.164  25.459  26.353  1.00  0.00     0.031 C 
ATOM     39  C   UNL A   1      38.998  26.961  28.746  1.00  0.00     0.029 A 
ATOM     40  N   UNL A   1      40.745  28.356  28.740  1.00  0.00    -0.354 N 
ATOM     41  C   UNL A   1      44.503  27.219  26.938  1.00  0.00     0.074 A 
ATOM     42  C   UNL A   1      44.393  25.947  26.257  1.00  0.00     0.031 C 
ATOM     43  C   UNL A   1      38.620  28.081  29.382  1.00  0.00     0.029 A 
ATOM     44  C   UNL A   1      39.753  28.997  29.445  1.00  0.00     0.049 A 
ATOM     45  H   UNL A   1      41.627  28.756  28.564  1.00  0.00     0.167 HD
ATOM     46  C   UNL A   1      45.625  27.978  26.958  1.00  0.00     0.034 A 
ATOM     47  C   UNL A   1      39.762  30.177  30.096  1.00  0.00     0.034 A 
ATOM     48  C   UNL A   1      45.712  29.274  27.573  1.00  0.00     0.049 A 
ATOM     49  C   UNL A   1      41.017  31.004  30.091  1.00  0.00     0.074 A 
ATOM     50  C   UNL A   1      46.797  30.133  27.621  1.00  0.00     0.029 A 
ATOM     51  N   UNL A   1      44.672  29.907  28.234  1.00  0.00    -0.354 N 
ATOM     52  N   UNL A   1      42.158  30.766  29.492  1.00  0.00    -0.248 NA
ATOM     53  C   UNL A   1      40.983  32.268  30.842  1.00  0.00     0.031 C 
ATOM     54  C   UNL A   1      46.411  31.287  28.309  1.00  0.00     0.029 A 
ATOM     55  C   UNL A   1      45.086  31.147  28.690  1.00  0.00     0.049 A 
ATOM     56  H   UNL A   1      43.772  29.531  28.361  1.00  0.00     0.167 HD
ATOM     57  C   UNL A   1      42.973  31.855  29.779  1.00  0.00     0.074 A 
ATOM     58  C   UNL A   1      42.184  32.768  30.580  1.00  0.00     0.031 C 
ATOM     59  C   UNL A   1      44.267  32.068  29.434  1.00  0.00     0.034 A 
BRANCH  46  60
ATOM     60  C   UNL A   1      46.844  27.440  26.260  1.00  0.00     0.023 A 
ATOM     61  C   UNL A   1      47.709  26.568  26.949  1.00  0.00     0.012 A 
ATOM     62  C   UNL A   1      47.102  27.752  24.911  1.00  0.00     0.148 A 
ATOM     63  C   UNL A   1      48.826  26.029  26.310  1.00  0.00     0.002 A 
ATOM     64  C   UNL A   1      48.199  27.186  24.272  1.00  0.00     0.091 A 
ATOM     65  F   UNL A   1      46.282  28.607  24.282  1.00  0.00    -0.205 F 
ATOM     66  C   UNL A   1      49.065  26.329  24.971  1.00  0.00     0.022 A 
BRANCH  64  67
ATOM     67  S   UNL A   1      48.549  27.469  22.533  1.00  0.00     0.127 S 
ATOM     68  O   UNL A   1      49.804  28.216  22.602  1.00  0.00    -0.237 OA
ATOM     69  O   UNL A   1      48.679  26.108  22.013  1.00  0.00    -0.237 OA
ATOM     70  O   UNL A   1      47.404  28.204  22.014  1.00  0.00    -0.744 OA
ENDBRANCH  64  67
ENDBRANCH  46  60
BRANCH  47  71
ATOM     71  C   UNL A   1      38.527  30.655  30.779  1.00  0.00     0.023 A 
ATOM     72  C   UNL A   1      38.409  30.505  32.174  1.00  0.00     0.012 A 
ATOM     73  C   UNL A   1      37.494  31.295  30.068  1.00  0.00     0.148 A 
ATOM     74  C   UNL A   1      37.277  30.971  32.845  1.00  0.00     0.002 A 
ATOM     75  C   UNL A   1      36.396  31.807  30.749  1.00  0.00     0.091 A 
ATOM     76  F   UNL A   1      37.607  31.403  28.736  1.00  0.00    -0.205 F 
ATOM     77  C   UNL A   1      36.278  31.635  32.136  1.00  0.00     0.022 A 
BRANCH  75  78
ATOM     78  S   UNL A   1      35.152  32.797  29.913  1.00  0.00     0.127 S 
ATOM     79  O   UNL A   1      34.217  33.085  30.997  1.00  0.00    -0.237 OA
ATOM     80  O   UNL A   1      35.927  33.947  29.445  1.00  0.00    -0.237 OA
ATOM     81  O   UNL A   1      34.653  31.946  28.841  1.00  0.00    -0.744 OA
ENDBRANCH  75  78
ENDBRANCH  47  71
BRANCH  59  82
ATOM     82  C   UNL A   1      44.911  33.340  29.910  1.00  0.00     0.023 A 
ATOM     83  C   UNL A   1      45.620  33.339  31.126  1.00  0.00     0.012 A 
ATOM     84  C   UNL A   1      44.883  34.507  29.122  1.00  0.00     0.148 A 
ATOM     85  C   UNL A   1      46.277  34.489  31.563  1.00  0.00     0.002 A 
ATOM     86  C   UNL A   1      45.571  35.639  29.546  1.00  0.00     0.091 A 
ATOM     87  F   UNL A   1      44.181  34.494  27.980  1.00  0.00    -0.205 F 
ATOM     88  C   UNL A   1      46.263  35.633  30.769  1.00  0.00     0.022 A 
BRANCH  86  89
ATOM     89  S   UNL A   1      45.668  37.123  28.539  1.00  0.00     0.127 S 
ATOM     90  O   UNL A   1      46.400  36.643  27.369  1.00  0.00    -0.237 OA
ATOM     91  O   UNL A   1      44.258  37.430  28.291  1.00  0.00    -0.237 OA
ATOM     92  O   UNL A   1      46.359  38.109  29.359  1.00  0.00    -0.744 OA
ENDBRANCH  86  89
ENDBRANCH  59  82
ENDBRANCH  33  34
ENDBRANCH  26  28
ENDBRANCH  25  26
ENDBRANCH   1  25
TORSDOF 18
ENDMDL
