MODEL 1
REMARK VINA RESULT:     -13.5      0.000      0.000
REMARK SMILES Cc1ccc(-c2cc(Cl)cc3c2O[C@H](C(F)(F)F)C(C(=O)OCCOC(=O)c2ccc(-c4c5nc(c(-c6cccc(S(=O)(=O)[O-])c6F)c6ccc([nH]6)c(-c6cccc(S(=O)(=O)[O-])c6F)c6nc(c(-c7cccc(S(=O)(=O)[O-])c7F)c7ccc4[nH]7)C=C6)C=C5)cc2)=C3)cc1F
REMARK SMILES IDX 24 1 23 2 22 3 20 4 21 5 19 6 6 7 7 8 12 9 8 10 11 11 13 12
REMARK SMILES IDX 9 13 10 14 91 15 14 16 5 17 1 18 2 19 3 20 93 21 4 22 92 23
REMARK SMILES IDX 94 24 15 25 16 26 17 27 18 28 25 29 26 30 27 31 28 32 29 33
REMARK SMILES IDX 90 34 30 35 89 36 31 37 32 38 33 39 83 40 34 41 88 42 82 43
REMARK SMILES IDX 84 44 35 45 87 46 81 47 80 48 36 50 68 51 48 52 67 53 49 54
REMARK SMILES IDX 52 55 66 56 85 57 50 58 51 59 65 61 86 62 53 63 37 64 38 65
REMARK SMILES IDX 46 66 39 67 41 68 47 69 40 70 42 71 43 72 44 73 45 74 69 75
REMARK SMILES IDX 70 76 78 77 71 78 73 79 79 80 72 81 74 82 75 83 76 84 77 85
REMARK SMILES IDX 54 86 55 87 63 88 56 89 58 90 64 91 57 92 59 93 60 94 61 95
REMARK SMILES IDX 62 96
REMARK H PARENT 84 49 52 60
REMARK Flexibility Score: inf
ROOT
ATOM      1  C   UNL A   1      34.557  31.568  27.754  1.00  0.00     0.275 C 
ENDROOT
BRANCH   1   2
ATOM      2  C   UNL A   1      33.294  30.863  27.240  1.00  0.00     0.275 C 
BRANCH   2   3
ATOM      3  O   UNL A   1      33.491  29.911  26.170  1.00  0.00    -0.459 OA
BRANCH   3   4
ATOM      4  C   UNL A   1      32.370  29.587  25.465  1.00  0.00     0.338 C 
ATOM      5  O   UNL A   1      31.448  30.343  25.201  1.00  0.00    -0.246 OA
BRANCH   4   6
ATOM      6  C   UNL A   1      32.531  28.248  24.848  1.00  0.00     0.087 C 
ATOM      7  C   UNL A   1      33.527  24.720  22.779  1.00  0.00     0.026 A 
ATOM      8  C   UNL A   1      33.159  24.608  21.426  1.00  0.00     0.033 A 
ATOM      9  C   UNL A   1      33.205  25.907  23.473  1.00  0.00     0.135 A 
ATOM     10  C   UNL A   1      32.447  25.629  20.801  1.00  0.00     0.042 A 
ATOM     11  C   UNL A   1      32.446  26.903  22.851  1.00  0.00     0.019 A 
ATOM     12  O   UNL A   1      33.722  26.087  24.741  1.00  0.00    -0.475 OA
ATOM     13  Cl  UNL A   1      32.061  25.509  19.127  1.00  0.00    -0.084 Cl
ATOM     14  C   UNL A   1      32.061  26.760  21.515  1.00  0.00     0.032 A 
ATOM     15  C   UNL A   1      32.145  28.122  23.576  1.00  0.00     0.027 C 
ATOM     16  C   UNL A   1      33.048  27.064  25.604  1.00  0.00     0.316 C 
BRANCH   7  17
ATOM     17  C   UNL A   1      34.169  23.591  23.459  1.00  0.00    -0.012 A 
ATOM     18  C   UNL A   1      36.151  20.163  25.177  1.00  0.00     0.047 C 
ATOM     19  C   UNL A   1      35.447  21.370  24.640  1.00  0.00    -0.015 A 
ATOM     20  C   UNL A   1      34.054  21.493  24.692  1.00  0.00     0.007 A 
ATOM     21  C   UNL A   1      36.189  22.384  24.033  1.00  0.00     0.126 A 
ATOM     22  C   UNL A   1      33.422  22.598  24.111  1.00  0.00     0.009 A 
ATOM     23  C   UNL A   1      35.568  23.482  23.453  1.00  0.00     0.048 A 
ATOM     24  F   UNL A   1      37.526  22.295  23.990  1.00  0.00    -0.207 F 
ENDBRANCH   7  17
BRANCH  16  25
ATOM     25  C   UNL A   1      31.932  26.342  26.383  1.00  0.00     0.430 C 
ATOM     26  F   UNL A   1      30.817  26.235  25.612  1.00  0.00    -0.167 F 
ATOM     27  F   UNL A   1      32.280  25.100  26.758  1.00  0.00    -0.167 F 
ATOM     28  F   UNL A   1      31.566  27.025  27.496  1.00  0.00    -0.167 F 
ENDBRANCH  16  25
ENDBRANCH   4   6
ENDBRANCH   3   4
ENDBRANCH   2   3
ENDBRANCH   1   2
BRANCH   1  29
ATOM     29  O   UNL A   1      35.045  30.929  28.940  1.00  0.00    -0.458 OA
BRANCH  29  30
ATOM     30  C   UNL A   1      36.317  31.225  29.307  1.00  0.00     0.338 C 
ATOM     31  O   UNL A   1      36.713  32.173  29.943  1.00  0.00    -0.246 OA
BRANCH  30  32
ATOM     32  C   UNL A   1      37.081  29.984  29.079  1.00  0.00     0.060 A 
ATOM     33  C   UNL A   1      37.418  29.112  30.123  1.00  0.00     0.016 A 
ATOM     34  C   UNL A   1      37.689  29.883  27.833  1.00  0.00     0.016 A 
ATOM     35  C   UNL A   1      38.524  28.272  29.975  1.00  0.00     0.010 A 
ATOM     36  C   UNL A   1      38.761  29.021  27.687  1.00  0.00     0.010 A 
ATOM     37  C   UNL A   1      39.261  28.313  28.789  1.00  0.00    -0.014 A 
BRANCH  37  38
ATOM     38  C   UNL A   1      40.639  27.815  28.690  1.00  0.00     0.031 A 
ATOM     39  C   UNL A   1      40.917  26.427  28.251  1.00  0.00     0.074 A 
ATOM     40  C   UNL A   1      41.711  28.607  28.953  1.00  0.00     0.049 A 
ATOM     41  N   UNL A   1      41.856  25.691  28.746  1.00  0.00    -0.248 NA
ATOM     42  C   UNL A   1      40.157  25.755  27.202  1.00  0.00     0.031 C 
ATOM     43  C   UNL A   1      43.115  28.265  28.708  1.00  0.00     0.029 A 
ATOM     44  N   UNL A   1      41.802  29.827  29.614  1.00  0.00    -0.354 N 
ATOM     45  C   UNL A   1      42.026  24.614  27.907  1.00  0.00     0.074 A 
ATOM     46  C   UNL A   1      40.890  24.653  27.012  1.00  0.00     0.031 C 
ATOM     47  C   UNL A   1      43.893  29.045  29.473  1.00  0.00     0.029 A 
ATOM     48  C   UNL A   1      43.024  29.858  30.299  1.00  0.00     0.049 A 
ATOM     49  H   UNL A   1      41.125  30.543  29.603  1.00  0.00     0.167 HD
ATOM     50  C   UNL A   1      43.172  23.873  27.948  1.00  0.00     0.034 A 
ATOM     51  C   UNL A   1      43.177  30.057  31.640  1.00  0.00     0.034 A 
ATOM     52  C   UNL A   1      44.140  24.431  28.882  1.00  0.00     0.049 A 
ATOM     53  C   UNL A   1      43.804  28.887  32.352  1.00  0.00     0.074 A 
ATOM     54  C   UNL A   1      45.253  25.232  28.687  1.00  0.00     0.029 A 
ATOM     55  N   UNL A   1      43.876  24.446  30.245  1.00  0.00    -0.354 N 
ATOM     56  N   UNL A   1      44.043  27.749  31.762  1.00  0.00    -0.248 NA
ATOM     57  C   UNL A   1      44.126  28.848  33.777  1.00  0.00     0.031 C 
ATOM     58  C   UNL A   1      45.627  25.776  29.938  1.00  0.00     0.029 A 
ATOM     59  C   UNL A   1      44.752  25.293  30.895  1.00  0.00     0.049 A 
ATOM     60  H   UNL A   1      43.166  23.927  30.685  1.00  0.00     0.167 HD
ATOM     61  C   UNL A   1      44.455  26.828  32.686  1.00  0.00     0.074 A 
ATOM     62  C   UNL A   1      44.532  27.574  33.925  1.00  0.00     0.031 C 
ATOM     63  C   UNL A   1      44.652  25.524  32.333  1.00  0.00     0.034 A 
BRANCH  50  64
ATOM     64  C   UNL A   1      43.509  22.789  26.943  1.00  0.00     0.023 A 
ATOM     65  C   UNL A   1      44.434  23.011  25.899  1.00  0.00     0.012 A 
ATOM     66  C   UNL A   1      42.909  21.508  26.978  1.00  0.00     0.148 A 
ATOM     67  C   UNL A   1      44.848  21.990  25.033  1.00  0.00     0.002 A 
ATOM     68  C   UNL A   1      43.286  20.505  26.081  1.00  0.00     0.091 A 
ATOM     69  F   UNL A   1      41.958  21.231  27.878  1.00  0.00    -0.205 F 
ATOM     70  C   UNL A   1      44.279  20.730  25.128  1.00  0.00     0.022 A 
BRANCH  68  71
ATOM     71  S   UNL A   1      42.458  18.911  26.144  1.00  0.00     0.127 S 
ATOM     72  O   UNL A   1      41.087  19.236  25.765  1.00  0.00    -0.237 OA
ATOM     73  O   UNL A   1      43.228  18.103  25.204  1.00  0.00    -0.237 OA
ATOM     74  O   UNL A   1      42.612  18.507  27.543  1.00  0.00    -0.744 OA
ENDBRANCH  68  71
ENDBRANCH  50  64
BRANCH  51  75
ATOM     75  C   UNL A   1      42.212  31.015  32.225  1.00  0.00     0.023 A 
ATOM     76  C   UNL A   1      42.563  32.370  32.351  1.00  0.00     0.012 A 
ATOM     77  C   UNL A   1      41.256  30.449  33.091  1.00  0.00     0.148 A 
ATOM     78  C   UNL A   1      42.100  33.094  33.452  1.00  0.00     0.002 A 
ATOM     79  C   UNL A   1      40.845  31.153  34.210  1.00  0.00     0.091 A 
ATOM     80  F   UNL A   1      40.865  29.188  32.853  1.00  0.00    -0.205 F 
ATOM     81  C   UNL A   1      41.279  32.474  34.400  1.00  0.00     0.022 A 
BRANCH  79  82
ATOM     82  S   UNL A   1      39.897  30.365  35.523  1.00  0.00     0.127 S 
ATOM     83  O   UNL A   1      39.890  31.403  36.553  1.00  0.00    -0.237 OA
ATOM     84  O   UNL A   1      38.592  30.060  34.954  1.00  0.00    -0.237 OA
ATOM     85  O   UNL A   1      40.705  29.193  35.860  1.00  0.00    -0.744 OA
ENDBRANCH  79  82
ENDBRANCH  51  75
BRANCH  63  86
ATOM     86  C   UNL A   1      44.894  24.377  33.280  1.00  0.00     0.023 A 
ATOM     87  C   UNL A   1      43.831  23.469  33.518  1.00  0.00     0.012 A 
ATOM     88  C   UNL A   1      46.075  24.167  34.007  1.00  0.00     0.148 A 
ATOM     89  C   UNL A   1      43.945  22.398  34.408  1.00  0.00     0.002 A 
ATOM     90  C   UNL A   1      46.225  23.033  34.807  1.00  0.00     0.091 A 
ATOM     91  F   UNL A   1      47.053  25.082  33.989  1.00  0.00    -0.205 F 
ATOM     92  C   UNL A   1      45.159  22.159  35.032  1.00  0.00     0.022 A 
BRANCH  90  93
ATOM     93  S   UNL A   1      47.863  22.633  35.421  1.00  0.00     0.127 S 
ATOM     94  O   UNL A   1      48.035  23.592  36.509  1.00  0.00    -0.237 OA
ATOM     95  O   UNL A   1      47.747  21.231  35.806  1.00  0.00    -0.237 OA
ATOM     96  O   UNL A   1      48.728  22.874  34.266  1.00  0.00    -0.744 OA
ENDBRANCH  90  93
ENDBRANCH  63  86
ENDBRANCH  37  38
ENDBRANCH  30  32
ENDBRANCH  29  30
ENDBRANCH   1  29
TORSDOF 16
ENDMDL
MODEL 2
REMARK VINA RESULT:     -13.3      2.292      3.443
REMARK SMILES Cc1ccc(-c2cc(Cl)cc3c2O[C@H](C(F)(F)F)C(C(=O)OCCOC(=O)c2ccc(-c4c5nc(c(-c6cccc(S(=O)(=O)[O-])c6F)c6ccc([nH]6)c(-c6cccc(S(=O)(=O)[O-])c6F)c6nc(c(-c7cccc(S(=O)(=O)[O-])c7F)c7ccc4[nH]7)C=C6)C=C5)cc2)=C3)cc1F
REMARK SMILES IDX 24 1 23 2 22 3 20 4 21 5 19 6 6 7 7 8 12 9 8 10 11 11 13 12
REMARK SMILES IDX 9 13 10 14 91 15 14 16 5 17 1 18 2 19 3 20 93 21 4 22 92 23
REMARK SMILES IDX 94 24 15 25 16 26 17 27 18 28 25 29 26 30 27 31 28 32 29 33
REMARK SMILES IDX 90 34 30 35 89 36 31 37 32 38 33 39 83 40 34 41 88 42 82 43
REMARK SMILES IDX 84 44 35 45 87 46 81 47 80 48 36 50 68 51 48 52 67 53 49 54
REMARK SMILES IDX 52 55 66 56 85 57 50 58 51 59 65 61 86 62 53 63 37 64 38 65
REMARK SMILES IDX 46 66 39 67 41 68 47 69 40 70 42 71 43 72 44 73 45 74 69 75
REMARK SMILES IDX 70 76 78 77 71 78 73 79 79 80 72 81 74 82 75 83 76 84 77 85
REMARK SMILES IDX 54 86 55 87 63 88 56 89 58 90 64 91 57 92 59 93 60 94 61 95
REMARK SMILES IDX 62 96
REMARK H PARENT 84 49 52 60
REMARK Flexibility Score: inf
ROOT
ATOM      1  C   UNL A   1      32.461  31.884  27.234  1.00  0.00     0.275 C 
ENDROOT
BRANCH   1   2
ATOM      2  C   UNL A   1      32.239  30.442  26.754  1.00  0.00     0.275 C 
BRANCH   2   3
ATOM      3  O   UNL A   1      33.036  30.023  25.622  1.00  0.00    -0.459 OA
BRANCH   3   4
ATOM      4  C   UNL A   1      33.963  29.059  25.889  1.00  0.00     0.338 C 
ATOM      5  O   UNL A   1      34.875  29.149  26.697  1.00  0.00    -0.246 OA
BRANCH   4   6
ATOM      6  C   UNL A   1      33.570  27.786  25.238  1.00  0.00     0.087 C 
ATOM      7  C   UNL A   1      33.095  24.155  23.163  1.00  0.00     0.026 A 
ATOM      8  C   UNL A   1      32.912  24.197  21.769  1.00  0.00     0.033 A 
ATOM      9  C   UNL A   1      33.266  25.371  23.861  1.00  0.00     0.135 A 
ATOM     10  C   UNL A   1      32.854  25.418  21.100  1.00  0.00     0.042 A 
ATOM     11  C   UNL A   1      33.154  26.592  23.188  1.00  0.00     0.019 A 
ATOM     12  O   UNL A   1      33.622  25.318  25.194  1.00  0.00    -0.475 OA
ATOM     13  Cl  UNL A   1      32.698  25.454  19.386  1.00  0.00    -0.084 Cl
ATOM     14  C   UNL A   1      32.940  26.614  21.807  1.00  0.00     0.032 A 
ATOM     15  C   UNL A   1      33.355  27.826  23.921  1.00  0.00     0.027 C 
ATOM     16  C   UNL A   1      33.365  26.515  26.002  1.00  0.00     0.316 C 
BRANCH   7  17
ATOM     17  C   UNL A   1      33.034  22.873  23.871  1.00  0.00    -0.012 A 
ATOM     18  C   UNL A   1      32.906  18.955  25.676  1.00  0.00     0.047 C 
ATOM     19  C   UNL A   1      32.941  20.339  25.107  1.00  0.00    -0.015 A 
ATOM     20  C   UNL A   1      31.797  21.144  25.061  1.00  0.00     0.007 A 
ATOM     21  C   UNL A   1      34.131  20.830  24.571  1.00  0.00     0.126 A 
ATOM     22  C   UNL A   1      31.847  22.403  24.453  1.00  0.00     0.009 A 
ATOM     23  C   UNL A   1      34.187  22.078  23.964  1.00  0.00     0.048 A 
ATOM     24  F   UNL A   1      35.243  20.082  24.623  1.00  0.00    -0.207 F 
ENDBRANCH   7  17
BRANCH  16  25
ATOM     25  C   UNL A   1      31.943  26.415  26.588  1.00  0.00     0.430 C 
ATOM     26  F   UNL A   1      31.836  27.199  27.694  1.00  0.00    -0.167 F 
ATOM     27  F   UNL A   1      30.996  26.813  25.723  1.00  0.00    -0.167 F 
ATOM     28  F   UNL A   1      31.643  25.153  26.981  1.00  0.00    -0.167 F 
ENDBRANCH  16  25
ENDBRANCH   4   6
ENDBRANCH   3   4
ENDBRANCH   2   3
ENDBRANCH   1   2
BRANCH   1  29
ATOM     29  O   UNL A   1      33.658  31.979  28.014  1.00  0.00    -0.458 OA
BRANCH  29  30
ATOM     30  C   UNL A   1      34.092  33.231  28.305  1.00  0.00     0.338 C 
ATOM     31  O   UNL A   1      33.500  34.277  28.184  1.00  0.00    -0.246 OA
BRANCH  30  32
ATOM     32  C   UNL A   1      35.303  33.036  29.126  1.00  0.00     0.060 A 
ATOM     33  C   UNL A   1      36.342  33.974  29.157  1.00  0.00     0.016 A 
ATOM     34  C   UNL A   1      35.477  31.752  29.628  1.00  0.00     0.016 A 
ATOM     35  C   UNL A   1      37.628  33.552  29.503  1.00  0.00     0.010 A 
ATOM     36  C   UNL A   1      36.749  31.354  30.002  1.00  0.00     0.010 A 
ATOM     37  C   UNL A   1      37.845  32.208  29.818  1.00  0.00    -0.014 A 
BRANCH  37  38
ATOM     38  C   UNL A   1      39.174  31.585  29.775  1.00  0.00     0.031 A 
ATOM     39  C   UNL A   1      39.373  30.262  29.135  1.00  0.00     0.074 A 
ATOM     40  C   UNL A   1      40.275  32.202  30.276  1.00  0.00     0.049 A 
ATOM     41  N   UNL A   1      40.177  29.359  29.589  1.00  0.00    -0.248 NA
ATOM     42  C   UNL A   1      38.684  29.855  27.916  1.00  0.00     0.031 C 
ATOM     43  C   UNL A   1      41.661  31.751  30.119  1.00  0.00     0.029 A 
ATOM     44  N   UNL A   1      40.399  33.283  31.141  1.00  0.00    -0.354 N 
ATOM     45  C   UNL A   1      40.344  28.417  28.600  1.00  0.00     0.074 A 
ATOM     46  C   UNL A   1      39.330  28.723  27.615  1.00  0.00     0.031 C 
ATOM     47  C   UNL A   1      42.411  32.309  31.080  1.00  0.00     0.029 A 
ATOM     48  C   UNL A   1      41.530  33.070  31.941  1.00  0.00     0.049 A 
ATOM     49  H   UNL A   1      39.797  34.062  31.184  1.00  0.00     0.167 HD
ATOM     50  C   UNL A   1      41.406  27.558  28.630  1.00  0.00     0.034 A 
ATOM     51  C   UNL A   1      41.541  33.035  33.305  1.00  0.00     0.034 A 
ATOM     52  C   UNL A   1      42.304  27.850  29.737  1.00  0.00     0.049 A 
ATOM     53  C   UNL A   1      41.971  31.705  33.866  1.00  0.00     0.074 A 
ATOM     54  C   UNL A   1      43.500  28.545  29.796  1.00  0.00     0.029 A 
ATOM     55  N   UNL A   1      41.884  27.676  31.050  1.00  0.00    -0.354 N 
ATOM     56  N   UNL A   1      42.172  30.657  33.118  1.00  0.00    -0.248 NA
ATOM     57  C   UNL A   1      42.119  31.404  35.288  1.00  0.00     0.031 C 
ATOM     58  C   UNL A   1      43.773  28.838  31.152  1.00  0.00     0.029 A 
ATOM     59  C   UNL A   1      42.752  28.307  31.920  1.00  0.00     0.049 A 
ATOM     60  H   UNL A   1      41.082  27.174  31.321  1.00  0.00     0.167 HD
ATOM     61  C   UNL A   1      42.387  29.560  33.907  1.00  0.00     0.074 A 
ATOM     62  C   UNL A   1      42.386  30.085  35.257  1.00  0.00     0.031 C 
ATOM     63  C   UNL A   1      42.504  28.315  33.358  1.00  0.00     0.034 A 
BRANCH  50  64
ATOM     64  C   UNL A   1      41.758  26.618  27.493  1.00  0.00     0.023 A 
ATOM     65  C   UNL A   1      42.348  27.090  26.300  1.00  0.00     0.012 A 
ATOM     66  C   UNL A   1      41.503  25.228  27.551  1.00  0.00     0.148 A 
ATOM     67  C   UNL A   1      42.789  26.227  25.288  1.00  0.00     0.002 A 
ATOM     68  C   UNL A   1      41.898  24.373  26.519  1.00  0.00     0.091 A 
ATOM     69  F   UNL A   1      40.870  24.699  28.606  1.00  0.00    -0.205 F 
ATOM     70  C   UNL A   1      42.571  24.863  25.399  1.00  0.00     0.022 A 
BRANCH  68  71
ATOM     71  S   UNL A   1      41.508  22.621  26.627  1.00  0.00     0.127 S 
ATOM     72  O   UNL A   1      40.051  22.611  26.689  1.00  0.00    -0.237 OA
ATOM     73  O   UNL A   1      42.121  22.074  25.421  1.00  0.00    -0.237 OA
ATOM     74  O   UNL A   1      42.164  22.207  27.869  1.00  0.00    -0.744 OA
ENDBRANCH  68  71
ENDBRANCH  50  64
BRANCH  51  75
ATOM     75  C   UNL A   1      40.606  33.987  33.944  1.00  0.00     0.023 A 
ATOM     76  C   UNL A   1      41.105  35.145  34.566  1.00  0.00     0.012 A 
ATOM     77  C   UNL A   1      39.380  33.433  34.362  1.00  0.00     0.148 A 
ATOM     78  C   UNL A   1      40.475  35.628  35.715  1.00  0.00     0.002 A 
ATOM     79  C   UNL A   1      38.790  33.881  35.533  1.00  0.00     0.091 A 
ATOM     80  F   UNL A   1      38.887  32.403  33.659  1.00  0.00    -0.205 F 
ATOM     81  C   UNL A   1      39.347  34.971  36.220  1.00  0.00     0.022 A 
BRANCH  79  82
ATOM     82  S   UNL A   1      37.419  32.996  36.295  1.00  0.00     0.127 S 
ATOM     83  O   UNL A   1      36.302  33.375  35.431  1.00  0.00    -0.237 OA
ATOM     84  O   UNL A   1      37.774  31.585  36.252  1.00  0.00    -0.237 OA
ATOM     85  O   UNL A   1      37.358  33.571  37.639  1.00  0.00    -0.744 OA
ENDBRANCH  79  82
ENDBRANCH  51  75
BRANCH  63  86
ATOM     86  C   UNL A   1      42.527  27.012  34.116  1.00  0.00     0.023 A 
ATOM     87  C   UNL A   1      41.384  26.660  34.878  1.00  0.00     0.012 A 
ATOM     88  C   UNL A   1      43.622  26.139  34.185  1.00  0.00     0.148 A 
ATOM     89  C   UNL A   1      41.325  25.493  35.644  1.00  0.00     0.002 A 
ATOM     90  C   UNL A   1      43.519  24.920  34.857  1.00  0.00     0.091 A 
ATOM     91  F   UNL A   1      44.802  26.490  33.655  1.00  0.00    -0.205 F 
ATOM     92  C   UNL A   1      42.386  24.602  35.608  1.00  0.00     0.022 A 
BRANCH  90  93
ATOM     93  S   UNL A   1      44.811  23.699  34.614  1.00  0.00     0.127 S 
ATOM     94  O   UNL A   1      45.949  24.300  35.304  1.00  0.00    -0.237 OA
ATOM     95  O   UNL A   1      44.252  22.492  35.214  1.00  0.00    -0.237 OA
ATOM     96  O   UNL A   1      44.954  23.640  33.159  1.00  0.00    -0.744 OA
ENDBRANCH  90  93
ENDBRANCH  63  86
ENDBRANCH  37  38
ENDBRANCH  30  32
ENDBRANCH  29  30
ENDBRANCH   1  29
TORSDOF 16
ENDMDL
MODEL 3
REMARK VINA RESULT:     -13.2      2.508      3.355
REMARK SMILES Cc1ccc(-c2cc(Cl)cc3c2O[C@H](C(F)(F)F)C(C(=O)OCCOC(=O)c2ccc(-c4c5nc(c(-c6cccc(S(=O)(=O)[O-])c6F)c6ccc([nH]6)c(-c6cccc(S(=O)(=O)[O-])c6F)c6nc(c(-c7cccc(S(=O)(=O)[O-])c7F)c7ccc4[nH]7)C=C6)C=C5)cc2)=C3)cc1F
REMARK SMILES IDX 24 1 23 2 22 3 20 4 21 5 19 6 6 7 7 8 12 9 8 10 11 11 13 12
REMARK SMILES IDX 9 13 10 14 91 15 14 16 5 17 1 18 2 19 3 20 93 21 4 22 92 23
REMARK SMILES IDX 94 24 15 25 16 26 17 27 18 28 25 29 26 30 27 31 28 32 29 33
REMARK SMILES IDX 90 34 30 35 89 36 31 37 32 38 33 39 83 40 34 41 88 42 82 43
REMARK SMILES IDX 84 44 35 45 87 46 81 47 80 48 36 50 68 51 48 52 67 53 49 54
REMARK SMILES IDX 52 55 66 56 85 57 50 58 51 59 65 61 86 62 53 63 37 64 38 65
REMARK SMILES IDX 46 66 39 67 41 68 47 69 40 70 42 71 43 72 44 73 45 74 69 75
REMARK SMILES IDX 70 76 78 77 71 78 73 79 79 80 72 81 74 82 75 83 76 84 77 85
REMARK SMILES IDX 54 86 55 87 63 88 56 89 58 90 64 91 57 92 59 93 60 94 61 95
REMARK SMILES IDX 62 96
REMARK H PARENT 84 49 52 60
REMARK Flexibility Score: inf
ROOT
ATOM      1  C   UNL A   1      34.828  32.277  29.646  1.00  0.00     0.275 C 
ENDROOT
BRANCH   1   2
ATOM      2  C   UNL A   1      34.324  32.490  28.211  1.00  0.00     0.275 C 
BRANCH   2   3
ATOM      3  O   UNL A   1      33.532  31.416  27.653  1.00  0.00    -0.459 OA
BRANCH   3   4
ATOM      4  C   UNL A   1      32.324  31.789  27.143  1.00  0.00     0.338 C 
ATOM      5  O   UNL A   1      31.793  32.878  27.286  1.00  0.00    -0.246 OA
BRANCH   4   6
ATOM      6  C   UNL A   1      31.847  30.767  26.179  1.00  0.00     0.087 C 
ATOM      7  C   UNL A   1      30.823  28.237  22.975  1.00  0.00     0.026 A 
ATOM      8  C   UNL A   1      29.777  28.627  22.119  1.00  0.00     0.033 A 
ATOM      9  C   UNL A   1      31.177  29.089  24.044  1.00  0.00     0.135 A 
ATOM     10  C   UNL A   1      29.075  29.807  22.353  1.00  0.00     0.042 A 
ATOM     11  C   UNL A   1      30.432  30.245  24.300  1.00  0.00     0.019 A 
ATOM     12  O   UNL A   1      32.313  28.793  24.771  1.00  0.00    -0.475 OA
ATOM     13  Cl  UNL A   1      27.843  30.307  21.259  1.00  0.00    -0.084 Cl
ATOM     14  C   UNL A   1      29.376  30.599  23.457  1.00  0.00     0.032 A 
ATOM     15  C   UNL A   1      30.827  31.115  25.390  1.00  0.00     0.027 C 
ATOM     16  C   UNL A   1      32.425  29.388  26.107  1.00  0.00     0.316 C 
BRANCH   7  17
ATOM     17  C   UNL A   1      31.474  26.936  22.790  1.00  0.00    -0.012 A 
ATOM     18  C   UNL A   1      33.416  23.089  22.561  1.00  0.00     0.047 C 
ATOM     19  C   UNL A   1      32.738  24.424  22.577  1.00  0.00    -0.015 A 
ATOM     20  C   UNL A   1      33.371  25.575  22.095  1.00  0.00     0.007 A 
ATOM     21  C   UNL A   1      31.459  24.537  23.122  1.00  0.00     0.126 A 
ATOM     22  C   UNL A   1      32.740  26.820  22.196  1.00  0.00     0.009 A 
ATOM     23  C   UNL A   1      30.828  25.770  23.227  1.00  0.00     0.048 A 
ATOM     24  F   UNL A   1      30.828  23.443  23.571  1.00  0.00    -0.207 F 
ENDBRANCH   7  17
BRANCH  16  25
ATOM     25  C   UNL A   1      31.772  28.433  27.125  1.00  0.00     0.430 C 
ATOM     26  F   UNL A   1      32.730  27.796  27.850  1.00  0.00    -0.167 F 
ATOM     27  F   UNL A   1      30.970  29.070  27.994  1.00  0.00    -0.167 F 
ATOM     28  F   UNL A   1      31.042  27.466  26.518  1.00  0.00    -0.167 F 
ENDBRANCH  16  25
ENDBRANCH   4   6
ENDBRANCH   3   4
ENDBRANCH   2   3
ENDBRANCH   1   2
BRANCH   1  29
ATOM     29  O   UNL A   1      35.757  31.188  29.699  1.00  0.00    -0.458 OA
BRANCH  29  30
ATOM     30  C   UNL A   1      36.995  31.424  29.194  1.00  0.00     0.338 C 
ATOM     31  O   UNL A   1      37.634  32.448  29.224  1.00  0.00    -0.246 OA
BRANCH  30  32
ATOM     32  C   UNL A   1      37.553  30.088  28.908  1.00  0.00     0.060 A 
ATOM     33  C   UNL A   1      37.738  29.126  29.909  1.00  0.00     0.016 A 
ATOM     34  C   UNL A   1      38.147  29.951  27.659  1.00  0.00     0.016 A 
ATOM     35  C   UNL A   1      38.696  28.128  29.723  1.00  0.00     0.010 A 
ATOM     36  C   UNL A   1      39.069  28.936  27.473  1.00  0.00     0.010 A 
ATOM     37  C   UNL A   1      39.441  28.106  28.540  1.00  0.00    -0.014 A 
BRANCH  37  38
ATOM     38  C   UNL A   1      40.722  27.400  28.419  1.00  0.00     0.031 A 
ATOM     39  C   UNL A   1      40.766  25.932  28.215  1.00  0.00     0.074 A 
ATOM     40  C   UNL A   1      41.911  28.056  28.445  1.00  0.00     0.049 A 
ATOM     41  N   UNL A   1      41.648  25.158  28.756  1.00  0.00    -0.248 NA
ATOM     42  C   UNL A   1      39.816  25.216  27.372  1.00  0.00     0.031 C 
ATOM     43  C   UNL A   1      43.224  27.474  28.151  1.00  0.00     0.029 A 
ATOM     44  N   UNL A   1      42.233  29.342  28.866  1.00  0.00    -0.354 N 
ATOM     45  C   UNL A   1      41.583  23.943  28.113  1.00  0.00     0.074 A 
ATOM     46  C   UNL A   1      40.373  24.000  27.323  1.00  0.00     0.031 C 
ATOM     47  C   UNL A   1      44.175  28.246  28.695  1.00  0.00     0.029 A 
ATOM     48  C   UNL A   1      43.515  29.305  29.430  1.00  0.00     0.049 A 
ATOM     49  H   UNL A   1      41.659  30.139  28.782  1.00  0.00     0.167 HD
ATOM     50  C   UNL A   1      42.620  23.057  28.193  1.00  0.00     0.034 A 
ATOM     51  C   UNL A   1      43.836  29.700  30.696  1.00  0.00     0.034 A 
ATOM     52  C   UNL A   1      43.747  23.613  28.927  1.00  0.00     0.049 A 
ATOM     53  C   UNL A   1      44.376  28.585  31.552  1.00  0.00     0.074 A 
ATOM     54  C   UNL A   1      44.928  24.197  28.499  1.00  0.00     0.029 A 
ATOM     55  N   UNL A   1      43.635  23.894  30.282  1.00  0.00    -0.354 N 
ATOM     56  N   UNL A   1      44.398  27.343  31.160  1.00  0.00    -0.248 NA
ATOM     57  C   UNL A   1      44.842  28.737  32.929  1.00  0.00     0.031 C 
ATOM     58  C   UNL A   1      45.503  24.880  29.596  1.00  0.00     0.029 A 
ATOM     59  C   UNL A   1      44.681  24.698  30.694  1.00  0.00     0.049 A 
ATOM     60  H   UNL A   1      42.914  23.567  30.866  1.00  0.00     0.167 HD
ATOM     61  C   UNL A   1      44.782  26.537  32.197  1.00  0.00     0.074 A 
ATOM     62  C   UNL A   1      45.090  27.459  33.271  1.00  0.00     0.031 C 
ATOM     63  C   UNL A   1      44.767  25.178  32.070  1.00  0.00     0.034 A 
BRANCH  50  64
ATOM     64  C   UNL A   1      42.701  21.783  27.374  1.00  0.00     0.023 A 
ATOM     65  C   UNL A   1      41.874  20.672  27.652  1.00  0.00     0.012 A 
ATOM     66  C   UNL A   1      43.614  21.625  26.305  1.00  0.00     0.148 A 
ATOM     67  C   UNL A   1      41.849  19.533  26.838  1.00  0.00     0.002 A 
ATOM     68  C   UNL A   1      43.623  20.467  25.524  1.00  0.00     0.091 A 
ATOM     69  F   UNL A   1      44.497  22.590  26.020  1.00  0.00    -0.205 F 
ATOM     70  C   UNL A   1      42.721  19.431  25.764  1.00  0.00     0.022 A 
BRANCH  68  71
ATOM     71  S   UNL A   1      44.835  20.302  24.207  1.00  0.00     0.127 S 
ATOM     72  O   UNL A   1      44.512  19.006  23.621  1.00  0.00    -0.237 OA
ATOM     73  O   UNL A   1      44.586  21.479  23.382  1.00  0.00    -0.237 OA
ATOM     74  O   UNL A   1      46.114  20.335  24.920  1.00  0.00    -0.744 OA
ENDBRANCH  68  71
ENDBRANCH  50  64
BRANCH  51  75
ATOM     75  C   UNL A   1      43.074  30.875  31.176  1.00  0.00     0.023 A 
ATOM     76  C   UNL A   1      41.772  30.707  31.677  1.00  0.00     0.012 A 
ATOM     77  C   UNL A   1      43.463  32.109  30.618  1.00  0.00     0.148 A 
ATOM     78  C   UNL A   1      40.819  31.701  31.447  1.00  0.00     0.002 A 
ATOM     79  C   UNL A   1      42.503  33.068  30.342  1.00  0.00     0.091 A 
ATOM     80  F   UNL A   1      44.749  32.260  30.267  1.00  0.00    -0.205 F 
ATOM     81  C   UNL A   1      41.174  32.858  30.744  1.00  0.00     0.022 A 
BRANCH  79  82
ATOM     82  S   UNL A   1      42.875  34.511  29.332  1.00  0.00     0.127 S 
ATOM     83  O   UNL A   1      43.802  35.247  30.191  1.00  0.00    -0.237 OA
ATOM     84  O   UNL A   1      43.457  34.003  28.098  1.00  0.00    -0.237 OA
ATOM     85  O   UNL A   1      41.570  35.153  29.172  1.00  0.00    -0.744 OA
ENDBRANCH  79  82
ENDBRANCH  51  75
BRANCH  63  86
ATOM     86  C   UNL A   1      44.956  24.182  33.185  1.00  0.00     0.023 A 
ATOM     87  C   UNL A   1      43.838  23.408  33.589  1.00  0.00     0.012 A 
ATOM     88  C   UNL A   1      46.141  24.001  33.912  1.00  0.00     0.148 A 
ATOM     89  C   UNL A   1      43.904  22.487  34.638  1.00  0.00     0.002 A 
ATOM     90  C   UNL A   1      46.236  23.001  34.881  1.00  0.00     0.091 A 
ATOM     91  F   UNL A   1      47.182  24.824  33.726  1.00  0.00    -0.205 F 
ATOM     92  C   UNL A   1      45.117  22.258  35.267  1.00  0.00     0.022 A 
BRANCH  90  93
ATOM     93  S   UNL A   1      47.859  22.581  35.519  1.00  0.00     0.127 S 
ATOM     94  O   UNL A   1      48.620  22.320  34.300  1.00  0.00    -0.237 OA
ATOM     95  O   UNL A   1      48.241  23.765  36.280  1.00  0.00    -0.237 OA
ATOM     96  O   UNL A   1      47.607  21.393  36.335  1.00  0.00    -0.744 OA
ENDBRANCH  90  93
ENDBRANCH  63  86
ENDBRANCH  37  38
ENDBRANCH  30  32
ENDBRANCH  29  30
ENDBRANCH   1  29
TORSDOF 16
ENDMDL
