MODEL 1
REMARK VINA RESULT:     -10.6      0.000      0.000
REMARK SMILES CCC(CC)[C@H](C(=O)OCCOC(=O)c1ccc(-c2c3nc(c(-c4cccc(S(=O)(=O)[O-])c4F)c4ccc([nH]4)c(-c4cccc(S(=O)(=O)[O-])c4F)c4nc(c(-c5cccc(S(=O)(=O)[O-])c5F)c5ccc2[nH]5)C=C4)C=C3)cc1)c1ccccc1
REMARK SMILES IDX 11 1 10 2 9 3 7 4 8 5 6 6 3 7 2 8 1 9 4 10 5 11 78 12 79 13
REMARK SMILES IDX 83 14 80 15 82 16 81 17 12 18 13 19 14 20 15 21 16 22 77 23
REMARK SMILES IDX 17 24 76 25 18 26 19 27 20 28 70 29 21 30 75 31 69 32 71 33
REMARK SMILES IDX 22 34 74 35 68 36 67 37 23 39 55 40 35 41 54 42 36 43 39 44
REMARK SMILES IDX 53 45 72 46 37 47 38 48 52 50 73 51 40 52 24 53 25 54 33 55
REMARK SMILES IDX 26 56 28 57 34 58 27 59 29 60 30 61 31 62 32 63 56 64 57 65
REMARK SMILES IDX 65 66 58 67 60 68 66 69 59 70 61 71 62 72 63 73 64 74 41 75
REMARK SMILES IDX 42 76 50 77 43 78 45 79 51 80 44 81 46 82 47 83 48 84 49 85
REMARK H PARENT 71 38 39 49
REMARK Flexibility Score: inf
ROOT
ATOM      1  C   UNL A   1      35.769  20.878  25.499  1.00  0.00     0.275 C 
ENDROOT
BRANCH   1   2
ATOM      2  C   UNL A   1      34.797  21.480  26.514  1.00  0.00     0.274 C 
BRANCH   2   3
ATOM      3  O   UNL A   1      34.754  22.919  26.438  1.00  0.00    -0.462 OA
BRANCH   3   4
ATOM      4  C   UNL A   1      33.616  23.419  25.868  1.00  0.00     0.313 C 
ATOM      5  O   UNL A   1      32.530  22.853  25.921  1.00  0.00    -0.252 OA
BRANCH   4   6
ATOM      6  C   UNL A   1      33.875  24.730  25.103  1.00  0.00     0.132 C 
BRANCH   6   7
ATOM      7  C   UNL A   1      33.609  24.425  23.578  1.00  0.00     0.007 C 
BRANCH   7   8
ATOM      8  C   UNL A   1      33.570  25.681  22.659  1.00  0.00     0.001 C 
ATOM      9  C   UNL A   1      32.215  26.089  22.106  1.00  0.00     0.004 C 
ENDBRANCH   7   8
BRANCH   7  10
ATOM     10  C   UNL A   1      34.336  23.162  23.054  1.00  0.00     0.001 C 
ATOM     11  C   UNL A   1      35.812  23.260  22.721  1.00  0.00     0.004 C 
ENDBRANCH   7  10
ENDBRANCH   6   7
BRANCH   6  12
ATOM     12  C   UNL A   1      33.239  25.950  25.784  1.00  0.00    -0.034 A 
ATOM     13  C   UNL A   1      34.050  27.060  26.097  1.00  0.00     0.004 A 
ATOM     14  C   UNL A   1      31.876  26.060  26.105  1.00  0.00     0.004 A 
ATOM     15  C   UNL A   1      33.526  28.197  26.727  1.00  0.00     0.000 A 
ATOM     16  C   UNL A   1      31.347  27.199  26.724  1.00  0.00     0.000 A 
ATOM     17  C   UNL A   1      32.174  28.267  27.041  1.00  0.00     0.000 A 
ENDBRANCH   6  12
ENDBRANCH   4   6
ENDBRANCH   3   4
ENDBRANCH   2   3
ENDBRANCH   1   2
BRANCH   1  18
ATOM     18  O   UNL A   1      36.849  21.788  25.248  1.00  0.00    -0.458 OA
BRANCH  18  19
ATOM     19  C   UNL A   1      38.073  21.389  25.660  1.00  0.00     0.338 C 
ATOM     20  O   UNL A   1      38.548  20.262  25.551  1.00  0.00    -0.246 OA
BRANCH  19  21
ATOM     21  C   UNL A   1      38.802  22.519  26.268  1.00  0.00     0.060 A 
ATOM     22  C   UNL A   1      38.362  23.830  26.092  1.00  0.00     0.016 A 
ATOM     23  C   UNL A   1      39.999  22.281  26.946  1.00  0.00     0.016 A 
ATOM     24  C   UNL A   1      39.145  24.901  26.508  1.00  0.00     0.010 A 
ATOM     25  C   UNL A   1      40.733  23.357  27.456  1.00  0.00     0.010 A 
ATOM     26  C   UNL A   1      40.327  24.682  27.220  1.00  0.00    -0.014 A 
BRANCH  26  27
ATOM     27  C   UNL A   1      41.138  25.825  27.720  1.00  0.00     0.031 A 
ATOM     28  C   UNL A   1      40.504  26.883  28.580  1.00  0.00     0.074 A 
ATOM     29  C   UNL A   1      42.439  25.931  27.381  1.00  0.00     0.049 A 
ATOM     30  N   UNL A   1      40.963  28.062  28.910  1.00  0.00    -0.248 NA
ATOM     31  C   UNL A   1      39.174  26.579  29.135  1.00  0.00     0.031 C 
ATOM     32  C   UNL A   1      43.195  24.952  26.597  1.00  0.00     0.029 A 
ATOM     33  N   UNL A   1      43.354  26.923  27.637  1.00  0.00    -0.354 N 
ATOM     34  C   UNL A   1      39.953  28.671  29.644  1.00  0.00     0.074 A 
ATOM     35  C   UNL A   1      38.862  27.722  29.731  1.00  0.00     0.031 C 
ATOM     36  C   UNL A   1      44.457  25.379  26.452  1.00  0.00     0.029 A 
ATOM     37  C   UNL A   1      44.574  26.708  27.038  1.00  0.00     0.049 A 
ATOM     38  H   UNL A   1      43.158  27.710  28.195  1.00  0.00     0.167 HD
ATOM     39  C   UNL A   1      39.939  29.906  30.199  1.00  0.00     0.034 A 
ATOM     40  C   UNL A   1      45.648  27.512  26.911  1.00  0.00     0.034 A 
ATOM     41  C   UNL A   1      41.053  30.816  30.165  1.00  0.00     0.049 A 
ATOM     42  C   UNL A   1      45.587  28.899  27.479  1.00  0.00     0.074 A 
ATOM     43  C   UNL A   1      41.154  32.074  30.731  1.00  0.00     0.029 A 
ATOM     44  N   UNL A   1      42.260  30.564  29.533  1.00  0.00    -0.354 N 
ATOM     45  N   UNL A   1      44.636  29.458  28.187  1.00  0.00    -0.248 NA
ATOM     46  C   UNL A   1      46.739  29.774  27.219  1.00  0.00     0.031 C 
ATOM     47  C   UNL A   1      42.420  32.588  30.430  1.00  0.00     0.029 A 
ATOM     48  C   UNL A   1      43.109  31.647  29.682  1.00  0.00     0.049 A 
ATOM     49  H   UNL A   1      42.482  29.736  29.049  1.00  0.00     0.167 HD
ATOM     50  C   UNL A   1      45.072  30.749  28.460  1.00  0.00     0.074 A 
ATOM     51  C   UNL A   1      46.390  30.877  27.869  1.00  0.00     0.031 C 
ATOM     52  C   UNL A   1      44.430  31.745  29.116  1.00  0.00     0.034 A 
BRANCH  39  53
ATOM     53  C   UNL A   1      38.687  30.339  30.911  1.00  0.00     0.023 A 
ATOM     54  C   UNL A   1      38.536  30.072  32.286  1.00  0.00     0.012 A 
ATOM     55  C   UNL A   1      37.679  31.051  30.231  1.00  0.00     0.148 A 
ATOM     56  C   UNL A   1      37.392  30.485  32.968  1.00  0.00     0.002 A 
ATOM     57  C   UNL A   1      36.556  31.490  30.925  1.00  0.00     0.091 A 
ATOM     58  F   UNL A   1      37.825  31.271  28.916  1.00  0.00    -0.205 F 
ATOM     59  C   UNL A   1      36.409  31.202  32.291  1.00  0.00     0.022 A 
BRANCH  57  60
ATOM     60  S   UNL A   1      35.272  32.472  30.142  1.00  0.00     0.127 S 
ATOM     61  O   UNL A   1      34.318  32.641  31.237  1.00  0.00    -0.237 OA
ATOM     62  O   UNL A   1      35.992  33.692  29.769  1.00  0.00    -0.237 OA
ATOM     63  O   UNL A   1      34.805  31.682  29.011  1.00  0.00    -0.744 OA
ENDBRANCH  57  60
ENDBRANCH  39  53
BRANCH  40  64
ATOM     64  C   UNL A   1      46.860  27.016  26.198  1.00  0.00     0.023 A 
ATOM     65  C   UNL A   1      46.989  27.251  24.817  1.00  0.00     0.012 A 
ATOM     66  C   UNL A   1      47.913  26.384  26.889  1.00  0.00     0.148 A 
ATOM     67  C   UNL A   1      48.146  26.866  24.137  1.00  0.00     0.002 A 
ATOM     68  C   UNL A   1      49.087  26.061  26.219  1.00  0.00     0.091 A 
ATOM     69  F   UNL A   1      47.759  26.136  28.198  1.00  0.00    -0.205 F 
ATOM     70  C   UNL A   1      49.201  26.290  24.840  1.00  0.00     0.022 A 
BRANCH  68  71
ATOM     71  S   UNL A   1      50.546  25.466  27.086  1.00  0.00     0.127 S 
ATOM     72  O   UNL A   1      50.045  24.245  27.709  1.00  0.00    -0.237 OA
ATOM     73  O   UNL A   1      51.490  25.256  25.988  1.00  0.00    -0.237 OA
ATOM     74  O   UNL A   1      50.920  26.540  27.996  1.00  0.00    -0.744 OA
ENDBRANCH  68  71
ENDBRANCH  40  64
BRANCH  52  75
ATOM     75  C   UNL A   1      45.138  33.067  29.224  1.00  0.00     0.023 A 
ATOM     76  C   UNL A   1      46.009  33.293  30.307  1.00  0.00     0.012 A 
ATOM     77  C   UNL A   1      45.000  34.051  28.227  1.00  0.00     0.148 A 
ATOM     78  C   UNL A   1      46.721  34.487  30.406  1.00  0.00     0.002 A 
ATOM     79  C   UNL A   1      45.742  35.223  28.311  1.00  0.00     0.091 A 
ATOM     80  F   UNL A   1      44.150  33.821  27.215  1.00  0.00    -0.205 F 
ATOM     81  C   UNL A   1      46.596  35.446  29.405  1.00  0.00     0.022 A 
BRANCH  79  82
ATOM     82  S   UNL A   1      45.706  36.481  27.030  1.00  0.00     0.127 S 
ATOM     83  O   UNL A   1      46.646  37.470  27.556  1.00  0.00    -0.237 OA
ATOM     84  O   UNL A   1      46.185  35.747  25.859  1.00  0.00    -0.237 OA
ATOM     85  O   UNL A   1      44.321  36.923  26.941  1.00  0.00    -0.744 OA
ENDBRANCH  79  82
ENDBRANCH  52  75
ENDBRANCH  26  27
ENDBRANCH  19  21
ENDBRANCH  18  19
ENDBRANCH   1  18
TORSDOF 18
ENDMDL
MODEL 2
REMARK VINA RESULT:     -10.5      5.220     10.000
REMARK SMILES CCC(CC)[C@H](C(=O)OCCOC(=O)c1ccc(-c2c3nc(c(-c4cccc(S(=O)(=O)[O-])c4F)c4ccc([nH]4)c(-c4cccc(S(=O)(=O)[O-])c4F)c4nc(c(-c5cccc(S(=O)(=O)[O-])c5F)c5ccc2[nH]5)C=C4)C=C3)cc1)c1ccccc1
REMARK SMILES IDX 11 1 10 2 9 3 7 4 8 5 6 6 3 7 2 8 1 9 4 10 5 11 78 12 79 13
REMARK SMILES IDX 83 14 80 15 82 16 81 17 12 18 13 19 14 20 15 21 16 22 77 23
REMARK SMILES IDX 17 24 76 25 18 26 19 27 20 28 70 29 21 30 75 31 69 32 71 33
REMARK SMILES IDX 22 34 74 35 68 36 67 37 23 39 55 40 35 41 54 42 36 43 39 44
REMARK SMILES IDX 53 45 72 46 37 47 38 48 52 50 73 51 40 52 24 53 25 54 33 55
REMARK SMILES IDX 26 56 28 57 34 58 27 59 29 60 30 61 31 62 32 63 56 64 57 65
REMARK SMILES IDX 65 66 58 67 60 68 66 69 59 70 61 71 62 72 63 73 64 74 41 75
REMARK SMILES IDX 42 76 50 77 43 78 45 79 51 80 44 81 46 82 47 83 48 84 49 85
REMARK H PARENT 71 38 39 49
REMARK Flexibility Score: inf
ROOT
ATOM      1  C   UNL A   1      31.799  29.661  26.557  1.00  0.00     0.275 C 
ENDROOT
BRANCH   1   2
ATOM      2  C   UNL A   1      31.944  28.173  26.874  1.00  0.00     0.274 C 
BRANCH   2   3
ATOM      3  O   UNL A   1      31.159  27.349  25.988  1.00  0.00    -0.462 OA
BRANCH   3   4
ATOM      4  C   UNL A   1      31.577  26.050  25.909  1.00  0.00     0.313 C 
ATOM      5  O   UNL A   1      31.538  25.269  26.852  1.00  0.00    -0.252 OA
BRANCH   4   6
ATOM      6  C   UNL A   1      32.161  25.710  24.525  1.00  0.00     0.132 C 
BRANCH   6   7
ATOM      7  C   UNL A   1      32.192  27.056  23.703  1.00  0.00     0.007 C 
BRANCH   7   8
ATOM      8  C   UNL A   1      33.612  27.659  23.490  1.00  0.00     0.001 C 
ATOM      9  C   UNL A   1      33.694  29.004  22.791  1.00  0.00     0.004 C 
ENDBRANCH   7   8
BRANCH   7  10
ATOM     10  C   UNL A   1      31.202  27.089  22.513  1.00  0.00     0.001 C 
ATOM     11  C   UNL A   1      29.998  28.007  22.595  1.00  0.00     0.004 C 
ENDBRANCH   7  10
ENDBRANCH   6   7
BRANCH   6  12
ATOM     12  C   UNL A   1      33.402  24.810  24.608  1.00  0.00    -0.034 A 
ATOM     13  C   UNL A   1      33.501  23.698  23.748  1.00  0.00     0.004 A 
ATOM     14  C   UNL A   1      34.483  25.028  25.478  1.00  0.00     0.004 A 
ATOM     15  C   UNL A   1      34.606  22.836  23.786  1.00  0.00     0.000 A 
ATOM     16  C   UNL A   1      35.594  24.176  25.510  1.00  0.00     0.000 A 
ATOM     17  C   UNL A   1      35.653  23.076  24.668  1.00  0.00     0.000 A 
ENDBRANCH   6  12
ENDBRANCH   4   6
ENDBRANCH   3   4
ENDBRANCH   2   3
ENDBRANCH   1   2
BRANCH   1  18
ATOM     18  O   UNL A   1      33.083  30.236  26.282  1.00  0.00    -0.458 OA
BRANCH  18  19
ATOM     19  C   UNL A   1      33.481  31.232  27.106  1.00  0.00     0.338 C 
ATOM     20  O   UNL A   1      32.850  32.249  27.377  1.00  0.00    -0.246 OA
BRANCH  19  21
ATOM     21  C   UNL A   1      34.810  30.928  27.672  1.00  0.00     0.060 A 
ATOM     22  C   UNL A   1      35.151  29.626  28.033  1.00  0.00     0.016 A 
ATOM     23  C   UNL A   1      35.699  31.971  27.936  1.00  0.00     0.016 A 
ATOM     24  C   UNL A   1      36.327  29.371  28.731  1.00  0.00     0.010 A 
ATOM     25  C   UNL A   1      36.929  31.697  28.544  1.00  0.00     0.010 A 
ATOM     26  C   UNL A   1      37.246  30.396  28.973  1.00  0.00    -0.014 A 
BRANCH  26  27
ATOM     27  C   UNL A   1      38.532  30.117  29.666  1.00  0.00     0.031 A 
ATOM     28  C   UNL A   1      39.538  29.186  29.048  1.00  0.00     0.074 A 
ATOM     29  C   UNL A   1      38.791  30.678  30.865  1.00  0.00     0.049 A 
ATOM     30  N   UNL A   1      40.591  28.630  29.589  1.00  0.00    -0.248 NA
ATOM     31  C   UNL A   1      39.328  28.823  27.636  1.00  0.00     0.031 C 
ATOM     32  C   UNL A   1      37.929  31.639  31.556  1.00  0.00     0.029 A 
ATOM     33  N   UNL A   1      39.846  30.506  31.726  1.00  0.00    -0.354 N 
ATOM     34  C   UNL A   1      41.124  27.796  28.615  1.00  0.00     0.074 A 
ATOM     35  C   UNL A   1      40.291  27.933  27.438  1.00  0.00     0.031 C 
ATOM     36  C   UNL A   1      38.495  31.986  32.721  1.00  0.00     0.029 A 
ATOM     37  C   UNL A   1      39.704  31.193  32.910  1.00  0.00     0.049 A 
ATOM     38  H   UNL A   1      40.629  29.945  31.518  1.00  0.00     0.167 HD
ATOM     39  C   UNL A   1      42.211  26.994  28.694  1.00  0.00     0.034 A 
ATOM     40  C   UNL A   1      40.421  31.147  34.049  1.00  0.00     0.034 A 
ATOM     41  C   UNL A   1      43.072  26.914  29.844  1.00  0.00     0.049 A 
ATOM     42  C   UNL A   1      41.584  30.203  34.135  1.00  0.00     0.074 A 
ATOM     43  C   UNL A   1      44.221  26.162  30.009  1.00  0.00     0.029 A 
ATOM     44  N   UNL A   1      42.880  27.615  31.025  1.00  0.00    -0.354 N 
ATOM     45  N   UNL A   1      42.092  29.434  33.203  1.00  0.00    -0.248 NA
ATOM     46  C   UNL A   1      42.267  30.109  35.433  1.00  0.00     0.031 C 
ATOM     47  C   UNL A   1      44.717  26.399  31.296  1.00  0.00     0.029 A 
ATOM     48  C   UNL A   1      43.880  27.303  31.929  1.00  0.00     0.049 A 
ATOM     49  H   UNL A   1      42.140  28.242  31.194  1.00  0.00     0.167 HD
ATOM     50  C   UNL A   1      43.153  28.764  33.799  1.00  0.00     0.074 A 
ATOM     51  C   UNL A   1      43.238  29.245  35.164  1.00  0.00     0.031 C 
ATOM     52  C   UNL A   1      43.967  27.817  33.272  1.00  0.00     0.034 A 
BRANCH  39  53
ATOM     53  C   UNL A   1      42.548  26.150  27.494  1.00  0.00     0.023 A 
ATOM     54  C   UNL A   1      43.297  26.706  26.437  1.00  0.00     0.012 A 
ATOM     55  C   UNL A   1      42.162  24.797  27.432  1.00  0.00     0.148 A 
ATOM     56  C   UNL A   1      43.636  25.933  25.327  1.00  0.00     0.002 A 
ATOM     57  C   UNL A   1      42.533  24.023  26.336  1.00  0.00     0.091 A 
ATOM     58  F   UNL A   1      41.424  24.293  28.432  1.00  0.00    -0.205 F 
ATOM     59  C   UNL A   1      43.264  24.592  25.281  1.00  0.00     0.022 A 
BRANCH  57  60
ATOM     60  S   UNL A   1      42.147  22.272  26.228  1.00  0.00     0.127 S 
ATOM     61  O   UNL A   1      42.700  21.769  27.485  1.00  0.00    -0.237 OA
ATOM     62  O   UNL A   1      40.684  22.276  26.166  1.00  0.00    -0.237 OA
ATOM     63  O   UNL A   1      42.798  21.799  25.014  1.00  0.00    -0.744 OA
ENDBRANCH  57  60
ENDBRANCH  39  53
BRANCH  40  64
ATOM     64  C   UNL A   1      40.036  32.015  35.198  1.00  0.00     0.023 A 
ATOM     65  C   UNL A   1      40.469  33.353  35.224  1.00  0.00     0.012 A 
ATOM     66  C   UNL A   1      39.186  31.548  36.221  1.00  0.00     0.148 A 
ATOM     67  C   UNL A   1      40.062  34.211  36.247  1.00  0.00     0.002 A 
ATOM     68  C   UNL A   1      38.734  32.424  37.201  1.00  0.00     0.091 A 
ATOM     69  F   UNL A   1      38.811  30.260  36.199  1.00  0.00    -0.205 F 
ATOM     70  C   UNL A   1      39.181  33.753  37.224  1.00  0.00     0.022 A 
BRANCH  68  71
ATOM     71  S   UNL A   1      37.475  31.950  38.393  1.00  0.00     0.127 S 
ATOM     72  O   UNL A   1      38.165  32.172  39.661  1.00  0.00    -0.237 OA
ATOM     73  O   UNL A   1      36.402  32.901  38.101  1.00  0.00    -0.237 OA
ATOM     74  O   UNL A   1      37.146  30.566  38.080  1.00  0.00    -0.744 OA
ENDBRANCH  68  71
ENDBRANCH  40  64
BRANCH  52  75
ATOM     75  C   UNL A   1      45.016  27.230  34.175  1.00  0.00     0.023 A 
ATOM     76  C   UNL A   1      46.281  27.844  34.249  1.00  0.00     0.012 A 
ATOM     77  C   UNL A   1      44.732  26.124  34.999  1.00  0.00     0.148 A 
ATOM     78  C   UNL A   1      47.255  27.356  35.117  1.00  0.00     0.002 A 
ATOM     79  C   UNL A   1      45.695  25.666  35.890  1.00  0.00     0.091 A 
ATOM     80  F   UNL A   1      43.527  25.544  34.897  1.00  0.00    -0.205 F 
ATOM     81  C   UNL A   1      46.960  26.276  35.944  1.00  0.00     0.022 A 
BRANCH  79  82
ATOM     82  S   UNL A   1      45.379  24.331  37.049  1.00  0.00     0.127 S 
ATOM     83  O   UNL A   1      46.667  24.217  37.732  1.00  0.00    -0.237 OA
ATOM     84  O   UNL A   1      44.300  24.880  37.870  1.00  0.00    -0.237 OA
ATOM     85  O   UNL A   1      44.997  23.181  36.241  1.00  0.00    -0.744 OA
ENDBRANCH  79  82
ENDBRANCH  52  75
ENDBRANCH  26  27
ENDBRANCH  19  21
ENDBRANCH  18  19
ENDBRANCH   1  18
TORSDOF 18
ENDMDL
MODEL 3
REMARK VINA RESULT:     -10.5      4.857      9.939
REMARK SMILES CCC(CC)[C@H](C(=O)OCCOC(=O)c1ccc(-c2c3nc(c(-c4cccc(S(=O)(=O)[O-])c4F)c4ccc([nH]4)c(-c4cccc(S(=O)(=O)[O-])c4F)c4nc(c(-c5cccc(S(=O)(=O)[O-])c5F)c5ccc2[nH]5)C=C4)C=C3)cc1)c1ccccc1
REMARK SMILES IDX 11 1 10 2 9 3 7 4 8 5 6 6 3 7 2 8 1 9 4 10 5 11 78 12 79 13
REMARK SMILES IDX 83 14 80 15 82 16 81 17 12 18 13 19 14 20 15 21 16 22 77 23
REMARK SMILES IDX 17 24 76 25 18 26 19 27 20 28 70 29 21 30 75 31 69 32 71 33
REMARK SMILES IDX 22 34 74 35 68 36 67 37 23 39 55 40 35 41 54 42 36 43 39 44
REMARK SMILES IDX 53 45 72 46 37 47 38 48 52 50 73 51 40 52 24 53 25 54 33 55
REMARK SMILES IDX 26 56 28 57 34 58 27 59 29 60 30 61 31 62 32 63 56 64 57 65
REMARK SMILES IDX 65 66 58 67 60 68 66 69 59 70 61 71 62 72 63 73 64 74 41 75
REMARK SMILES IDX 42 76 50 77 43 78 45 79 51 80 44 81 46 82 47 83 48 84 49 85
REMARK H PARENT 71 38 39 49
REMARK Flexibility Score: inf
ROOT
ATOM      1  C   UNL A   1      32.314  29.677  25.015  1.00  0.00     0.275 C 
ENDROOT
BRANCH   1   2
ATOM      2  C   UNL A   1      33.247  28.575  24.515  1.00  0.00     0.274 C 
BRANCH   2   3
ATOM      3  O   UNL A   1      32.901  27.283  25.056  1.00  0.00    -0.462 OA
BRANCH   3   4
ATOM      4  C   UNL A   1      33.455  26.226  24.388  1.00  0.00     0.313 C 
ATOM      5  O   UNL A   1      33.750  26.257  23.199  1.00  0.00    -0.252 OA
BRANCH   4   6
ATOM      6  C   UNL A   1      33.600  24.983  25.286  1.00  0.00     0.132 C 
BRANCH   6   7
ATOM      7  C   UNL A   1      32.178  24.303  25.352  1.00  0.00     0.007 C 
BRANCH   7   8
ATOM      8  C   UNL A   1      31.859  23.343  24.168  1.00  0.00     0.001 C 
ATOM      9  C   UNL A   1      30.774  23.778  23.199  1.00  0.00     0.004 C 
ENDBRANCH   7   8
BRANCH   7  10
ATOM     10  C   UNL A   1      31.754  23.869  26.776  1.00  0.00     0.001 C 
ATOM     11  C   UNL A   1      30.491  23.047  26.939  1.00  0.00     0.004 C 
ENDBRANCH   7  10
ENDBRANCH   6   7
BRANCH   6  12
ATOM     12  C   UNL A   1      34.853  24.158  24.959  1.00  0.00    -0.034 A 
ATOM     13  C   UNL A   1      35.044  23.696  23.641  1.00  0.00     0.004 A 
ATOM     14  C   UNL A   1      35.858  23.840  25.887  1.00  0.00     0.004 A 
ATOM     15  C   UNL A   1      36.164  22.930  23.287  1.00  0.00     0.000 A 
ATOM     16  C   UNL A   1      36.983  23.085  25.534  1.00  0.00     0.000 A 
ATOM     17  C   UNL A   1      37.134  22.624  24.234  1.00  0.00     0.000 A 
ENDBRANCH   6  12
ENDBRANCH   4   6
ENDBRANCH   3   4
ENDBRANCH   2   3
ENDBRANCH   1   2
BRANCH   1  18
ATOM     18  O   UNL A   1      32.416  29.803  26.440  1.00  0.00    -0.458 OA
BRANCH  18  19
ATOM     19  C   UNL A   1      32.906  30.975  26.903  1.00  0.00     0.338 C 
ATOM     20  O   UNL A   1      32.349  32.067  26.857  1.00  0.00    -0.246 OA
BRANCH  19  21
ATOM     21  C   UNL A   1      34.239  30.770  27.504  1.00  0.00     0.060 A 
ATOM     22  C   UNL A   1      34.667  29.497  27.874  1.00  0.00     0.016 A 
ATOM     23  C   UNL A   1      35.040  31.876  27.793  1.00  0.00     0.016 A 
ATOM     24  C   UNL A   1      35.839  29.328  28.604  1.00  0.00     0.010 A 
ATOM     25  C   UNL A   1      36.269  31.693  28.434  1.00  0.00     0.010 A 
ATOM     26  C   UNL A   1      36.671  30.418  28.871  1.00  0.00    -0.014 A 
BRANCH  26  27
ATOM     27  C   UNL A   1      37.956  30.235  29.599  1.00  0.00     0.031 A 
ATOM     28  C   UNL A   1      39.041  29.374  29.013  1.00  0.00     0.074 A 
ATOM     29  C   UNL A   1      38.142  30.819  30.800  1.00  0.00     0.049 A 
ATOM     30  N   UNL A   1      40.116  28.898  29.585  1.00  0.00    -0.248 NA
ATOM     31  C   UNL A   1      38.893  28.991  27.599  1.00  0.00     0.031 C 
ATOM     32  C   UNL A   1      37.197  31.720  31.462  1.00  0.00     0.029 A 
ATOM     33  N   UNL A   1      39.185  30.726  31.689  1.00  0.00    -0.354 N 
ATOM     34  C   UNL A   1      40.732  28.099  28.630  1.00  0.00     0.074 A 
ATOM     35  C   UNL A   1      39.922  28.170  27.432  1.00  0.00     0.031 C 
ATOM     36  C   UNL A   1      37.707  32.112  32.638  1.00  0.00     0.029 A 
ATOM     37  C   UNL A   1      38.963  31.408  32.864  1.00  0.00     0.049 A 
ATOM     38  H   UNL A   1      40.011  30.222  31.505  1.00  0.00     0.167 HD
ATOM     39  C   UNL A   1      41.871  27.376  28.743  1.00  0.00     0.034 A 
ATOM     40  C   UNL A   1      39.652  31.419  34.021  1.00  0.00     0.034 A 
ATOM     41  C   UNL A   1      42.705  27.363  29.915  1.00  0.00     0.049 A 
ATOM     42  C   UNL A   1      40.877  30.560  34.144  1.00  0.00     0.074 A 
ATOM     43  C   UNL A   1      43.900  26.696  30.114  1.00  0.00     0.029 A 
ATOM     44  N   UNL A   1      42.432  28.054  31.085  1.00  0.00    -0.354 N 
ATOM     45  N   UNL A   1      41.461  29.824  33.231  1.00  0.00    -0.248 NA
ATOM     46  C   UNL A   1      41.530  30.521  35.460  1.00  0.00     0.031 C 
ATOM     47  C   UNL A   1      44.344  26.973  31.412  1.00  0.00     0.029 A 
ATOM     48  C   UNL A   1      43.429  27.819  32.018  1.00  0.00     0.049 A 
ATOM     49  H   UNL A   1      41.646  28.628  31.232  1.00  0.00     0.167 HD
ATOM     50  C   UNL A   1      42.552  29.234  33.858  1.00  0.00     0.074 A 
ATOM     51  C   UNL A   1      42.566  29.727  35.221  1.00  0.00     0.031 C 
ATOM     52  C   UNL A   1      43.444  28.345  33.359  1.00  0.00     0.034 A 
BRANCH  39  53
ATOM     53  C   UNL A   1      42.297  26.553  27.557  1.00  0.00     0.023 A 
ATOM     54  C   UNL A   1      43.092  27.136  26.550  1.00  0.00     0.012 A 
ATOM     55  C   UNL A   1      41.950  25.191  27.462  1.00  0.00     0.148 A 
ATOM     56  C   UNL A   1      43.514  26.383  25.456  1.00  0.00     0.002 A 
ATOM     57  C   UNL A   1      42.404  24.437  26.384  1.00  0.00     0.091 A 
ATOM     58  F   UNL A   1      41.169  24.659  28.414  1.00  0.00    -0.205 F 
ATOM     59  C   UNL A   1      43.180  25.033  25.378  1.00  0.00     0.022 A 
BRANCH  57  60
ATOM     60  S   UNL A   1      42.069  22.678  26.240  1.00  0.00     0.127 S 
ATOM     61  O   UNL A   1      42.704  22.155  27.448  1.00  0.00    -0.237 OA
ATOM     62  O   UNL A   1      40.605  22.634  26.254  1.00  0.00    -0.237 OA
ATOM     63  O   UNL A   1      42.669  22.265  24.979  1.00  0.00    -0.744 OA
ENDBRANCH  57  60
ENDBRANCH  39  53
BRANCH  40  64
ATOM     64  C   UNL A   1      39.177  32.263  35.154  1.00  0.00     0.023 A 
ATOM     65  C   UNL A   1      38.280  31.716  36.090  1.00  0.00     0.012 A 
ATOM     66  C   UNL A   1      39.663  33.571  35.352  1.00  0.00     0.148 A 
ATOM     67  C   UNL A   1      37.878  32.455  37.203  1.00  0.00     0.002 A 
ATOM     68  C   UNL A   1      39.308  34.277  36.495  1.00  0.00     0.091 A 
ATOM     69  F   UNL A   1      40.490  34.089  34.432  1.00  0.00    -0.205 F 
ATOM     70  C   UNL A   1      38.405  33.727  37.416  1.00  0.00     0.022 A 
BRANCH  68  71
ATOM     71  S   UNL A   1      40.069  35.850  36.918  1.00  0.00     0.127 S 
ATOM     72  O   UNL A   1      39.410  36.172  38.180  1.00  0.00    -0.237 OA
ATOM     73  O   UNL A   1      41.482  35.486  37.035  1.00  0.00    -0.237 OA
ATOM     74  O   UNL A   1      39.774  36.736  35.799  1.00  0.00    -0.744 OA
ENDBRANCH  68  71
ENDBRANCH  40  64
BRANCH  52  75
ATOM     75  C   UNL A   1      44.508  27.837  34.293  1.00  0.00     0.023 A 
ATOM     76  C   UNL A   1      45.703  28.569  34.434  1.00  0.00     0.012 A 
ATOM     77  C   UNL A   1      44.299  26.689  35.079  1.00  0.00     0.148 A 
ATOM     78  C   UNL A   1      46.685  28.154  35.331  1.00  0.00     0.002 A 
ATOM     79  C   UNL A   1      45.266  26.302  36.000  1.00  0.00     0.091 A 
ATOM     80  F   UNL A   1      43.162  25.999  34.914  1.00  0.00    -0.205 F 
ATOM     81  C   UNL A   1      46.463  27.029  36.121  1.00  0.00     0.022 A 
BRANCH  79  82
ATOM     82  S   UNL A   1      45.035  24.914  37.115  1.00  0.00     0.127 S 
ATOM     83  O   UNL A   1      43.822  25.304  37.831  1.00  0.00    -0.237 OA
ATOM     84  O   UNL A   1      44.863  23.795  36.188  1.00  0.00    -0.237 OA
ATOM     85  O   UNL A   1      46.244  24.845  37.926  1.00  0.00    -0.744 OA
ENDBRANCH  79  82
ENDBRANCH  52  75
ENDBRANCH  26  27
ENDBRANCH  19  21
ENDBRANCH  18  19
ENDBRANCH   1  18
TORSDOF 18
ENDMDL
