MODEL 1
REMARK VINA RESULT:     -15.5      0.000      0.000
REMARK SMILES Cc1ccc(-c2nc(NC(=O)[C@H]3[C@@H](C(=O)OCCOC(=O)c4ccc(-c5c6nc(c(-c7cccc(S(=O)(=O)[O-])c7F)c7ccc([nH]7)c(-c7cccc(S(=O)(=O)[O-])c7F)c7nc(c(-c8cccc(S(=O)(=O)[O-])c8F)c8ccc5[nH]8)C=C7)C=C6)cc4)[C@@H]4CC[C@H]3O4)sc2C)cc1
REMARK SMILES IDX 17 1 16 2 14 3 15 4 13 5 12 6 88 7 85 8 87 9 89 10 86 11
REMARK SMILES IDX 10 12 9 13 11 15 8 16 6 17 7 18 91 19 90 20 92 21 5 22 1 23
REMARK SMILES IDX 2 24 3 25 94 26 4 27 93 28 18 29 19 30 20 31 21 32 22 33
REMARK SMILES IDX 23 34 84 35 24 36 83 37 25 38 26 39 27 40 77 41 28 42 82 43
REMARK SMILES IDX 76 44 78 45 29 46 81 47 75 48 74 49 30 51 62 52 42 53 61 54
REMARK SMILES IDX 43 55 46 56 60 57 79 58 44 59 45 60 59 62 80 63 47 64 31 65
REMARK SMILES IDX 32 66 40 67 33 68 35 69 41 70 34 71 36 72 37 73 38 74 39 75
REMARK SMILES IDX 63 76 64 77 72 78 65 79 67 80 73 81 66 82 68 83 69 84 70 85
REMARK SMILES IDX 71 86 48 87 49 88 57 89 50 90 52 91 58 92 51 93 53 94 54 95
REMARK SMILES IDX 55 96 56 97
REMARK H PARENT 9 14 78 50 46 61
REMARK Flexibility Score: inf
ROOT
ATOM      1  C   UNL A   1      32.217  29.688  27.229  1.00  0.00     0.274 C 
ENDROOT
BRANCH   1   2
ATOM      2  O   UNL A   1      31.853  28.830  25.807  1.00  0.00    -0.462 OA
BRANCH   2   3
ATOM      3  C   UNL A   1      31.715  29.178  24.410  1.00  0.00     0.312 C 
ATOM      4  O   UNL A   1      32.661  29.236  23.634  1.00  0.00    -0.252 OA
BRANCH   3   5
ATOM      5  C   UNL A   1      30.199  29.555  23.941  1.00  0.00     0.143 C 
ATOM      6  C   UNL A   1      29.520  28.257  23.613  1.00  0.00     0.124 C 
ATOM      7  C   UNL A   1      28.539  28.518  22.505  1.00  0.00     0.132 C 
ATOM      8  C   UNL A   1      29.733  30.338  22.632  1.00  0.00     0.133 C 
ATOM      9  C   UNL A   1      27.497  29.558  22.893  1.00  0.00     0.035 C 
ATOM     10  O   UNL A   1      29.444  29.267  21.665  1.00  0.00    -0.373 OA
ATOM     11  C   UNL A   1      28.278  30.845  22.647  1.00  0.00     0.036 C 
BRANCH   6  12
ATOM     12  C   UNL A   1      30.518  27.290  23.020  1.00  0.00     0.232 C 
ATOM     13  N   UNL A   1      31.156  26.360  24.059  1.00  0.00    -0.302 N 
ATOM     14  H   UNL A   1      31.105  26.829  24.923  1.00  0.00     0.172 HD
ATOM     15  O   UNL A   1      30.562  27.384  21.794  1.00  0.00    -0.274 OA
BRANCH  13  16
ATOM     16  C   UNL A   1      31.893  24.911  24.355  1.00  0.00     0.190 A 
ATOM     17  C   UNL A   1      33.445  23.238  23.953  1.00  0.00     0.086 A 
ATOM     18  N   UNL A   1      33.213  24.611  24.380  1.00  0.00    -0.220 NA
ATOM     19  C   UNL A   1      32.325  22.695  23.344  1.00  0.00     0.031 A 
ATOM     20  S   UNL A   1      31.066  23.318  24.257  1.00  0.00    -0.101 S 
ATOM     21  C   UNL A   1      32.031  21.596  22.385  1.00  0.00     0.059 C 
BRANCH  17  22
ATOM     22  C   UNL A   1      34.632  22.360  24.074  1.00  0.00     0.001 A 
ATOM     23  C   UNL A   1      38.499  20.828  25.331  1.00  0.00     0.044 C 
ATOM     24  C   UNL A   1      37.170  21.242  24.763  1.00  0.00    -0.051 A 
ATOM     25  C   UNL A   1      37.103  22.355  23.936  1.00  0.00     0.004 A 
ATOM     26  C   UNL A   1      35.964  20.626  25.142  1.00  0.00     0.004 A 
ATOM     27  C   UNL A   1      35.857  22.870  23.566  1.00  0.00     0.010 A 
ATOM     28  C   UNL A   1      34.700  21.183  24.810  1.00  0.00     0.010 A 
ENDBRANCH  17  22
ENDBRANCH  13  16
ENDBRANCH   6  12
ENDBRANCH   3   5
ENDBRANCH   2   3
ENDBRANCH   1   2
BRANCH   1  29
ATOM     29  C   UNL A   1      33.440  31.098  27.515  1.00  0.00     0.275 C 
BRANCH  29  30
ATOM     30  O   UNL A   1      34.933  31.125  28.549  1.00  0.00    -0.458 OA
BRANCH  30  31
ATOM     31  C   UNL A   1      36.373  31.459  28.899  1.00  0.00     0.338 C 
ATOM     32  O   UNL A   1      36.510  32.550  29.461  1.00  0.00    -0.246 OA
BRANCH  31  33
ATOM     33  C   UNL A   1      37.867  30.610  28.624  1.00  0.00     0.060 A 
ATOM     34  C   UNL A   1      38.227  29.945  27.440  1.00  0.00     0.016 A 
ATOM     35  C   UNL A   1      38.949  30.492  29.517  1.00  0.00     0.016 A 
ATOM     36  C   UNL A   1      39.484  29.176  27.314  1.00  0.00     0.010 A 
ATOM     37  C   UNL A   1      40.107  29.767  29.462  1.00  0.00     0.010 A 
ATOM     38  C   UNL A   1      40.416  29.058  28.360  1.00  0.00    -0.014 A 
BRANCH  38  39
ATOM     39  C   UNL A   1      41.492  28.118  28.754  1.00  0.00     0.031 A 
ATOM     40  C   UNL A   1      41.362  26.612  28.710  1.00  0.00     0.074 A 
ATOM     41  C   UNL A   1      42.693  28.600  28.340  1.00  0.00     0.049 A 
ATOM     42  N   UNL A   1      42.321  25.781  28.969  1.00  0.00    -0.248 NA
ATOM     43  C   UNL A   1      40.163  25.919  28.240  1.00  0.00     0.031 C 
ATOM     44  C   UNL A   1      43.918  27.914  27.939  1.00  0.00     0.029 A 
ATOM     45  N   UNL A   1      43.033  29.951  28.197  1.00  0.00    -0.354 N 
ATOM     46  C   UNL A   1      42.005  24.547  28.414  1.00  0.00     0.074 A 
ATOM     47  C   UNL A   1      40.616  24.675  28.045  1.00  0.00     0.031 C 
ATOM     48  C   UNL A   1      44.931  28.799  27.998  1.00  0.00     0.029 A 
ATOM     49  C   UNL A   1      44.385  30.034  28.538  1.00  0.00     0.049 A 
ATOM     50  H   UNL A   1      42.443  30.687  27.914  1.00  0.00     0.167 HD
ATOM     51  C   UNL A   1      42.993  23.614  28.208  1.00  0.00     0.034 A 
ATOM     52  C   UNL A   1      44.685  30.565  29.758  1.00  0.00     0.034 A 
ATOM     53  C   UNL A   1      44.308  24.157  28.640  1.00  0.00     0.049 A 
ATOM     54  C   UNL A   1      45.255  29.512  30.679  1.00  0.00     0.074 A 
ATOM     55  C   UNL A   1      45.467  24.513  27.967  1.00  0.00     0.029 A 
ATOM     56  N   UNL A   1      44.466  24.643  29.942  1.00  0.00    -0.354 N 
ATOM     57  N   UNL A   1      45.148  28.230  30.444  1.00  0.00    -0.248 NA
ATOM     58  C   UNL A   1      46.088  29.775  31.843  1.00  0.00     0.031 C 
ATOM     59  C   UNL A   1      46.241  25.346  28.831  1.00  0.00     0.029 A 
ATOM     60  C   UNL A   1      45.576  25.470  30.043  1.00  0.00     0.049 A 
ATOM     61  H   UNL A   1      43.867  24.425  30.693  1.00  0.00     0.167 HD
ATOM     62  C   UNL A   1      45.867  27.505  31.338  1.00  0.00     0.074 A 
ATOM     63  C   UNL A   1      46.443  28.525  32.203  1.00  0.00     0.031 C 
ATOM     64  C   UNL A   1      45.910  26.139  31.306  1.00  0.00     0.034 A 
BRANCH  51  65
ATOM     65  C   UNL A   1      42.886  22.284  27.415  1.00  0.00     0.023 A 
ATOM     66  C   UNL A   1      41.797  21.423  27.713  1.00  0.00     0.012 A 
ATOM     67  C   UNL A   1      43.756  21.797  26.403  1.00  0.00     0.148 A 
ATOM     68  C   UNL A   1      41.630  20.152  27.130  1.00  0.00     0.002 A 
ATOM     69  C   UNL A   1      43.612  20.513  25.842  1.00  0.00     0.091 A 
ATOM     70  F   UNL A   1      44.694  22.593  25.893  1.00  0.00    -0.205 F 
ATOM     71  C   UNL A   1      42.552  19.685  26.211  1.00  0.00     0.022 A 
BRANCH  69  72
ATOM     72  S   UNL A   1      44.777  19.830  24.639  1.00  0.00     0.127 S 
ATOM     73  O   UNL A   1      44.360  18.429  24.559  1.00  0.00    -0.237 OA
ATOM     74  O   UNL A   1      44.490  20.615  23.441  1.00  0.00    -0.237 OA
ATOM     75  O   UNL A   1      46.106  20.023  25.208  1.00  0.00    -0.744 OA
ENDBRANCH  69  72
ENDBRANCH  51  65
BRANCH  52  76
ATOM     76  C   UNL A   1      43.917  31.828  30.035  1.00  0.00     0.023 A 
ATOM     77  C   UNL A   1      44.065  32.836  29.044  1.00  0.00     0.012 A 
ATOM     78  C   UNL A   1      42.827  31.945  30.926  1.00  0.00     0.148 A 
ATOM     79  C   UNL A   1      43.131  33.863  28.882  1.00  0.00     0.002 A 
ATOM     80  C   UNL A   1      41.905  32.997  30.775  1.00  0.00     0.091 A 
ATOM     81  F   UNL A   1      42.658  31.001  31.863  1.00  0.00    -0.205 F 
ATOM     82  C   UNL A   1      42.037  33.929  29.731  1.00  0.00     0.022 A 
BRANCH  80  83
ATOM     83  S   UNL A   1      40.452  33.234  31.825  1.00  0.00     0.127 S 
ATOM     84  O   UNL A   1      40.248  31.908  32.360  1.00  0.00    -0.237 OA
ATOM     85  O   UNL A   1      40.923  34.226  32.794  1.00  0.00    -0.237 OA
ATOM     86  O   UNL A   1      39.399  33.731  30.929  1.00  0.00    -0.744 OA
ENDBRANCH  80  83
ENDBRANCH  52  76
BRANCH  64  87
ATOM     87  C   UNL A   1      46.239  25.304  32.520  1.00  0.00     0.023 A 
ATOM     88  C   UNL A   1      47.568  25.151  32.962  1.00  0.00     0.012 A 
ATOM     89  C   UNL A   1      45.216  24.868  33.394  1.00  0.00     0.148 A 
ATOM     90  C   UNL A   1      47.876  24.574  34.194  1.00  0.00     0.002 A 
ATOM     91  C   UNL A   1      45.523  24.418  34.673  1.00  0.00     0.091 A 
ATOM     92  F   UNL A   1      43.935  24.891  32.998  1.00  0.00    -0.205 F 
ATOM     93  C   UNL A   1      46.851  24.242  35.068  1.00  0.00     0.022 A 
BRANCH  91  94
ATOM     94  S   UNL A   1      44.229  24.273  35.911  1.00  0.00     0.127 S 
ATOM     95  O   UNL A   1      44.946  23.678  37.036  1.00  0.00    -0.237 OA
ATOM     96  O   UNL A   1      43.824  25.665  36.113  1.00  0.00    -0.237 OA
ATOM     97  O   UNL A   1      43.210  23.444  35.280  1.00  0.00    -0.744 OA
ENDBRANCH  91  94
ENDBRANCH  64  87
ENDBRANCH  38  39
ENDBRANCH  31  33
ENDBRANCH  30  31
ENDBRANCH  29  30
ENDBRANCH   1  29
TORSDOF 17
ENDMDL
MODEL 2
REMARK VINA RESULT:     -15.5      1.939      2.241
REMARK SMILES Cc1ccc(-c2nc(NC(=O)[C@H]3[C@@H](C(=O)OCCOC(=O)c4ccc(-c5c6nc(c(-c7cccc(S(=O)(=O)[O-])c7F)c7ccc([nH]7)c(-c7cccc(S(=O)(=O)[O-])c7F)c7nc(c(-c8cccc(S(=O)(=O)[O-])c8F)c8ccc5[nH]8)C=C7)C=C6)cc4)[C@@H]4CC[C@H]3O4)sc2C)cc1
REMARK SMILES IDX 17 1 16 2 14 3 15 4 13 5 12 6 88 7 85 8 87 9 89 10 86 11
REMARK SMILES IDX 10 12 9 13 11 15 8 16 6 17 7 18 91 19 90 20 92 21 5 22 1 23
REMARK SMILES IDX 2 24 3 25 94 26 4 27 93 28 18 29 19 30 20 31 21 32 22 33
REMARK SMILES IDX 23 34 84 35 24 36 83 37 25 38 26 39 27 40 77 41 28 42 82 43
REMARK SMILES IDX 76 44 78 45 29 46 81 47 75 48 74 49 30 51 62 52 42 53 61 54
REMARK SMILES IDX 43 55 46 56 60 57 79 58 44 59 45 60 59 62 80 63 47 64 31 65
REMARK SMILES IDX 32 66 40 67 33 68 35 69 41 70 34 71 36 72 37 73 38 74 39 75
REMARK SMILES IDX 63 76 64 77 72 78 65 79 67 80 73 81 66 82 68 83 69 84 70 85
REMARK SMILES IDX 71 86 48 87 49 88 57 89 50 90 52 91 58 92 51 93 53 94 54 95
REMARK SMILES IDX 55 96 56 97
REMARK H PARENT 9 14 78 50 46 61
REMARK Flexibility Score: inf
ROOT
ATOM      1  C   UNL A   1      32.333  29.758  27.256  1.00  0.00     0.274 C 
ENDROOT
BRANCH   1   2
ATOM      2  O   UNL A   1      31.713  28.969  25.884  1.00  0.00    -0.462 OA
BRANCH   2   3
ATOM      3  C   UNL A   1      31.617  29.289  24.476  1.00  0.00     0.312 C 
ATOM      4  O   UNL A   1      32.585  29.323  23.726  1.00  0.00    -0.252 OA
BRANCH   3   5
ATOM      5  C   UNL A   1      30.119  29.670  23.957  1.00  0.00     0.143 C 
ATOM      6  C   UNL A   1      29.448  28.372  23.607  1.00  0.00     0.124 C 
ATOM      7  C   UNL A   1      28.504  28.636  22.467  1.00  0.00     0.132 C 
ATOM      8  C   UNL A   1      29.698  30.453  22.634  1.00  0.00     0.133 C 
ATOM      9  C   UNL A   1      27.452  29.677  22.820  1.00  0.00     0.035 C 
ATOM     10  O   UNL A   1      29.439  29.383  21.658  1.00  0.00    -0.373 OA
ATOM     11  C   UNL A   1      28.244  30.963  22.600  1.00  0.00     0.036 C 
BRANCH   6  12
ATOM     12  C   UNL A   1      30.463  27.404  23.047  1.00  0.00     0.232 C 
ATOM     13  N   UNL A   1      31.086  26.493  24.112  1.00  0.00    -0.302 N 
ATOM     14  H   UNL A   1      31.016  26.973  24.969  1.00  0.00     0.172 HD
ATOM     15  O   UNL A   1      30.530  27.480  21.821  1.00  0.00    -0.274 OA
BRANCH  13  16
ATOM     16  C   UNL A   1      31.826  25.052  24.443  1.00  0.00     0.190 A 
ATOM     17  C   UNL A   1      33.408  23.393  24.109  1.00  0.00     0.086 A 
ATOM     18  N   UNL A   1      33.147  24.766  24.518  1.00  0.00    -0.220 NA
ATOM     19  C   UNL A   1      32.316  22.836  23.462  1.00  0.00     0.031 A 
ATOM     20  S   UNL A   1      31.018  23.450  24.325  1.00  0.00    -0.101 S 
ATOM     21  C   UNL A   1      32.068  21.728  22.499  1.00  0.00     0.059 C 
BRANCH  17  22
ATOM     22  C   UNL A   1      34.598  22.527  24.278  1.00  0.00     0.001 A 
ATOM     23  C   UNL A   1      38.588  21.194  25.367  1.00  0.00     0.044 C 
ATOM     24  C   UNL A   1      37.199  21.512  24.886  1.00  0.00    -0.051 A 
ATOM     25  C   UNL A   1      37.032  22.415  23.845  1.00  0.00     0.004 A 
ATOM     26  C   UNL A   1      36.048  21.033  25.538  1.00  0.00     0.004 A 
ATOM     27  C   UNL A   1      35.751  22.873  23.523  1.00  0.00     0.010 A 
ATOM     28  C   UNL A   1      34.754  21.541  25.245  1.00  0.00     0.010 A 
ENDBRANCH  17  22
ENDBRANCH  13  16
ENDBRANCH   6  12
ENDBRANCH   3   5
ENDBRANCH   2   3
ENDBRANCH   1   2
BRANCH   1  29
ATOM     29  C   UNL A   1      33.759  30.987  27.408  1.00  0.00     0.275 C 
BRANCH  29  30
ATOM     30  O   UNL A   1      35.006  31.136  28.719  1.00  0.00    -0.458 OA
BRANCH  30  31
ATOM     31  C   UNL A   1      36.313  30.835  29.433  1.00  0.00     0.338 C 
ATOM     32  O   UNL A   1      36.300  31.112  30.636  1.00  0.00    -0.246 OA
BRANCH  31  33
ATOM     33  C   UNL A   1      37.833  30.208  28.865  1.00  0.00     0.060 A 
ATOM     34  C   UNL A   1      38.094  29.738  27.567  1.00  0.00     0.016 A 
ATOM     35  C   UNL A   1      39.034  30.111  29.595  1.00  0.00     0.016 A 
ATOM     36  C   UNL A   1      39.394  29.145  27.185  1.00  0.00     0.010 A 
ATOM     37  C   UNL A   1      40.241  29.541  29.301  1.00  0.00     0.010 A 
ATOM     38  C   UNL A   1      40.467  29.011  28.083  1.00  0.00    -0.014 A 
BRANCH  38  39
ATOM     39  C   UNL A   1      41.677  28.165  28.212  1.00  0.00     0.031 A 
ATOM     40  C   UNL A   1      41.647  26.662  28.376  1.00  0.00     0.074 A 
ATOM     41  C   UNL A   1      42.650  28.631  27.387  1.00  0.00     0.049 A 
ATOM     42  N   UNL A   1      42.696  25.903  28.403  1.00  0.00    -0.248 NA
ATOM     43  C   UNL A   1      40.414  25.876  28.392  1.00  0.00     0.031 C 
ATOM     44  C   UNL A   1      43.733  27.942  26.692  1.00  0.00     0.029 A 
ATOM     45  N   UNL A   1      42.831  29.964  26.996  1.00  0.00    -0.354 N 
ATOM     46  C   UNL A   1      42.311  24.598  28.116  1.00  0.00     0.074 A 
ATOM     47  C   UNL A   1      40.871  24.633  28.199  1.00  0.00     0.031 C 
ATOM     48  C   UNL A   1      44.647  28.860  26.327  1.00  0.00     0.029 A 
ATOM     49  C   UNL A   1      44.212  30.134  26.877  1.00  0.00     0.049 A 
ATOM     50  H   UNL A   1      42.131  30.639  26.839  1.00  0.00     0.167 HD
ATOM     51  C   UNL A   1      43.249  23.681  27.707  1.00  0.00     0.034 A 
ATOM     52  C   UNL A   1      44.840  30.824  27.871  1.00  0.00     0.034 A 
ATOM     53  C   UNL A   1      44.591  24.317  27.634  1.00  0.00     0.049 A 
ATOM     54  C   UNL A   1      45.743  29.914  28.670  1.00  0.00     0.074 A 
ATOM     55  C   UNL A   1      45.452  24.624  26.591  1.00  0.00     0.029 A 
ATOM     56  N   UNL A   1      45.113  24.967  28.757  1.00  0.00    -0.354 N 
ATOM     57  N   UNL A   1      45.660  28.610  28.622  1.00  0.00    -0.248 NA
ATOM     58  C   UNL A   1      46.878  30.349  29.471  1.00  0.00     0.031 C 
ATOM     59  C   UNL A   1      46.395  25.585  27.067  1.00  0.00     0.029 A 
ATOM     60  C   UNL A   1      46.137  25.838  28.407  1.00  0.00     0.049 A 
ATOM     61  H   UNL A   1      44.797  24.826  29.679  1.00  0.00     0.167 HD
ATOM     62  C   UNL A   1      46.673  28.028  29.313  1.00  0.00     0.074 A 
ATOM     63  C   UNL A   1      47.417  29.167  29.832  1.00  0.00     0.031 C 
ATOM     64  C   UNL A   1      46.801  26.670  29.417  1.00  0.00     0.034 A 
BRANCH  51  65
ATOM     65  C   UNL A   1      42.994  22.259  27.140  1.00  0.00     0.023 A 
ATOM     66  C   UNL A   1      41.874  21.541  27.634  1.00  0.00     0.012 A 
ATOM     67  C   UNL A   1      43.752  21.558  26.164  1.00  0.00     0.148 A 
ATOM     68  C   UNL A   1      41.579  20.214  27.268  1.00  0.00     0.002 A 
ATOM     69  C   UNL A   1      43.481  20.220  25.819  1.00  0.00     0.091 A 
ATOM     70  F   UNL A   1      44.703  22.192  25.479  1.00  0.00    -0.205 F 
ATOM     71  C   UNL A   1      42.398  19.542  26.378  1.00  0.00     0.022 A 
BRANCH  69  72
ATOM     72  S   UNL A   1      44.507  19.274  24.668  1.00  0.00     0.127 S 
ATOM     73  O   UNL A   1      43.823  17.981  24.628  1.00  0.00    -0.237 OA
ATOM     74  O   UNL A   1      44.398  20.052  23.436  1.00  0.00    -0.237 OA
ATOM     75  O   UNL A   1      45.839  19.223  25.259  1.00  0.00    -0.744 OA
ENDBRANCH  69  72
ENDBRANCH  51  65
BRANCH  52  76
ATOM     76  C   UNL A   1      44.110  32.085  28.241  1.00  0.00     0.023 A 
ATOM     77  C   UNL A   1      43.707  32.154  29.603  1.00  0.00     0.012 A 
ATOM     78  C   UNL A   1      44.136  33.293  27.507  1.00  0.00     0.148 A 
ATOM     79  C   UNL A   1      43.431  33.369  30.237  1.00  0.00     0.002 A 
ATOM     80  C   UNL A   1      43.830  34.509  28.144  1.00  0.00     0.091 A 
ATOM     81  F   UNL A   1      44.522  33.256  26.224  1.00  0.00    -0.205 F 
ATOM     82  C   UNL A   1      43.516  34.549  29.514  1.00  0.00     0.022 A 
BRANCH  80  83
ATOM     83  S   UNL A   1      43.863  36.121  27.326  1.00  0.00     0.127 S 
ATOM     84  O   UNL A   1      45.151  36.100  26.672  1.00  0.00    -0.237 OA
ATOM     85  O   UNL A   1      42.711  36.041  26.425  1.00  0.00    -0.237 OA
ATOM     86  O   UNL A   1      43.708  37.109  28.402  1.00  0.00    -0.744 OA
ENDBRANCH  80  83
ENDBRANCH  52  76
BRANCH  64  87
ATOM     87  C   UNL A   1      47.553  26.006  30.545  1.00  0.00     0.023 A 
ATOM     88  C   UNL A   1      48.915  25.669  30.416  1.00  0.00     0.012 A 
ATOM     89  C   UNL A   1      46.993  25.937  31.842  1.00  0.00     0.148 A 
ATOM     90  C   UNL A   1      49.683  25.262  31.507  1.00  0.00     0.002 A 
ATOM     91  C   UNL A   1      47.795  25.659  32.944  1.00  0.00     0.091 A 
ATOM     92  F   UNL A   1      45.681  26.147  32.023  1.00  0.00    -0.205 F 
ATOM     93  C   UNL A   1      49.132  25.293  32.779  1.00  0.00     0.022 A 
BRANCH  91  94
ATOM     94  S   UNL A   1      47.189  25.987  34.603  1.00  0.00     0.127 S 
ATOM     95  O   UNL A   1      46.202  24.926  34.785  1.00  0.00    -0.237 OA
ATOM     96  O   UNL A   1      48.396  25.844  35.418  1.00  0.00    -0.237 OA
ATOM     97  O   UNL A   1      46.673  27.350  34.542  1.00  0.00    -0.744 OA
ENDBRANCH  91  94
ENDBRANCH  64  87
ENDBRANCH  38  39
ENDBRANCH  31  33
ENDBRANCH  30  31
ENDBRANCH  29  30
ENDBRANCH   1  29
TORSDOF 17
ENDMDL
MODEL 3
REMARK VINA RESULT:     -15.2      6.276     10.528
REMARK SMILES Cc1ccc(-c2nc(NC(=O)[C@H]3[C@@H](C(=O)OCCOC(=O)c4ccc(-c5c6nc(c(-c7cccc(S(=O)(=O)[O-])c7F)c7ccc([nH]7)c(-c7cccc(S(=O)(=O)[O-])c7F)c7nc(c(-c8cccc(S(=O)(=O)[O-])c8F)c8ccc5[nH]8)C=C7)C=C6)cc4)[C@@H]4CC[C@H]3O4)sc2C)cc1
REMARK SMILES IDX 17 1 16 2 14 3 15 4 13 5 12 6 88 7 85 8 87 9 89 10 86 11
REMARK SMILES IDX 10 12 9 13 11 15 8 16 6 17 7 18 91 19 90 20 92 21 5 22 1 23
REMARK SMILES IDX 2 24 3 25 94 26 4 27 93 28 18 29 19 30 20 31 21 32 22 33
REMARK SMILES IDX 23 34 84 35 24 36 83 37 25 38 26 39 27 40 77 41 28 42 82 43
REMARK SMILES IDX 76 44 78 45 29 46 81 47 75 48 74 49 30 51 62 52 42 53 61 54
REMARK SMILES IDX 43 55 46 56 60 57 79 58 44 59 45 60 59 62 80 63 47 64 31 65
REMARK SMILES IDX 32 66 40 67 33 68 35 69 41 70 34 71 36 72 37 73 38 74 39 75
REMARK SMILES IDX 63 76 64 77 72 78 65 79 67 80 73 81 66 82 68 83 69 84 70 85
REMARK SMILES IDX 71 86 48 87 49 88 57 89 50 90 52 91 58 92 51 93 53 94 54 95
REMARK SMILES IDX 55 96 56 97
REMARK H PARENT 9 14 78 50 46 61
REMARK Flexibility Score: inf
ROOT
ATOM      1  C   UNL A   1      33.649  28.119  26.324  1.00  0.00     0.274 C 
ENDROOT
BRANCH   1   2
ATOM      2  O   UNL A   1      32.251  28.232  25.363  1.00  0.00    -0.462 OA
BRANCH   2   3
ATOM      3  C   UNL A   1      31.899  28.930  24.146  1.00  0.00     0.312 C 
ATOM      4  O   UNL A   1      32.723  29.289  23.314  1.00  0.00    -0.252 OA
BRANCH   3   5
ATOM      5  C   UNL A   1      30.312  29.269  23.981  1.00  0.00     0.143 C 
ATOM      6  C   UNL A   1      29.647  27.991  23.557  1.00  0.00     0.124 C 
ATOM      7  C   UNL A   1      28.489  28.349  22.667  1.00  0.00     0.132 C 
ATOM      8  C   UNL A   1      29.607  30.207  22.901  1.00  0.00     0.133 C 
ATOM      9  C   UNL A   1      27.479  29.244  23.372  1.00  0.00     0.035 C 
ATOM     10  O   UNL A   1      29.213  29.277  21.830  1.00  0.00    -0.373 OA
ATOM     11  C   UNL A   1      28.153  30.604  23.219  1.00  0.00     0.036 C 
BRANCH   6  12
ATOM     12  C   UNL A   1      30.578  27.196  22.671  1.00  0.00     0.232 C 
ATOM     13  N   UNL A   1      31.050  25.884  23.307  1.00  0.00    -0.302 N 
ATOM     14  H   UNL A   1      30.992  26.008  24.282  1.00  0.00     0.172 HD
ATOM     15  O   UNL A   1      30.708  27.724  21.567  1.00  0.00    -0.274 OA
BRANCH  13  16
ATOM     16  C   UNL A   1      31.616  24.350  23.064  1.00  0.00     0.190 A 
ATOM     17  C   UNL A   1      32.262  22.231  23.742  1.00  0.00     0.086 A 
ATOM     18  N   UNL A   1      31.170  23.182  23.581  1.00  0.00    -0.220 NA
ATOM     19  C   UNL A   1      33.497  22.847  23.628  1.00  0.00     0.031 A 
ATOM     20  S   UNL A   1      33.244  23.966  22.405  1.00  0.00    -0.101 S 
ATOM     21  C   UNL A   1      34.894  22.580  24.066  1.00  0.00     0.059 C 
BRANCH  17  22
ATOM     22  C   UNL A   1      32.264  20.770  23.986  1.00  0.00     0.001 A 
ATOM     23  C   UNL A   1      33.510  16.607  23.991  1.00  0.00     0.044 C 
ATOM     24  C   UNL A   1      32.918  17.988  24.034  1.00  0.00    -0.051 A 
ATOM     25  C   UNL A   1      32.497  18.583  22.852  1.00  0.00     0.004 A 
ATOM     26  C   UNL A   1      32.896  18.763  25.208  1.00  0.00     0.004 A 
ATOM     27  C   UNL A   1      32.135  19.933  22.845  1.00  0.00     0.010 A 
ATOM     28  C   UNL A   1      32.580  20.147  25.188  1.00  0.00     0.010 A 
ENDBRANCH  17  22
ENDBRANCH  13  16
ENDBRANCH   6  12
ENDBRANCH   3   5
ENDBRANCH   2   3
ENDBRANCH   1   2
BRANCH   1  29
ATOM     29  C   UNL A   1      34.309  29.296  27.645  1.00  0.00     0.275 C 
BRANCH  29  30
ATOM     30  O   UNL A   1      34.713  31.061  27.506  1.00  0.00    -0.458 OA
BRANCH  30  31
ATOM     31  C   UNL A   1      35.377  32.368  27.904  1.00  0.00     0.338 C 
ATOM     32  O   UNL A   1      34.813  33.371  27.456  1.00  0.00    -0.246 OA
BRANCH  31  33
ATOM     33  C   UNL A   1      36.803  32.714  28.840  1.00  0.00     0.060 A 
ATOM     34  C   UNL A   1      37.709  31.763  29.338  1.00  0.00     0.016 A 
ATOM     35  C   UNL A   1      37.285  33.985  29.207  1.00  0.00     0.016 A 
ATOM     36  C   UNL A   1      38.855  32.134  30.196  1.00  0.00     0.010 A 
ATOM     37  C   UNL A   1      38.310  34.376  30.024  1.00  0.00     0.010 A 
ATOM     38  C   UNL A   1      39.131  33.460  30.573  1.00  0.00    -0.014 A 
BRANCH  38  39
ATOM     39  C   UNL A   1      39.857  34.149  31.665  1.00  0.00     0.031 A 
ATOM     40  C   UNL A   1      39.232  34.541  32.985  1.00  0.00     0.074 A 
ATOM     41  C   UNL A   1      41.120  33.658  31.755  1.00  0.00     0.049 A 
ATOM     42  N   UNL A   1      39.876  35.065  33.979  1.00  0.00    -0.248 NA
ATOM     43  C   UNL A   1      37.844  34.249  33.339  1.00  0.00     0.031 C 
ATOM     44  C   UNL A   1      42.020  33.519  32.896  1.00  0.00     0.029 A 
ATOM     45  N   UNL A   1      41.880  33.140  30.698  1.00  0.00    -0.354 N 
ATOM     46  C   UNL A   1      39.134  34.882  35.140  1.00  0.00     0.074 A 
ATOM     47  C   UNL A   1      37.845  34.441  34.664  1.00  0.00     0.031 C 
ATOM     48  C   UNL A   1      43.271  33.354  32.426  1.00  0.00     0.029 A 
ATOM     49  C   UNL A   1      43.202  33.492  30.980  1.00  0.00     0.049 A 
ATOM     50  H   UNL A   1      41.550  32.634  29.920  1.00  0.00     0.167 HD
ATOM     51  C   UNL A   1      39.741  34.993  36.367  1.00  0.00     0.034 A 
ATOM     52  C   UNL A   1      43.739  34.514  30.255  1.00  0.00     0.034 A 
ATOM     53  C   UNL A   1      41.187  35.296  36.198  1.00  0.00     0.049 A 
ATOM     54  C   UNL A   1      43.986  35.722  31.128  1.00  0.00     0.074 A 
ATOM     55  C   UNL A   1      42.352  34.591  36.461  1.00  0.00     0.029 A 
ATOM     56  N   UNL A   1      41.580  36.405  35.444  1.00  0.00    -0.354 N 
ATOM     57  N   UNL A   1      43.445  35.867  32.310  1.00  0.00    -0.248 NA
ATOM     58  C   UNL A   1      44.933  36.789  30.839  1.00  0.00     0.031 C 
ATOM     59  C   UNL A   1      43.412  35.203  35.726  1.00  0.00     0.029 A 
ATOM     60  C   UNL A   1      42.906  36.302  35.045  1.00  0.00     0.049 A 
ATOM     61  H   UNL A   1      40.993  37.165  35.223  1.00  0.00     0.167 HD
ATOM     62  C   UNL A   1      43.939  36.959  32.946  1.00  0.00     0.074 A 
ATOM     63  C   UNL A   1      44.876  37.510  31.977  1.00  0.00     0.031 C 
ATOM     64  C   UNL A   1      43.524  37.327  34.196  1.00  0.00     0.034 A 
BRANCH  51  65
ATOM     65  C   UNL A   1      39.147  34.618  37.752  1.00  0.00     0.023 A 
ATOM     66  C   UNL A   1      39.565  35.375  38.877  1.00  0.00     0.012 A 
ATOM     67  C   UNL A   1      38.215  33.589  38.054  1.00  0.00     0.148 A 
ATOM     68  C   UNL A   1      39.171  35.086  40.198  1.00  0.00     0.002 A 
ATOM     69  C   UNL A   1      37.843  33.275  39.375  1.00  0.00     0.091 A 
ATOM     70  F   UNL A   1      37.595  32.943  37.068  1.00  0.00    -0.205 F 
ATOM     71  C   UNL A   1      38.328  34.019  40.451  1.00  0.00     0.022 A 
BRANCH  69  72
ATOM     72  S   UNL A   1      36.750  31.894  39.788  1.00  0.00     0.127 S 
ATOM     73  O   UNL A   1      37.428  30.760  39.158  1.00  0.00    -0.237 OA
ATOM     74  O   UNL A   1      36.789  31.886  41.248  1.00  0.00    -0.237 OA
ATOM     75  O   UNL A   1      35.454  32.213  39.199  1.00  0.00    -0.744 OA
ENDBRANCH  69  72
ENDBRANCH  51  65
BRANCH  52  76
ATOM     76  C   UNL A   1      43.453  34.384  28.785  1.00  0.00     0.023 A 
ATOM     77  C   UNL A   1      42.519  35.330  28.281  1.00  0.00     0.012 A 
ATOM     78  C   UNL A   1      44.270  33.712  27.847  1.00  0.00     0.148 A 
ATOM     79  C   UNL A   1      42.456  35.664  26.924  1.00  0.00     0.002 A 
ATOM     80  C   UNL A   1      44.182  34.033  26.480  1.00  0.00     0.091 A 
ATOM     81  F   UNL A   1      45.167  32.823  28.297  1.00  0.00    -0.205 F 
ATOM     82  C   UNL A   1      43.304  35.034  26.028  1.00  0.00     0.022 A 
BRANCH  80  83
ATOM     83  S   UNL A   1      45.195  33.272  25.190  1.00  0.00     0.127 S 
ATOM     84  O   UNL A   1      44.342  33.389  24.030  1.00  0.00    -0.237 OA
ATOM     85  O   UNL A   1      46.382  34.129  25.175  1.00  0.00    -0.237 OA
ATOM     86  O   UNL A   1      45.457  31.903  25.656  1.00  0.00    -0.744 OA
ENDBRANCH  80  83
ENDBRANCH  52  76
BRANCH  64  87
ATOM     87  C   UNL A   1      43.635  38.742  34.708  1.00  0.00     0.023 A 
ATOM     88  C   UNL A   1      44.264  39.027  35.937  1.00  0.00     0.012 A 
ATOM     89  C   UNL A   1      43.349  39.840  33.863  1.00  0.00     0.148 A 
ATOM     90  C   UNL A   1      44.573  40.330  36.325  1.00  0.00     0.002 A 
ATOM     91  C   UNL A   1      43.779  41.120  34.196  1.00  0.00     0.091 A 
ATOM     92  F   UNL A   1      42.663  39.655  32.726  1.00  0.00    -0.205 F 
ATOM     93  C   UNL A   1      44.365  41.375  35.437  1.00  0.00     0.022 A 
BRANCH  91  94
ATOM     94  S   UNL A   1      43.796  42.416  32.951  1.00  0.00     0.127 S 
ATOM     95  O   UNL A   1      42.371  42.657  32.740  1.00  0.00    -0.237 OA
ATOM     96  O   UNL A   1      44.504  43.502  33.631  1.00  0.00    -0.237 OA
ATOM     97  O   UNL A   1      44.529  41.838  31.832  1.00  0.00    -0.744 OA
ENDBRANCH  91  94
ENDBRANCH  64  87
ENDBRANCH  38  39
ENDBRANCH  31  33
ENDBRANCH  30  31
ENDBRANCH  29  30
ENDBRANCH   1  29
TORSDOF 17
ENDMDL
