MODEL 1
REMARK VINA RESULT:     -12.6      0.000      0.000
REMARK SMILES C[C@@H](C(=O)OCCOC(=O)c1ccc(-c2c3nc(c(-c4cccc(S(=O)(=O)[O-])c4F)c4ccc([nH]4)c(-c4cccc(S(=O)(=O)[O-])c4F)c4nc(c(-c5cccc(S(=O)(=O)[O-])c5F)c5ccc2[nH]5)C=C4)C=C3)cc1)n1ccc(C(=O)N2CC[NH+](Cc3cccc(F)c3)CC2)n1
REMARK SMILES IDX 6 1 5 2 3 3 4 4 2 5 1 6 74 7 75 8 94 9 76 10 77 11 78 12
REMARK SMILES IDX 79 13 80 14 81 15 93 16 82 17 92 18 83 19 84 21 85 22 86 23
REMARK SMILES IDX 91 24 87 25 89 26 88 27 90 28 7 29 8 30 9 31 10 32 11 33
REMARK SMILES IDX 12 34 73 35 13 36 72 37 14 38 15 39 16 40 66 41 17 42 71 43
REMARK SMILES IDX 65 44 67 45 18 46 70 47 64 48 63 49 19 51 51 52 31 53 50 54
REMARK SMILES IDX 32 55 35 56 49 57 68 58 33 59 34 60 48 62 69 63 36 64 20 65
REMARK SMILES IDX 21 66 29 67 22 68 24 69 30 70 23 71 25 72 26 73 27 74 28 75
REMARK SMILES IDX 52 76 53 77 61 78 54 79 56 80 62 81 55 82 57 83 58 84 59 85
REMARK SMILES IDX 60 86 37 87 38 88 46 89 39 90 41 91 47 92 40 93 42 94 43 95
REMARK SMILES IDX 44 96 45 97
REMARK H PARENT 83 20 67 50 35 61
REMARK Flexibility Score: inf
ROOT
ATOM      1  C   UNL A   1      31.684  31.679  26.517  1.00  0.00     0.274 C 
ENDROOT
BRANCH   1   2
ATOM      2  O   UNL A   1      32.338  30.867  27.514  1.00  0.00    -0.460 OA
BRANCH   2   3
ATOM      3  C   UNL A   1      33.009  29.785  26.998  1.00  0.00     0.330 C 
ATOM      4  O   UNL A   1      34.202  29.648  27.164  1.00  0.00    -0.250 OA
BRANCH   3   5
ATOM      5  C   UNL A   1      32.085  28.879  26.160  1.00  0.00     0.213 C 
ATOM      6  C   UNL A   1      31.591  27.669  26.964  1.00  0.00     0.046 C 
BRANCH   5   7
ATOM      7  N   UNL A   1      32.725  28.512  24.889  1.00  0.00    -0.258 N 
ATOM      8  C   UNL A   1      33.063  29.310  23.828  1.00  0.00     0.110 A 
ATOM      9  N   UNL A   1      33.061  27.224  24.674  1.00  0.00    -0.167 NA
ATOM     10  C   UNL A   1      33.444  28.456  22.816  1.00  0.00     0.056 A 
ATOM     11  C   UNL A   1      33.316  27.147  23.354  1.00  0.00     0.150 A 
BRANCH  11  12
ATOM     12  C   UNL A   1      33.507  25.867  22.639  1.00  0.00     0.274 C 
ATOM     13  O   UNL A   1      33.810  25.882  21.445  1.00  0.00    -0.267 OA
ATOM     14  N   UNL A   1      33.288  24.665  23.332  1.00  0.00    -0.326 N 
ATOM     15  C   UNL A   1      33.511  23.396  22.643  1.00  0.00     0.181 C 
ATOM     16  C   UNL A   1      32.514  24.532  24.572  1.00  0.00     0.181 C 
ATOM     17  C   UNL A   1      34.028  22.288  23.569  1.00  0.00     0.284 C 
ATOM     18  C   UNL A   1      33.063  23.435  25.498  1.00  0.00     0.284 C 
ATOM     19  N   UNL A   1      33.324  22.149  24.849  1.00  0.00    -0.328 N 
ATOM     20  H   UNL A   1      33.988  21.708  25.484  1.00  0.00     0.348 HD
BRANCH  19  21
ATOM     21  C   UNL A   1      32.279  21.124  24.900  1.00  0.00     0.299 C 
BRANCH  21  22
ATOM     22  C   UNL A   1      32.597  19.689  24.539  1.00  0.00     0.009 A 
ATOM     23  C   UNL A   1      32.428  19.234  23.217  1.00  0.00     0.010 A 
ATOM     24  C   UNL A   1      32.913  18.745  25.524  1.00  0.00     0.048 A 
ATOM     25  C   UNL A   1      32.554  17.879  22.894  1.00  0.00     0.004 A 
ATOM     26  C   UNL A   1      33.055  17.400  25.178  1.00  0.00     0.123 A 
ATOM     27  C   UNL A   1      32.884  16.959  23.878  1.00  0.00     0.039 A 
ATOM     28  F   UNL A   1      33.357  16.487  26.103  1.00  0.00    -0.207 F 
ENDBRANCH  21  22
ENDBRANCH  19  21
ENDBRANCH  11  12
ENDBRANCH   5   7
ENDBRANCH   3   5
ENDBRANCH   2   3
ENDBRANCH   1   2
BRANCH   1  29
ATOM     29  C   UNL A   1      31.948  33.180  26.697  1.00  0.00     0.275 C 
BRANCH  29  30
ATOM     30  O   UNL A   1      32.448  33.531  28.007  1.00  0.00    -0.458 OA
BRANCH  30  31
ATOM     31  C   UNL A   1      33.639  34.177  28.014  1.00  0.00     0.338 C 
ATOM     32  O   UNL A   1      33.809  35.373  27.811  1.00  0.00    -0.246 OA
BRANCH  31  33
ATOM     33  C   UNL A   1      34.740  33.301  28.469  1.00  0.00     0.060 A 
ATOM     34  C   UNL A   1      34.428  32.354  29.446  1.00  0.00     0.016 A 
ATOM     35  C   UNL A   1      36.065  33.464  28.077  1.00  0.00     0.016 A 
ATOM     36  C   UNL A   1      35.412  31.536  30.009  1.00  0.00     0.010 A 
ATOM     37  C   UNL A   1      37.059  32.658  28.669  1.00  0.00     0.010 A 
ATOM     38  C   UNL A   1      36.744  31.670  29.627  1.00  0.00    -0.014 A 
BRANCH  38  39
ATOM     39  C   UNL A   1      37.815  30.883  30.313  1.00  0.00     0.031 A 
ATOM     40  C   UNL A   1      38.228  31.278  31.697  1.00  0.00     0.074 A 
ATOM     41  C   UNL A   1      38.390  29.788  29.770  1.00  0.00     0.049 A 
ATOM     42  N   UNL A   1      39.216  30.822  32.420  1.00  0.00    -0.248 NA
ATOM     43  C   UNL A   1      37.385  32.272  32.381  1.00  0.00     0.031 C 
ATOM     44  C   UNL A   1      37.960  29.135  28.544  1.00  0.00     0.029 A 
ATOM     45  N   UNL A   1      39.489  29.046  30.151  1.00  0.00    -0.354 N 
ATOM     46  C   UNL A   1      39.095  31.439  33.653  1.00  0.00     0.074 A 
ATOM     47  C   UNL A   1      37.975  32.352  33.566  1.00  0.00     0.031 C 
ATOM     48  C   UNL A   1      38.841  28.181  28.204  1.00  0.00     0.029 A 
ATOM     49  C   UNL A   1      39.929  28.187  29.161  1.00  0.00     0.049 A 
ATOM     50  H   UNL A   1      39.916  29.120  31.036  1.00  0.00     0.167 HD
ATOM     51  C   UNL A   1      39.820  31.218  34.773  1.00  0.00     0.034 A 
ATOM     52  C   UNL A   1      41.103  27.541  28.990  1.00  0.00     0.034 A 
ATOM     53  C   UNL A   1      40.920  30.295  34.853  1.00  0.00     0.049 A 
ATOM     54  C   UNL A   1      42.081  27.574  30.115  1.00  0.00     0.074 A 
ATOM     55  C   UNL A   1      41.678  29.954  35.959  1.00  0.00     0.029 A 
ATOM     56  N   UNL A   1      41.434  29.582  33.781  1.00  0.00    -0.354 N 
ATOM     57  N   UNL A   1      41.958  28.158  31.280  1.00  0.00    -0.248 NA
ATOM     58  C   UNL A   1      43.310  26.790  29.947  1.00  0.00     0.031 C 
ATOM     59  C   UNL A   1      42.678  29.065  35.545  1.00  0.00     0.029 A 
ATOM     60  C   UNL A   1      42.521  28.827  34.190  1.00  0.00     0.049 A 
ATOM     61  H   UNL A   1      41.079  29.607  32.864  1.00  0.00     0.167 HD
ATOM     62  C   UNL A   1      43.047  27.738  32.024  1.00  0.00     0.074 A 
ATOM     63  C   UNL A   1      43.850  26.898  31.154  1.00  0.00     0.031 C 
ATOM     64  C   UNL A   1      43.314  27.986  33.328  1.00  0.00     0.034 A 
BRANCH  51  65
ATOM     65  C   UNL A   1      39.414  31.968  36.009  1.00  0.00     0.023 A 
ATOM     66  C   UNL A   1      39.969  33.238  36.268  1.00  0.00     0.012 A 
ATOM     67  C   UNL A   1      38.469  31.428  36.898  1.00  0.00     0.148 A 
ATOM     68  C   UNL A   1      39.606  33.951  37.410  1.00  0.00     0.002 A 
ATOM     69  C   UNL A   1      38.086  32.158  38.016  1.00  0.00     0.091 A 
ATOM     70  F   UNL A   1      37.981  30.205  36.647  1.00  0.00    -0.205 F 
ATOM     71  C   UNL A   1      38.658  33.414  38.279  1.00  0.00     0.022 A 
BRANCH  69  72
ATOM     72  S   UNL A   1      36.836  31.576  39.166  1.00  0.00     0.127 S 
ATOM     73  O   UNL A   1      35.812  32.612  39.036  1.00  0.00    -0.237 OA
ATOM     74  O   UNL A   1      36.471  30.281  38.592  1.00  0.00    -0.237 OA
ATOM     75  O   UNL A   1      37.488  31.504  40.466  1.00  0.00    -0.744 OA
ENDBRANCH  69  72
ENDBRANCH  51  65
BRANCH  52  76
ATOM     76  C   UNL A   1      41.420  26.838  27.710  1.00  0.00     0.023 A 
ATOM     77  C   UNL A   1      41.884  27.563  26.600  1.00  0.00     0.012 A 
ATOM     78  C   UNL A   1      41.296  25.438  27.596  1.00  0.00     0.148 A 
ATOM     79  C   UNL A   1      42.249  26.903  25.421  1.00  0.00     0.002 A 
ATOM     80  C   UNL A   1      41.745  24.779  26.457  1.00  0.00     0.091 A 
ATOM     81  F   UNL A   1      40.675  24.760  28.568  1.00  0.00    -0.205 F 
ATOM     82  C   UNL A   1      42.211  25.511  25.359  1.00  0.00     0.022 A 
BRANCH  80  83
ATOM     83  S   UNL A   1      41.888  22.987  26.401  1.00  0.00     0.127 S 
ATOM     84  O   UNL A   1      42.667  22.698  27.601  1.00  0.00    -0.237 OA
ATOM     85  O   UNL A   1      40.488  22.564  26.457  1.00  0.00    -0.237 OA
ATOM     86  O   UNL A   1      42.533  22.694  25.127  1.00  0.00    -0.744 OA
ENDBRANCH  80  83
ENDBRANCH  52  76
BRANCH  64  87
ATOM     87  C   UNL A   1      44.489  27.266  33.922  1.00  0.00     0.023 A 
ATOM     88  C   UNL A   1      45.770  27.844  33.885  1.00  0.00     0.012 A 
ATOM     89  C   UNL A   1      44.305  26.010  34.532  1.00  0.00     0.148 A 
ATOM     90  C   UNL A   1      46.862  27.163  34.421  1.00  0.00     0.002 A 
ATOM     91  C   UNL A   1      45.387  25.361  35.107  1.00  0.00     0.091 A 
ATOM     92  F   UNL A   1      43.078  25.469  34.526  1.00  0.00    -0.205 F 
ATOM     93  C   UNL A   1      46.670  25.929  35.041  1.00  0.00     0.022 A 
BRANCH  91  94
ATOM     94  S   UNL A   1      45.213  23.814  36.001  1.00  0.00     0.127 S 
ATOM     95  O   UNL A   1      44.690  24.269  37.288  1.00  0.00    -0.237 OA
ATOM     96  O   UNL A   1      44.251  23.086  35.173  1.00  0.00    -0.237 OA
ATOM     97  O   UNL A   1      46.543  23.220  36.040  1.00  0.00    -0.744 OA
ENDBRANCH  91  94
ENDBRANCH  64  87
ENDBRANCH  38  39
ENDBRANCH  31  33
ENDBRANCH  30  31
ENDBRANCH  29  30
ENDBRANCH   1  29
TORSDOF 18
ENDMDL
MODEL 2
REMARK VINA RESULT:     -12.5      5.521      9.068
REMARK SMILES C[C@@H](C(=O)OCCOC(=O)c1ccc(-c2c3nc(c(-c4cccc(S(=O)(=O)[O-])c4F)c4ccc([nH]4)c(-c4cccc(S(=O)(=O)[O-])c4F)c4nc(c(-c5cccc(S(=O)(=O)[O-])c5F)c5ccc2[nH]5)C=C4)C=C3)cc1)n1ccc(C(=O)N2CC[NH+](Cc3cccc(F)c3)CC2)n1
REMARK SMILES IDX 6 1 5 2 3 3 4 4 2 5 1 6 74 7 75 8 94 9 76 10 77 11 78 12
REMARK SMILES IDX 79 13 80 14 81 15 93 16 82 17 92 18 83 19 84 21 85 22 86 23
REMARK SMILES IDX 91 24 87 25 89 26 88 27 90 28 7 29 8 30 9 31 10 32 11 33
REMARK SMILES IDX 12 34 73 35 13 36 72 37 14 38 15 39 16 40 66 41 17 42 71 43
REMARK SMILES IDX 65 44 67 45 18 46 70 47 64 48 63 49 19 51 51 52 31 53 50 54
REMARK SMILES IDX 32 55 35 56 49 57 68 58 33 59 34 60 48 62 69 63 36 64 20 65
REMARK SMILES IDX 21 66 29 67 22 68 24 69 30 70 23 71 25 72 26 73 27 74 28 75
REMARK SMILES IDX 52 76 53 77 61 78 54 79 56 80 62 81 55 82 57 83 58 84 59 85
REMARK SMILES IDX 60 86 37 87 38 88 46 89 39 90 41 91 47 92 40 93 42 94 43 95
REMARK SMILES IDX 44 96 45 97
REMARK H PARENT 83 20 67 50 35 61
REMARK Flexibility Score: inf
ROOT
ATOM      1  C   UNL A   1      35.192  22.095  25.252  1.00  0.00     0.274 C 
ENDROOT
BRANCH   1   2
ATOM      2  O   UNL A   1      34.428  21.400  24.245  1.00  0.00    -0.460 OA
BRANCH   2   3
ATOM      3  C   UNL A   1      33.215  20.933  24.690  1.00  0.00     0.330 C 
ATOM      4  O   UNL A   1      33.142  19.949  25.394  1.00  0.00    -0.250 OA
BRANCH   3   5
ATOM      5  C   UNL A   1      32.037  21.749  24.123  1.00  0.00     0.213 C 
ATOM      6  C   UNL A   1      32.387  22.394  22.775  1.00  0.00     0.046 C 
BRANCH   5   7
ATOM      7  N   UNL A   1      31.539  22.711  25.117  1.00  0.00    -0.258 N 
ATOM      8  C   UNL A   1      30.597  22.533  26.095  1.00  0.00     0.110 A 
ATOM      9  N   UNL A   1      32.046  23.960  25.130  1.00  0.00    -0.167 NA
ATOM     10  C   UNL A   1      30.351  23.785  26.616  1.00  0.00     0.056 A 
ATOM     11  C   UNL A   1      31.199  24.670  25.899  1.00  0.00     0.150 A 
BRANCH  11  12
ATOM     12  C   UNL A   1      31.246  26.144  26.007  1.00  0.00     0.274 C 
ATOM     13  O   UNL A   1      31.271  26.667  27.123  1.00  0.00    -0.267 OA
ATOM     14  N   UNL A   1      31.210  26.911  24.831  1.00  0.00    -0.326 N 
ATOM     15  C   UNL A   1      31.293  28.367  24.928  1.00  0.00     0.181 C 
ATOM     16  C   UNL A   1      30.738  26.436  23.525  1.00  0.00     0.181 C 
ATOM     17  C   UNL A   1      32.025  29.010  23.744  1.00  0.00     0.284 C 
ATOM     18  C   UNL A   1      31.501  27.072  22.352  1.00  0.00     0.284 C 
ATOM     19  N   UNL A   1      31.631  28.529  22.415  1.00  0.00    -0.328 N 
ATOM     20  H   UNL A   1      32.429  28.710  21.807  1.00  0.00     0.348 HD
BRANCH  19  21
ATOM     21  C   UNL A   1      30.642  29.343  21.704  1.00  0.00     0.299 C 
BRANCH  21  22
ATOM     22  C   UNL A   1      29.541  30.049  22.465  1.00  0.00     0.009 A 
ATOM     23  C   UNL A   1      28.405  29.338  22.894  1.00  0.00     0.010 A 
ATOM     24  C   UNL A   1      29.546  31.440  22.627  1.00  0.00     0.048 A 
ATOM     25  C   UNL A   1      27.302  29.996  23.449  1.00  0.00     0.004 A 
ATOM     26  C   UNL A   1      28.446  32.077  23.203  1.00  0.00     0.123 A 
ATOM     27  C   UNL A   1      27.330  31.372  23.618  1.00  0.00     0.039 A 
ATOM     28  F   UNL A   1      28.433  33.401  23.365  1.00  0.00    -0.207 F 
ENDBRANCH  21  22
ENDBRANCH  19  21
ENDBRANCH  11  12
ENDBRANCH   5   7
ENDBRANCH   3   5
ENDBRANCH   2   3
ENDBRANCH   1   2
BRANCH   1  29
ATOM     29  C   UNL A   1      36.355  21.260  25.805  1.00  0.00     0.275 C 
BRANCH  29  30
ATOM     30  O   UNL A   1      37.610  21.485  25.124  1.00  0.00    -0.458 OA
BRANCH  30  31
ATOM     31  C   UNL A   1      38.715  21.138  25.826  1.00  0.00     0.338 C 
ATOM     32  O   UNL A   1      39.226  20.024  25.857  1.00  0.00    -0.246 OA
BRANCH  31  33
ATOM     33  C   UNL A   1      39.370  22.311  26.444  1.00  0.00     0.060 A 
ATOM     34  C   UNL A   1      38.987  23.567  25.970  1.00  0.00     0.016 A 
ATOM     35  C   UNL A   1      40.416  22.217  27.356  1.00  0.00     0.016 A 
ATOM     36  C   UNL A   1      39.606  24.736  26.421  1.00  0.00     0.010 A 
ATOM     37  C   UNL A   1      41.058  23.396  27.786  1.00  0.00     0.010 A 
ATOM     38  C   UNL A   1      40.649  24.672  27.342  1.00  0.00    -0.014 A 
BRANCH  38  39
ATOM     39  C   UNL A   1      41.392  25.908  27.737  1.00  0.00     0.031 A 
ATOM     40  C   UNL A   1      40.647  27.013  28.420  1.00  0.00     0.074 A 
ATOM     41  C   UNL A   1      42.724  26.056  27.565  1.00  0.00     0.049 A 
ATOM     42  N   UNL A   1      41.060  28.213  28.728  1.00  0.00    -0.248 NA
ATOM     43  C   UNL A   1      39.278  26.710  28.868  1.00  0.00     0.031 C 
ATOM     44  C   UNL A   1      43.635  25.009  27.129  1.00  0.00     0.029 A 
ATOM     45  N   UNL A   1      43.548  27.155  27.693  1.00  0.00    -0.354 N 
ATOM     46  C   UNL A   1      40.025  28.796  29.438  1.00  0.00     0.074 A 
ATOM     47  C   UNL A   1      38.935  27.844  29.463  1.00  0.00     0.031 C 
ATOM     48  C   UNL A   1      44.852  25.531  26.906  1.00  0.00     0.029 A 
ATOM     49  C   UNL A   1      44.797  26.961  27.134  1.00  0.00     0.049 A 
ATOM     50  H   UNL A   1      43.275  27.992  28.138  1.00  0.00     0.167 HD
ATOM     51  C   UNL A   1      40.010  29.997  30.061  1.00  0.00     0.034 A 
ATOM     52  C   UNL A   1      45.760  27.832  26.765  1.00  0.00     0.034 A 
ATOM     53  C   UNL A   1      41.106  30.928  30.043  1.00  0.00     0.049 A 
ATOM     54  C   UNL A   1      45.589  29.260  27.158  1.00  0.00     0.074 A 
ATOM     55  C   UNL A   1      41.212  32.144  30.694  1.00  0.00     0.029 A 
ATOM     56  N   UNL A   1      42.277  30.759  29.320  1.00  0.00    -0.354 N 
ATOM     57  N   UNL A   1      44.607  29.804  27.832  1.00  0.00    -0.248 NA
ATOM     58  C   UNL A   1      46.689  30.174  26.830  1.00  0.00     0.031 C 
ATOM     59  C   UNL A   1      42.432  32.729  30.332  1.00  0.00     0.029 A 
ATOM     60  C   UNL A   1      43.099  31.862  29.482  1.00  0.00     0.049 A 
ATOM     61  H   UNL A   1      42.494  29.970  28.773  1.00  0.00     0.167 HD
ATOM     62  C   UNL A   1      45.009  31.102  28.094  1.00  0.00     0.074 A 
ATOM     63  C   UNL A   1      46.298  31.279  27.451  1.00  0.00     0.031 C 
ATOM     64  C   UNL A   1      44.383  32.035  28.850  1.00  0.00     0.034 A 
BRANCH  51  65
ATOM     65  C   UNL A   1      38.776  30.347  30.841  1.00  0.00     0.023 A 
ATOM     66  C   UNL A   1      38.648  29.912  32.176  1.00  0.00     0.012 A 
ATOM     67  C   UNL A   1      37.758  31.124  30.262  1.00  0.00     0.148 A 
ATOM     68  C   UNL A   1      37.508  30.226  32.917  1.00  0.00     0.002 A 
ATOM     69  C   UNL A   1      36.642  31.463  31.016  1.00  0.00     0.091 A 
ATOM     70  F   UNL A   1      37.889  31.497  28.981  1.00  0.00    -0.205 F 
ATOM     71  C   UNL A   1      36.511  31.008  32.340  1.00  0.00     0.022 A 
BRANCH  69  72
ATOM     72  S   UNL A   1      35.328  32.508  30.380  1.00  0.00     0.127 S 
ATOM     73  O   UNL A   1      36.058  33.734  30.058  1.00  0.00    -0.237 OA
ATOM     74  O   UNL A   1      34.868  31.748  29.218  1.00  0.00    -0.237 OA
ATOM     75  O   UNL A   1      34.353  32.628  31.455  1.00  0.00    -0.744 OA
ENDBRANCH  69  72
ENDBRANCH  51  65
BRANCH  52  76
ATOM     76  C   UNL A   1      46.944  27.386  25.969  1.00  0.00     0.023 A 
ATOM     77  C   UNL A   1      46.965  27.556  24.574  1.00  0.00     0.012 A 
ATOM     78  C   UNL A   1      48.073  26.820  26.596  1.00  0.00     0.148 A 
ATOM     79  C   UNL A   1      48.099  27.206  23.832  1.00  0.00     0.002 A 
ATOM     80  C   UNL A   1      49.228  26.558  25.867  1.00  0.00     0.091 A 
ATOM     81  F   UNL A   1      47.994  26.472  27.885  1.00  0.00    -0.205 F 
ATOM     82  C   UNL A   1      49.241  26.737  24.480  1.00  0.00     0.022 A 
BRANCH  80  83
ATOM     83  S   UNL A   1      50.776  26.131  26.679  1.00  0.00     0.127 S 
ATOM     84  O   UNL A   1      50.917  27.199  27.664  1.00  0.00    -0.237 OA
ATOM     85  O   UNL A   1      50.477  24.811  27.237  1.00  0.00    -0.237 OA
ATOM     86  O   UNL A   1      51.770  26.100  25.614  1.00  0.00    -0.744 OA
ENDBRANCH  80  83
ENDBRANCH  52  76
BRANCH  64  87
ATOM     87  C   UNL A   1      45.130  33.313  29.096  1.00  0.00     0.023 A 
ATOM     88  C   UNL A   1      45.972  33.439  30.216  1.00  0.00     0.012 A 
ATOM     89  C   UNL A   1      44.998  34.386  28.195  1.00  0.00     0.148 A 
ATOM     90  C   UNL A   1      46.649  34.635  30.452  1.00  0.00     0.002 A 
ATOM     91  C   UNL A   1      45.713  35.555  28.409  1.00  0.00     0.091 A 
ATOM     92  F   UNL A   1      44.165  34.249  27.153  1.00  0.00    -0.205 F 
ATOM     93  C   UNL A   1      46.529  35.687  29.544  1.00  0.00     0.022 A 
BRANCH  91  94
ATOM     94  S   UNL A   1      45.686  36.923  27.247  1.00  0.00     0.127 S 
ATOM     95  O   UNL A   1      46.493  37.924  27.943  1.00  0.00    -0.237 OA
ATOM     96  O   UNL A   1      46.322  36.337  26.067  1.00  0.00    -0.237 OA
ATOM     97  O   UNL A   1      44.282  37.268  27.064  1.00  0.00    -0.744 OA
ENDBRANCH  91  94
ENDBRANCH  64  87
ENDBRANCH  38  39
ENDBRANCH  31  33
ENDBRANCH  30  31
ENDBRANCH  29  30
ENDBRANCH   1  29
TORSDOF 18
ENDMDL
MODEL 3
REMARK VINA RESULT:     -12.5      5.655     11.548
REMARK SMILES C[C@@H](C(=O)OCCOC(=O)c1ccc(-c2c3nc(c(-c4cccc(S(=O)(=O)[O-])c4F)c4ccc([nH]4)c(-c4cccc(S(=O)(=O)[O-])c4F)c4nc(c(-c5cccc(S(=O)(=O)[O-])c5F)c5ccc2[nH]5)C=C4)C=C3)cc1)n1ccc(C(=O)N2CC[NH+](Cc3cccc(F)c3)CC2)n1
REMARK SMILES IDX 6 1 5 2 3 3 4 4 2 5 1 6 74 7 75 8 94 9 76 10 77 11 78 12
REMARK SMILES IDX 79 13 80 14 81 15 93 16 82 17 92 18 83 19 84 21 85 22 86 23
REMARK SMILES IDX 91 24 87 25 89 26 88 27 90 28 7 29 8 30 9 31 10 32 11 33
REMARK SMILES IDX 12 34 73 35 13 36 72 37 14 38 15 39 16 40 66 41 17 42 71 43
REMARK SMILES IDX 65 44 67 45 18 46 70 47 64 48 63 49 19 51 51 52 31 53 50 54
REMARK SMILES IDX 32 55 35 56 49 57 68 58 33 59 34 60 48 62 69 63 36 64 20 65
REMARK SMILES IDX 21 66 29 67 22 68 24 69 30 70 23 71 25 72 26 73 27 74 28 75
REMARK SMILES IDX 52 76 53 77 61 78 54 79 56 80 62 81 55 82 57 83 58 84 59 85
REMARK SMILES IDX 60 86 37 87 38 88 46 89 39 90 41 91 47 92 40 93 42 94 43 95
REMARK SMILES IDX 44 96 45 97
REMARK H PARENT 83 20 67 50 35 61
REMARK Flexibility Score: inf
ROOT
ATOM      1  C   UNL A   1      38.111  20.223  25.125  1.00  0.00     0.274 C 
ENDROOT
BRANCH   1   2
ATOM      2  O   UNL A   1      37.333  21.404  24.843  1.00  0.00    -0.460 OA
BRANCH   2   3
ATOM      3  C   UNL A   1      35.985  21.168  24.728  1.00  0.00     0.330 C 
ATOM      4  O   UNL A   1      35.488  20.145  25.149  1.00  0.00    -0.250 OA
BRANCH   3   5
ATOM      5  C   UNL A   1      35.264  22.291  23.957  1.00  0.00     0.213 C 
ATOM      6  C   UNL A   1      36.217  23.036  23.013  1.00  0.00     0.046 C 
BRANCH   5   7
ATOM      7  N   UNL A   1      34.543  23.181  24.878  1.00  0.00    -0.258 N 
ATOM      8  C   UNL A   1      33.654  22.862  25.871  1.00  0.00     0.110 A 
ATOM      9  N   UNL A   1      34.746  24.511  24.797  1.00  0.00    -0.167 NA
ATOM     10  C   UNL A   1      33.117  24.057  26.298  1.00  0.00     0.056 A 
ATOM     11  C   UNL A   1      33.748  25.059  25.514  1.00  0.00     0.150 A 
BRANCH  11  12
ATOM     12  C   UNL A   1      33.450  26.507  25.512  1.00  0.00     0.274 C 
ATOM     13  O   UNL A   1      34.039  27.247  26.303  1.00  0.00    -0.267 OA
ATOM     14  N   UNL A   1      32.464  26.996  24.638  1.00  0.00    -0.326 N 
ATOM     15  C   UNL A   1      32.190  28.431  24.604  1.00  0.00     0.181 C 
ATOM     16  C   UNL A   1      31.419  26.183  24.003  1.00  0.00     0.181 C 
ATOM     17  C   UNL A   1      31.786  28.936  23.213  1.00  0.00     0.284 C 
ATOM     18  C   UNL A   1      31.047  26.689  22.601  1.00  0.00     0.284 C 
ATOM     19  N   UNL A   1      30.784  28.127  22.510  1.00  0.00    -0.328 N 
ATOM     20  H   UNL A   1      30.921  28.318  21.518  1.00  0.00     0.348 HD
BRANCH  19  21
ATOM     21  C   UNL A   1      29.397  28.585  22.618  1.00  0.00     0.299 C 
BRANCH  21  22
ATOM     22  C   UNL A   1      29.061  30.052  22.460  1.00  0.00     0.009 A 
ATOM     23  C   UNL A   1      29.098  30.913  23.573  1.00  0.00     0.010 A 
ATOM     24  C   UNL A   1      28.560  30.558  21.254  1.00  0.00     0.048 A 
ATOM     25  C   UNL A   1      28.632  32.230  23.488  1.00  0.00     0.004 A 
ATOM     26  C   UNL A   1      28.120  31.880  21.183  1.00  0.00     0.123 A 
ATOM     27  C   UNL A   1      28.155  32.720  22.282  1.00  0.00     0.039 A 
ATOM     28  F   UNL A   1      27.639  32.379  20.043  1.00  0.00    -0.207 F 
ENDBRANCH  21  22
ENDBRANCH  19  21
ENDBRANCH  11  12
ENDBRANCH   5   7
ENDBRANCH   3   5
ENDBRANCH   2   3
ENDBRANCH   1   2
BRANCH   1  29
ATOM     29  C   UNL A   1      39.473  20.539  25.758  1.00  0.00     0.275 C 
BRANCH  29  30
ATOM     30  O   UNL A   1      40.158  19.376  26.278  1.00  0.00    -0.458 OA
BRANCH  30  31
ATOM     31  C   UNL A   1      41.510  19.434  26.225  1.00  0.00     0.338 C 
ATOM     32  O   UNL A   1      42.259  18.501  25.960  1.00  0.00    -0.246 OA
BRANCH  31  33
ATOM     33  C   UNL A   1      42.010  20.819  26.358  1.00  0.00     0.060 A 
ATOM     34  C   UNL A   1      41.914  21.403  27.622  1.00  0.00     0.016 A 
ATOM     35  C   UNL A   1      42.436  21.591  25.282  1.00  0.00     0.016 A 
ATOM     36  C   UNL A   1      42.274  22.736  27.839  1.00  0.00     0.010 A 
ATOM     37  C   UNL A   1      42.770  22.943  25.498  1.00  0.00     0.010 A 
ATOM     38  C   UNL A   1      42.715  23.529  26.781  1.00  0.00    -0.014 A 
BRANCH  38  39
ATOM     39  C   UNL A   1      42.986  24.985  26.983  1.00  0.00     0.031 A 
ATOM     40  C   UNL A   1      44.374  25.501  26.755  1.00  0.00     0.074 A 
ATOM     41  C   UNL A   1      42.025  25.879  27.303  1.00  0.00     0.049 A 
ATOM     42  N   UNL A   1      44.857  26.690  26.996  1.00  0.00    -0.248 NA
ATOM     43  C   UNL A   1      45.327  24.576  26.118  1.00  0.00     0.031 C 
ATOM     44  C   UNL A   1      40.598  25.599  27.342  1.00  0.00     0.029 A 
ATOM     45  N   UNL A   1      42.096  27.199  27.697  1.00  0.00    -0.354 N 
ATOM     46  C   UNL A   1      46.153  26.674  26.508  1.00  0.00     0.074 A 
ATOM     47  C   UNL A   1      46.407  25.338  26.013  1.00  0.00     0.031 C 
ATOM     48  C   UNL A   1      39.943  26.654  27.851  1.00  0.00     0.029 A 
ATOM     49  C   UNL A   1      40.907  27.670  28.222  1.00  0.00     0.049 A 
ATOM     50  H   UNL A   1      42.909  27.750  27.613  1.00  0.00     0.167 HD
ATOM     51  C   UNL A   1      47.029  27.702  26.430  1.00  0.00     0.034 A 
ATOM     52  C   UNL A   1      40.628  28.746  28.988  1.00  0.00     0.034 A 
ATOM     53  C   UNL A   1      46.759  29.030  26.910  1.00  0.00     0.049 A 
ATOM     54  C   UNL A   1      41.714  29.746  29.200  1.00  0.00     0.074 A 
ATOM     55  C   UNL A   1      47.559  30.156  26.822  1.00  0.00     0.029 A 
ATOM     56  N   UNL A   1      45.611  29.409  27.589  1.00  0.00    -0.354 N 
ATOM     57  N   UNL A   1      42.937  29.725  28.732  1.00  0.00    -0.248 NA
ATOM     58  C   UNL A   1      41.365  30.953  29.955  1.00  0.00     0.031 C 
ATOM     59  C   UNL A   1      46.910  31.206  27.484  1.00  0.00     0.029 A 
ATOM     60  C   UNL A   1      45.692  30.742  27.955  1.00  0.00     0.049 A 
ATOM     61  H   UNL A   1      44.848  28.817  27.782  1.00  0.00     0.167 HD
ATOM     62  C   UNL A   1      43.479  30.956  29.055  1.00  0.00     0.074 A 
ATOM     63  C   UNL A   1      42.469  31.674  29.811  1.00  0.00     0.031 C 
ATOM     64  C   UNL A   1      44.686  31.458  28.699  1.00  0.00     0.034 A 
BRANCH  51  65
ATOM     65  C   UNL A   1      48.348  27.426  25.768  1.00  0.00     0.023 A 
ATOM     66  C   UNL A   1      49.458  27.052  26.552  1.00  0.00     0.012 A 
ATOM     67  C   UNL A   1      48.481  27.514  24.372  1.00  0.00     0.148 A 
ATOM     68  C   UNL A   1      50.692  26.793  25.956  1.00  0.00     0.002 A 
ATOM     69  C   UNL A   1      49.704  27.221  23.781  1.00  0.00     0.091 A 
ATOM     70  F   UNL A   1      47.420  27.903  23.651  1.00  0.00    -0.205 F 
ATOM     71  C   UNL A   1      50.812  26.868  24.571  1.00  0.00     0.022 A 
BRANCH  69  72
ATOM     72  S   UNL A   1      49.945  27.240  22.002  1.00  0.00     0.127 S 
ATOM     73  O   UNL A   1      48.899  26.322  21.554  1.00  0.00    -0.237 OA
ATOM     74  O   UNL A   1      49.706  28.645  21.675  1.00  0.00    -0.237 OA
ATOM     75  O   UNL A   1      51.310  26.786  21.776  1.00  0.00    -0.744 OA
ENDBRANCH  69  72
ENDBRANCH  51  65
BRANCH  52  76
ATOM     76  C   UNL A   1      39.285  28.918  29.621  1.00  0.00     0.023 A 
ATOM     77  C   UNL A   1      39.027  28.381  30.894  1.00  0.00     0.012 A 
ATOM     78  C   UNL A   1      38.263  29.648  28.978  1.00  0.00     0.148 A 
ATOM     79  C   UNL A   1      37.795  28.600  31.522  1.00  0.00     0.002 A 
ATOM     80  C   UNL A   1      37.077  29.938  29.643  1.00  0.00     0.091 A 
ATOM     81  F   UNL A   1      38.422  29.995  27.696  1.00  0.00    -0.205 F 
ATOM     82  C   UNL A   1      36.833  29.404  30.912  1.00  0.00     0.022 A 
BRANCH  80  83
ATOM     83  S   UNL A   1      35.889  31.115  28.978  1.00  0.00     0.127 S 
ATOM     84  O   UNL A   1      35.108  30.287  28.065  1.00  0.00    -0.237 OA
ATOM     85  O   UNL A   1      35.178  31.548  30.182  1.00  0.00    -0.237 OA
ATOM     86  O   UNL A   1      36.694  32.166  28.367  1.00  0.00    -0.744 OA
ENDBRANCH  80  83
ENDBRANCH  52  76
BRANCH  64  87
ATOM     87  C   UNL A   1      44.949  32.892  29.054  1.00  0.00     0.023 A 
ATOM     88  C   UNL A   1      45.667  33.216  30.219  1.00  0.00     0.012 A 
ATOM     89  C   UNL A   1      44.486  33.918  28.208  1.00  0.00     0.148 A 
ATOM     90  C   UNL A   1      45.893  34.550  30.554  1.00  0.00     0.002 A 
ATOM     91  C   UNL A   1      44.758  35.242  28.523  1.00  0.00     0.091 A 
ATOM     92  F   UNL A   1      43.779  33.582  27.121  1.00  0.00    -0.205 F 
ATOM     93  C   UNL A   1      45.449  35.561  29.703  1.00  0.00     0.022 A 
BRANCH  91  94
ATOM     94  S   UNL A   1      44.301  36.598  27.439  1.00  0.00     0.127 S 
ATOM     95  O   UNL A   1      45.045  36.274  26.224  1.00  0.00    -0.237 OA
ATOM     96  O   UNL A   1      42.852  36.431  27.331  1.00  0.00    -0.237 OA
ATOM     97  O   UNL A   1      44.717  37.816  28.121  1.00  0.00    -0.744 OA
ENDBRANCH  91  94
ENDBRANCH  64  87
ENDBRANCH  38  39
ENDBRANCH  31  33
ENDBRANCH  30  31
ENDBRANCH  29  30
ENDBRANCH   1  29
TORSDOF 18
ENDMDL
