MODEL 1
REMARK VINA RESULT:     -11.9      0.000      0.000
REMARK SMILES CC1(C)CCSC[C@]1(Nc1ccccc1Br)C(=O)OCCOC(=O)c1ccc(-c2c3nc(c(-c4cccc(S(=O)(=O)[O-])c4F)c4ccc([nH]4)c(-c4cccc(S(=O)(=O)[O-])c4F)c4nc(c(-c5cccc(S(=O)(=O)[O-])c5F)c5ccc2[nH]5)C=C4)C=C3)cc1
REMARK SMILES IDX 21 1 20 2 19 3 17 4 18 5 8 6 1 7 2 8 3 9 4 10 5 11 7 12 6 13
REMARK SMILES IDX 9 14 10 16 11 17 15 18 12 19 14 20 16 21 13 22 22 23 23 24
REMARK SMILES IDX 24 25 25 26 26 27 87 28 27 29 86 30 28 31 29 32 30 33 80 34
REMARK SMILES IDX 31 35 85 36 79 37 81 38 32 39 84 40 78 41 77 42 33 44 65 45
REMARK SMILES IDX 45 46 64 47 46 48 49 49 63 50 82 51 47 52 48 53 62 55 83 56
REMARK SMILES IDX 50 57 34 58 35 59 43 60 36 61 38 62 44 63 37 64 39 65 40 66
REMARK SMILES IDX 41 67 42 68 66 69 67 70 75 71 68 72 70 73 76 74 69 75 71 76
REMARK SMILES IDX 72 77 73 78 74 79 51 80 52 81 60 82 53 83 55 84 61 85 54 86
REMARK SMILES IDX 56 87 57 88 58 89 59 90
REMARK H PARENT 9 15 81 43 49 54
REMARK Flexibility Score: inf
ROOT
ATOM      1  C   UNL A   1      36.263  21.673  24.268  1.00  0.00     0.275 C 
ENDROOT
BRANCH   1   2
ATOM      2  C   UNL A   1      36.146  23.079  23.687  1.00  0.00     0.274 C 
BRANCH   2   3
ATOM      3  O   UNL A   1      34.774  23.526  23.652  1.00  0.00    -0.460 OA
BRANCH   3   4
ATOM      4  C   UNL A   1      34.307  24.098  24.795  1.00  0.00     0.333 C 
ATOM      5  O   UNL A   1      35.048  24.638  25.611  1.00  0.00    -0.249 OA
BRANCH   4   6
ATOM      6  C   UNL A   1      32.763  23.880  25.044  1.00  0.00     0.150 C 
ATOM      7  C   UNL A   1      30.809  22.599  26.162  1.00  0.00     0.014 C 
ATOM      8  C   UNL A   1      32.357  22.683  26.006  1.00  0.00     0.000 C 
ATOM      9  C   UNL A   1      32.889  22.822  27.452  1.00  0.00     0.014 C 
ATOM     10  C   UNL A   1      32.889  21.335  25.451  1.00  0.00     0.020 C 
ATOM     11  C   UNL A   1      32.202  20.826  24.198  1.00  0.00     0.070 C 
ATOM     12  C   UNL A   1      32.130  23.631  23.625  1.00  0.00     0.110 C 
ATOM     13  S   UNL A   1      32.168  21.988  22.823  1.00  0.00    -0.159 SA
BRANCH   6  14
ATOM     14  N   UNL A   1      32.140  25.172  25.576  1.00  0.00    -0.368 N 
ATOM     15  H   UNL A   1      32.311  25.448  26.507  1.00  0.00     0.161 HD
BRANCH  14  16
ATOM     16  C   UNL A   1      31.329  25.968  24.753  1.00  0.00     0.049 A 
ATOM     17  C   UNL A   1      29.965  25.664  24.648  1.00  0.00     0.027 A 
ATOM     18  C   UNL A   1      31.796  27.112  24.074  1.00  0.00     0.041 A 
ATOM     19  C   UNL A   1      29.088  26.483  23.932  1.00  0.00     0.002 A 
ATOM     20  C   UNL A   1      30.910  27.962  23.399  1.00  0.00     0.018 A 
ATOM     21  Br  UNL A   1      33.641  27.563  24.011  1.00  0.00    -0.049 Br
ATOM     22  C   UNL A   1      29.556  27.647  23.331  1.00  0.00     0.001 A 
ENDBRANCH  14  16
ENDBRANCH   6  14
ENDBRANCH   4   6
ENDBRANCH   3   4
ENDBRANCH   2   3
ENDBRANCH   1   2
BRANCH   1  23
ATOM     23  O   UNL A   1      36.819  21.738  25.589  1.00  0.00    -0.458 OA
BRANCH  23  24
ATOM     24  C   UNL A   1      38.127  21.411  25.711  1.00  0.00     0.338 C 
ATOM     25  O   UNL A   1      38.657  20.374  25.347  1.00  0.00    -0.246 OA
BRANCH  24  26
ATOM     26  C   UNL A   1      38.863  22.525  26.345  1.00  0.00     0.060 A 
ATOM     27  C   UNL A   1      38.472  23.843  26.120  1.00  0.00     0.016 A 
ATOM     28  C   UNL A   1      40.014  22.268  27.086  1.00  0.00     0.016 A 
ATOM     29  C   UNL A   1      39.276  24.900  26.537  1.00  0.00     0.010 A 
ATOM     30  C   UNL A   1      40.754  23.335  27.610  1.00  0.00     0.010 A 
ATOM     31  C   UNL A   1      40.409  24.667  27.319  1.00  0.00    -0.014 A 
BRANCH  31  32
ATOM     32  C   UNL A   1      41.219  25.802  27.841  1.00  0.00     0.031 A 
ATOM     33  C   UNL A   1      40.577  26.852  28.704  1.00  0.00     0.074 A 
ATOM     34  C   UNL A   1      42.521  25.917  27.507  1.00  0.00     0.049 A 
ATOM     35  N   UNL A   1      41.003  28.052  28.998  1.00  0.00    -0.248 NA
ATOM     36  C   UNL A   1      39.273  26.517  29.302  1.00  0.00     0.031 C 
ATOM     37  C   UNL A   1      43.286  24.950  26.718  1.00  0.00     0.029 A 
ATOM     38  N   UNL A   1      43.429  26.916  27.768  1.00  0.00    -0.354 N 
ATOM     39  C   UNL A   1      39.982  28.651  29.728  1.00  0.00     0.074 A 
ATOM     40  C   UNL A   1      38.928  27.669  29.863  1.00  0.00     0.031 C 
ATOM     41  C   UNL A   1      44.543  25.389  26.573  1.00  0.00     0.029 A 
ATOM     42  C   UNL A   1      44.643  26.720  27.152  1.00  0.00     0.049 A 
ATOM     43  H   UNL A   1      43.230  27.693  28.339  1.00  0.00     0.167 HD
ATOM     44  C   UNL A   1      39.937  29.905  30.235  1.00  0.00     0.034 A 
ATOM     45  C   UNL A   1      45.700  27.543  26.997  1.00  0.00     0.034 A 
ATOM     46  C   UNL A   1      41.033  30.835  30.176  1.00  0.00     0.049 A 
ATOM     47  C   UNL A   1      45.620  28.933  27.553  1.00  0.00     0.074 A 
ATOM     48  C   UNL A   1      41.111  32.110  30.709  1.00  0.00     0.029 A 
ATOM     49  N   UNL A   1      42.250  30.584  29.560  1.00  0.00    -0.354 N 
ATOM     50  N   UNL A   1      44.655  29.487  28.246  1.00  0.00    -0.248 NA
ATOM     51  C   UNL A   1      46.765  29.816  27.298  1.00  0.00     0.031 C 
ATOM     52  C   UNL A   1      42.373  32.633  30.407  1.00  0.00     0.029 A 
ATOM     53  C   UNL A   1      43.083  31.682  29.690  1.00  0.00     0.049 A 
ATOM     54  H   UNL A   1      42.487  29.748  29.097  1.00  0.00     0.167 HD
ATOM     55  C   UNL A   1      45.072  30.785  28.508  1.00  0.00     0.074 A 
ATOM     56  C   UNL A   1      46.395  30.922  27.932  1.00  0.00     0.031 C 
ATOM     57  C   UNL A   1      44.409  31.783  29.140  1.00  0.00     0.034 A 
BRANCH  44  58
ATOM     58  C   UNL A   1      38.670  30.345  30.918  1.00  0.00     0.023 A 
ATOM     59  C   UNL A   1      38.503  30.128  32.299  1.00  0.00     0.012 A 
ATOM     60  C   UNL A   1      37.672  31.038  30.201  1.00  0.00     0.148 A 
ATOM     61  C   UNL A   1      37.354  30.575  32.954  1.00  0.00     0.002 A 
ATOM     62  C   UNL A   1      36.547  31.510  30.866  1.00  0.00     0.091 A 
ATOM     63  F   UNL A   1      37.836  31.212  28.881  1.00  0.00    -0.205 F 
ATOM     64  C   UNL A   1      36.383  31.274  32.240  1.00  0.00     0.022 A 
BRANCH  62  65
ATOM     65  S   UNL A   1      35.276  32.480  30.043  1.00  0.00     0.127 S 
ATOM     66  O   UNL A   1      34.311  32.681  31.124  1.00  0.00    -0.237 OA
ATOM     67  O   UNL A   1      36.008  33.685  29.650  1.00  0.00    -0.237 OA
ATOM     68  O   UNL A   1      34.813  31.666  28.929  1.00  0.00    -0.744 OA
ENDBRANCH  62  65
ENDBRANCH  44  58
BRANCH  45  69
ATOM     69  C   UNL A   1      46.900  27.064  26.254  1.00  0.00     0.023 A 
ATOM     70  C   UNL A   1      47.027  27.362  24.885  1.00  0.00     0.012 A 
ATOM     71  C   UNL A   1      47.952  26.394  26.911  1.00  0.00     0.148 A 
ATOM     72  C   UNL A   1      48.180  27.000  24.184  1.00  0.00     0.002 A 
ATOM     73  C   UNL A   1      49.124  26.098  26.224  1.00  0.00     0.091 A 
ATOM     74  F   UNL A   1      47.803  26.086  28.208  1.00  0.00    -0.205 F 
ATOM     75  C   UNL A   1      49.235  26.387  24.857  1.00  0.00     0.022 A 
BRANCH  73  76
ATOM     76  S   UNL A   1      50.581  25.469  27.069  1.00  0.00     0.127 S 
ATOM     77  O   UNL A   1      50.891  26.558  27.990  1.00  0.00    -0.237 OA
ATOM     78  O   UNL A   1      50.071  24.252  27.704  1.00  0.00    -0.237 OA
ATOM     79  O   UNL A   1      51.556  25.221  26.014  1.00  0.00    -0.744 OA
ENDBRANCH  73  76
ENDBRANCH  45  69
BRANCH  57  80
ATOM     80  C   UNL A   1      45.098  33.116  29.232  1.00  0.00     0.023 A 
ATOM     81  C   UNL A   1      45.930  33.382  30.336  1.00  0.00     0.012 A 
ATOM     82  C   UNL A   1      44.981  34.068  28.201  1.00  0.00     0.148 A 
ATOM     83  C   UNL A   1      46.623  34.588  30.425  1.00  0.00     0.002 A 
ATOM     84  C   UNL A   1      45.704  35.252  28.278  1.00  0.00     0.091 A 
ATOM     85  F   UNL A   1      44.168  33.798  27.170  1.00  0.00    -0.205 F 
ATOM     86  C   UNL A   1      46.519  35.516  29.393  1.00  0.00     0.022 A 
BRANCH  84  87
ATOM     87  S   UNL A   1      45.692  36.474  26.963  1.00  0.00     0.127 S 
ATOM     88  O   UNL A   1      46.687  37.434  27.437  1.00  0.00    -0.237 OA
ATOM     89  O   UNL A   1      46.108  35.687  25.802  1.00  0.00    -0.237 OA
ATOM     90  O   UNL A   1      44.325  36.975  26.894  1.00  0.00    -0.744 OA
ENDBRANCH  84  87
ENDBRANCH  57  80
ENDBRANCH  31  32
ENDBRANCH  24  26
ENDBRANCH  23  24
ENDBRANCH   1  23
TORSDOF 16
ENDMDL
MODEL 2
REMARK VINA RESULT:     -11.8      4.814      9.550
REMARK SMILES CC1(C)CCSC[C@]1(Nc1ccccc1Br)C(=O)OCCOC(=O)c1ccc(-c2c3nc(c(-c4cccc(S(=O)(=O)[O-])c4F)c4ccc([nH]4)c(-c4cccc(S(=O)(=O)[O-])c4F)c4nc(c(-c5cccc(S(=O)(=O)[O-])c5F)c5ccc2[nH]5)C=C4)C=C3)cc1
REMARK SMILES IDX 21 1 20 2 19 3 17 4 18 5 8 6 1 7 2 8 3 9 4 10 5 11 7 12 6 13
REMARK SMILES IDX 9 14 10 16 11 17 15 18 12 19 14 20 16 21 13 22 22 23 23 24
REMARK SMILES IDX 24 25 25 26 26 27 87 28 27 29 86 30 28 31 29 32 30 33 80 34
REMARK SMILES IDX 31 35 85 36 79 37 81 38 32 39 84 40 78 41 77 42 33 44 65 45
REMARK SMILES IDX 45 46 64 47 46 48 49 49 63 50 82 51 47 52 48 53 62 55 83 56
REMARK SMILES IDX 50 57 34 58 35 59 43 60 36 61 38 62 44 63 37 64 39 65 40 66
REMARK SMILES IDX 41 67 42 68 66 69 67 70 75 71 68 72 70 73 76 74 69 75 71 76
REMARK SMILES IDX 72 77 73 78 74 79 51 80 52 81 60 82 53 83 55 84 61 85 54 86
REMARK SMILES IDX 56 87 57 88 58 89 59 90
REMARK H PARENT 9 15 81 43 49 54
REMARK Flexibility Score: inf
ROOT
ATOM      1  C   UNL A   1      31.977  28.886  25.582  1.00  0.00     0.275 C 
ENDROOT
BRANCH   1   2
ATOM      2  C   UNL A   1      32.164  27.702  26.527  1.00  0.00     0.274 C 
BRANCH   2   3
ATOM      3  O   UNL A   1      32.690  26.549  25.836  1.00  0.00    -0.460 OA
BRANCH   3   4
ATOM      4  C   UNL A   1      31.978  25.399  25.974  1.00  0.00     0.333 C 
ATOM      5  O   UNL A   1      31.170  25.230  26.884  1.00  0.00    -0.249 OA
BRANCH   4   6
ATOM      6  C   UNL A   1      32.385  24.260  24.959  1.00  0.00     0.150 C 
ATOM      7  C   UNL A   1      32.758  21.761  24.391  1.00  0.00     0.014 C 
ATOM      8  C   UNL A   1      32.343  22.769  25.504  1.00  0.00     0.000 C 
ATOM      9  C   UNL A   1      30.941  22.296  25.956  1.00  0.00     0.014 C 
ATOM     10  C   UNL A   1      33.293  22.608  26.721  1.00  0.00     0.020 C 
ATOM     11  C   UNL A   1      34.776  22.664  26.405  1.00  0.00     0.070 C 
ATOM     12  C   UNL A   1      33.852  24.595  24.503  1.00  0.00     0.110 C 
ATOM     13  S   UNL A   1      35.308  24.130  25.508  1.00  0.00    -0.159 SA
BRANCH   6  14
ATOM     14  N   UNL A   1      31.510  24.350  23.707  1.00  0.00    -0.368 N 
ATOM     15  H   UNL A   1      31.452  23.579  23.096  1.00  0.00     0.161 HD
BRANCH  14  16
ATOM     16  C   UNL A   1      30.788  25.519  23.421  1.00  0.00     0.049 A 
ATOM     17  C   UNL A   1      29.544  25.715  24.036  1.00  0.00     0.027 A 
ATOM     18  C   UNL A   1      31.279  26.554  22.598  1.00  0.00     0.041 A 
ATOM     19  C   UNL A   1      28.830  26.906  23.875  1.00  0.00     0.002 A 
ATOM     20  C   UNL A   1      30.589  27.768  22.478  1.00  0.00     0.018 A 
ATOM     21  Br  UNL A   1      32.880  26.367  21.591  1.00  0.00    -0.049 Br
ATOM     22  C   UNL A   1      29.366  27.943  23.119  1.00  0.00     0.001 A 
ENDBRANCH  14  16
ENDBRANCH   6  14
ENDBRANCH   4   6
ENDBRANCH   3   4
ENDBRANCH   2   3
ENDBRANCH   1   2
BRANCH   1  23
ATOM     23  O   UNL A   1      33.127  29.741  25.642  1.00  0.00    -0.458 OA
BRANCH  23  24
ATOM     24  C   UNL A   1      33.122  30.695  26.603  1.00  0.00     0.338 C 
ATOM     25  O   UNL A   1      32.259  31.535  26.793  1.00  0.00    -0.246 OA
BRANCH  24  26
ATOM     26  C   UNL A   1      34.334  30.566  27.440  1.00  0.00     0.060 A 
ATOM     27  C   UNL A   1      35.173  31.659  27.635  1.00  0.00     0.016 A 
ATOM     28  C   UNL A   1      34.696  29.322  27.954  1.00  0.00     0.016 A 
ATOM     29  C   UNL A   1      36.416  31.499  28.242  1.00  0.00     0.010 A 
ATOM     30  C   UNL A   1      35.890  29.191  28.673  1.00  0.00     0.010 A 
ATOM     31  C   UNL A   1      36.780  30.273  28.803  1.00  0.00    -0.014 A 
BRANCH  31  32
ATOM     32  C   UNL A   1      38.070  30.124  29.532  1.00  0.00     0.031 A 
ATOM     33  C   UNL A   1      39.172  29.284  28.949  1.00  0.00     0.074 A 
ATOM     34  C   UNL A   1      38.240  30.705  30.738  1.00  0.00     0.049 A 
ATOM     35  N   UNL A   1      40.223  28.778  29.538  1.00  0.00    -0.248 NA
ATOM     36  C   UNL A   1      39.069  28.952  27.517  1.00  0.00     0.031 C 
ATOM     37  C   UNL A   1      37.277  31.586  31.401  1.00  0.00     0.029 A 
ATOM     38  N   UNL A   1      39.278  30.622  31.635  1.00  0.00    -0.354 N 
ATOM     39  C   UNL A   1      40.853  27.990  28.581  1.00  0.00     0.074 A 
ATOM     40  C   UNL A   1      40.084  28.112  27.361  1.00  0.00     0.031 C 
ATOM     41  C   UNL A   1      37.770  31.973  32.585  1.00  0.00     0.029 A 
ATOM     42  C   UNL A   1      39.027  31.277  32.818  1.00  0.00     0.049 A 
ATOM     43  H   UNL A   1      40.118  30.142  31.448  1.00  0.00     0.167 HD
ATOM     44  C   UNL A   1      41.970  27.237  28.717  1.00  0.00     0.034 A 
ATOM     45  C   UNL A   1      39.686  31.263  33.994  1.00  0.00     0.034 A 
ATOM     46  C   UNL A   1      42.776  27.204  29.907  1.00  0.00     0.049 A 
ATOM     47  C   UNL A   1      40.911  30.409  34.125  1.00  0.00     0.074 A 
ATOM     48  C   UNL A   1      43.958  26.518  30.129  1.00  0.00     0.029 A 
ATOM     49  N   UNL A   1      42.493  27.900  31.073  1.00  0.00    -0.354 N 
ATOM     50  N   UNL A   1      41.502  29.673  33.215  1.00  0.00    -0.248 NA
ATOM     51  C   UNL A   1      41.555  30.371  35.444  1.00  0.00     0.031 C 
ATOM     52  C   UNL A   1      44.384  26.794  31.433  1.00  0.00     0.029 A 
ATOM     53  C   UNL A   1      43.470  27.654  32.022  1.00  0.00     0.049 A 
ATOM     54  H   UNL A   1      41.710  28.482  31.207  1.00  0.00     0.167 HD
ATOM     55  C   UNL A   1      42.585  29.080  33.850  1.00  0.00     0.074 A 
ATOM     56  C   UNL A   1      42.590  29.574  35.213  1.00  0.00     0.031 C 
ATOM     57  C   UNL A   1      43.476  28.184  33.360  1.00  0.00     0.034 A 
BRANCH  44  58
ATOM     58  C   UNL A   1      42.402  26.398  27.544  1.00  0.00     0.023 A 
ATOM     59  C   UNL A   1      43.286  26.931  26.587  1.00  0.00     0.012 A 
ATOM     60  C   UNL A   1      41.986  25.055  27.430  1.00  0.00     0.148 A 
ATOM     61  C   UNL A   1      43.734  26.148  25.521  1.00  0.00     0.002 A 
ATOM     62  C   UNL A   1      42.463  24.271  26.386  1.00  0.00     0.091 A 
ATOM     63  F   UNL A   1      41.123  24.573  28.337  1.00  0.00    -0.205 F 
ATOM     64  C   UNL A   1      43.331  24.818  25.427  1.00  0.00     0.022 A 
BRANCH  62  65
ATOM     65  S   UNL A   1      42.052  22.529  26.223  1.00  0.00     0.127 S 
ATOM     66  O   UNL A   1      42.579  21.983  27.473  1.00  0.00    -0.237 OA
ATOM     67  O   UNL A   1      40.591  22.559  26.140  1.00  0.00    -0.237 OA
ATOM     68  O   UNL A   1      42.716  22.075  25.009  1.00  0.00    -0.744 OA
ENDBRANCH  62  65
ENDBRANCH  44  58
BRANCH  45  69
ATOM     69  C   UNL A   1      39.166  32.068  35.136  1.00  0.00     0.023 A 
ATOM     70  C   UNL A   1      38.264  31.480  36.040  1.00  0.00     0.012 A 
ATOM     71  C   UNL A   1      39.625  33.379  35.379  1.00  0.00     0.148 A 
ATOM     72  C   UNL A   1      37.827  32.182  37.165  1.00  0.00     0.002 A 
ATOM     73  C   UNL A   1      39.241  34.046  36.537  1.00  0.00     0.091 A 
ATOM     74  F   UNL A   1      40.459  33.940  34.492  1.00  0.00    -0.205 F 
ATOM     75  C   UNL A   1      38.330  33.455  37.425  1.00  0.00     0.022 A 
BRANCH  73  76
ATOM     76  S   UNL A   1      39.982  35.611  37.016  1.00  0.00     0.127 S 
ATOM     77  O   UNL A   1      41.393  35.254  37.133  1.00  0.00    -0.237 OA
ATOM     78  O   UNL A   1      39.658  36.472  35.877  1.00  0.00    -0.237 OA
ATOM     79  O   UNL A   1      39.310  35.990  38.253  1.00  0.00    -0.744 OA
ENDBRANCH  73  76
ENDBRANCH  45  69
BRANCH  57  80
ATOM     80  C   UNL A   1      44.524  27.670  34.306  1.00  0.00     0.023 A 
ATOM     81  C   UNL A   1      45.746  28.361  34.415  1.00  0.00     0.012 A 
ATOM     82  C   UNL A   1      44.277  26.556  35.131  1.00  0.00     0.148 A 
ATOM     83  C   UNL A   1      46.719  27.939  35.320  1.00  0.00     0.002 A 
ATOM     84  C   UNL A   1      45.236  26.164  36.057  1.00  0.00     0.091 A 
ATOM     85  F   UNL A   1      43.114  25.904  34.994  1.00  0.00    -0.205 F 
ATOM     86  C   UNL A   1      46.459  26.850  36.147  1.00  0.00     0.022 A 
BRANCH  84  87
ATOM     87  S   UNL A   1      44.962  24.820  37.215  1.00  0.00     0.127 S 
ATOM     88  O   UNL A   1      44.807  23.678  36.317  1.00  0.00    -0.237 OA
ATOM     89  O   UNL A   1      46.202  24.820  37.992  1.00  0.00    -0.237 OA
ATOM     90  O   UNL A   1      43.774  25.182  37.977  1.00  0.00    -0.744 OA
ENDBRANCH  84  87
ENDBRANCH  57  80
ENDBRANCH  31  32
ENDBRANCH  24  26
ENDBRANCH  23  24
ENDBRANCH   1  23
TORSDOF 16
ENDMDL
MODEL 3
REMARK VINA RESULT:     -11.7      1.153      2.556
REMARK SMILES CC1(C)CCSC[C@]1(Nc1ccccc1Br)C(=O)OCCOC(=O)c1ccc(-c2c3nc(c(-c4cccc(S(=O)(=O)[O-])c4F)c4ccc([nH]4)c(-c4cccc(S(=O)(=O)[O-])c4F)c4nc(c(-c5cccc(S(=O)(=O)[O-])c5F)c5ccc2[nH]5)C=C4)C=C3)cc1
REMARK SMILES IDX 21 1 20 2 19 3 17 4 18 5 8 6 1 7 2 8 3 9 4 10 5 11 7 12 6 13
REMARK SMILES IDX 9 14 10 16 11 17 15 18 12 19 14 20 16 21 13 22 22 23 23 24
REMARK SMILES IDX 24 25 25 26 26 27 87 28 27 29 86 30 28 31 29 32 30 33 80 34
REMARK SMILES IDX 31 35 85 36 79 37 81 38 32 39 84 40 78 41 77 42 33 44 65 45
REMARK SMILES IDX 45 46 64 47 46 48 49 49 63 50 82 51 47 52 48 53 62 55 83 56
REMARK SMILES IDX 50 57 34 58 35 59 43 60 36 61 38 62 44 63 37 64 39 65 40 66
REMARK SMILES IDX 41 67 42 68 66 69 67 70 75 71 68 72 70 73 76 74 69 75 71 76
REMARK SMILES IDX 72 77 73 78 74 79 51 80 52 81 60 82 53 83 55 84 61 85 54 86
REMARK SMILES IDX 56 87 57 88 58 89 59 90
REMARK H PARENT 9 15 81 43 49 54
REMARK Flexibility Score: inf
ROOT
ATOM      1  C   UNL A   1      36.230  21.826  24.271  1.00  0.00     0.275 C 
ENDROOT
BRANCH   1   2
ATOM      2  C   UNL A   1      36.146  23.246  23.718  1.00  0.00     0.274 C 
BRANCH   2   3
ATOM      3  O   UNL A   1      35.077  23.994  24.337  1.00  0.00    -0.460 OA
BRANCH   3   4
ATOM      4  C   UNL A   1      34.033  24.317  23.528  1.00  0.00     0.333 C 
ATOM      5  O   UNL A   1      34.137  24.362  22.306  1.00  0.00    -0.249 OA
BRANCH   4   6
ATOM      6  C   UNL A   1      32.730  24.764  24.300  1.00  0.00     0.150 C 
ATOM      7  C   UNL A   1      30.603  26.228  24.493  1.00  0.00     0.014 C 
ATOM      8  C   UNL A   1      31.854  25.902  23.624  1.00  0.00     0.000 C 
ATOM      9  C   UNL A   1      31.280  25.524  22.238  1.00  0.00     0.014 C 
ATOM     10  C   UNL A   1      32.694  27.194  23.432  1.00  0.00     0.020 C 
ATOM     11  C   UNL A   1      33.045  27.940  24.706  1.00  0.00     0.070 C 
ATOM     12  C   UNL A   1      33.216  25.264  25.710  1.00  0.00     0.110 C 
ATOM     13  S   UNL A   1      33.869  26.954  25.965  1.00  0.00    -0.159 SA
BRANCH   6  14
ATOM     14  N   UNL A   1      31.840  23.545  24.555  1.00  0.00    -0.368 N 
ATOM     15  H   UNL A   1      30.860  23.646  24.540  1.00  0.00     0.161 HD
BRANCH  14  16
ATOM     16  C   UNL A   1      32.406  22.287  24.810  1.00  0.00     0.049 A 
ATOM     17  C   UNL A   1      32.900  22.013  26.092  1.00  0.00     0.027 A 
ATOM     18  C   UNL A   1      32.440  21.243  23.862  1.00  0.00     0.041 A 
ATOM     19  C   UNL A   1      33.375  20.744  26.435  1.00  0.00     0.002 A 
ATOM     20  C   UNL A   1      32.867  19.958  24.219  1.00  0.00     0.018 A 
ATOM     21  Br  UNL A   1      31.937  21.513  22.049  1.00  0.00    -0.049 Br
ATOM     22  C   UNL A   1      33.332  19.709  25.507  1.00  0.00     0.001 A 
ENDBRANCH  14  16
ENDBRANCH   6  14
ENDBRANCH   4   6
ENDBRANCH   3   4
ENDBRANCH   2   3
ENDBRANCH   1   2
BRANCH   1  23
ATOM     23  O   UNL A   1      36.770  21.855  25.600  1.00  0.00    -0.458 OA
BRANCH  23  24
ATOM     24  C   UNL A   1      38.074  21.515  25.730  1.00  0.00     0.338 C 
ATOM     25  O   UNL A   1      38.596  20.472  25.371  1.00  0.00    -0.246 OA
BRANCH  24  26
ATOM     26  C   UNL A   1      38.818  22.623  26.365  1.00  0.00     0.060 A 
ATOM     27  C   UNL A   1      38.445  23.944  26.131  1.00  0.00     0.016 A 
ATOM     28  C   UNL A   1      39.959  22.355  27.118  1.00  0.00     0.016 A 
ATOM     29  C   UNL A   1      39.257  24.994  26.550  1.00  0.00     0.010 A 
ATOM     30  C   UNL A   1      40.707  23.416  27.644  1.00  0.00     0.010 A 
ATOM     31  C   UNL A   1      40.380  24.751  27.344  1.00  0.00    -0.014 A 
BRANCH  31  32
ATOM     32  C   UNL A   1      41.199  25.878  27.868  1.00  0.00     0.031 A 
ATOM     33  C   UNL A   1      40.568  26.925  28.743  1.00  0.00     0.074 A 
ATOM     34  C   UNL A   1      42.500  25.990  27.526  1.00  0.00     0.049 A 
ATOM     35  N   UNL A   1      41.002  28.122  29.042  1.00  0.00    -0.248 NA
ATOM     36  C   UNL A   1      39.267  26.592  29.347  1.00  0.00     0.031 C 
ATOM     37  C   UNL A   1      43.255  25.024  26.725  1.00  0.00     0.029 A 
ATOM     38  N   UNL A   1      43.414  26.983  27.788  1.00  0.00    -0.354 N 
ATOM     39  C   UNL A   1      39.989  28.720  29.783  1.00  0.00     0.074 A 
ATOM     40  C   UNL A   1      38.931  27.742  29.918  1.00  0.00     0.031 C 
ATOM     41  C   UNL A   1      44.513  25.458  26.574  1.00  0.00     0.029 A 
ATOM     42  C   UNL A   1      44.623  26.785  27.162  1.00  0.00     0.049 A 
ATOM     43  H   UNL A   1      43.222  27.757  28.365  1.00  0.00     0.167 HD
ATOM     44  C   UNL A   1      39.953  29.970  30.299  1.00  0.00     0.034 A 
ATOM     45  C   UNL A   1      45.682  27.604  27.005  1.00  0.00     0.034 A 
ATOM     46  C   UNL A   1      41.052  30.896  30.239  1.00  0.00     0.049 A 
ATOM     47  C   UNL A   1      45.613  28.991  27.572  1.00  0.00     0.074 A 
ATOM     48  C   UNL A   1      41.140  32.167  30.780  1.00  0.00     0.029 A 
ATOM     49  N   UNL A   1      42.264  30.643  29.613  1.00  0.00    -0.354 N 
ATOM     50  N   UNL A   1      44.655  29.545  28.275  1.00  0.00    -0.248 NA
ATOM     51  C   UNL A   1      46.760  29.870  27.315  1.00  0.00     0.031 C 
ATOM     52  C   UNL A   1      42.403  32.686  30.473  1.00  0.00     0.029 A 
ATOM     53  C   UNL A   1      43.103  31.737  29.745  1.00  0.00     0.049 A 
ATOM     54  H   UNL A   1      42.494  29.809  29.143  1.00  0.00     0.167 HD
ATOM     55  C   UNL A   1      45.080  30.839  28.543  1.00  0.00     0.074 A 
ATOM     56  C   UNL A   1      46.399  30.974  27.959  1.00  0.00     0.031 C 
ATOM     57  C   UNL A   1      44.426  31.836  29.187  1.00  0.00     0.034 A 
BRANCH  44  58
ATOM     58  C   UNL A   1      38.692  30.412  30.993  1.00  0.00     0.023 A 
ATOM     59  C   UNL A   1      38.545  30.210  32.379  1.00  0.00     0.012 A 
ATOM     60  C   UNL A   1      37.681  31.091  30.282  1.00  0.00     0.148 A 
ATOM     61  C   UNL A   1      37.403  30.658  33.044  1.00  0.00     0.002 A 
ATOM     62  C   UNL A   1      36.562  31.565  30.956  1.00  0.00     0.091 A 
ATOM     63  F   UNL A   1      37.827  31.250  28.958  1.00  0.00    -0.205 F 
ATOM     64  C   UNL A   1      36.418  31.343  32.335  1.00  0.00     0.022 A 
BRANCH  62  65
ATOM     65  S   UNL A   1      35.276  32.518  30.139  1.00  0.00     0.127 S 
ATOM     66  O   UNL A   1      34.322  32.723  31.229  1.00  0.00    -0.237 OA
ATOM     67  O   UNL A   1      35.995  33.724  29.726  1.00  0.00    -0.237 OA
ATOM     68  O   UNL A   1      34.805  31.690  29.039  1.00  0.00    -0.744 OA
ENDBRANCH  62  65
ENDBRANCH  44  58
BRANCH  45  69
ATOM     69  C   UNL A   1      46.875  27.125  26.251  1.00  0.00     0.023 A 
ATOM     70  C   UNL A   1      47.000  27.441  24.886  1.00  0.00     0.012 A 
ATOM     71  C   UNL A   1      47.923  26.436  26.894  1.00  0.00     0.148 A 
ATOM     72  C   UNL A   1      48.147  27.079  24.176  1.00  0.00     0.002 A 
ATOM     73  C   UNL A   1      49.090  26.139  26.199  1.00  0.00     0.091 A 
ATOM     74  F   UNL A   1      47.776  26.111  28.187  1.00  0.00    -0.205 F 
ATOM     75  C   UNL A   1      49.199  26.447  24.835  1.00  0.00     0.022 A 
BRANCH  73  76
ATOM     76  S   UNL A   1      50.544  25.484  27.029  1.00  0.00     0.127 S 
ATOM     77  O   UNL A   1      51.464  25.282  25.913  1.00  0.00    -0.237 OA
ATOM     78  O   UNL A   1      50.905  26.576  27.934  1.00  0.00    -0.237 OA
ATOM     79  O   UNL A   1      50.084  24.279  27.709  1.00  0.00    -0.744 OA
ENDBRANCH  73  76
ENDBRANCH  45  69
BRANCH  57  80
ATOM     80  C   UNL A   1      45.122  33.164  29.283  1.00  0.00     0.023 A 
ATOM     81  C   UNL A   1      45.968  33.417  30.379  1.00  0.00     0.012 A 
ATOM     82  C   UNL A   1      44.996  34.127  28.263  1.00  0.00     0.148 A 
ATOM     83  C   UNL A   1      46.668  34.619  30.471  1.00  0.00     0.002 A 
ATOM     84  C   UNL A   1      45.725  35.308  28.343  1.00  0.00     0.091 A 
ATOM     85  F   UNL A   1      44.169  33.871  27.240  1.00  0.00    -0.205 F 
ATOM     86  C   UNL A   1      46.555  35.557  29.449  1.00  0.00     0.022 A 
BRANCH  84  87
ATOM     87  S   UNL A   1      45.702  36.543  27.040  1.00  0.00     0.127 S 
ATOM     88  O   UNL A   1      46.682  37.511  27.527  1.00  0.00    -0.237 OA
ATOM     89  O   UNL A   1      46.133  35.773  25.873  1.00  0.00    -0.237 OA
ATOM     90  O   UNL A   1      44.329  37.026  26.969  1.00  0.00    -0.744 OA
ENDBRANCH  84  87
ENDBRANCH  57  80
ENDBRANCH  31  32
ENDBRANCH  24  26
ENDBRANCH  23  24
ENDBRANCH   1  23
TORSDOF 16
ENDMDL
