MODEL 1
REMARK VINA RESULT:     -10.9      0.000      0.000
REMARK SMILES C[N@H+]1CCO[C@@H](C[N@H+]2CCCC[C@@H]2CCC(=O)OCCOC(=O)c2ccc(-c3c4nc(c(-c5cccc(S(=O)(=O)[O-])c5F)c5ccc([nH]5)c(-c5cccc(S(=O)(=O)[O-])c5F)c5nc(c(-c6cccc(S(=O)(=O)[O-])c6F)c6ccc3[nH]6)C=C5)C=C4)cc2)C1
REMARK SMILES IDX 19 1 18 2 16 3 17 4 15 5 14 6 13 7 8 8 9 9 10 11 12 12 11 13
REMARK SMILES IDX 7 14 6 15 1 16 2 17 3 18 87 19 4 21 5 22 20 23 21 24 22 25
REMARK SMILES IDX 23 26 24 27 25 28 86 29 26 30 85 31 27 32 28 33 29 34 79 35
REMARK SMILES IDX 30 36 84 37 78 38 80 39 31 40 83 41 77 42 76 43 32 45 64 46
REMARK SMILES IDX 44 47 63 48 45 49 48 50 62 51 81 52 46 53 47 54 61 56 82 57
REMARK SMILES IDX 49 58 33 59 34 60 42 61 35 62 37 63 43 64 36 65 38 66 39 67
REMARK SMILES IDX 40 68 41 69 65 70 66 71 74 72 67 73 69 74 75 75 68 76 70 77
REMARK SMILES IDX 71 78 72 79 73 80 50 81 51 82 59 83 52 84 54 85 60 86 53 87
REMARK SMILES IDX 55 88 56 89 57 90 58 91
REMARK H PARENT 8 10 2 20 80 44 48 55
REMARK Flexibility Score: inf
ROOT
ATOM      1  C   UNL A   1      37.542  20.237  25.026  1.00  0.00     0.274 C 
ENDROOT
BRANCH   1   2
ATOM      2  O   UNL A   1      37.821  21.504  24.401  1.00  0.00    -0.462 OA
BRANCH   2   3
ATOM      3  C   UNL A   1      37.293  22.607  24.983  1.00  0.00     0.306 C 
ATOM      4  O   UNL A   1      37.529  22.980  26.124  1.00  0.00    -0.252 OA
BRANCH   3   5
ATOM      5  C   UNL A   1      36.359  23.365  24.067  1.00  0.00     0.129 C 
BRANCH   5   6
ATOM      6  C   UNL A   1      34.943  22.797  23.901  1.00  0.00     0.077 C 
BRANCH   6   7
ATOM      7  C   UNL A   1      34.524  21.745  24.968  1.00  0.00     0.184 C 
ATOM      8  N   UNL A   1      33.612  20.758  24.375  1.00  0.00    -0.330 N 
ATOM      9  C   UNL A   1      32.268  21.234  24.071  1.00  0.00     0.262 C 
ATOM     10  H   UNL A   1      34.012  20.672  23.441  1.00  0.00     0.348 HD
ATOM     11  C   UNL A   1      31.604  22.080  25.159  1.00  0.00     0.062 C 
ATOM     12  C   UNL A   1      33.882  22.393  26.203  1.00  0.00     0.065 C 
ATOM     13  C   UNL A   1      32.549  23.049  25.863  1.00  0.00     0.012 C 
BRANCH   8  14
ATOM     14  C   UNL A   1      33.764  19.350  24.774  1.00  0.00     0.300 C 
BRANCH  14  15
ATOM     15  C   UNL A   1      32.989  18.226  24.033  1.00  0.00     0.228 C 
ATOM     16  C   UNL A   1      35.344  16.289  25.207  1.00  0.00     0.332 C 
ATOM     17  N   UNL A   1      34.209  15.964  24.353  1.00  0.00    -0.333 N 
ATOM     18  C   UNL A   1      33.026  15.556  25.125  1.00  0.00     0.290 C 
ATOM     19  C   UNL A   1      33.821  17.061  23.449  1.00  0.00     0.300 C 
ATOM     20  H   UNL A   1      34.537  15.181  23.788  1.00  0.00     0.348 HD
ATOM     21  C   UNL A   1      32.300  16.733  25.792  1.00  0.00     0.222 C 
ATOM     22  O   UNL A   1      31.897  17.722  24.840  1.00  0.00    -0.361 OA
ENDBRANCH  14  15
ENDBRANCH   8  14
ENDBRANCH   6   7
ENDBRANCH   5   6
ENDBRANCH   3   5
ENDBRANCH   2   3
ENDBRANCH   1   2
BRANCH   1  23
ATOM     23  C   UNL A   1      38.843  19.455  25.196  1.00  0.00     0.275 C 
BRANCH  23  24
ATOM     24  O   UNL A   1      39.445  19.782  26.462  1.00  0.00    -0.458 OA
BRANCH  24  25
ATOM     25  C   UNL A   1      40.791  19.910  26.455  1.00  0.00     0.338 C 
ATOM     26  O   UNL A   1      41.619  19.095  26.079  1.00  0.00    -0.246 OA
BRANCH  25  27
ATOM     27  C   UNL A   1      41.131  21.291  26.820  1.00  0.00     0.060 A 
ATOM     28  C   UNL A   1      40.829  22.289  25.894  1.00  0.00     0.016 A 
ATOM     29  C   UNL A   1      41.788  21.604  28.007  1.00  0.00     0.016 A 
ATOM     30  C   UNL A   1      41.161  23.615  26.149  1.00  0.00     0.010 A 
ATOM     31  C   UNL A   1      42.122  22.939  28.267  1.00  0.00     0.010 A 
ATOM     32  C   UNL A   1      41.815  23.952  27.339  1.00  0.00    -0.014 A 
BRANCH  32  33
ATOM     33  C   UNL A   1      42.226  25.359  27.570  1.00  0.00     0.031 A 
ATOM     34  C   UNL A   1      43.575  25.828  27.106  1.00  0.00     0.074 A 
ATOM     35  C   UNL A   1      41.384  26.217  28.176  1.00  0.00     0.049 A 
ATOM     36  N   UNL A   1      44.156  26.985  27.289  1.00  0.00    -0.248 NA
ATOM     37  C   UNL A   1      44.380  24.867  26.333  1.00  0.00     0.031 C 
ATOM     38  C   UNL A   1      40.037  25.885  28.646  1.00  0.00     0.029 A 
ATOM     39  N   UNL A   1      41.538  27.539  28.509  1.00  0.00    -0.354 N 
ATOM     40  C   UNL A   1      45.413  26.874  26.710  1.00  0.00     0.074 A 
ATOM     41  C   UNL A   1      45.508  25.541  26.156  1.00  0.00     0.031 C 
ATOM     42  C   UNL A   1      39.489  26.975  29.208  1.00  0.00     0.029 A 
ATOM     43  C   UNL A   1      40.460  28.065  29.183  1.00  0.00     0.049 A 
ATOM     44  H   UNL A   1      42.342  28.062  28.287  1.00  0.00     0.167 HD
ATOM     45  C   UNL A   1      46.395  27.804  26.637  1.00  0.00     0.034 A 
ATOM     46  C   UNL A   1      40.285  29.279  29.742  1.00  0.00     0.034 A 
ATOM     47  C   UNL A   1      46.274  29.147  27.137  1.00  0.00     0.049 A 
ATOM     48  C   UNL A   1      41.392  30.294  29.642  1.00  0.00     0.074 A 
ATOM     49  C   UNL A   1      47.201  30.173  27.081  1.00  0.00     0.029 A 
ATOM     50  N   UNL A   1      45.154  29.654  27.780  1.00  0.00    -0.354 N 
ATOM     51  N   UNL A   1      42.549  30.195  29.035  1.00  0.00    -0.248 NA
ATOM     52  C   UNL A   1      41.162  31.594  30.290  1.00  0.00     0.031 C 
ATOM     53  C   UNL A   1      46.643  31.300  27.696  1.00  0.00     0.029 A 
ATOM     54  C   UNL A   1      45.366  30.977  28.127  1.00  0.00     0.049 A 
ATOM     55  H   UNL A   1      44.330  29.147  27.962  1.00  0.00     0.167 HD
ATOM     56  C   UNL A   1      43.181  31.420  29.215  1.00  0.00     0.074 A 
ATOM     57  C   UNL A   1      42.262  32.258  29.959  1.00  0.00     0.031 C 
ATOM     58  C   UNL A   1      44.420  31.810  28.825  1.00  0.00     0.034 A 
BRANCH  45  59
ATOM     59  C   UNL A   1      47.683  27.404  25.970  1.00  0.00     0.023 A 
ATOM     60  C   UNL A   1      48.713  26.821  26.735  1.00  0.00     0.012 A 
ATOM     61  C   UNL A   1      47.856  27.564  24.581  1.00  0.00     0.148 A 
ATOM     62  C   UNL A   1      49.907  26.428  26.131  1.00  0.00     0.002 A 
ATOM     63  C   UNL A   1      49.036  27.138  23.981  1.00  0.00     0.091 A 
ATOM     64  F   UNL A   1      46.876  28.147  23.876  1.00  0.00    -0.205 F 
ATOM     65  C   UNL A   1      50.066  26.578  24.756  1.00  0.00     0.022 A 
BRANCH  63  66
ATOM     66  S   UNL A   1      49.303  27.231  22.207  1.00  0.00     0.127 S 
ATOM     67  O   UNL A   1      50.737  26.968  22.109  1.00  0.00    -0.237 OA
ATOM     68  O   UNL A   1      48.450  26.152  21.708  1.00  0.00    -0.237 OA
ATOM     69  O   UNL A   1      48.877  28.566  21.812  1.00  0.00    -0.744 OA
ENDBRANCH  63  66
ENDBRANCH  45  59
BRANCH  46  70
ATOM     70  C   UNL A   1      39.000  29.606  30.424  1.00  0.00     0.023 A 
ATOM     71  C   UNL A   1      38.766  29.127  31.727  1.00  0.00     0.012 A 
ATOM     72  C   UNL A   1      38.029  30.419  29.807  1.00  0.00     0.148 A 
ATOM     73  C   UNL A   1      37.581  29.439  32.396  1.00  0.00     0.002 A 
ATOM     74  C   UNL A   1      36.878  30.774  30.501  1.00  0.00     0.091 A 
ATOM     75  F   UNL A   1      38.254  30.841  28.554  1.00  0.00    -0.205 F 
ATOM     76  C   UNL A   1      36.645  30.274  31.791  1.00  0.00     0.022 A 
BRANCH  74  77
ATOM     77  S   UNL A   1      35.697  31.957  29.843  1.00  0.00     0.127 S 
ATOM     78  O   UNL A   1      35.139  31.224  28.709  1.00  0.00    -0.237 OA
ATOM     79  O   UNL A   1      34.781  32.139  30.969  1.00  0.00    -0.237 OA
ATOM     80  O   UNL A   1      36.481  33.141  29.516  1.00  0.00    -0.744 OA
ENDBRANCH  74  77
ENDBRANCH  46  70
BRANCH  58  81
ATOM     81  C   UNL A   1      44.854  33.204  29.188  1.00  0.00     0.023 A 
ATOM     82  C   UNL A   1      45.483  33.431  30.428  1.00  0.00     0.012 A 
ATOM     83  C   UNL A   1      44.703  34.272  28.282  1.00  0.00     0.148 A 
ATOM     84  C   UNL A   1      45.931  34.705  30.773  1.00  0.00     0.002 A 
ATOM     85  C   UNL A   1      45.188  35.531  28.616  1.00  0.00     0.091 A 
ATOM     86  F   UNL A   1      44.079  34.042  27.117  1.00  0.00    -0.205 F 
ATOM     87  C   UNL A   1      45.794  35.752  29.864  1.00  0.00     0.022 A 
BRANCH  85  88
ATOM     88  S   UNL A   1      45.128  36.911  27.466  1.00  0.00     0.127 S 
ATOM     89  O   UNL A   1      45.697  37.993  28.267  1.00  0.00    -0.237 OA
ATOM     90  O   UNL A   1      45.983  36.448  26.372  1.00  0.00    -0.237 OA
ATOM     91  O   UNL A   1      43.724  37.061  27.106  1.00  0.00    -0.744 OA
ENDBRANCH  85  88
ENDBRANCH  58  81
ENDBRANCH  32  33
ENDBRANCH  25  27
ENDBRANCH  24  25
ENDBRANCH  23  24
ENDBRANCH   1  23
TORSDOF 18
ENDMDL
MODEL 2
REMARK VINA RESULT:     -10.7      5.371      8.134
REMARK SMILES C[N@H+]1CCO[C@@H](C[N@H+]2CCCC[C@@H]2CCC(=O)OCCOC(=O)c2ccc(-c3c4nc(c(-c5cccc(S(=O)(=O)[O-])c5F)c5ccc([nH]5)c(-c5cccc(S(=O)(=O)[O-])c5F)c5nc(c(-c6cccc(S(=O)(=O)[O-])c6F)c6ccc3[nH]6)C=C5)C=C4)cc2)C1
REMARK SMILES IDX 19 1 18 2 16 3 17 4 15 5 14 6 13 7 8 8 9 9 10 11 12 12 11 13
REMARK SMILES IDX 7 14 6 15 1 16 2 17 3 18 87 19 4 21 5 22 20 23 21 24 22 25
REMARK SMILES IDX 23 26 24 27 25 28 86 29 26 30 85 31 27 32 28 33 29 34 79 35
REMARK SMILES IDX 30 36 84 37 78 38 80 39 31 40 83 41 77 42 76 43 32 45 64 46
REMARK SMILES IDX 44 47 63 48 45 49 48 50 62 51 81 52 46 53 47 54 61 56 82 57
REMARK SMILES IDX 49 58 33 59 34 60 42 61 35 62 37 63 43 64 36 65 38 66 39 67
REMARK SMILES IDX 40 68 41 69 65 70 66 71 74 72 67 73 69 74 75 75 68 76 70 77
REMARK SMILES IDX 71 78 72 79 73 80 50 81 51 82 59 83 52 84 54 85 60 86 53 87
REMARK SMILES IDX 55 88 56 89 57 90 58 91
REMARK H PARENT 8 10 2 20 80 44 48 55
REMARK Flexibility Score: inf
ROOT
ATOM      1  C   UNL A   1      31.798  29.203  24.048  1.00  0.00     0.274 C 
ENDROOT
BRANCH   1   2
ATOM      2  O   UNL A   1      33.190  28.872  23.896  1.00  0.00    -0.462 OA
BRANCH   2   3
ATOM      3  C   UNL A   1      33.484  27.617  23.480  1.00  0.00     0.306 C 
ATOM      4  O   UNL A   1      33.365  27.212  22.332  1.00  0.00    -0.252 OA
BRANCH   3   5
ATOM      5  C   UNL A   1      33.992  26.732  24.596  1.00  0.00     0.129 C 
BRANCH   5   6
ATOM      6  C   UNL A   1      33.036  26.483  25.771  1.00  0.00     0.077 C 
BRANCH   6   7
ATOM      7  C   UNL A   1      32.880  24.993  26.190  1.00  0.00     0.184 C 
ATOM      8  N   UNL A   1      33.182  24.112  25.054  1.00  0.00    -0.330 N 
ATOM      9  C   UNL A   1      32.193  24.091  23.984  1.00  0.00     0.262 C 
ATOM     10  H   UNL A   1      33.944  24.630  24.615  1.00  0.00     0.348 HD
ATOM     11  C   UNL A   1      30.733  24.001  24.434  1.00  0.00     0.062 C 
ATOM     12  C   UNL A   1      31.482  24.688  26.746  1.00  0.00     0.065 C 
ATOM     13  C   UNL A   1      30.409  24.830  25.673  1.00  0.00     0.012 C 
BRANCH   8  14
ATOM     14  C   UNL A   1      33.928  22.873  25.320  1.00  0.00     0.300 C 
BRANCH  14  15
ATOM     15  C   UNL A   1      34.736  22.173  24.192  1.00  0.00     0.228 C 
ATOM     16  C   UNL A   1      37.292  23.706  25.531  1.00  0.00     0.332 C 
ATOM     17  N   UNL A   1      37.233  22.838  24.361  1.00  0.00    -0.333 N 
ATOM     18  C   UNL A   1      37.476  21.428  24.698  1.00  0.00     0.290 C 
ATOM     19  C   UNL A   1      35.960  22.930  23.626  1.00  0.00     0.300 C 
ATOM     20  H   UNL A   1      37.980  23.182  23.758  1.00  0.00     0.348 HD
ATOM     21  C   UNL A   1      36.276  20.748  25.373  1.00  0.00     0.222 C 
ATOM     22  O   UNL A   1      35.097  20.821  24.566  1.00  0.00    -0.361 OA
ENDBRANCH  14  15
ENDBRANCH   8  14
ENDBRANCH   6   7
ENDBRANCH   5   6
ENDBRANCH   3   5
ENDBRANCH   2   3
ENDBRANCH   1   2
BRANCH   1  23
ATOM     23  C   UNL A   1      31.612  30.073  25.289  1.00  0.00     0.275 C 
BRANCH  23  24
ATOM     24  O   UNL A   1      32.776  29.975  26.130  1.00  0.00    -0.458 OA
BRANCH  24  25
ATOM     25  C   UNL A   1      33.074  31.082  26.849  1.00  0.00     0.338 C 
ATOM     26  O   UNL A   1      32.362  32.052  27.060  1.00  0.00    -0.246 OA
BRANCH  25  27
ATOM     27  C   UNL A   1      34.366  30.874  27.513  1.00  0.00     0.060 A 
ATOM     28  C   UNL A   1      34.706  29.565  27.855  1.00  0.00     0.016 A 
ATOM     29  C   UNL A   1      35.203  31.933  27.854  1.00  0.00     0.016 A 
ATOM     30  C   UNL A   1      35.893  29.294  28.525  1.00  0.00     0.010 A 
ATOM     31  C   UNL A   1      36.401  31.663  28.528  1.00  0.00     0.010 A 
ATOM     32  C   UNL A   1      36.752  30.343  28.873  1.00  0.00    -0.014 A 
BRANCH  32  33
ATOM     33  C   UNL A   1      37.982  30.051  29.648  1.00  0.00     0.031 A 
ATOM     34  C   UNL A   1      39.046  29.170  29.055  1.00  0.00     0.074 A 
ATOM     35  C   UNL A   1      38.155  30.591  30.869  1.00  0.00     0.049 A 
ATOM     36  N   UNL A   1      40.146  28.724  29.601  1.00  0.00    -0.248 NA
ATOM     37  C   UNL A   1      38.842  28.731  27.665  1.00  0.00     0.031 C 
ATOM     38  C   UNL A   1      37.207  31.484  31.537  1.00  0.00     0.029 A 
ATOM     39  N   UNL A   1      39.183  30.460  31.769  1.00  0.00    -0.354 N 
ATOM     40  C   UNL A   1      40.737  27.905  28.646  1.00  0.00     0.074 A 
ATOM     41  C   UNL A   1      39.879  27.927  27.481  1.00  0.00     0.031 C 
ATOM     42  C   UNL A   1      37.696  31.819  32.743  1.00  0.00     0.029 A 
ATOM     43  C   UNL A   1      38.965  31.128  32.952  1.00  0.00     0.049 A 
ATOM     44  H   UNL A   1      39.998  29.939  31.587  1.00  0.00     0.167 HD
ATOM     45  C   UNL A   1      41.895  27.208  28.730  1.00  0.00     0.034 A 
ATOM     46  C   UNL A   1      39.692  31.159  34.086  1.00  0.00     0.034 A 
ATOM     47  C   UNL A   1      42.774  27.237  29.869  1.00  0.00     0.049 A 
ATOM     48  C   UNL A   1      40.977  30.378  34.150  1.00  0.00     0.074 A 
ATOM     49  C   UNL A   1      43.986  26.591  30.036  1.00  0.00     0.029 A 
ATOM     50  N   UNL A   1      42.538  27.954  31.032  1.00  0.00    -0.354 N 
ATOM     51  N   UNL A   1      41.554  29.661  33.216  1.00  0.00    -0.248 NA
ATOM     52  C   UNL A   1      41.720  30.423  35.418  1.00  0.00     0.031 C 
ATOM     53  C   UNL A   1      44.482  26.914  31.305  1.00  0.00     0.029 A 
ATOM     54  C   UNL A   1      43.581  27.767  31.924  1.00  0.00     0.049 A 
ATOM     55  H   UNL A   1      41.746  28.515  31.199  1.00  0.00     0.167 HD
ATOM     56  C   UNL A   1      42.732  29.181  33.776  1.00  0.00     0.074 A 
ATOM     57  C   UNL A   1      42.803  29.717  35.121  1.00  0.00     0.031 C 
ATOM     58  C   UNL A   1      43.657  28.349  33.239  1.00  0.00     0.034 A 
BRANCH  45  59
ATOM     59  C   UNL A   1      42.290  26.371  27.544  1.00  0.00     0.023 A 
ATOM     60  C   UNL A   1      43.062  26.942  26.513  1.00  0.00     0.012 A 
ATOM     61  C   UNL A   1      41.934  25.010  27.471  1.00  0.00     0.148 A 
ATOM     62  C   UNL A   1      43.452  26.178  25.414  1.00  0.00     0.002 A 
ATOM     63  C   UNL A   1      42.356  24.246  26.389  1.00  0.00     0.091 A 
ATOM     64  F   UNL A   1      41.175  24.493  28.447  1.00  0.00    -0.205 F 
ATOM     65  C   UNL A   1      43.107  24.830  25.355  1.00  0.00     0.022 A 
BRANCH  63  66
ATOM     66  S   UNL A   1      42.015  22.487  26.261  1.00  0.00     0.127 S 
ATOM     67  O   UNL A   1      42.674  22.148  25.002  1.00  0.00    -0.237 OA
ATOM     68  O   UNL A   1      42.672  21.955  27.455  1.00  0.00    -0.237 OA
ATOM     69  O   UNL A   1      40.564  22.362  26.267  1.00  0.00    -0.744 OA
ENDBRANCH  63  66
ENDBRANCH  45  59
BRANCH  46  70
ATOM     70  C   UNL A   1      39.230  31.978  35.244  1.00  0.00     0.023 A 
ATOM     71  C   UNL A   1      38.348  31.413  36.184  1.00  0.00     0.012 A 
ATOM     72  C   UNL A   1      39.690  33.295  35.440  1.00  0.00     0.148 A 
ATOM     73  C   UNL A   1      37.921  32.151  37.290  1.00  0.00     0.002 A 
ATOM     74  C   UNL A   1      39.307  34.003  36.573  1.00  0.00     0.091 A 
ATOM     75  F   UNL A   1      40.506  33.829  34.518  1.00  0.00    -0.205 F 
ATOM     76  C   UNL A   1      38.411  33.438  37.493  1.00  0.00     0.022 A 
BRANCH  74  77
ATOM     77  S   UNL A   1      40.007  35.609  36.973  1.00  0.00     0.127 S 
ATOM     78  O   UNL A   1      41.434  35.306  37.035  1.00  0.00    -0.237 OA
ATOM     79  O   UNL A   1      39.598  36.419  35.826  1.00  0.00    -0.237 OA
ATOM     80  O   UNL A   1      39.381  35.997  38.230  1.00  0.00    -0.744 OA
ENDBRANCH  74  77
ENDBRANCH  46  70
BRANCH  58  81
ATOM     81  C   UNL A   1      44.832  27.971  34.100  1.00  0.00     0.023 A 
ATOM     82  C   UNL A   1      45.971  28.801  34.118  1.00  0.00     0.012 A 
ATOM     83  C   UNL A   1      44.787  26.840  34.938  1.00  0.00     0.148 A 
ATOM     84  C   UNL A   1      47.057  28.496  34.937  1.00  0.00     0.002 A 
ATOM     85  C   UNL A   1      45.856  26.565  35.782  1.00  0.00     0.091 A 
ATOM     86  F   UNL A   1      43.704  26.049  34.889  1.00  0.00    -0.205 F 
ATOM     87  C   UNL A   1      46.996  27.386  35.776  1.00  0.00     0.022 A 
BRANCH  85  88
ATOM     88  S   UNL A   1      45.818  25.205  36.955  1.00  0.00     0.127 S 
ATOM     89  O   UNL A   1      45.768  24.045  36.067  1.00  0.00    -0.237 OA
ATOM     90  O   UNL A   1      47.084  25.369  37.671  1.00  0.00    -0.237 OA
ATOM     91  O   UNL A   1      44.634  25.426  37.774  1.00  0.00    -0.744 OA
ENDBRANCH  85  88
ENDBRANCH  58  81
ENDBRANCH  32  33
ENDBRANCH  25  27
ENDBRANCH  24  25
ENDBRANCH  23  24
ENDBRANCH   1  23
TORSDOF 18
ENDMDL
MODEL 3
REMARK VINA RESULT:     -10.6      2.639      4.333
REMARK SMILES C[N@H+]1CCO[C@@H](C[N@H+]2CCCC[C@@H]2CCC(=O)OCCOC(=O)c2ccc(-c3c4nc(c(-c5cccc(S(=O)(=O)[O-])c5F)c5ccc([nH]5)c(-c5cccc(S(=O)(=O)[O-])c5F)c5nc(c(-c6cccc(S(=O)(=O)[O-])c6F)c6ccc3[nH]6)C=C5)C=C4)cc2)C1
REMARK SMILES IDX 19 1 18 2 16 3 17 4 15 5 14 6 13 7 8 8 9 9 10 11 12 12 11 13
REMARK SMILES IDX 7 14 6 15 1 16 2 17 3 18 87 19 4 21 5 22 20 23 21 24 22 25
REMARK SMILES IDX 23 26 24 27 25 28 86 29 26 30 85 31 27 32 28 33 29 34 79 35
REMARK SMILES IDX 30 36 84 37 78 38 80 39 31 40 83 41 77 42 76 43 32 45 64 46
REMARK SMILES IDX 44 47 63 48 45 49 48 50 62 51 81 52 46 53 47 54 61 56 82 57
REMARK SMILES IDX 49 58 33 59 34 60 42 61 35 62 37 63 43 64 36 65 38 66 39 67
REMARK SMILES IDX 40 68 41 69 65 70 66 71 74 72 67 73 69 74 75 75 68 76 70 77
REMARK SMILES IDX 71 78 72 79 73 80 50 81 51 82 59 83 52 84 54 85 60 86 53 87
REMARK SMILES IDX 55 88 56 89 57 90 58 91
REMARK H PARENT 8 10 2 20 80 44 48 55
REMARK Flexibility Score: inf
ROOT
ATOM      1  C   UNL A   1      35.796  20.197  25.020  1.00  0.00     0.274 C 
ENDROOT
BRANCH   1   2
ATOM      2  O   UNL A   1      35.189  21.429  25.450  1.00  0.00    -0.462 OA
BRANCH   2   3
ATOM      3  C   UNL A   1      34.381  22.060  24.564  1.00  0.00     0.306 C 
ATOM      4  O   UNL A   1      33.272  21.670  24.224  1.00  0.00    -0.252 OA
BRANCH   3   5
ATOM      5  C   UNL A   1      34.988  23.332  24.017  1.00  0.00     0.129 C 
BRANCH   5   6
ATOM      6  C   UNL A   1      34.115  24.161  23.065  1.00  0.00     0.077 C 
BRANCH   6   7
ATOM      7  C   UNL A   1      33.693  25.558  23.605  1.00  0.00     0.184 C 
ATOM      8  N   UNL A   1      32.904  25.409  24.835  1.00  0.00    -0.330 N 
ATOM      9  C   UNL A   1      31.556  24.879  24.666  1.00  0.00     0.262 C 
ATOM     10  H   UNL A   1      33.379  24.617  25.267  1.00  0.00     0.348 HD
ATOM     11  C   UNL A   1      30.750  25.476  23.510  1.00  0.00     0.062 C 
ATOM     12  C   UNL A   1      32.913  26.373  22.564  1.00  0.00     0.065 C 
ATOM     13  C   UNL A   1      31.566  25.734  22.247  1.00  0.00     0.012 C 
BRANCH   8  14
ATOM     14  C   UNL A   1      33.126  26.375  25.921  1.00  0.00     0.300 C 
BRANCH  14  15
ATOM     15  C   UNL A   1      32.057  27.449  26.262  1.00  0.00     0.228 C 
ATOM     16  C   UNL A   1      34.593  29.105  27.487  1.00  0.00     0.332 C 
ATOM     17  N   UNL A   1      33.179  29.456  27.454  1.00  0.00    -0.333 N 
ATOM     18  C   UNL A   1      32.823  30.230  26.256  1.00  0.00     0.290 C 
ATOM     19  C   UNL A   1      32.283  28.290  27.540  1.00  0.00     0.300 C 
ATOM     20  H   UNL A   1      33.044  30.029  28.286  1.00  0.00     0.348 HD
ATOM     21  C   UNL A   1      32.731  29.375  24.984  1.00  0.00     0.222 C 
ATOM     22  O   UNL A   1      31.791  28.306  25.125  1.00  0.00    -0.361 OA
ENDBRANCH  14  15
ENDBRANCH   8  14
ENDBRANCH   6   7
ENDBRANCH   5   6
ENDBRANCH   3   5
ENDBRANCH   2   3
ENDBRANCH   1   2
BRANCH   1  23
ATOM     23  C   UNL A   1      37.284  20.422  24.764  1.00  0.00     0.275 C 
BRANCH  23  24
ATOM     24  O   UNL A   1      37.798  21.386  25.702  1.00  0.00    -0.458 OA
BRANCH  24  25
ATOM     25  C   UNL A   1      39.052  21.153  26.153  1.00  0.00     0.338 C 
ATOM     26  O   UNL A   1      39.701  20.123  26.062  1.00  0.00    -0.246 OA
BRANCH  25  27
ATOM     27  C   UNL A   1      39.616  22.418  26.639  1.00  0.00     0.060 A 
ATOM     28  C   UNL A   1      39.104  23.597  26.097  1.00  0.00     0.016 A 
ATOM     29  C   UNL A   1      40.665  22.459  27.553  1.00  0.00     0.016 A 
ATOM     30  C   UNL A   1      39.618  24.832  26.475  1.00  0.00     0.010 A 
ATOM     31  C   UNL A   1      41.184  23.702  27.937  1.00  0.00     0.010 A 
ATOM     32  C   UNL A   1      40.668  24.896  27.397  1.00  0.00    -0.014 A 
BRANCH  32  33
ATOM     33  C   UNL A   1      41.255  26.214  27.742  1.00  0.00     0.031 A 
ATOM     34  C   UNL A   1      42.661  26.537  27.322  1.00  0.00     0.074 A 
ATOM     35  C   UNL A   1      40.523  27.125  28.409  1.00  0.00     0.049 A 
ATOM     36  N   UNL A   1      43.384  27.590  27.600  1.00  0.00    -0.248 NA
ATOM     37  C   UNL A   1      43.345  25.542  26.480  1.00  0.00     0.031 C 
ATOM     38  C   UNL A   1      39.138  26.938  28.845  1.00  0.00     0.029 A 
ATOM     39  N   UNL A   1      40.843  28.386  28.847  1.00  0.00    -0.354 N 
ATOM     40  C   UNL A   1      44.626  27.360  27.020  1.00  0.00     0.074 A 
ATOM     41  C   UNL A   1      44.554  26.073  26.363  1.00  0.00     0.031 C 
ATOM     42  C   UNL A   1      38.728  28.043  29.490  1.00  0.00     0.029 A 
ATOM     43  C   UNL A   1      39.833  28.995  29.556  1.00  0.00     0.049 A 
ATOM     44  H   UNL A   1      41.712  28.815  28.672  1.00  0.00     0.167 HD
ATOM     45  C   UNL A   1      45.722  28.156  27.026  1.00  0.00     0.034 A 
ATOM     46  C   UNL A   1      39.810  30.174  30.208  1.00  0.00     0.034 A 
ATOM     47  C   UNL A   1      45.769  29.460  27.631  1.00  0.00     0.049 A 
ATOM     48  C   UNL A   1      41.041  31.040  30.194  1.00  0.00     0.074 A 
ATOM     49  C   UNL A   1      46.823  30.357  27.660  1.00  0.00     0.029 A 
ATOM     50  N   UNL A   1      44.716  30.058  28.306  1.00  0.00    -0.354 N 
ATOM     51  N   UNL A   1      42.185  30.837  29.587  1.00  0.00    -0.248 NA
ATOM     52  C   UNL A   1      40.973  32.304  30.942  1.00  0.00     0.031 C 
ATOM     53  C   UNL A   1      46.408  31.496  28.360  1.00  0.00     0.029 A 
ATOM     54  C   UNL A   1      45.093  31.311  28.758  1.00  0.00     0.049 A 
ATOM     55  H   UNL A   1      43.830  29.651  28.443  1.00  0.00     0.167 HD
ATOM     56  C   UNL A   1      42.968  31.951  29.866  1.00  0.00     0.074 A 
ATOM     57  C   UNL A   1      42.155  32.841  30.670  1.00  0.00     0.031 C 
ATOM     58  C   UNL A   1      44.253  32.203  29.515  1.00  0.00     0.034 A 
BRANCH  45  59
ATOM     59  C   UNL A   1      46.956  27.643  26.335  1.00  0.00     0.023 A 
ATOM     60  C   UNL A   1      47.178  27.958  24.979  1.00  0.00     0.012 A 
ATOM     61  C   UNL A   1      47.915  26.888  27.038  1.00  0.00     0.148 A 
ATOM     62  C   UNL A   1      48.324  27.506  24.326  1.00  0.00     0.002 A 
ATOM     63  C   UNL A   1      49.072  26.471  26.389  1.00  0.00     0.091 A 
ATOM     64  F   UNL A   1      47.671  26.575  28.318  1.00  0.00    -0.205 F 
ATOM     65  C   UNL A   1      49.274  26.772  25.032  1.00  0.00     0.022 A 
BRANCH  63  66
ATOM     66  S   UNL A   1      50.381  25.576  27.234  1.00  0.00     0.127 S 
ATOM     67  O   UNL A   1      51.374  25.432  26.172  1.00  0.00    -0.237 OA
ATOM     68  O   UNL A   1      50.757  26.507  28.298  1.00  0.00    -0.237 OA
ATOM     69  O   UNL A   1      49.775  24.338  27.704  1.00  0.00    -0.744 OA
ENDBRANCH  63  66
ENDBRANCH  45  59
BRANCH  46  70
ATOM     70  C   UNL A   1      38.568  30.612  30.907  1.00  0.00     0.023 A 
ATOM     71  C   UNL A   1      38.436  30.390  32.291  1.00  0.00     0.012 A 
ATOM     72  C   UNL A   1      37.537  31.283  30.220  1.00  0.00     0.148 A 
ATOM     73  C   UNL A   1      37.294  30.813  32.974  1.00  0.00     0.002 A 
ATOM     74  C   UNL A   1      36.430  31.753  30.916  1.00  0.00     0.091 A 
ATOM     75  F   UNL A   1      37.664  31.459  28.897  1.00  0.00    -0.205 F 
ATOM     76  C   UNL A   1      36.299  31.507  32.291  1.00  0.00     0.022 A 
BRANCH  74  77
ATOM     77  S   UNL A   1      35.177  32.776  30.132  1.00  0.00     0.127 S 
ATOM     78  O   UNL A   1      35.971  33.903  29.650  1.00  0.00    -0.237 OA
ATOM     79  O   UNL A   1      34.665  31.891  29.086  1.00  0.00    -0.237 OA
ATOM     80  O   UNL A   1      34.214  33.076  31.183  1.00  0.00    -0.744 OA
ENDBRANCH  74  77
ENDBRANCH  46  70
BRANCH  58  81
ATOM     81  C   UNL A   1      44.860  33.496  29.989  1.00  0.00     0.023 A 
ATOM     82  C   UNL A   1      45.548  33.526  31.219  1.00  0.00     0.012 A 
ATOM     83  C   UNL A   1      44.810  34.659  29.196  1.00  0.00     0.148 A 
ATOM     84  C   UNL A   1      46.153  34.700  31.663  1.00  0.00     0.002 A 
ATOM     85  C   UNL A   1      45.450  35.814  29.626  1.00  0.00     0.091 A 
ATOM     86  F   UNL A   1      44.129  34.617  28.040  1.00  0.00    -0.205 F 
ATOM     87  C   UNL A   1      46.115  35.840  30.863  1.00  0.00     0.022 A 
BRANCH  85  88
ATOM     88  S   UNL A   1      45.520  37.298  28.615  1.00  0.00     0.127 S 
ATOM     89  O   UNL A   1      44.120  37.715  28.599  1.00  0.00    -0.237 OA
ATOM     90  O   UNL A   1      46.407  38.167  29.389  1.00  0.00    -0.237 OA
ATOM     91  O   UNL A   1      46.067  36.873  27.333  1.00  0.00    -0.744 OA
ENDBRANCH  85  88
ENDBRANCH  58  81
ENDBRANCH  32  33
ENDBRANCH  25  27
ENDBRANCH  24  25
ENDBRANCH  23  24
ENDBRANCH   1  23
TORSDOF 18
ENDMDL
