MODEL 1
REMARK VINA RESULT:     -12.1      0.000      0.000
REMARK SMILES C[C@@H](C(=O)OCCOC(=O)c1ccc(-c2c3nc(c(-c4cccc(S(=O)(=O)[O-])c4F)c4ccc([nH]4)c(-c4cccc(S(=O)(=O)[O-])c4F)c4nc(c(-c5cccc(S(=O)(=O)[O-])c5F)c5ccc2[nH]5)C=C4)C=C3)cc1)c1ccccc1-c1ccn(C(F)F)c(=O)c1
REMARK SMILES IDX 6 1 5 2 3 3 4 4 2 5 1 6 74 7 75 8 79 9 76 10 78 11 77 12
REMARK SMILES IDX 80 13 81 14 89 15 82 16 87 17 83 18 88 19 84 20 85 21 86 22
REMARK SMILES IDX 7 23 8 24 9 25 10 26 11 27 12 28 73 29 13 30 72 31 14 32
REMARK SMILES IDX 15 33 16 34 66 35 17 36 71 37 65 38 67 39 18 40 70 41 64 42
REMARK SMILES IDX 63 43 19 45 51 46 31 47 50 48 32 49 35 50 49 51 68 52 33 53
REMARK SMILES IDX 34 54 48 56 69 57 36 58 20 59 21 60 29 61 22 62 24 63 30 64
REMARK SMILES IDX 23 65 25 66 26 67 27 68 28 69 52 70 53 71 61 72 54 73 56 74
REMARK SMILES IDX 62 75 55 76 57 77 58 78 59 79 60 80 37 81 38 82 46 83 39 84
REMARK SMILES IDX 41 85 47 86 40 87 42 88 43 89 44 90 45 91
REMARK H PARENT 67 44 35 55
REMARK Flexibility Score: inf
ROOT
ATOM      1  C   UNL A   1      31.399  30.842  25.881  1.00  0.00     0.274 C 
ENDROOT
BRANCH   1   2
ATOM      2  O   UNL A   1      32.685  30.286  25.564  1.00  0.00    -0.462 OA
BRANCH   2   3
ATOM      3  C   UNL A   1      32.978  29.095  26.159  1.00  0.00     0.313 C 
ATOM      4  O   UNL A   1      34.094  28.787  26.562  1.00  0.00    -0.252 OA
BRANCH   3   5
ATOM      5  C   UNL A   1      31.777  28.161  26.175  1.00  0.00     0.127 C 
ATOM      6  C   UNL A   1      31.497  27.830  27.661  1.00  0.00     0.025 C 
BRANCH   5   7
ATOM      7  C   UNL A   1      31.765  26.939  25.237  1.00  0.00    -0.026 A 
ATOM      8  C   UNL A   1      32.498  25.798  25.659  1.00  0.00     0.005 A 
ATOM      9  C   UNL A   1      30.994  26.795  24.056  1.00  0.00    -0.014 A 
ATOM     10  C   UNL A   1      32.508  24.597  24.945  1.00  0.00     0.000 A 
ATOM     11  C   UNL A   1      31.001  25.565  23.358  1.00  0.00     0.009 A 
ATOM     12  C   UNL A   1      31.755  24.479  23.791  1.00  0.00     0.001 A 
BRANCH   9  13
ATOM     13  C   UNL A   1      30.206  27.864  23.406  1.00  0.00    -0.011 A 
ATOM     14  C   UNL A   1      30.829  28.822  22.520  1.00  0.00     0.027 A 
ATOM     15  C   UNL A   1      28.870  27.902  23.552  1.00  0.00     0.080 A 
ATOM     16  C   UNL A   1      30.132  29.824  21.981  1.00  0.00     0.095 A 
ATOM     17  C   UNL A   1      28.063  28.991  22.922  1.00  0.00     0.255 A 
ATOM     18  N   UNL A   1      28.781  29.950  22.221  1.00  0.00    -0.258 N 
ATOM     19  O   UNL A   1      26.846  28.992  23.083  1.00  0.00    -0.269 OA
BRANCH  18  20
ATOM     20  C   UNL A   1      28.057  31.077  21.697  1.00  0.00     0.451 C 
ATOM     21  F   UNL A   1      28.802  32.206  21.724  1.00  0.00    -0.185 F 
ATOM     22  F   UNL A   1      27.661  30.863  20.417  1.00  0.00    -0.185 F 
ENDBRANCH  18  20
ENDBRANCH   9  13
ENDBRANCH   5   7
ENDBRANCH   3   5
ENDBRANCH   2   3
ENDBRANCH   1   2
BRANCH   1  23
ATOM     23  C   UNL A   1      31.568  32.013  26.853  1.00  0.00     0.275 C 
BRANCH  23  24
ATOM     24  O   UNL A   1      32.814  32.691  26.605  1.00  0.00    -0.458 OA
BRANCH  24  25
ATOM     25  C   UNL A   1      33.256  33.451  27.644  1.00  0.00     0.338 C 
ATOM     26  O   UNL A   1      32.665  34.380  28.170  1.00  0.00    -0.246 OA
BRANCH  25  27
ATOM     27  C   UNL A   1      34.487  32.850  28.203  1.00  0.00     0.060 A 
ATOM     28  C   UNL A   1      34.402  31.534  28.670  1.00  0.00     0.016 A 
ATOM     29  C   UNL A   1      35.717  33.518  28.206  1.00  0.00     0.016 A 
ATOM     30  C   UNL A   1      35.543  30.882  29.135  1.00  0.00     0.010 A 
ATOM     31  C   UNL A   1      36.859  32.867  28.691  1.00  0.00     0.010 A 
ATOM     32  C   UNL A   1      36.777  31.548  29.166  1.00  0.00    -0.014 A 
BRANCH  32  33
ATOM     33  C   UNL A   1      37.928  30.903  29.844  1.00  0.00     0.031 A 
ATOM     34  C   UNL A   1      38.215  31.275  31.273  1.00  0.00     0.074 A 
ATOM     35  C   UNL A   1      38.697  29.986  29.229  1.00  0.00     0.049 A 
ATOM     36  N   UNL A   1      39.102  30.779  32.093  1.00  0.00    -0.248 NA
ATOM     37  C   UNL A   1      37.380  32.340  31.852  1.00  0.00     0.031 C 
ATOM     38  C   UNL A   1      38.533  29.528  27.852  1.00  0.00     0.029 A 
ATOM     39  N   UNL A   1      39.778  29.275  29.692  1.00  0.00    -0.354 N 
ATOM     40  C   UNL A   1      38.937  31.472  33.285  1.00  0.00     0.074 A 
ATOM     41  C   UNL A   1      37.861  32.418  33.084  1.00  0.00     0.031 C 
ATOM     42  C   UNL A   1      39.474  28.606  27.582  1.00  0.00     0.029 A 
ATOM     43  C   UNL A   1      40.326  28.427  28.758  1.00  0.00     0.049 A 
ATOM     44  H   UNL A   1      40.128  29.364  30.607  1.00  0.00     0.167 HD
ATOM     45  C   UNL A   1      39.617  31.339  34.447  1.00  0.00     0.034 A 
ATOM     46  C   UNL A   1      41.398  27.612  28.842  1.00  0.00     0.034 A 
ATOM     47  C   UNL A   1      40.715  30.439  34.654  1.00  0.00     0.049 A 
ATOM     48  C   UNL A   1      42.184  27.540  30.129  1.00  0.00     0.074 A 
ATOM     49  C   UNL A   1      41.463  30.248  35.801  1.00  0.00     0.029 A 
ATOM     50  N   UNL A   1      41.245  29.604  33.684  1.00  0.00    -0.354 N 
ATOM     51  N   UNL A   1      41.926  28.093  31.290  1.00  0.00    -0.248 NA
ATOM     52  C   UNL A   1      43.405  26.716  30.119  1.00  0.00     0.031 C 
ATOM     53  C   UNL A   1      42.466  29.314  35.517  1.00  0.00     0.029 A 
ATOM     54  C   UNL A   1      42.328  28.912  34.199  1.00  0.00     0.049 A 
ATOM     55  H   UNL A   1      40.903  29.516  32.765  1.00  0.00     0.167 HD
ATOM     56  C   UNL A   1      42.933  27.663  32.150  1.00  0.00     0.074 A 
ATOM     57  C   UNL A   1      43.790  26.783  31.387  1.00  0.00     0.031 C 
ATOM     58  C   UNL A   1      43.142  27.989  33.451  1.00  0.00     0.034 A 
BRANCH  45  59
ATOM     59  C   UNL A   1      39.177  32.203  35.592  1.00  0.00     0.023 A 
ATOM     60  C   UNL A   1      38.212  31.714  36.495  1.00  0.00     0.012 A 
ATOM     61  C   UNL A   1      39.728  33.482  35.784  1.00  0.00     0.148 A 
ATOM     62  C   UNL A   1      37.784  32.498  37.563  1.00  0.00     0.002 A 
ATOM     63  C   UNL A   1      39.318  34.247  36.868  1.00  0.00     0.091 A 
ATOM     64  F   UNL A   1      40.616  33.938  34.888  1.00  0.00    -0.205 F 
ATOM     65  C   UNL A   1      38.343  33.760  37.755  1.00  0.00     0.022 A 
BRANCH  63  66
ATOM     66  S   UNL A   1      40.015  35.865  37.215  1.00  0.00     0.127 S 
ATOM     67  O   UNL A   1      39.666  36.602  36.003  1.00  0.00    -0.237 OA
ATOM     68  O   UNL A   1      39.276  36.272  38.411  1.00  0.00    -0.237 OA
ATOM     69  O   UNL A   1      41.438  35.645  37.431  1.00  0.00    -0.744 OA
ENDBRANCH  63  66
ENDBRANCH  45  59
BRANCH  46  70
ATOM     70  C   UNL A   1      41.798  26.760  27.685  1.00  0.00     0.023 A 
ATOM     71  C   UNL A   1      42.422  27.358  26.571  1.00  0.00     0.012 A 
ATOM     72  C   UNL A   1      41.531  25.379  27.660  1.00  0.00     0.148 A 
ATOM     73  C   UNL A   1      42.745  26.602  25.444  1.00  0.00     0.002 A 
ATOM     74  C   UNL A   1      41.898  24.623  26.552  1.00  0.00     0.091 A 
ATOM     75  F   UNL A   1      40.906  24.834  28.713  1.00  0.00    -0.205 F 
ATOM     76  C   UNL A   1      42.492  25.233  25.438  1.00  0.00     0.022 A 
BRANCH  74  77
ATOM     77  S   UNL A   1      41.695  22.838  26.507  1.00  0.00     0.127 S 
ATOM     78  O   UNL A   1      42.360  22.432  27.743  1.00  0.00    -0.237 OA
ATOM     79  O   UNL A   1      40.239  22.695  26.514  1.00  0.00    -0.237 OA
ATOM     80  O   UNL A   1      42.333  22.410  25.270  1.00  0.00    -0.744 OA
ENDBRANCH  74  77
ENDBRANCH  46  70
BRANCH  58  81
ATOM     81  C   UNL A   1      44.331  27.386  34.154  1.00  0.00     0.023 A 
ATOM     82  C   UNL A   1      45.565  28.065  34.138  1.00  0.00     0.012 A 
ATOM     83  C   UNL A   1      44.201  26.207  34.915  1.00  0.00     0.148 A 
ATOM     84  C   UNL A   1      46.656  27.569  34.852  1.00  0.00     0.002 A 
ATOM     85  C   UNL A   1      45.281  25.743  35.660  1.00  0.00     0.091 A 
ATOM     86  F   UNL A   1      43.026  25.562  34.901  1.00  0.00    -0.205 F 
ATOM     87  C   UNL A   1      46.511  26.418  35.623  1.00  0.00     0.022 A 
BRANCH  85  88
ATOM     88  S   UNL A   1      45.149  24.327  36.758  1.00  0.00     0.127 S 
ATOM     89  O   UNL A   1      44.114  24.768  37.691  1.00  0.00    -0.237 OA
ATOM     90  O   UNL A   1      44.734  23.259  35.847  1.00  0.00    -0.237 OA
ATOM     91  O   UNL A   1      46.476  24.145  37.331  1.00  0.00    -0.744 OA
ENDBRANCH  85  88
ENDBRANCH  58  81
ENDBRANCH  32  33
ENDBRANCH  25  27
ENDBRANCH  24  25
ENDBRANCH  23  24
ENDBRANCH   1  23
TORSDOF 17
ENDMDL
MODEL 2
REMARK VINA RESULT:     -11.9      6.000     11.214
REMARK SMILES C[C@@H](C(=O)OCCOC(=O)c1ccc(-c2c3nc(c(-c4cccc(S(=O)(=O)[O-])c4F)c4ccc([nH]4)c(-c4cccc(S(=O)(=O)[O-])c4F)c4nc(c(-c5cccc(S(=O)(=O)[O-])c5F)c5ccc2[nH]5)C=C4)C=C3)cc1)c1ccccc1-c1ccn(C(F)F)c(=O)c1
REMARK SMILES IDX 6 1 5 2 3 3 4 4 2 5 1 6 74 7 75 8 79 9 76 10 78 11 77 12
REMARK SMILES IDX 80 13 81 14 89 15 82 16 87 17 83 18 88 19 84 20 85 21 86 22
REMARK SMILES IDX 7 23 8 24 9 25 10 26 11 27 12 28 73 29 13 30 72 31 14 32
REMARK SMILES IDX 15 33 16 34 66 35 17 36 71 37 65 38 67 39 18 40 70 41 64 42
REMARK SMILES IDX 63 43 19 45 51 46 31 47 50 48 32 49 35 50 49 51 68 52 33 53
REMARK SMILES IDX 34 54 48 56 69 57 36 58 20 59 21 60 29 61 22 62 24 63 30 64
REMARK SMILES IDX 23 65 25 66 26 67 27 68 28 69 52 70 53 71 61 72 54 73 56 74
REMARK SMILES IDX 62 75 55 76 57 77 58 78 59 79 60 80 37 81 38 82 46 83 39 84
REMARK SMILES IDX 41 85 47 86 40 87 42 88 43 89 44 90 45 91
REMARK H PARENT 67 44 35 55
REMARK Flexibility Score: inf
ROOT
ATOM      1  C   UNL A   1      37.450  20.179  25.023  1.00  0.00     0.274 C 
ENDROOT
BRANCH   1   2
ATOM      2  O   UNL A   1      37.415  21.581  25.335  1.00  0.00    -0.462 OA
BRANCH   2   3
ATOM      3  C   UNL A   1      36.177  22.151  25.358  1.00  0.00     0.313 C 
ATOM      4  O   UNL A   1      35.592  22.479  26.384  1.00  0.00    -0.252 OA
BRANCH   3   5
ATOM      5  C   UNL A   1      35.572  22.243  23.965  1.00  0.00     0.127 C 
ATOM      6  C   UNL A   1      36.629  22.931  23.069  1.00  0.00     0.025 C 
BRANCH   5   7
ATOM      7  C   UNL A   1      34.143  22.796  23.804  1.00  0.00    -0.026 A 
ATOM      8  C   UNL A   1      34.016  24.194  23.586  1.00  0.00     0.005 A 
ATOM      9  C   UNL A   1      32.951  22.032  23.725  1.00  0.00    -0.014 A 
ATOM     10  C   UNL A   1      32.788  24.814  23.345  1.00  0.00     0.000 A 
ATOM     11  C   UNL A   1      31.720  22.676  23.461  1.00  0.00     0.009 A 
ATOM     12  C   UNL A   1      31.635  24.053  23.280  1.00  0.00     0.001 A 
BRANCH   9  13
ATOM     13  C   UNL A   1      32.841  20.579  23.976  1.00  0.00    -0.011 A 
ATOM     14  C   UNL A   1      32.927  20.039  25.314  1.00  0.00     0.027 A 
ATOM     15  C   UNL A   1      32.557  19.740  22.964  1.00  0.00     0.080 A 
ATOM     16  C   UNL A   1      32.890  18.724  25.536  1.00  0.00     0.095 A 
ATOM     17  C   UNL A   1      32.467  18.266  23.197  1.00  0.00     0.255 A 
ATOM     18  N   UNL A   1      32.723  17.839  24.493  1.00  0.00    -0.258 N 
ATOM     19  O   UNL A   1      32.210  17.534  22.246  1.00  0.00    -0.269 OA
BRANCH  18  20
ATOM     20  C   UNL A   1      32.761  16.422  24.736  1.00  0.00     0.451 C 
ATOM     21  F   UNL A   1      33.939  15.880  24.350  1.00  0.00    -0.185 F 
ATOM     22  F   UNL A   1      32.576  16.137  26.049  1.00  0.00    -0.185 F 
ENDBRANCH  18  20
ENDBRANCH   9  13
ENDBRANCH   5   7
ENDBRANCH   3   5
ENDBRANCH   2   3
ENDBRANCH   1   2
BRANCH   1  23
ATOM     23  C   UNL A   1      38.857  19.629  25.275  1.00  0.00     0.275 C 
BRANCH  23  24
ATOM     24  O   UNL A   1      39.377  20.141  26.517  1.00  0.00    -0.458 OA
BRANCH  24  25
ATOM     25  C   UNL A   1      40.731  20.275  26.544  1.00  0.00     0.338 C 
ATOM     26  O   UNL A   1      41.551  19.473  26.125  1.00  0.00    -0.246 OA
BRANCH  25  27
ATOM     27  C   UNL A   1      41.081  21.648  26.967  1.00  0.00     0.060 A 
ATOM     28  C   UNL A   1      40.649  22.699  26.151  1.00  0.00     0.016 A 
ATOM     29  C   UNL A   1      41.748  21.920  28.167  1.00  0.00     0.016 A 
ATOM     30  C   UNL A   1      40.876  24.021  26.534  1.00  0.00     0.010 A 
ATOM     31  C   UNL A   1      41.991  23.248  28.541  1.00  0.00     0.010 A 
ATOM     32  C   UNL A   1      41.564  24.307  27.721  1.00  0.00    -0.014 A 
BRANCH  32  33
ATOM     33  C   UNL A   1      41.962  25.707  28.005  1.00  0.00     0.031 A 
ATOM     34  C   UNL A   1      43.345  26.149  27.613  1.00  0.00     0.074 A 
ATOM     35  C   UNL A   1      41.119  26.588  28.574  1.00  0.00     0.049 A 
ATOM     36  N   UNL A   1      43.881  27.338  27.677  1.00  0.00    -0.248 NA
ATOM     37  C   UNL A   1      44.234  25.110  27.068  1.00  0.00     0.031 C 
ATOM     38  C   UNL A   1      39.753  26.300  29.001  1.00  0.00     0.029 A 
ATOM     39  N   UNL A   1      41.297  27.913  28.893  1.00  0.00    -0.354 N 
ATOM     40  C   UNL A   1      45.171  27.194  27.183  1.00  0.00     0.074 A 
ATOM     41  C   UNL A   1      45.335  25.803  26.819  1.00  0.00     0.031 C 
ATOM     42  C   UNL A   1      39.210  27.417  29.518  1.00  0.00     0.029 A 
ATOM     43  C   UNL A   1      40.200  28.494  29.486  1.00  0.00     0.049 A 
ATOM     44  H   UNL A   1      42.132  28.401  28.713  1.00  0.00     0.167 HD
ATOM     45  C   UNL A   1      46.138  28.129  27.044  1.00  0.00     0.034 A 
ATOM     46  C   UNL A   1      40.024  29.745  29.958  1.00  0.00     0.034 A 
ATOM     47  C   UNL A   1      46.010  29.503  27.439  1.00  0.00     0.049 A 
ATOM     48  C   UNL A   1      41.148  30.748  29.856  1.00  0.00     0.074 A 
ATOM     49  C   UNL A   1      46.947  30.515  27.338  1.00  0.00     0.029 A 
ATOM     50  N   UNL A   1      44.890  30.050  28.042  1.00  0.00    -0.354 N 
ATOM     51  N   UNL A   1      42.309  30.635  29.256  1.00  0.00    -0.248 NA
ATOM     52  C   UNL A   1      40.929  32.061  30.487  1.00  0.00     0.031 C 
ATOM     53  C   UNL A   1      46.402  31.672  27.905  1.00  0.00     0.029 A 
ATOM     54  C   UNL A   1      45.120  31.382  28.343  1.00  0.00     0.049 A 
ATOM     55  H   UNL A   1      44.054  29.564  28.230  1.00  0.00     0.167 HD
ATOM     56  C   UNL A   1      42.943  31.865  29.414  1.00  0.00     0.074 A 
ATOM     57  C   UNL A   1      42.028  32.718  30.142  1.00  0.00     0.031 C 
ATOM     58  C   UNL A   1      44.181  32.244  29.013  1.00  0.00     0.034 A 
BRANCH  45  59
ATOM     59  C   UNL A   1      47.431  27.681  26.429  1.00  0.00     0.023 A 
ATOM     60  C   UNL A   1      48.473  27.234  27.264  1.00  0.00     0.012 A 
ATOM     61  C   UNL A   1      47.607  27.686  25.034  1.00  0.00     0.148 A 
ATOM     62  C   UNL A   1      49.685  26.817  26.718  1.00  0.00     0.002 A 
ATOM     63  C   UNL A   1      48.807  27.241  24.495  1.00  0.00     0.091 A 
ATOM     64  F   UNL A   1      46.612  28.153  24.265  1.00  0.00    -0.205 F 
ATOM     65  C   UNL A   1      49.849  26.812  25.334  1.00  0.00     0.022 A 
BRANCH  63  66
ATOM     66  S   UNL A   1      49.088  27.161  22.723  1.00  0.00     0.127 S 
ATOM     67  O   UNL A   1      48.377  25.936  22.368  1.00  0.00    -0.237 OA
ATOM     68  O   UNL A   1      48.455  28.394  22.252  1.00  0.00    -0.237 OA
ATOM     69  O   UNL A   1      50.534  27.123  22.553  1.00  0.00    -0.744 OA
ENDBRANCH  63  66
ENDBRANCH  45  59
BRANCH  46  70
ATOM     70  C   UNL A   1      38.720  30.156  30.553  1.00  0.00     0.023 A 
ATOM     71  C   UNL A   1      38.412  29.770  31.874  1.00  0.00     0.012 A 
ATOM     72  C   UNL A   1      37.771  30.887  29.815  1.00  0.00     0.148 A 
ATOM     73  C   UNL A   1      37.173  30.078  32.435  1.00  0.00     0.002 A 
ATOM     74  C   UNL A   1      36.556  31.232  30.397  1.00  0.00     0.091 A 
ATOM     75  F   UNL A   1      38.067  31.216  28.549  1.00  0.00    -0.205 F 
ATOM     76  C   UNL A   1      36.248  30.817  31.701  1.00  0.00     0.022 A 
BRANCH  74  77
ATOM     77  S   UNL A   1      35.353  32.265  29.553  1.00  0.00     0.127 S 
ATOM     78  O   UNL A   1      36.170  33.409  29.157  1.00  0.00    -0.237 OA
ATOM     79  O   UNL A   1      34.927  31.400  28.451  1.00  0.00    -0.237 OA
ATOM     80  O   UNL A   1      34.316  32.532  30.540  1.00  0.00    -0.744 OA
ENDBRANCH  74  77
ENDBRANCH  46  70
BRANCH  58  81
ATOM     81  C   UNL A   1      44.633  33.648  29.329  1.00  0.00     0.023 A 
ATOM     82  C   UNL A   1      45.267  33.913  30.558  1.00  0.00     0.012 A 
ATOM     83  C   UNL A   1      44.527  34.676  28.370  1.00  0.00     0.148 A 
ATOM     84  C   UNL A   1      45.769  35.184  30.837  1.00  0.00     0.002 A 
ATOM     85  C   UNL A   1      45.070  35.928  28.637  1.00  0.00     0.091 A 
ATOM     86  F   UNL A   1      43.902  34.411  27.214  1.00  0.00    -0.205 F 
ATOM     87  C   UNL A   1      45.683  36.186  29.873  1.00  0.00     0.022 A 
BRANCH  85  88
ATOM     88  S   UNL A   1      45.093  37.243  27.413  1.00  0.00     0.127 S 
ATOM     89  O   UNL A   1      45.671  38.349  28.173  1.00  0.00    -0.237 OA
ATOM     90  O   UNL A   1      45.967  36.693  26.376  1.00  0.00    -0.237 OA
ATOM     91  O   UNL A   1      43.708  37.421  26.998  1.00  0.00    -0.744 OA
ENDBRANCH  85  88
ENDBRANCH  58  81
ENDBRANCH  32  33
ENDBRANCH  25  27
ENDBRANCH  24  25
ENDBRANCH  23  24
ENDBRANCH   1  23
TORSDOF 17
ENDMDL
MODEL 3
REMARK VINA RESULT:     -11.7      6.022      9.206
REMARK SMILES C[C@@H](C(=O)OCCOC(=O)c1ccc(-c2c3nc(c(-c4cccc(S(=O)(=O)[O-])c4F)c4ccc([nH]4)c(-c4cccc(S(=O)(=O)[O-])c4F)c4nc(c(-c5cccc(S(=O)(=O)[O-])c5F)c5ccc2[nH]5)C=C4)C=C3)cc1)c1ccccc1-c1ccn(C(F)F)c(=O)c1
REMARK SMILES IDX 6 1 5 2 3 3 4 4 2 5 1 6 74 7 75 8 79 9 76 10 78 11 77 12
REMARK SMILES IDX 80 13 81 14 89 15 82 16 87 17 83 18 88 19 84 20 85 21 86 22
REMARK SMILES IDX 7 23 8 24 9 25 10 26 11 27 12 28 73 29 13 30 72 31 14 32
REMARK SMILES IDX 15 33 16 34 66 35 17 36 71 37 65 38 67 39 18 40 70 41 64 42
REMARK SMILES IDX 63 43 19 45 51 46 31 47 50 48 32 49 35 50 49 51 68 52 33 53
REMARK SMILES IDX 34 54 48 56 69 57 36 58 20 59 21 60 29 61 22 62 24 63 30 64
REMARK SMILES IDX 23 65 25 66 26 67 27 68 28 69 52 70 53 71 61 72 54 73 56 74
REMARK SMILES IDX 62 75 55 76 57 77 58 78 59 79 60 80 37 81 38 82 46 83 39 84
REMARK SMILES IDX 41 85 47 86 40 87 42 88 43 89 44 90 45 91
REMARK H PARENT 67 44 35 55
REMARK Flexibility Score: inf
ROOT
ATOM      1  C   UNL A   1      36.368  20.534  24.981  1.00  0.00     0.274 C 
ENDROOT
BRANCH   1   2
ATOM      2  O   UNL A   1      36.063  21.441  26.053  1.00  0.00    -0.462 OA
BRANCH   2   3
ATOM      3  C   UNL A   1      35.846  22.736  25.689  1.00  0.00     0.313 C 
ATOM      4  O   UNL A   1      36.495  23.685  26.115  1.00  0.00    -0.252 OA
BRANCH   3   5
ATOM      5  C   UNL A   1      34.644  22.870  24.767  1.00  0.00     0.127 C 
ATOM      6  C   UNL A   1      34.960  24.032  23.795  1.00  0.00     0.025 C 
BRANCH   5   7
ATOM      7  C   UNL A   1      33.231  22.920  25.380  1.00  0.00    -0.026 A 
ATOM      8  C   UNL A   1      32.814  24.160  25.933  1.00  0.00     0.005 A 
ATOM      9  C   UNL A   1      32.260  21.888  25.334  1.00  0.00    -0.014 A 
ATOM     10  C   UNL A   1      31.532  24.367  26.448  1.00  0.00     0.000 A 
ATOM     11  C   UNL A   1      30.961  22.123  25.843  1.00  0.00     0.009 A 
ATOM     12  C   UNL A   1      30.601  23.345  26.402  1.00  0.00     0.001 A 
BRANCH   9  13
ATOM     13  C   UNL A   1      32.490  20.507  24.860  1.00  0.00    -0.011 A 
ATOM     14  C   UNL A   1      32.908  19.461  25.766  1.00  0.00     0.027 A 
ATOM     15  C   UNL A   1      32.218  20.178  23.585  1.00  0.00     0.080 A 
ATOM     16  C   UNL A   1      33.177  18.230  25.328  1.00  0.00     0.095 A 
ATOM     17  C   UNL A   1      32.470  18.793  23.083  1.00  0.00     0.255 A 
ATOM     18  N   UNL A   1      33.021  17.907  23.998  1.00  0.00    -0.258 N 
ATOM     19  O   UNL A   1      32.212  18.534  21.911  1.00  0.00    -0.269 OA
BRANCH  18  20
ATOM     20  C   UNL A   1      33.387  16.598  23.526  1.00  0.00     0.451 C 
ATOM     21  F   UNL A   1      34.491  16.638  22.746  1.00  0.00    -0.185 F 
ATOM     22  F   UNL A   1      33.628  15.747  24.555  1.00  0.00    -0.185 F 
ENDBRANCH  18  20
ENDBRANCH   9  13
ENDBRANCH   5   7
ENDBRANCH   3   5
ENDBRANCH   2   3
ENDBRANCH   1   2
BRANCH   1  23
ATOM     23  C   UNL A   1      37.789  19.989  25.153  1.00  0.00     0.275 C 
BRANCH  23  24
ATOM     24  O   UNL A   1      38.717  21.073  25.358  1.00  0.00    -0.458 OA
BRANCH  24  25
ATOM     25  C   UNL A   1      39.593  20.875  26.380  1.00  0.00     0.338 C 
ATOM     26  O   UNL A   1      39.975  19.799  26.814  1.00  0.00    -0.246 OA
BRANCH  25  27
ATOM     27  C   UNL A   1      40.198  22.167  26.766  1.00  0.00     0.060 A 
ATOM     28  C   UNL A   1      39.743  23.311  26.102  1.00  0.00     0.016 A 
ATOM     29  C   UNL A   1      41.132  22.282  27.802  1.00  0.00     0.016 A 
ATOM     30  C   UNL A   1      40.214  24.570  26.474  1.00  0.00     0.010 A 
ATOM     31  C   UNL A   1      41.618  23.546  28.162  1.00  0.00     0.010 A 
ATOM     32  C   UNL A   1      41.168  24.697  27.494  1.00  0.00    -0.014 A 
BRANCH  32  33
ATOM     33  C   UNL A   1      41.795  26.020  27.735  1.00  0.00     0.031 A 
ATOM     34  C   UNL A   1      40.997  27.065  28.465  1.00  0.00     0.074 A 
ATOM     35  C   UNL A   1      43.052  26.296  27.344  1.00  0.00     0.049 A 
ATOM     36  N   UNL A   1      41.364  28.252  28.868  1.00  0.00    -0.248 NA
ATOM     37  C   UNL A   1      39.604  26.716  28.791  1.00  0.00     0.031 C 
ATOM     38  C   UNL A   1      43.939  25.380  26.633  1.00  0.00     0.029 A 
ATOM     39  N   UNL A   1      43.800  27.440  27.493  1.00  0.00    -0.354 N 
ATOM     40  C   UNL A   1      40.249  28.796  29.493  1.00  0.00     0.074 A 
ATOM     41  C   UNL A   1      39.195  27.807  29.421  1.00  0.00     0.031 C 
ATOM     42  C   UNL A   1      45.117  25.993  26.414  1.00  0.00     0.029 A 
ATOM     43  C   UNL A   1      45.059  27.355  26.944  1.00  0.00     0.049 A 
ATOM     44  H   UNL A   1      43.466  28.244  27.951  1.00  0.00     0.167 HD
ATOM     45  C   UNL A   1      40.108  30.008  30.075  1.00  0.00     0.034 A 
ATOM     46  C   UNL A   1      46.041  28.277  26.869  1.00  0.00     0.034 A 
ATOM     47  C   UNL A   1      41.126  31.019  30.118  1.00  0.00     0.049 A 
ATOM     48  C   UNL A   1      45.827  29.648  27.463  1.00  0.00     0.074 A 
ATOM     49  C   UNL A   1      41.060  32.279  30.684  1.00  0.00     0.029 A 
ATOM     50  N   UNL A   1      42.381  30.900  29.546  1.00  0.00    -0.354 N 
ATOM     51  N   UNL A   1      44.822  30.095  28.177  1.00  0.00    -0.248 NA
ATOM     52  C   UNL A   1      46.896  30.640  27.251  1.00  0.00     0.031 C 
ATOM     53  C   UNL A   1      42.270  32.934  30.430  1.00  0.00     0.029 A 
ATOM     54  C   UNL A   1      43.093  32.074  29.722  1.00  0.00     0.049 A 
ATOM     55  H   UNL A   1      42.717  30.099  29.081  1.00  0.00     0.167 HD
ATOM     56  C   UNL A   1      45.149  31.405  28.519  1.00  0.00     0.074 A 
ATOM     57  C   UNL A   1      46.456  31.671  27.960  1.00  0.00     0.031 C 
ATOM     58  C   UNL A   1      44.420  32.312  29.215  1.00  0.00     0.034 A 
BRANCH  45  59
ATOM     59  C   UNL A   1      38.785  30.301  30.718  1.00  0.00     0.023 A 
ATOM     60  C   UNL A   1      38.529  29.824  32.019  1.00  0.00     0.012 A 
ATOM     61  C   UNL A   1      37.807  31.057  30.047  1.00  0.00     0.148 A 
ATOM     62  C   UNL A   1      37.307  30.079  32.637  1.00  0.00     0.002 A 
ATOM     63  C   UNL A   1      36.602  31.332  30.680  1.00  0.00     0.091 A 
ATOM     64  F   UNL A   1      38.062  31.466  28.796  1.00  0.00    -0.205 F 
ATOM     65  C   UNL A   1      36.347  30.839  31.971  1.00  0.00     0.022 A 
BRANCH  63  66
ATOM     66  S   UNL A   1      35.328  32.339  29.915  1.00  0.00     0.127 S 
ATOM     67  O   UNL A   1      34.371  32.484  31.009  1.00  0.00    -0.237 OA
ATOM     68  O   UNL A   1      36.059  33.562  29.578  1.00  0.00    -0.237 OA
ATOM     69  O   UNL A   1      34.861  31.580  28.765  1.00  0.00    -0.744 OA
ENDBRANCH  63  66
ENDBRANCH  45  59
BRANCH  46  70
ATOM     70  C   UNL A   1      47.347  27.944  26.231  1.00  0.00     0.023 A 
ATOM     71  C   UNL A   1      48.476  27.720  27.046  1.00  0.00     0.012 A 
ATOM     72  C   UNL A   1      47.490  27.887  24.832  1.00  0.00     0.148 A 
ATOM     73  C   UNL A   1      49.727  27.476  26.478  1.00  0.00     0.002 A 
ATOM     74  C   UNL A   1      48.731  27.596  24.274  1.00  0.00     0.091 A 
ATOM     75  F   UNL A   1      46.415  28.135  24.073  1.00  0.00    -0.205 F 
ATOM     76  C   UNL A   1      49.853  27.404  25.094  1.00  0.00     0.022 A 
BRANCH  74  77
ATOM     77  S   UNL A   1      48.955  27.389  22.504  1.00  0.00     0.127 S 
ATOM     78  O   UNL A   1      48.193  28.517  21.974  1.00  0.00    -0.237 OA
ATOM     79  O   UNL A   1      50.407  27.504  22.364  1.00  0.00    -0.237 OA
ATOM     80  O   UNL A   1      48.427  26.065  22.202  1.00  0.00    -0.744 OA
ENDBRANCH  74  77
ENDBRANCH  46  70
BRANCH  58  81
ATOM     81  C   UNL A   1      45.011  33.682  29.436  1.00  0.00     0.023 A 
ATOM     82  C   UNL A   1      45.772  33.931  30.594  1.00  0.00     0.012 A 
ATOM     83  C   UNL A   1      44.903  34.684  28.451  1.00  0.00     0.148 A 
ATOM     84  C   UNL A   1      46.399  35.163  30.780  1.00  0.00     0.002 A 
ATOM     85  C   UNL A   1      45.568  35.894  28.622  1.00  0.00     0.091 A 
ATOM     86  F   UNL A   1      44.157  34.437  27.365  1.00  0.00    -0.205 F 
ATOM     87  C   UNL A   1      46.309  36.138  29.789  1.00  0.00     0.022 A 
BRANCH  85  88
ATOM     88  S   UNL A   1      45.587  37.163  27.350  1.00  0.00     0.127 S 
ATOM     89  O   UNL A   1      46.170  36.445  26.219  1.00  0.00    -0.237 OA
ATOM     90  O   UNL A   1      44.167  37.485  27.203  1.00  0.00    -0.237 OA
ATOM     91  O   UNL A   1      46.395  38.250  27.889  1.00  0.00    -0.744 OA
ENDBRANCH  85  88
ENDBRANCH  58  81
ENDBRANCH  32  33
ENDBRANCH  25  27
ENDBRANCH  24  25
ENDBRANCH  23  24
ENDBRANCH   1  23
TORSDOF 17
ENDMDL
