MODEL 1
REMARK VINA RESULT:     -11.3      0.000      0.000
REMARK SMILES CC(C)C[C@H](CNC(=O)[C@]1([NH3+])CCC[C@@H](C)C1)C(=O)OCCOC(=O)c1ccc(-c2c3nc(c(-c4cccc(S(=O)(=O)[O-])c4F)c4ccc([nH]4)c(-c4cccc(S(=O)(=O)[O-])c4F)c4nc(c(-c5cccc(S(=O)(=O)[O-])c5F)c5ccc2[nH]5)C=C4)C=C3)cc1
REMARK SMILES IDX 21 1 20 2 18 3 19 4 5 5 4 6 2 7 1 8 3 9 6 10 7 11 8 12 9 14
REMARK SMILES IDX 10 15 12 16 17 17 13 18 15 19 14 20 16 21 11 22 22 26 23 27
REMARK SMILES IDX 24 28 25 29 26 30 27 31 88 32 28 33 87 34 29 35 30 36 31 37
REMARK SMILES IDX 81 38 32 39 86 40 80 41 82 42 33 43 85 44 79 45 78 46 34 48
REMARK SMILES IDX 66 49 46 50 65 51 47 52 50 53 64 54 83 55 48 56 49 57 63 59
REMARK SMILES IDX 84 60 51 61 35 62 36 63 44 64 37 65 39 66 45 67 38 68 40 69
REMARK SMILES IDX 41 70 42 71 43 72 67 73 68 74 76 75 69 76 71 77 77 78 70 79
REMARK SMILES IDX 72 80 73 81 74 82 75 83 52 84 53 85 61 86 54 87 56 88 62 89
REMARK SMILES IDX 55 90 57 91 58 92 59 93 60 94
REMARK H PARENT 7 13 11 23 11 24 11 25 82 47 50 58
REMARK Flexibility Score: inf
ROOT
ATOM      1  C   UNL A   1      35.453  22.616  25.964  1.00  0.00     0.274 C 
ENDROOT
BRANCH   1   2
ATOM      2  O   UNL A   1      35.408  23.572  24.887  1.00  0.00    -0.462 OA
BRANCH   2   3
ATOM      3  C   UNL A   1      34.677  23.222  23.800  1.00  0.00     0.310 C 
ATOM      4  O   UNL A   1      35.104  23.231  22.650  1.00  0.00    -0.252 OA
BRANCH   3   5
ATOM      5  C   UNL A   1      33.239  22.828  24.117  1.00  0.00     0.118 C 
BRANCH   5   6
ATOM      6  C   UNL A   1      32.847  21.591  23.289  1.00  0.00     0.020 C 
BRANCH   6   7
ATOM      7  C   UNL A   1      32.271  20.417  24.126  1.00  0.00    -0.017 C 
ATOM      8  C   UNL A   1      32.680  19.010  23.682  1.00  0.00     0.007 C 
ATOM      9  C   UNL A   1      32.633  20.605  25.601  1.00  0.00     0.007 C 
ENDBRANCH   6   7
ENDBRANCH   5   6
BRANCH   5  10
ATOM     10  C   UNL A   1      32.225  23.987  24.198  1.00  0.00     0.131 C 
BRANCH  10  11
ATOM     11  N   UNL A   1      32.496  25.134  23.346  1.00  0.00    -0.350 N 
ATOM     12  C   UNL A   1      33.019  26.365  23.598  1.00  0.00     0.281 C 
ATOM     13  H   UNL A   1      32.254  24.992  22.402  1.00  0.00     0.163 HD
ATOM     14  O   UNL A   1      33.392  27.020  22.617  1.00  0.00    -0.268 OA
BRANCH  12  15
ATOM     15  C   UNL A   1      33.131  26.937  25.056  1.00  0.00     0.174 C 
ATOM     16  C   UNL A   1      31.735  27.004  25.684  1.00  0.00     0.079 C 
ATOM     17  C   UNL A   1      33.719  28.374  24.979  1.00  0.00     0.082 C 
ATOM     18  C   UNL A   1      31.614  27.816  26.961  1.00  0.00     0.007 C 
ATOM     19  C   UNL A   1      33.540  29.271  26.220  1.00  0.00    -0.008 C 
ATOM     20  C   UNL A   1      32.099  29.234  26.737  1.00  0.00     0.004 C 
ATOM     21  C   UNL A   1      34.546  28.977  27.333  1.00  0.00     0.008 C 
BRANCH  15  22
ATOM     22  N   UNL A   1      34.016  26.043  25.829  1.00  0.00    -0.345 N 
ATOM     23  H   UNL A   1      34.226  25.212  25.275  1.00  0.00     0.345 HD
ATOM     24  H   UNL A   1      33.551  25.768  26.693  1.00  0.00     0.345 HD
ATOM     25  H   UNL A   1      34.883  26.532  26.050  1.00  0.00     0.345 HD
ENDBRANCH  15  22
ENDBRANCH  12  15
ENDBRANCH  10  11
ENDBRANCH   5  10
ENDBRANCH   3   5
ENDBRANCH   2   3
ENDBRANCH   1   2
BRANCH   1  26
ATOM     26  C   UNL A   1      36.327  21.414  25.599  1.00  0.00     0.275 C 
BRANCH  26  27
ATOM     27  O   UNL A   1      37.604  21.824  25.076  1.00  0.00    -0.458 OA
BRANCH  27  28
ATOM     28  C   UNL A   1      38.674  21.408  25.793  1.00  0.00     0.338 C 
ATOM     29  O   UNL A   1      39.153  20.288  25.818  1.00  0.00    -0.246 OA
BRANCH  28  30
ATOM     30  C   UNL A   1      39.311  22.556  26.452  1.00  0.00     0.060 A 
ATOM     31  C   UNL A   1      38.916  23.835  26.058  1.00  0.00     0.016 A 
ATOM     32  C   UNL A   1      40.358  22.390  27.352  1.00  0.00     0.016 A 
ATOM     33  C   UNL A   1      39.570  24.963  26.530  1.00  0.00     0.010 A 
ATOM     34  C   UNL A   1      41.005  23.525  27.850  1.00  0.00     0.010 A 
ATOM     35  C   UNL A   1      40.626  24.815  27.428  1.00  0.00    -0.014 A 
BRANCH  35  36
ATOM     36  C   UNL A   1      41.380  26.003  27.883  1.00  0.00     0.031 A 
ATOM     37  C   UNL A   1      40.673  27.053  28.686  1.00  0.00     0.074 A 
ATOM     38  C   UNL A   1      42.677  26.146  27.556  1.00  0.00     0.049 A 
ATOM     39  N   UNL A   1      41.061  28.261  28.988  1.00  0.00    -0.248 NA
ATOM     40  C   UNL A   1      39.343  26.694  29.208  1.00  0.00     0.031 C 
ATOM     41  C   UNL A   1      43.481  25.161  26.830  1.00  0.00     0.029 A 
ATOM     42  N   UNL A   1      43.537  27.195  27.762  1.00  0.00    -0.354 N 
ATOM     43  C   UNL A   1      39.997  28.838  29.668  1.00  0.00     0.074 A 
ATOM     44  C   UNL A   1      38.955  27.837  29.757  1.00  0.00     0.031 C 
ATOM     45  C   UNL A   1      44.708  25.666  26.623  1.00  0.00     0.029 A 
ATOM     46  C   UNL A   1      44.754  27.028  27.144  1.00  0.00     0.049 A 
ATOM     47  H   UNL A   1      43.306  27.987  28.300  1.00  0.00     0.167 HD
ATOM     48  C   UNL A   1      39.901  30.091  30.169  1.00  0.00     0.034 A 
ATOM     49  C   UNL A   1      45.768  27.897  26.968  1.00  0.00     0.034 A 
ATOM     50  C   UNL A   1      40.967  31.053  30.120  1.00  0.00     0.049 A 
ATOM     51  C   UNL A   1      45.638  29.286  27.529  1.00  0.00     0.074 A 
ATOM     52  C   UNL A   1      40.987  32.344  30.617  1.00  0.00     0.029 A 
ATOM     53  N   UNL A   1      42.208  30.825  29.543  1.00  0.00    -0.354 N 
ATOM     54  N   UNL A   1      44.642  29.813  28.201  1.00  0.00    -0.248 NA
ATOM     55  C   UNL A   1      46.772  30.197  27.321  1.00  0.00     0.031 C 
ATOM     56  C   UNL A   1      42.241  32.897  30.338  1.00  0.00     0.029 A 
ATOM     57  C   UNL A   1      43.006  31.947  29.676  1.00  0.00     0.049 A 
ATOM     58  H   UNL A   1      42.481  29.987  29.105  1.00  0.00     0.167 HD
ATOM     59  C   UNL A   1      45.039  31.103  28.524  1.00  0.00     0.074 A 
ATOM     60  C   UNL A   1      46.374  31.275  27.985  1.00  0.00     0.031 C 
ATOM     61  C   UNL A   1      44.355  32.068  29.189  1.00  0.00     0.034 A 
BRANCH  48  62
ATOM     62  C   UNL A   1      38.601  30.482  30.818  1.00  0.00     0.023 A 
ATOM     63  C   UNL A   1      38.341  30.104  32.148  1.00  0.00     0.012 A 
ATOM     64  C   UNL A   1      37.651  31.249  30.116  1.00  0.00     0.148 A 
ATOM     65  C   UNL A   1      37.139  30.456  32.763  1.00  0.00     0.002 A 
ATOM     66  C   UNL A   1      36.471  31.628  30.748  1.00  0.00     0.091 A 
ATOM     67  F   UNL A   1      37.901  31.572  28.840  1.00  0.00    -0.205 F 
ATOM     68  C   UNL A   1      36.210  31.226  32.067  1.00  0.00     0.022 A 
BRANCH  66  69
ATOM     69  S   UNL A   1      35.252  32.676  29.945  1.00  0.00     0.127 S 
ATOM     70  O   UNL A   1      34.789  31.815  28.860  1.00  0.00    -0.237 OA
ATOM     71  O   UNL A   1      34.274  32.892  31.012  1.00  0.00    -0.237 OA
ATOM     72  O   UNL A   1      35.972  33.876  29.539  1.00  0.00    -0.744 OA
ENDBRANCH  66  69
ENDBRANCH  48  62
BRANCH  49  73
ATOM     73  C   UNL A   1      46.993  27.461  26.240  1.00  0.00     0.023 A 
ATOM     74  C   UNL A   1      47.924  26.631  26.892  1.00  0.00     0.012 A 
ATOM     75  C   UNL A   1      47.209  27.810  24.892  1.00  0.00     0.148 A 
ATOM     76  C   UNL A   1      49.056  26.168  26.220  1.00  0.00     0.002 A 
ATOM     77  C   UNL A   1      48.310  27.300  24.212  1.00  0.00     0.091 A 
ATOM     78  F   UNL A   1      46.322  28.618  24.294  1.00  0.00    -0.205 F 
ATOM     79  C   UNL A   1      49.241  26.491  24.879  1.00  0.00     0.022 A 
BRANCH  77  80
ATOM     80  S   UNL A   1      48.552  27.552  22.449  1.00  0.00     0.127 S 
ATOM     81  O   UNL A   1      49.815  28.284  22.423  1.00  0.00    -0.237 OA
ATOM     82  O   UNL A   1      48.627  26.176  21.954  1.00  0.00    -0.237 OA
ATOM     83  O   UNL A   1      47.381  28.288  21.994  1.00  0.00    -0.744 OA
ENDBRANCH  77  80
ENDBRANCH  49  73
BRANCH  61  84
ATOM     84  C   UNL A   1      45.048  33.384  29.412  1.00  0.00     0.023 A 
ATOM     85  C   UNL A   1      45.873  33.554  30.540  1.00  0.00     0.012 A 
ATOM     86  C   UNL A   1      44.957  34.414  28.456  1.00  0.00     0.148 A 
ATOM     87  C   UNL A   1      46.586  34.739  30.721  1.00  0.00     0.002 A 
ATOM     88  C   UNL A   1      45.701  35.575  28.622  1.00  0.00     0.091 A 
ATOM     89  F   UNL A   1      44.147  34.237  27.401  1.00  0.00    -0.205 F 
ATOM     90  C   UNL A   1      46.510  35.742  29.757  1.00  0.00     0.022 A 
BRANCH  88  91
ATOM     91  S   UNL A   1      45.732  36.876  27.383  1.00  0.00     0.127 S 
ATOM     92  O   UNL A   1      46.393  37.960  28.106  1.00  0.00    -0.237 OA
ATOM     93  O   UNL A   1      46.536  36.275  26.317  1.00  0.00    -0.237 OA
ATOM     94  O   UNL A   1      44.340  37.115  27.023  1.00  0.00    -0.744 OA
ENDBRANCH  88  91
ENDBRANCH  61  84
ENDBRANCH  35  36
ENDBRANCH  28  30
ENDBRANCH  27  28
ENDBRANCH  26  27
ENDBRANCH   1  26
TORSDOF 20
ENDMDL
MODEL 2
REMARK VINA RESULT:     -11.1      5.206     10.007
REMARK SMILES CC(C)C[C@H](CNC(=O)[C@]1([NH3+])CCC[C@@H](C)C1)C(=O)OCCOC(=O)c1ccc(-c2c3nc(c(-c4cccc(S(=O)(=O)[O-])c4F)c4ccc([nH]4)c(-c4cccc(S(=O)(=O)[O-])c4F)c4nc(c(-c5cccc(S(=O)(=O)[O-])c5F)c5ccc2[nH]5)C=C4)C=C3)cc1
REMARK SMILES IDX 21 1 20 2 18 3 19 4 5 5 4 6 2 7 1 8 3 9 6 10 7 11 8 12 9 14
REMARK SMILES IDX 10 15 12 16 17 17 13 18 15 19 14 20 16 21 11 22 22 26 23 27
REMARK SMILES IDX 24 28 25 29 26 30 27 31 88 32 28 33 87 34 29 35 30 36 31 37
REMARK SMILES IDX 81 38 32 39 86 40 80 41 82 42 33 43 85 44 79 45 78 46 34 48
REMARK SMILES IDX 66 49 46 50 65 51 47 52 50 53 64 54 83 55 48 56 49 57 63 59
REMARK SMILES IDX 84 60 51 61 35 62 36 63 44 64 37 65 39 66 45 67 38 68 40 69
REMARK SMILES IDX 41 70 42 71 43 72 67 73 68 74 76 75 69 76 71 77 77 78 70 79
REMARK SMILES IDX 72 80 73 81 74 82 75 83 52 84 53 85 61 86 54 87 56 88 62 89
REMARK SMILES IDX 55 90 57 91 58 92 59 93 60 94
REMARK H PARENT 7 13 11 23 11 24 11 25 82 47 50 58
REMARK Flexibility Score: inf
ROOT
ATOM      1  C   UNL A   1      31.560  28.940  24.368  1.00  0.00     0.274 C 
ENDROOT
BRANCH   1   2
ATOM      2  O   UNL A   1      30.205  28.449  24.341  1.00  0.00    -0.462 OA
BRANCH   2   3
ATOM      3  C   UNL A   1      30.051  27.111  24.190  1.00  0.00     0.310 C 
ATOM      4  O   UNL A   1      29.001  26.571  23.859  1.00  0.00    -0.252 OA
BRANCH   3   5
ATOM      5  C   UNL A   1      31.307  26.302  24.492  1.00  0.00     0.118 C 
BRANCH   5   6
ATOM      6  C   UNL A   1      31.470  25.187  23.444  1.00  0.00     0.020 C 
BRANCH   6   7
ATOM      7  C   UNL A   1      32.432  25.539  22.278  1.00  0.00    -0.017 C 
ATOM      8  C   UNL A   1      33.652  26.388  22.646  1.00  0.00     0.007 C 
ATOM      9  C   UNL A   1      32.901  24.256  21.588  1.00  0.00     0.007 C 
ENDBRANCH   6   7
ENDBRANCH   5   6
BRANCH   5  10
ATOM     10  C   UNL A   1      31.530  25.932  25.973  1.00  0.00     0.131 C 
BRANCH  10  11
ATOM     11  N   UNL A   1      30.732  24.826  26.482  1.00  0.00    -0.350 N 
ATOM     12  C   UNL A   1      31.057  23.569  26.893  1.00  0.00     0.281 C 
ATOM     13  H   UNL A   1      29.770  25.027  26.541  1.00  0.00     0.163 HD
ATOM     14  O   UNL A   1      30.199  22.959  27.542  1.00  0.00    -0.268 OA
BRANCH  12  15
ATOM     15  C   UNL A   1      32.442  22.915  26.549  1.00  0.00     0.174 C 
ATOM     16  C   UNL A   1      33.512  24.009  26.457  1.00  0.00     0.079 C 
ATOM     17  C   UNL A   1      32.326  22.207  25.170  1.00  0.00     0.082 C 
ATOM     18  C   UNL A   1      34.834  23.601  25.831  1.00  0.00     0.007 C 
ATOM     19  C   UNL A   1      33.642  21.855  24.450  1.00  0.00    -0.008 C 
ATOM     20  C   UNL A   1      34.612  23.040  24.441  1.00  0.00     0.004 C 
ATOM     21  C   UNL A   1      34.307  20.586  24.984  1.00  0.00     0.008 C 
BRANCH  15  22
ATOM     22  N   UNL A   1      32.766  21.947  27.615  1.00  0.00    -0.345 N 
ATOM     23  H   UNL A   1      32.964  21.037  27.199  1.00  0.00     0.345 HD
ATOM     24  H   UNL A   1      31.973  21.865  28.252  1.00  0.00     0.345 HD
ATOM     25  H   UNL A   1      33.584  22.271  28.131  1.00  0.00     0.345 HD
ENDBRANCH  15  22
ENDBRANCH  12  15
ENDBRANCH  10  11
ENDBRANCH   5  10
ENDBRANCH   3   5
ENDBRANCH   2   3
ENDBRANCH   1   2
BRANCH   1  26
ATOM     26  C   UNL A   1      31.733  30.026  25.433  1.00  0.00     0.275 C 
BRANCH  26  27
ATOM     27  O   UNL A   1      33.085  30.076  25.926  1.00  0.00    -0.458 OA
BRANCH  27  28
ATOM     28  C   UNL A   1      33.321  31.044  26.841  1.00  0.00     0.338 C 
ATOM     29  O   UNL A   1      32.534  31.881  27.250  1.00  0.00    -0.246 OA
BRANCH  28  30
ATOM     30  C   UNL A   1      34.659  30.866  27.423  1.00  0.00     0.060 A 
ATOM     31  C   UNL A   1      35.078  29.565  27.705  1.00  0.00     0.016 A 
ATOM     32  C   UNL A   1      35.441  31.953  27.796  1.00  0.00     0.016 A 
ATOM     33  C   UNL A   1      36.263  29.328  28.383  1.00  0.00     0.010 A 
ATOM     34  C   UNL A   1      36.650  31.718  28.459  1.00  0.00     0.010 A 
ATOM     35  C   UNL A   1      37.058  30.405  28.771  1.00  0.00    -0.014 A 
BRANCH  35  36
ATOM     36  C   UNL A   1      38.287  30.171  29.559  1.00  0.00     0.031 A 
ATOM     37  C   UNL A   1      39.350  29.272  29.002  1.00  0.00     0.074 A 
ATOM     38  C   UNL A   1      38.433  30.740  30.769  1.00  0.00     0.049 A 
ATOM     39  N   UNL A   1      40.384  28.748  29.600  1.00  0.00    -0.248 NA
ATOM     40  C   UNL A   1      39.222  28.906  27.581  1.00  0.00     0.031 C 
ATOM     41  C   UNL A   1      37.491  31.678  31.383  1.00  0.00     0.029 A 
ATOM     42  N   UNL A   1      39.415  30.582  31.715  1.00  0.00    -0.354 N 
ATOM     43  C   UNL A   1      40.988  27.929  28.657  1.00  0.00     0.074 A 
ATOM     44  C   UNL A   1      40.219  28.045  27.436  1.00  0.00     0.031 C 
ATOM     45  C   UNL A   1      37.924  31.988  32.615  1.00  0.00     0.029 A 
ATOM     46  C   UNL A   1      39.134  31.223  32.898  1.00  0.00     0.049 A 
ATOM     47  H   UNL A   1      40.237  30.063  31.560  1.00  0.00     0.167 HD
ATOM     48  C   UNL A   1      42.085  27.150  28.801  1.00  0.00     0.034 A 
ATOM     49  C   UNL A   1      39.752  31.155  34.093  1.00  0.00     0.034 A 
ATOM     50  C   UNL A   1      42.868  27.089  30.004  1.00  0.00     0.049 A 
ATOM     51  C   UNL A   1      40.966  30.278  34.232  1.00  0.00     0.074 A 
ATOM     52  C   UNL A   1      44.011  26.352  30.253  1.00  0.00     0.029 A 
ATOM     53  N   UNL A   1      42.590  27.803  31.162  1.00  0.00    -0.354 N 
ATOM     54  N   UNL A   1      41.552  29.532  33.325  1.00  0.00    -0.248 NA
ATOM     55  C   UNL A   1      41.613  30.240  35.551  1.00  0.00     0.031 C 
ATOM     56  C   UNL A   1      44.423  26.618  31.563  1.00  0.00     0.029 A 
ATOM     57  C   UNL A   1      43.542  27.530  32.127  1.00  0.00     0.049 A 
ATOM     58  H   UNL A   1      41.828  28.415  31.278  1.00  0.00     0.167 HD
ATOM     59  C   UNL A   1      42.652  28.962  33.951  1.00  0.00     0.074 A 
ATOM     60  C   UNL A   1      42.660  29.460  35.313  1.00  0.00     0.031 C 
ATOM     61  C   UNL A   1      43.564  28.090  33.453  1.00  0.00     0.034 A 
BRANCH  48  62
ATOM     62  C   UNL A   1      42.499  26.309  27.625  1.00  0.00     0.023 A 
ATOM     63  C   UNL A   1      43.361  26.846  26.650  1.00  0.00     0.012 A 
ATOM     64  C   UNL A   1      42.056  24.978  27.501  1.00  0.00     0.148 A 
ATOM     65  C   UNL A   1      43.752  26.080  25.551  1.00  0.00     0.002 A 
ATOM     66  C   UNL A   1      42.480  24.209  26.423  1.00  0.00     0.091 A 
ATOM     67  F   UNL A   1      41.210  24.495  28.421  1.00  0.00    -0.205 F 
ATOM     68  C   UNL A   1      43.321  24.761  25.443  1.00  0.00     0.022 A 
BRANCH  66  69
ATOM     69  S   UNL A   1      42.025  22.480  26.245  1.00  0.00     0.127 S 
ATOM     70  O   UNL A   1      42.681  22.129  24.987  1.00  0.00    -0.237 OA
ATOM     71  O   UNL A   1      42.625  21.873  27.434  1.00  0.00    -0.237 OA
ATOM     72  O   UNL A   1      40.568  22.457  26.228  1.00  0.00    -0.744 OA
ENDBRANCH  66  69
ENDBRANCH  48  62
BRANCH  49  73
ATOM     73  C   UNL A   1      39.232  31.954  35.238  1.00  0.00     0.023 A 
ATOM     74  C   UNL A   1      38.317  31.366  36.130  1.00  0.00     0.012 A 
ATOM     75  C   UNL A   1      39.683  33.267  35.482  1.00  0.00     0.148 A 
ATOM     76  C   UNL A   1      37.850  32.074  37.238  1.00  0.00     0.002 A 
ATOM     77  C   UNL A   1      39.256  33.946  36.617  1.00  0.00     0.091 A 
ATOM     78  F   UNL A   1      40.539  33.818  34.609  1.00  0.00    -0.205 F 
ATOM     79  C   UNL A   1      38.329  33.357  37.489  1.00  0.00     0.022 A 
BRANCH  77  80
ATOM     80  S   UNL A   1      39.927  35.546  37.090  1.00  0.00     0.127 S 
ATOM     81  O   UNL A   1      39.652  36.348  35.901  1.00  0.00    -0.237 OA
ATOM     82  O   UNL A   1      39.114  35.881  38.260  1.00  0.00    -0.237 OA
ATOM     83  O   UNL A   1      41.333  35.309  37.386  1.00  0.00    -0.744 OA
ENDBRANCH  77  80
ENDBRANCH  49  73
BRANCH  61  84
ATOM     84  C   UNL A   1      44.674  27.646  34.366  1.00  0.00     0.023 A 
ATOM     85  C   UNL A   1      45.813  28.459  34.523  1.00  0.00     0.012 A 
ATOM     86  C   UNL A   1      44.543  26.475  35.137  1.00  0.00     0.148 A 
ATOM     87  C   UNL A   1      46.815  28.103  35.425  1.00  0.00     0.002 A 
ATOM     88  C   UNL A   1      45.525  26.148  36.063  1.00  0.00     0.091 A 
ATOM     89  F   UNL A   1      43.460  25.706  34.953  1.00  0.00    -0.205 F 
ATOM     90  C   UNL A   1      46.665  26.956  36.203  1.00  0.00     0.022 A 
BRANCH  88  91
ATOM     91  S   UNL A   1      45.366  24.740  37.168  1.00  0.00     0.127 S 
ATOM     92  O   UNL A   1      46.765  24.397  37.416  1.00  0.00    -0.237 OA
ATOM     93  O   UNL A   1      44.667  25.320  38.316  1.00  0.00    -0.237 OA
ATOM     94  O   UNL A   1      44.594  23.746  36.435  1.00  0.00    -0.744 OA
ENDBRANCH  88  91
ENDBRANCH  61  84
ENDBRANCH  35  36
ENDBRANCH  28  30
ENDBRANCH  27  28
ENDBRANCH  26  27
ENDBRANCH   1  26
TORSDOF 20
ENDMDL
MODEL 3
REMARK VINA RESULT:     -10.9      5.454      9.955
REMARK SMILES CC(C)C[C@H](CNC(=O)[C@]1([NH3+])CCC[C@@H](C)C1)C(=O)OCCOC(=O)c1ccc(-c2c3nc(c(-c4cccc(S(=O)(=O)[O-])c4F)c4ccc([nH]4)c(-c4cccc(S(=O)(=O)[O-])c4F)c4nc(c(-c5cccc(S(=O)(=O)[O-])c5F)c5ccc2[nH]5)C=C4)C=C3)cc1
REMARK SMILES IDX 21 1 20 2 18 3 19 4 5 5 4 6 2 7 1 8 3 9 6 10 7 11 8 12 9 14
REMARK SMILES IDX 10 15 12 16 17 17 13 18 15 19 14 20 16 21 11 22 22 26 23 27
REMARK SMILES IDX 24 28 25 29 26 30 27 31 88 32 28 33 87 34 29 35 30 36 31 37
REMARK SMILES IDX 81 38 32 39 86 40 80 41 82 42 33 43 85 44 79 45 78 46 34 48
REMARK SMILES IDX 66 49 46 50 65 51 47 52 50 53 64 54 83 55 48 56 49 57 63 59
REMARK SMILES IDX 84 60 51 61 35 62 36 63 44 64 37 65 39 66 45 67 38 68 40 69
REMARK SMILES IDX 41 70 42 71 43 72 67 73 68 74 76 75 69 76 71 77 77 78 70 79
REMARK SMILES IDX 72 80 73 81 74 82 75 83 52 84 53 85 61 86 54 87 56 88 62 89
REMARK SMILES IDX 55 90 57 91 58 92 59 93 60 94
REMARK H PARENT 7 13 11 23 11 24 11 25 82 47 50 58
REMARK Flexibility Score: inf
ROOT
ATOM      1  C   UNL A   1      32.583  28.531  25.539  1.00  0.00     0.274 C 
ENDROOT
BRANCH   1   2
ATOM      2  O   UNL A   1      33.841  28.524  24.837  1.00  0.00    -0.462 OA
BRANCH   2   3
ATOM      3  C   UNL A   1      33.786  28.292  23.502  1.00  0.00     0.310 C 
ATOM      4  O   UNL A   1      34.353  28.979  22.659  1.00  0.00    -0.252 OA
BRANCH   3   5
ATOM      5  C   UNL A   1      32.925  27.096  23.114  1.00  0.00     0.118 C 
BRANCH   5   6
ATOM      6  C   UNL A   1      33.827  25.936  22.654  1.00  0.00     0.020 C 
BRANCH   6   7
ATOM      7  C   UNL A   1      33.801  24.696  23.587  1.00  0.00    -0.017 C 
ATOM      8  C   UNL A   1      33.113  24.886  24.941  1.00  0.00     0.007 C 
ATOM      9  C   UNL A   1      33.160  23.513  22.857  1.00  0.00     0.007 C 
ENDBRANCH   6   7
ENDBRANCH   5   6
BRANCH   5  10
ATOM     10  C   UNL A   1      31.676  27.411  22.265  1.00  0.00     0.131 C 
BRANCH  10  11
ATOM     11  N   UNL A   1      30.393  27.244  22.930  1.00  0.00    -0.350 N 
ATOM     12  C   UNL A   1      29.281  28.027  22.995  1.00  0.00     0.281 C 
ATOM     13  H   UNL A   1      30.313  26.399  23.429  1.00  0.00     0.163 HD
ATOM     14  O   UNL A   1      28.245  27.485  23.399  1.00  0.00    -0.268 OA
BRANCH  12  15
ATOM     15  C   UNL A   1      29.310  29.545  22.596  1.00  0.00     0.174 C 
ATOM     16  C   UNL A   1      29.438  30.401  23.861  1.00  0.00     0.079 C 
ATOM     17  C   UNL A   1      27.973  29.894  21.884  1.00  0.00     0.082 C 
ATOM     18  C   UNL A   1      29.168  31.885  23.694  1.00  0.00     0.007 C 
ATOM     19  C   UNL A   1      27.609  31.387  21.771  1.00  0.00    -0.008 C 
ATOM     20  C   UNL A   1      27.788  32.112  23.107  1.00  0.00     0.004 C 
ATOM     21  C   UNL A   1      28.338  32.107  20.636  1.00  0.00     0.008 C 
BRANCH  15  22
ATOM     22  N   UNL A   1      30.461  29.757  21.696  1.00  0.00    -0.345 N 
ATOM     23  H   UNL A   1      31.101  30.430  22.117  1.00  0.00     0.345 HD
ATOM     24  H   UNL A   1      30.131  30.115  20.800  1.00  0.00     0.345 HD
ATOM     25  H   UNL A   1      30.946  28.872  21.550  1.00  0.00     0.345 HD
ENDBRANCH  15  22
ENDBRANCH  12  15
ENDBRANCH  10  11
ENDBRANCH   5  10
ENDBRANCH   3   5
ENDBRANCH   2   3
ENDBRANCH   1   2
BRANCH   1  26
ATOM     26  C   UNL A   1      32.128  29.961  25.843  1.00  0.00     0.275 C 
BRANCH  26  27
ATOM     27  O   UNL A   1      32.484  30.359  27.180  1.00  0.00    -0.458 OA
BRANCH  27  28
ATOM     28  C   UNL A   1      33.165  31.525  27.265  1.00  0.00     0.338 C 
ATOM     29  O   UNL A   1      32.728  32.649  27.083  1.00  0.00    -0.246 OA
BRANCH  28  30
ATOM     30  C   UNL A   1      34.521  31.276  27.774  1.00  0.00     0.060 A 
ATOM     31  C   UNL A   1      34.829  29.985  28.202  1.00  0.00     0.016 A 
ATOM     32  C   UNL A   1      35.436  32.309  27.942  1.00  0.00     0.016 A 
ATOM     33  C   UNL A   1      36.036  29.706  28.824  1.00  0.00     0.010 A 
ATOM     34  C   UNL A   1      36.666  32.029  28.547  1.00  0.00     0.010 A 
ATOM     35  C   UNL A   1      36.964  30.731  29.007  1.00  0.00    -0.014 A 
BRANCH  35  36
ATOM     36  C   UNL A   1      38.223  30.465  29.734  1.00  0.00     0.031 A 
ATOM     37  C   UNL A   1      39.236  29.541  29.127  1.00  0.00     0.074 A 
ATOM     38  C   UNL A   1      38.441  31.029  30.936  1.00  0.00     0.049 A 
ATOM     39  N   UNL A   1      40.284  28.991  29.675  1.00  0.00    -0.248 NA
ATOM     40  C   UNL A   1      39.030  29.179  27.714  1.00  0.00     0.031 C 
ATOM     41  C   UNL A   1      37.554  31.990  31.594  1.00  0.00     0.029 A 
ATOM     42  N   UNL A   1      39.464  30.847  31.833  1.00  0.00    -0.354 N 
ATOM     43  C   UNL A   1      40.821  28.158  28.703  1.00  0.00     0.074 A 
ATOM     44  C   UNL A   1      39.997  28.294  27.521  1.00  0.00     0.031 C 
ATOM     45  C   UNL A   1      38.054  32.287  32.804  1.00  0.00     0.029 A 
ATOM     46  C   UNL A   1      39.256  31.493  33.029  1.00  0.00     0.049 A 
ATOM     47  H   UNL A   1      40.264  30.308  31.639  1.00  0.00     0.167 HD
ATOM     48  C   UNL A   1      41.904  27.352  28.795  1.00  0.00     0.034 A 
ATOM     49  C   UNL A   1      39.930  31.408  34.192  1.00  0.00     0.034 A 
ATOM     50  C   UNL A   1      42.743  27.271  29.958  1.00  0.00     0.049 A 
ATOM     51  C   UNL A   1      41.127  30.501  34.272  1.00  0.00     0.074 A 
ATOM     52  C   UNL A   1      43.878  26.505  30.152  1.00  0.00     0.029 A 
ATOM     53  N   UNL A   1      42.539  27.990  31.128  1.00  0.00    -0.354 N 
ATOM     54  N   UNL A   1      41.649  29.743  33.338  1.00  0.00    -0.248 NA
ATOM     55  C   UNL A   1      41.835  30.446  35.558  1.00  0.00     0.031 C 
ATOM     56  C   UNL A   1      44.359  26.760  31.441  1.00  0.00     0.029 A 
ATOM     57  C   UNL A   1      43.530  27.692  32.046  1.00  0.00     0.049 A 
ATOM     58  H   UNL A   1      41.798  28.621  31.281  1.00  0.00     0.167 HD
ATOM     59  C   UNL A   1      42.764  29.145  33.911  1.00  0.00     0.074 A 
ATOM     60  C   UNL A   1      42.850  29.641  35.271  1.00  0.00     0.031 C 
ATOM     61  C   UNL A   1      43.629  28.251  33.369  1.00  0.00     0.034 A 
BRANCH  48  62
ATOM     62  C   UNL A   1      42.240  26.502  27.600  1.00  0.00     0.023 A 
ATOM     63  C   UNL A   1      42.943  27.064  26.517  1.00  0.00     0.012 A 
ATOM     64  C   UNL A   1      41.883  25.141  27.563  1.00  0.00     0.148 A 
ATOM     65  C   UNL A   1      43.260  26.291  25.400  1.00  0.00     0.002 A 
ATOM     66  C   UNL A   1      42.236  24.366  26.463  1.00  0.00     0.091 A 
ATOM     67  F   UNL A   1      41.187  24.631  28.588  1.00  0.00    -0.205 F 
ATOM     68  C   UNL A   1      42.915  24.941  25.377  1.00  0.00     0.022 A 
BRANCH  66  69
ATOM     69  S   UNL A   1      41.890  22.605  26.384  1.00  0.00     0.127 S 
ATOM     70  O   UNL A   1      42.474  22.131  27.636  1.00  0.00    -0.237 OA
ATOM     71  O   UNL A   1      40.427  22.574  26.345  1.00  0.00    -0.237 OA
ATOM     72  O   UNL A   1      42.533  22.133  25.165  1.00  0.00    -0.744 OA
ENDBRANCH  66  69
ENDBRANCH  48  62
BRANCH  49  73
ATOM     73  C   UNL A   1      39.485  32.219  35.361  1.00  0.00     0.023 A 
ATOM     74  C   UNL A   1      38.678  31.623  36.347  1.00  0.00     0.012 A 
ATOM     75  C   UNL A   1      39.907  33.553  35.531  1.00  0.00     0.148 A 
ATOM     76  C   UNL A   1      38.287  32.343  37.476  1.00  0.00     0.002 A 
ATOM     77  C   UNL A   1      39.559  34.247  36.685  1.00  0.00     0.091 A 
ATOM     78  F   UNL A   1      40.658  34.111  34.571  1.00  0.00    -0.205 F 
ATOM     79  C   UNL A   1      38.738  33.648  37.651  1.00  0.00     0.022 A 
BRANCH  77  80
ATOM     80  S   UNL A   1      40.208  35.882  37.056  1.00  0.00     0.127 S 
ATOM     81  O   UNL A   1      39.754  36.653  35.902  1.00  0.00    -0.237 OA
ATOM     82  O   UNL A   1      39.529  36.199  38.314  1.00  0.00    -0.237 OA
ATOM     83  O   UNL A   1      41.649  35.712  37.180  1.00  0.00    -0.744 OA
ENDBRANCH  77  80
ENDBRANCH  49  73
BRANCH  61  84
ATOM     84  C   UNL A   1      44.771  27.779  34.228  1.00  0.00     0.023 A 
ATOM     85  C   UNL A   1      45.978  28.503  34.240  1.00  0.00     0.012 A 
ATOM     86  C   UNL A   1      44.611  26.677  35.090  1.00  0.00     0.148 A 
ATOM     87  C   UNL A   1      47.018  28.127  35.089  1.00  0.00     0.002 A 
ATOM     88  C   UNL A   1      45.636  26.333  35.962  1.00  0.00     0.091 A 
ATOM     89  F   UNL A   1      43.461  25.990  35.043  1.00  0.00    -0.205 F 
ATOM     90  C   UNL A   1      46.843  27.051  35.958  1.00  0.00     0.022 A 
BRANCH  88  91
ATOM     91  S   UNL A   1      45.457  25.020  37.176  1.00  0.00     0.127 S 
ATOM     92  O   UNL A   1      44.263  25.446  37.901  1.00  0.00    -0.237 OA
ATOM     93  O   UNL A   1      45.270  23.837  36.334  1.00  0.00    -0.237 OA
ATOM     94  O   UNL A   1      46.695  25.019  37.945  1.00  0.00    -0.744 OA
ENDBRANCH  88  91
ENDBRANCH  61  84
ENDBRANCH  35  36
ENDBRANCH  28  30
ENDBRANCH  27  28
ENDBRANCH  26  27
ENDBRANCH   1  26
TORSDOF 20
ENDMDL
