MODEL 1
REMARK VINA RESULT:     -12.3      0.000      0.000
REMARK SMILES O=C(CCC(=O)N1CCC(c2nnc3ccccn23)CC1)OCCOC(=O)c1ccc(-c2c3nc(c(-c4cccc(S(=O)(=O)[O-])c4F)c4ccc([nH]4)c(-c4cccc(S(=O)(=O)[O-])c4F)c4nc(c(-c5cccc(S(=O)(=O)[O-])c5F)c5ccc2[nH]5)C=C4)C=C3)cc1
REMARK SMILES IDX 23 1 22 2 2 3 1 4 3 5 4 6 5 7 6 8 7 9 8 10 21 11 9 12 20 13
REMARK SMILES IDX 10 14 11 15 12 16 19 17 13 18 14 19 18 20 15 21 17 22 16 23
REMARK SMILES IDX 24 24 25 25 26 26 27 27 28 28 29 29 90 30 30 31 89 32 31 33
REMARK SMILES IDX 32 34 33 35 83 36 34 37 88 38 82 39 84 40 35 41 87 42 81 43
REMARK SMILES IDX 80 44 36 46 68 47 48 48 67 49 49 50 52 51 66 52 85 53 50 54
REMARK SMILES IDX 51 55 65 57 86 58 53 59 37 60 38 61 46 62 39 63 41 64 47 65
REMARK SMILES IDX 40 66 42 67 43 68 44 69 45 70 69 71 70 72 78 73 71 74 73 75
REMARK SMILES IDX 79 76 72 77 74 78 75 79 76 80 77 81 54 82 55 83 63 84 56 85
REMARK SMILES IDX 58 86 64 87 57 88 59 89 60 90 61 91 62 92
REMARK H PARENT 84 45 52 56
REMARK Flexibility Score: inf
ROOT
ATOM      1  C   UNL A   1      36.250  20.036  24.954  1.00  0.00     0.274 C 
ENDROOT
BRANCH   1   2
ATOM      2  O   UNL A   1      35.789  21.339  24.516  1.00  0.00    -0.462 OA
BRANCH   2   3
ATOM      3  C   UNL A   1      35.095  22.250  25.225  1.00  0.00     0.306 C 
ATOM      4  O   UNL A   1      35.684  23.033  25.969  1.00  0.00    -0.252 OA
BRANCH   3   5
ATOM      5  C   UNL A   1      33.629  22.410  24.970  1.00  0.00     0.132 C 
BRANCH   5   6
ATOM      6  C   UNL A   1      33.368  22.315  23.478  1.00  0.00     0.112 C 
BRANCH   6   7
ATOM      7  C   UNL A   1      33.438  23.663  22.793  1.00  0.00     0.223 C 
ATOM      8  O   UNL A   1      34.536  24.111  22.454  1.00  0.00    -0.275 OA
ATOM      9  N   UNL A   1      32.262  24.346  22.526  1.00  0.00    -0.343 N 
ATOM     10  C   UNL A   1      32.297  25.413  21.542  1.00  0.00     0.120 C 
ATOM     11  C   UNL A   1      30.997  24.243  23.262  1.00  0.00     0.120 C 
ATOM     12  C   UNL A   1      32.078  26.754  22.213  1.00  0.00     0.033 C 
ATOM     13  C   UNL A   1      30.664  25.574  23.960  1.00  0.00     0.033 C 
ATOM     14  C   UNL A   1      30.748  26.763  22.989  1.00  0.00     0.062 C 
BRANCH  14  15
ATOM     15  C   UNL A   1      30.606  28.091  23.671  1.00  0.00     0.140 A 
ATOM     16  N   UNL A   1      31.444  28.648  24.525  1.00  0.00    -0.134 NA
ATOM     17  N   UNL A   1      29.617  29.000  23.356  1.00  0.00    -0.286 N 
ATOM     18  N   UNL A   1      31.030  29.941  24.764  1.00  0.00    -0.130 NA
ATOM     19  C   UNL A   1      29.951  30.155  24.045  1.00  0.00     0.160 A 
ATOM     20  C   UNL A   1      28.512  28.907  22.508  1.00  0.00     0.095 A 
ATOM     21  C   UNL A   1      29.129  31.300  23.846  1.00  0.00     0.050 A 
ATOM     22  C   UNL A   1      27.731  29.984  22.330  1.00  0.00     0.019 A 
ATOM     23  C   UNL A   1      28.066  31.220  23.020  1.00  0.00     0.005 A 
ENDBRANCH  14  15
ENDBRANCH   6   7
ENDBRANCH   5   6
ENDBRANCH   3   5
ENDBRANCH   2   3
ENDBRANCH   1   2
BRANCH   1  24
ATOM     24  C   UNL A   1      37.766  19.974  24.790  1.00  0.00     0.275 C 
BRANCH  24  25
ATOM     25  O   UNL A   1      38.315  21.136  25.430  1.00  0.00    -0.458 OA
BRANCH  25  26
ATOM     26  C   UNL A   1      39.452  20.913  26.132  1.00  0.00     0.338 C 
ATOM     27  O   UNL A   1      40.150  19.913  26.103  1.00  0.00    -0.246 OA
BRANCH  26  28
ATOM     28  C   UNL A   1      39.839  22.175  26.794  1.00  0.00     0.060 A 
ATOM     29  C   UNL A   1      39.181  23.353  26.410  1.00  0.00     0.016 A 
ATOM     30  C   UNL A   1      40.834  22.206  27.776  1.00  0.00     0.016 A 
ATOM     31  C   UNL A   1      39.583  24.575  26.938  1.00  0.00     0.010 A 
ATOM     32  C   UNL A   1      41.238  23.428  28.305  1.00  0.00     0.010 A 
ATOM     33  C   UNL A   1      40.662  24.616  27.830  1.00  0.00    -0.014 A 
BRANCH  33  34
ATOM     34  C   UNL A   1      41.397  25.884  28.010  1.00  0.00     0.031 A 
ATOM     35  C   UNL A   1      40.684  26.993  28.737  1.00  0.00     0.074 A 
ATOM     36  C   UNL A   1      42.638  26.052  27.525  1.00  0.00     0.049 A 
ATOM     37  N   UNL A   1      41.095  28.199  29.020  1.00  0.00    -0.248 NA
ATOM     38  C   UNL A   1      39.311  26.704  29.194  1.00  0.00     0.031 C 
ATOM     39  C   UNL A   1      43.408  25.048  26.794  1.00  0.00     0.029 A 
ATOM     40  N   UNL A   1      43.457  27.150  27.560  1.00  0.00    -0.354 N 
ATOM     41  C   UNL A   1      40.025  28.817  29.660  1.00  0.00     0.074 A 
ATOM     42  C   UNL A   1      38.940  27.866  29.705  1.00  0.00     0.031 C 
ATOM     43  C   UNL A   1      44.586  25.585  26.431  1.00  0.00     0.029 A 
ATOM     44  C   UNL A   1      44.644  26.970  26.894  1.00  0.00     0.049 A 
ATOM     45  H   UNL A   1      43.217  27.987  28.019  1.00  0.00     0.167 HD
ATOM     46  C   UNL A   1      39.959  30.063  30.182  1.00  0.00     0.034 A 
ATOM     47  C   UNL A   1      45.656  27.837  26.688  1.00  0.00     0.034 A 
ATOM     48  C   UNL A   1      41.050  30.993  30.148  1.00  0.00     0.049 A 
ATOM     49  C   UNL A   1      45.564  29.215  27.292  1.00  0.00     0.074 A 
ATOM     50  C   UNL A   1      41.117  32.263  30.687  1.00  0.00     0.029 A 
ATOM     51  N   UNL A   1      42.265  30.753  29.525  1.00  0.00    -0.354 N 
ATOM     52  N   UNL A   1      44.602  29.742  28.014  1.00  0.00    -0.248 NA
ATOM     53  C   UNL A   1      46.716  30.105  27.092  1.00  0.00     0.031 C 
ATOM     54  C   UNL A   1      42.370  32.801  30.368  1.00  0.00     0.029 A 
ATOM     55  C   UNL A   1      43.092  31.852  29.660  1.00  0.00     0.049 A 
ATOM     56  H   UNL A   1      42.505  29.920  29.056  1.00  0.00     0.167 HD
ATOM     57  C   UNL A   1      45.055  31.000  28.399  1.00  0.00     0.074 A 
ATOM     58  C   UNL A   1      46.381  31.152  27.835  1.00  0.00     0.031 C 
ATOM     59  C   UNL A   1      44.433  31.947  29.144  1.00  0.00     0.034 A 
BRANCH  46  60
ATOM     60  C   UNL A   1      38.670  30.470  30.844  1.00  0.00     0.023 A 
ATOM     61  C   UNL A   1      38.442  30.142  32.198  1.00  0.00     0.012 A 
ATOM     62  C   UNL A   1      37.690  31.188  30.135  1.00  0.00     0.148 A 
ATOM     63  C   UNL A   1      37.244  30.489  32.822  1.00  0.00     0.002 A 
ATOM     64  C   UNL A   1      36.519  31.573  30.777  1.00  0.00     0.091 A 
ATOM     65  F   UNL A   1      37.910  31.464  28.841  1.00  0.00    -0.205 F 
ATOM     66  C   UNL A   1      36.289  31.213  32.115  1.00  0.00     0.022 A 
BRANCH  64  67
ATOM     67  S   UNL A   1      35.262  32.573  29.973  1.00  0.00     0.127 S 
ATOM     68  O   UNL A   1      34.319  32.799  31.068  1.00  0.00    -0.237 OA
ATOM     69  O   UNL A   1      36.022  33.757  29.570  1.00  0.00    -0.237 OA
ATOM     70  O   UNL A   1      34.758  31.771  28.868  1.00  0.00    -0.744 OA
ENDBRANCH  64  67
ENDBRANCH  46  60
BRANCH  47  71
ATOM     71  C   UNL A   1      46.874  27.401  25.949  1.00  0.00     0.023 A 
ATOM     72  C   UNL A   1      46.968  27.652  24.566  1.00  0.00     0.012 A 
ATOM     73  C   UNL A   1      47.944  26.759  26.603  1.00  0.00     0.148 A 
ATOM     74  C   UNL A   1      48.086  27.241  23.840  1.00  0.00     0.002 A 
ATOM     75  C   UNL A   1      49.077  26.398  25.885  1.00  0.00     0.091 A 
ATOM     76  F   UNL A   1      47.831  26.519  27.917  1.00  0.00    -0.205 F 
ATOM     77  C   UNL A   1      49.144  26.623  24.501  1.00  0.00     0.022 A 
BRANCH  75  78
ATOM     78  S   UNL A   1      50.538  25.704  26.668  1.00  0.00     0.127 S 
ATOM     79  O   UNL A   1      50.003  24.486  27.272  1.00  0.00    -0.237 OA
ATOM     80  O   UNL A   1      51.420  25.487  25.522  1.00  0.00    -0.237 OA
ATOM     81  O   UNL A   1      51.004  26.721  27.601  1.00  0.00    -0.744 OA
ENDBRANCH  75  78
ENDBRANCH  47  71
BRANCH  59  82
ATOM     82  C   UNL A   1      45.196  33.208  29.450  1.00  0.00     0.023 A 
ATOM     83  C   UNL A   1      45.972  33.298  30.622  1.00  0.00     0.012 A 
ATOM     84  C   UNL A   1      45.207  34.274  28.529  1.00  0.00     0.148 A 
ATOM     85  C   UNL A   1      46.716  34.446  30.890  1.00  0.00     0.002 A 
ATOM     86  C   UNL A   1      45.993  35.393  28.777  1.00  0.00     0.091 A 
ATOM     87  F   UNL A   1      44.448  34.177  27.427  1.00  0.00    -0.205 F 
ATOM     88  C   UNL A   1      46.737  35.486  29.963  1.00  0.00     0.022 A 
BRANCH  86  89
ATOM     89  S   UNL A   1      46.157  36.725  27.584  1.00  0.00     0.127 S 
ATOM     90  O   UNL A   1      46.351  35.987  26.337  1.00  0.00    -0.237 OA
ATOM     91  O   UNL A   1      44.866  37.406  27.694  1.00  0.00    -0.237 OA
ATOM     92  O   UNL A   1      47.293  37.520  28.030  1.00  0.00    -0.744 OA
ENDBRANCH  86  89
ENDBRANCH  59  82
ENDBRANCH  33  34
ENDBRANCH  26  28
ENDBRANCH  25  26
ENDBRANCH  24  25
ENDBRANCH   1  24
TORSDOF 17
ENDMDL
MODEL 2
REMARK VINA RESULT:     -12.0      4.854     10.284
REMARK SMILES O=C(CCC(=O)N1CCC(c2nnc3ccccn23)CC1)OCCOC(=O)c1ccc(-c2c3nc(c(-c4cccc(S(=O)(=O)[O-])c4F)c4ccc([nH]4)c(-c4cccc(S(=O)(=O)[O-])c4F)c4nc(c(-c5cccc(S(=O)(=O)[O-])c5F)c5ccc2[nH]5)C=C4)C=C3)cc1
REMARK SMILES IDX 23 1 22 2 2 3 1 4 3 5 4 6 5 7 6 8 7 9 8 10 21 11 9 12 20 13
REMARK SMILES IDX 10 14 11 15 12 16 19 17 13 18 14 19 18 20 15 21 17 22 16 23
REMARK SMILES IDX 24 24 25 25 26 26 27 27 28 28 29 29 90 30 30 31 89 32 31 33
REMARK SMILES IDX 32 34 33 35 83 36 34 37 88 38 82 39 84 40 35 41 87 42 81 43
REMARK SMILES IDX 80 44 36 46 68 47 48 48 67 49 49 50 52 51 66 52 85 53 50 54
REMARK SMILES IDX 51 55 65 57 86 58 53 59 37 60 38 61 46 62 39 63 41 64 47 65
REMARK SMILES IDX 40 66 42 67 43 68 44 69 45 70 69 71 70 72 78 73 71 74 73 75
REMARK SMILES IDX 79 76 72 77 74 78 75 79 76 80 77 81 54 82 55 83 63 84 56 85
REMARK SMILES IDX 58 86 64 87 57 88 59 89 60 90 61 91 62 92
REMARK H PARENT 84 45 52 56
REMARK Flexibility Score: inf
ROOT
ATOM      1  C   UNL A   1      31.606  30.075  25.024  1.00  0.00     0.274 C 
ENDROOT
BRANCH   1   2
ATOM      2  O   UNL A   1      30.308  29.859  24.417  1.00  0.00    -0.462 OA
BRANCH   2   3
ATOM      3  C   UNL A   1      30.040  29.325  23.210  1.00  0.00     0.306 C 
ATOM      4  O   UNL A   1      30.685  29.674  22.223  1.00  0.00    -0.252 OA
BRANCH   3   5
ATOM      5  C   UNL A   1      29.072  28.187  23.115  1.00  0.00     0.132 C 
BRANCH   5   6
ATOM      6  C   UNL A   1      29.638  26.986  23.849  1.00  0.00     0.112 C 
BRANCH   6   7
ATOM      7  C   UNL A   1      31.003  26.584  23.332  1.00  0.00     0.223 C 
ATOM      8  O   UNL A   1      31.166  26.427  22.119  1.00  0.00    -0.275 OA
ATOM      9  N   UNL A   1      32.049  26.440  24.229  1.00  0.00    -0.343 N 
ATOM     10  C   UNL A   1      33.405  26.450  23.709  1.00  0.00     0.120 C 
ATOM     11  C   UNL A   1      31.949  26.090  25.650  1.00  0.00     0.120 C 
ATOM     12  C   UNL A   1      34.036  25.080  23.862  1.00  0.00     0.033 C 
ATOM     13  C   UNL A   1      32.594  24.719  25.919  1.00  0.00     0.033 C 
ATOM     14  C   UNL A   1      34.013  24.632  25.335  1.00  0.00     0.062 C 
BRANCH  14  15
ATOM     15  C   UNL A   1      34.602  23.256  25.422  1.00  0.00     0.140 A 
ATOM     16  N   UNL A   1      35.658  22.877  26.117  1.00  0.00    -0.134 NA
ATOM     17  N   UNL A   1      33.995  22.140  24.884  1.00  0.00    -0.286 N 
ATOM     18  N   UNL A   1      35.743  21.502  26.068  1.00  0.00    -0.130 NA
ATOM     19  C   UNL A   1      34.734  21.064  25.350  1.00  0.00     0.160 A 
ATOM     20  C   UNL A   1      32.860  22.000  24.084  1.00  0.00     0.095 A 
ATOM     21  C   UNL A   1      34.283  19.759  25.005  1.00  0.00     0.050 A 
ATOM     22  C   UNL A   1      32.441  20.769  23.751  1.00  0.00     0.019 A 
ATOM     23  C   UNL A   1      33.181  19.616  24.241  1.00  0.00     0.005 A 
ENDBRANCH  14  15
ENDBRANCH   6   7
ENDBRANCH   5   6
ENDBRANCH   3   5
ENDBRANCH   2   3
ENDBRANCH   1   2
BRANCH   1  24
ATOM     24  C   UNL A   1      31.450  31.069  26.172  1.00  0.00     0.275 C 
BRANCH  24  25
ATOM     25  O   UNL A   1      32.521  30.829  27.097  1.00  0.00    -0.458 OA
BRANCH  25  26
ATOM     26  C   UNL A   1      33.225  31.932  27.448  1.00  0.00     0.338 C 
ATOM     27  O   UNL A   1      32.792  33.060  27.611  1.00  0.00    -0.246 OA
BRANCH  26  28
ATOM     28  C   UNL A   1      34.592  31.507  27.814  1.00  0.00     0.060 A 
ATOM     29  C   UNL A   1      34.843  30.136  27.959  1.00  0.00     0.016 A 
ATOM     30  C   UNL A   1      35.614  32.441  28.014  1.00  0.00     0.016 A 
ATOM     31  C   UNL A   1      36.089  29.701  28.397  1.00  0.00     0.010 A 
ATOM     32  C   UNL A   1      36.861  32.008  28.454  1.00  0.00     0.010 A 
ATOM     33  C   UNL A   1      37.073  30.646  28.715  1.00  0.00    -0.014 A 
BRANCH  33  34
ATOM     34  C   UNL A   1      38.178  30.258  29.614  1.00  0.00     0.031 A 
ATOM     35  C   UNL A   1      39.167  29.250  29.090  1.00  0.00     0.074 A 
ATOM     36  C   UNL A   1      38.285  30.761  30.855  1.00  0.00     0.049 A 
ATOM     37  N   UNL A   1      40.215  28.736  29.672  1.00  0.00    -0.248 NA
ATOM     38  C   UNL A   1      38.927  28.742  27.726  1.00  0.00     0.031 C 
ATOM     39  C   UNL A   1      37.373  31.728  31.460  1.00  0.00     0.029 A 
ATOM     40  N   UNL A   1      39.206  30.501  31.835  1.00  0.00    -0.354 N 
ATOM     41  C   UNL A   1      40.741  27.827  28.759  1.00  0.00     0.074 A 
ATOM     42  C   UNL A   1      39.888  27.842  27.595  1.00  0.00     0.031 C 
ATOM     43  C   UNL A   1      37.771  31.967  32.723  1.00  0.00     0.029 A 
ATOM     44  C   UNL A   1      38.955  31.161  33.012  1.00  0.00     0.049 A 
ATOM     45  H   UNL A   1      39.974  29.898  31.707  1.00  0.00     0.167 HD
ATOM     46  C   UNL A   1      41.850  27.062  28.872  1.00  0.00     0.034 A 
ATOM     47  C   UNL A   1      39.617  31.111  34.186  1.00  0.00     0.034 A 
ATOM     48  C   UNL A   1      42.701  27.069  30.026  1.00  0.00     0.049 A 
ATOM     49  C   UNL A   1      40.857  30.260  34.282  1.00  0.00     0.074 A 
ATOM     50  C   UNL A   1      43.877  26.375  30.236  1.00  0.00     0.029 A 
ATOM     51  N   UNL A   1      42.455  27.805  31.176  1.00  0.00    -0.354 N 
ATOM     52  N   UNL A   1      41.423  29.511  33.365  1.00  0.00    -0.248 NA
ATOM     53  C   UNL A   1      41.579  30.283  35.562  1.00  0.00     0.031 C 
ATOM     54  C   UNL A   1      44.331  26.675  31.525  1.00  0.00     0.029 A 
ATOM     55  C   UNL A   1      43.454  27.580  32.104  1.00  0.00     0.049 A 
ATOM     56  H   UNL A   1      41.682  28.401  31.311  1.00  0.00     0.167 HD
ATOM     57  C   UNL A   1      42.591  29.018  33.936  1.00  0.00     0.074 A 
ATOM     58  C   UNL A   1      42.655  29.561  35.279  1.00  0.00     0.031 C 
ATOM     59  C   UNL A   1      43.525  28.187  33.408  1.00  0.00     0.034 A 
BRANCH  46  60
ATOM     60  C   UNL A   1      42.202  26.174  27.709  1.00  0.00     0.023 A 
ATOM     61  C   UNL A   1      42.950  26.694  26.631  1.00  0.00     0.012 A 
ATOM     62  C   UNL A   1      41.807  24.824  27.686  1.00  0.00     0.148 A 
ATOM     63  C   UNL A   1      43.265  25.894  25.533  1.00  0.00     0.002 A 
ATOM     64  C   UNL A   1      42.166  24.020  26.611  1.00  0.00     0.091 A 
ATOM     65  F   UNL A   1      41.070  24.356  28.703  1.00  0.00    -0.205 F 
ATOM     66  C   UNL A   1      42.883  24.556  25.528  1.00  0.00     0.022 A 
BRANCH  64  67
ATOM     67  S   UNL A   1      41.786  22.265  26.549  1.00  0.00     0.127 S 
ATOM     68  O   UNL A   1      42.533  21.842  25.366  1.00  0.00    -0.237 OA
ATOM     69  O   UNL A   1      42.332  21.787  27.819  1.00  0.00    -0.237 OA
ATOM     70  O   UNL A   1      40.336  22.173  26.440  1.00  0.00    -0.744 OA
ENDBRANCH  64  67
ENDBRANCH  46  60
BRANCH  47  71
ATOM     71  C   UNL A   1      39.169  31.950  35.332  1.00  0.00     0.023 A 
ATOM     72  C   UNL A   1      38.232  31.427  36.245  1.00  0.00     0.012 A 
ATOM     73  C   UNL A   1      39.673  33.250  35.536  1.00  0.00     0.148 A 
ATOM     74  C   UNL A   1      37.777  32.193  37.319  1.00  0.00     0.002 A 
ATOM     75  C   UNL A   1      39.255  33.989  36.637  1.00  0.00     0.091 A 
ATOM     76  F   UNL A   1      40.555  33.733  34.651  1.00  0.00    -0.205 F 
ATOM     77  C   UNL A   1      38.296  33.470  37.520  1.00  0.00     0.022 A 
BRANCH  75  78
ATOM     78  S   UNL A   1      39.953  35.593  37.045  1.00  0.00     0.127 S 
ATOM     79  O   UNL A   1      39.254  35.917  38.286  1.00  0.00    -0.237 OA
ATOM     80  O   UNL A   1      41.372  35.273  37.203  1.00  0.00    -0.237 OA
ATOM     81  O   UNL A   1      39.654  36.452  35.908  1.00  0.00    -0.744 OA
ENDBRANCH  75  78
ENDBRANCH  47  71
BRANCH  59  82
ATOM     82  C   UNL A   1      44.728  27.862  34.251  1.00  0.00     0.023 A 
ATOM     83  C   UNL A   1      45.871  28.684  34.200  1.00  0.00     0.012 A 
ATOM     84  C   UNL A   1      44.691  26.784  35.158  1.00  0.00     0.148 A 
ATOM     85  C   UNL A   1      46.972  28.413  35.010  1.00  0.00     0.002 A 
ATOM     86  C   UNL A   1      45.772  26.552  36.000  1.00  0.00     0.091 A 
ATOM     87  F   UNL A   1      43.601  26.002  35.179  1.00  0.00    -0.205 F 
ATOM     88  C   UNL A   1      46.918  27.357  35.917  1.00  0.00     0.022 A 
BRANCH  86  89
ATOM     89  S   UNL A   1      45.735  25.281  37.268  1.00  0.00     0.127 S 
ATOM     90  O   UNL A   1      47.158  24.990  37.439  1.00  0.00    -0.237 OA
ATOM     91  O   UNL A   1      45.117  25.980  38.395  1.00  0.00    -0.237 OA
ATOM     92  O   UNL A   1      44.931  24.197  36.720  1.00  0.00    -0.744 OA
ENDBRANCH  86  89
ENDBRANCH  59  82
ENDBRANCH  33  34
ENDBRANCH  26  28
ENDBRANCH  25  26
ENDBRANCH  24  25
ENDBRANCH   1  24
TORSDOF 17
ENDMDL
MODEL 3
REMARK VINA RESULT:     -12.0      4.858      8.238
REMARK SMILES O=C(CCC(=O)N1CCC(c2nnc3ccccn23)CC1)OCCOC(=O)c1ccc(-c2c3nc(c(-c4cccc(S(=O)(=O)[O-])c4F)c4ccc([nH]4)c(-c4cccc(S(=O)(=O)[O-])c4F)c4nc(c(-c5cccc(S(=O)(=O)[O-])c5F)c5ccc2[nH]5)C=C4)C=C3)cc1
REMARK SMILES IDX 23 1 22 2 2 3 1 4 3 5 4 6 5 7 6 8 7 9 8 10 21 11 9 12 20 13
REMARK SMILES IDX 10 14 11 15 12 16 19 17 13 18 14 19 18 20 15 21 17 22 16 23
REMARK SMILES IDX 24 24 25 25 26 26 27 27 28 28 29 29 90 30 30 31 89 32 31 33
REMARK SMILES IDX 32 34 33 35 83 36 34 37 88 38 82 39 84 40 35 41 87 42 81 43
REMARK SMILES IDX 80 44 36 46 68 47 48 48 67 49 49 50 52 51 66 52 85 53 50 54
REMARK SMILES IDX 51 55 65 57 86 58 53 59 37 60 38 61 46 62 39 63 41 64 47 65
REMARK SMILES IDX 40 66 42 67 43 68 44 69 45 70 69 71 70 72 78 73 71 74 73 75
REMARK SMILES IDX 79 76 72 77 74 78 75 79 76 80 77 81 54 82 55 83 63 84 56 85
REMARK SMILES IDX 58 86 64 87 57 88 59 89 60 90 61 91 62 92
REMARK H PARENT 84 45 52 56
REMARK Flexibility Score: inf
ROOT
ATOM      1  C   UNL A   1      32.392  29.713  25.440  1.00  0.00     0.274 C 
ENDROOT
BRANCH   1   2
ATOM      2  O   UNL A   1      31.401  28.670  25.612  1.00  0.00    -0.462 OA
BRANCH   2   3
ATOM      3  C   UNL A   1      31.031  27.729  24.722  1.00  0.00     0.306 C 
ATOM      4  O   UNL A   1      31.119  27.952  23.515  1.00  0.00    -0.252 OA
BRANCH   3   5
ATOM      5  C   UNL A   1      30.675  26.361  25.213  1.00  0.00     0.132 C 
BRANCH   5   6
ATOM      6  C   UNL A   1      31.584  25.993  26.370  1.00  0.00     0.112 C 
BRANCH   6   7
ATOM      7  C   UNL A   1      31.883  24.509  26.420  1.00  0.00     0.223 C 
ATOM      8  O   UNL A   1      31.438  23.836  27.353  1.00  0.00    -0.275 OA
ATOM      9  N   UNL A   1      32.618  23.934  25.396  1.00  0.00    -0.343 N 
ATOM     10  C   UNL A   1      32.562  22.492  25.239  1.00  0.00     0.120 C 
ATOM     11  C   UNL A   1      33.609  24.598  24.542  1.00  0.00     0.120 C 
ATOM     12  C   UNL A   1      33.905  21.875  25.577  1.00  0.00     0.033 C 
ATOM     13  C   UNL A   1      35.013  24.018  24.787  1.00  0.00     0.033 C 
ATOM     14  C   UNL A   1      35.018  22.483  24.703  1.00  0.00     0.062 C 
BRANCH  14  15
ATOM     15  C   UNL A   1      36.326  21.876  25.111  1.00  0.00     0.140 A 
ATOM     16  N   UNL A   1      36.773  20.666  24.830  1.00  0.00    -0.134 NA
ATOM     17  N   UNL A   1      37.332  22.592  25.727  1.00  0.00    -0.286 N 
ATOM     18  N   UNL A   1      38.088  20.580  25.233  1.00  0.00    -0.130 NA
ATOM     19  C   UNL A   1      38.426  21.741  25.747  1.00  0.00     0.160 A 
ATOM     20  C   UNL A   1      37.372  23.901  26.211  1.00  0.00     0.095 A 
ATOM     21  C   UNL A   1      39.647  22.253  26.269  1.00  0.00     0.050 A 
ATOM     22  C   UNL A   1      38.521  24.379  26.713  1.00  0.00     0.019 A 
ATOM     23  C   UNL A   1      39.695  23.519  26.730  1.00  0.00     0.005 A 
ENDBRANCH  14  15
ENDBRANCH   6   7
ENDBRANCH   5   6
ENDBRANCH   3   5
ENDBRANCH   2   3
ENDBRANCH   1   2
BRANCH   1  24
ATOM     24  C   UNL A   1      32.073  30.854  26.403  1.00  0.00     0.275 C 
BRANCH  24  25
ATOM     25  O   UNL A   1      32.954  30.724  27.529  1.00  0.00    -0.458 OA
BRANCH  25  26
ATOM     26  C   UNL A   1      33.772  31.784  27.735  1.00  0.00     0.338 C 
ATOM     27  O   UNL A   1      33.441  32.947  27.895  1.00  0.00    -0.246 OA
BRANCH  26  28
ATOM     28  C   UNL A   1      35.141  31.274  27.949  1.00  0.00     0.060 A 
ATOM     29  C   UNL A   1      35.336  29.886  27.964  1.00  0.00     0.016 A 
ATOM     30  C   UNL A   1      36.220  32.144  28.134  1.00  0.00     0.016 A 
ATOM     31  C   UNL A   1      36.591  29.365  28.259  1.00  0.00     0.010 A 
ATOM     32  C   UNL A   1      37.477  31.625  28.431  1.00  0.00     0.010 A 
ATOM     33  C   UNL A   1      37.642  30.238  28.565  1.00  0.00    -0.014 A 
BRANCH  33  34
ATOM     34  C   UNL A   1      38.797  29.731  29.333  1.00  0.00     0.031 A 
ATOM     35  C   UNL A   1      38.914  30.175  30.768  1.00  0.00     0.074 A 
ATOM     36  C   UNL A   1      39.718  28.931  28.773  1.00  0.00     0.049 A 
ATOM     37  N   UNL A   1      39.826  29.887  31.654  1.00  0.00    -0.248 NA
ATOM     38  C   UNL A   1      37.861  31.083  31.262  1.00  0.00     0.031 C 
ATOM     39  C   UNL A   1      39.705  28.457  27.391  1.00  0.00     0.029 A 
ATOM     40  N   UNL A   1      40.861  28.395  29.306  1.00  0.00    -0.354 N 
ATOM     41  C   UNL A   1      39.474  30.597  32.797  1.00  0.00     0.074 A 
ATOM     42  C   UNL A   1      38.279  31.347  32.489  1.00  0.00     0.031 C 
ATOM     43  C   UNL A   1      40.805  27.713  27.177  1.00  0.00     0.029 A 
ATOM     44  C   UNL A   1      41.599  27.669  28.403  1.00  0.00     0.049 A 
ATOM     45  H   UNL A   1      41.126  28.517  30.246  1.00  0.00     0.167 HD
ATOM     46  C   UNL A   1      40.081  30.608  34.005  1.00  0.00     0.034 A 
ATOM     47  C   UNL A   1      42.784  27.046  28.563  1.00  0.00     0.034 A 
ATOM     48  C   UNL A   1      41.257  29.845  34.306  1.00  0.00     0.049 A 
ATOM     49  C   UNL A   1      43.434  27.063  29.923  1.00  0.00     0.074 A 
ATOM     50  C   UNL A   1      41.933  29.737  35.506  1.00  0.00     0.029 A 
ATOM     51  N   UNL A   1      41.941  29.064  33.386  1.00  0.00    -0.354 N 
ATOM     52  N   UNL A   1      43.019  27.625  31.034  1.00  0.00    -0.248 NA
ATOM     53  C   UNL A   1      44.694  26.320  30.064  1.00  0.00     0.031 C 
ATOM     54  C   UNL A   1      43.041  28.907  35.305  1.00  0.00     0.029 A 
ATOM     55  C   UNL A   1      43.035  28.473  33.987  1.00  0.00     0.049 A 
ATOM     56  H   UNL A   1      41.683  28.947  32.442  1.00  0.00     0.167 HD
ATOM     57  C   UNL A   1      43.934  27.259  32.015  1.00  0.00     0.074 A 
ATOM     58  C   UNL A   1      44.923  26.421  31.367  1.00  0.00     0.031 C 
ATOM     59  C   UNL A   1      43.964  27.590  33.331  1.00  0.00     0.034 A 
BRANCH  46  60
ATOM     60  C   UNL A   1      39.467  31.460  35.084  1.00  0.00     0.023 A 
ATOM     61  C   UNL A   1      38.472  30.917  35.925  1.00  0.00     0.012 A 
ATOM     62  C   UNL A   1      39.880  32.791  35.274  1.00  0.00     0.148 A 
ATOM     63  C   UNL A   1      37.873  31.698  36.913  1.00  0.00     0.002 A 
ATOM     64  C   UNL A   1      39.314  33.548  36.293  1.00  0.00     0.091 A 
ATOM     65  F   UNL A   1      40.803  33.299  34.446  1.00  0.00    -0.205 F 
ATOM     66  C   UNL A   1      38.301  33.009  37.104  1.00  0.00     0.022 A 
BRANCH  64  67
ATOM     67  S   UNL A   1      39.852  35.221  36.665  1.00  0.00     0.127 S 
ATOM     68  O   UNL A   1      39.481  35.931  35.442  1.00  0.00    -0.237 OA
ATOM     69  O   UNL A   1      39.037  35.553  37.834  1.00  0.00    -0.237 OA
ATOM     70  O   UNL A   1      41.281  35.133  36.929  1.00  0.00    -0.744 OA
ENDBRANCH  64  67
ENDBRANCH  46  60
BRANCH  47  71
ATOM     71  C   UNL A   1      43.387  26.288  27.431  1.00  0.00     0.023 A 
ATOM     72  C   UNL A   1      44.198  26.967  26.500  1.00  0.00     0.012 A 
ATOM     73  C   UNL A   1      43.180  24.903  27.278  1.00  0.00     0.148 A 
ATOM     74  C   UNL A   1      44.763  26.291  25.418  1.00  0.00     0.002 A 
ATOM     75  C   UNL A   1      43.788  24.225  26.228  1.00  0.00     0.091 A 
ATOM     76  F   UNL A   1      42.397  24.277  28.167  1.00  0.00    -0.205 F 
ATOM     77  C   UNL A   1      44.565  24.919  25.288  1.00  0.00     0.022 A 
BRANCH  75  78
ATOM     78  S   UNL A   1      43.689  22.440  26.044  1.00  0.00     0.127 S 
ATOM     79  O   UNL A   1      42.894  22.309  24.825  1.00  0.00    -0.237 OA
ATOM     80  O   UNL A   1      45.098  22.073  25.902  1.00  0.00    -0.237 OA
ATOM     81  O   UNL A   1      43.061  21.953  27.264  1.00  0.00    -0.744 OA
ENDBRANCH  75  78
ENDBRANCH  47  71
BRANCH  59  82
ATOM     82  C   UNL A   1      45.059  26.996  34.175  1.00  0.00     0.023 A 
ATOM     83  C   UNL A   1      46.321  27.620  34.238  1.00  0.00     0.012 A 
ATOM     84  C   UNL A   1      44.807  25.862  34.973  1.00  0.00     0.148 A 
ATOM     85  C   UNL A   1      47.326  27.100  35.052  1.00  0.00     0.002 A 
ATOM     86  C   UNL A   1      45.797  25.381  35.821  1.00  0.00     0.091 A 
ATOM     87  F   UNL A   1      43.606  25.271  34.886  1.00  0.00    -0.205 F 
ATOM     88  C   UNL A   1      47.061  25.990  35.852  1.00  0.00     0.022 A 
BRANCH  86  89
ATOM     89  S   UNL A   1      45.498  24.025  36.960  1.00  0.00     0.127 S 
ATOM     90  O   UNL A   1      45.273  22.909  36.042  1.00  0.00    -0.237 OA
ATOM     91  O   UNL A   1      46.756  23.957  37.705  1.00  0.00    -0.237 OA
ATOM     92  O   UNL A   1      44.349  24.425  37.761  1.00  0.00    -0.744 OA
ENDBRANCH  86  89
ENDBRANCH  59  82
ENDBRANCH  33  34
ENDBRANCH  26  28
ENDBRANCH  25  26
ENDBRANCH  24  25
ENDBRANCH   1  24
TORSDOF 17
ENDMDL
