MODEL 1
REMARK VINA RESULT:     -11.6      0.000      0.000
REMARK SMILES CCCOC(=O)c1c(NC(=O)[C@@H]2CC=CC[C@H]2C(=O)OCCOC(=O)c2ccc(-c3c4nc(c(-c5cccc(S(=O)(=O)[O-])c5F)c5ccc([nH]5)c(-c5cccc(S(=O)(=O)[O-])c5F)c5nc(c(-c6cccc(S(=O)(=O)[O-])c6F)c6ccc3[nH]6)C=C5)C=C4)cc2)sc2c1CCCC2
REMARK SMILES IDX 20 1 18 2 19 3 17 4 12 5 13 6 14 7 16 8 15 9 10 10 9 11
REMARK SMILES IDX 11 13 8 14 7 15 91 16 89 17 90 18 92 19 95 20 93 21 94 22
REMARK SMILES IDX 5 23 6 24 4 25 3 26 2 27 1 28 21 29 22 30 23 31 24 32 25 33
REMARK SMILES IDX 26 34 27 35 88 36 28 37 87 38 29 39 30 40 31 41 81 42 32 43
REMARK SMILES IDX 86 44 80 45 82 46 33 47 85 48 79 49 78 50 34 52 66 53 46 54
REMARK SMILES IDX 65 55 47 56 50 57 64 58 83 59 48 60 49 61 63 63 84 64 51 65
REMARK SMILES IDX 35 66 36 67 44 68 37 69 39 70 45 71 38 72 40 73 41 74 42 75
REMARK SMILES IDX 43 76 67 77 68 78 76 79 69 80 71 81 77 82 70 83 72 84 73 85
REMARK SMILES IDX 74 86 75 87 52 88 53 89 61 90 54 91 56 92 62 93 55 94 57 95
REMARK SMILES IDX 58 96 59 97 60 98
REMARK H PARENT 9 12 82 51 50 62
REMARK Flexibility Score: inf
ROOT
ATOM      1  O   UNL A   1      32.316  26.668  26.491  1.00  0.00    -0.462 OA
ENDROOT
BRANCH   1   2
ATOM      2  C   UNL A   1      32.228  25.312  26.514  1.00  0.00     0.310 C 
ATOM      3  O   UNL A   1      31.406  24.780  27.220  1.00  0.00    -0.252 OA
BRANCH   2   4
ATOM      4  C   UNL A   1      33.239  24.447  25.682  1.00  0.00     0.116 C 
ATOM      5  C   UNL A   1      32.781  23.631  24.488  1.00  0.00     0.097 C 
ATOM      6  C   UNL A   1      33.732  22.423  24.332  1.00  0.00     0.041 C 
ATOM      7  C   UNL A   1      35.147  22.907  24.133  1.00  0.00    -0.030 C 
ATOM      8  C   UNL A   1      34.542  25.104  25.134  1.00  0.00     0.043 C 
ATOM      9  C   UNL A   1      35.506  24.150  24.474  1.00  0.00    -0.030 C 
BRANCH   5  10
ATOM     10  C   UNL A   1      31.365  23.248  24.607  1.00  0.00     0.229 C 
ATOM     11  N   UNL A   1      30.440  24.114  24.128  1.00  0.00    -0.317 N 
ATOM     12  H   UNL A   1      29.520  23.777  24.225  1.00  0.00     0.170 HD
ATOM     13  O   UNL A   1      31.014  22.172  25.087  1.00  0.00    -0.274 OA
BRANCH  11  14
ATOM     14  C   UNL A   1      30.490  25.363  23.531  1.00  0.00     0.110 A 
ATOM     15  C   UNL A   1      31.061  26.166  22.513  1.00  0.00     0.098 A 
ATOM     16  C   UNL A   1      30.298  27.443  22.511  1.00  0.00    -0.017 A 
ATOM     17  S   UNL A   1      29.305  26.197  24.467  1.00  0.00    -0.122 S 
ATOM     18  C   UNL A   1      29.218  27.446  23.366  1.00  0.00     0.011 A 
ATOM     19  C   UNL A   1      30.564  28.652  21.650  1.00  0.00     0.038 C 
ATOM     20  C   UNL A   1      28.138  28.473  23.462  1.00  0.00     0.047 C 
ATOM     21  C   UNL A   1      29.777  29.877  22.152  1.00  0.00     0.005 C 
ATOM     22  C   UNL A   1      28.299  29.525  22.364  1.00  0.00     0.006 C 
BRANCH  15  23
ATOM     23  C   UNL A   1      32.157  26.026  21.457  1.00  0.00     0.341 C 
ATOM     24  O   UNL A   1      31.848  25.937  20.270  1.00  0.00    -0.246 OA
BRANCH  23  25
ATOM     25  O   UNL A   1      33.502  26.129  21.802  1.00  0.00    -0.462 OA
BRANCH  25  26
ATOM     26  C   UNL A   1      34.081  27.479  22.017  1.00  0.00     0.233 C 
BRANCH  26  27
ATOM     27  C   UNL A   1      34.003  28.136  23.447  1.00  0.00     0.038 C 
ATOM     28  C   UNL A   1      33.121  29.365  23.759  1.00  0.00     0.007 C 
ENDBRANCH  26  27
ENDBRANCH  25  26
ENDBRANCH  23  25
ENDBRANCH  15  23
ENDBRANCH  11  14
ENDBRANCH   5  10
ENDBRANCH   2   4
ENDBRANCH   1   2
BRANCH   1  29
ATOM     29  C   UNL A   1      31.556  27.439  27.481  1.00  0.00     0.274 C 
BRANCH  29  30
ATOM     30  C   UNL A   1      31.470  28.943  27.275  1.00  0.00     0.275 C 
BRANCH  30  31
ATOM     31  O   UNL A   1      32.672  29.391  26.647  1.00  0.00    -0.458 OA
BRANCH  31  32
ATOM     32  C   UNL A   1      33.119  30.585  27.086  1.00  0.00     0.338 C 
ATOM     33  O   UNL A   1      32.440  31.573  27.323  1.00  0.00    -0.246 OA
BRANCH  32  34
ATOM     34  C   UNL A   1      34.571  30.536  27.331  1.00  0.00     0.060 A 
ATOM     35  C   UNL A   1      35.262  29.331  27.286  1.00  0.00     0.016 A 
ATOM     36  C   UNL A   1      35.198  31.672  27.829  1.00  0.00     0.016 A 
ATOM     37  C   UNL A   1      36.452  29.189  27.984  1.00  0.00     0.010 A 
ATOM     38  C   UNL A   1      36.487  31.568  28.348  1.00  0.00     0.010 A 
ATOM     39  C   UNL A   1      37.093  30.309  28.517  1.00  0.00    -0.014 A 
BRANCH  39  40
ATOM     40  C   UNL A   1      38.351  30.188  29.303  1.00  0.00     0.031 A 
ATOM     41  C   UNL A   1      39.474  29.340  28.763  1.00  0.00     0.074 A 
ATOM     42  C   UNL A   1      38.489  30.791  30.501  1.00  0.00     0.049 A 
ATOM     43  N   UNL A   1      40.476  28.793  29.399  1.00  0.00    -0.248 NA
ATOM     44  C   UNL A   1      39.440  29.033  27.321  1.00  0.00     0.031 C 
ATOM     45  C   UNL A   1      37.522  31.696  31.123  1.00  0.00     0.029 A 
ATOM     46  N   UNL A   1      39.504  30.710  31.424  1.00  0.00    -0.354 N 
ATOM     47  C   UNL A   1      41.114  27.982  28.466  1.00  0.00     0.074 A 
ATOM     48  C   UNL A   1      40.405  28.131  27.215  1.00  0.00     0.031 C 
ATOM     49  C   UNL A   1      37.994  32.104  32.308  1.00  0.00     0.029 A 
ATOM     50  C   UNL A   1      39.227  31.385  32.590  1.00  0.00     0.049 A 
ATOM     51  H   UNL A   1      40.342  30.218  31.268  1.00  0.00     0.167 HD
ATOM     52  C   UNL A   1      42.190  27.179  28.648  1.00  0.00     0.034 A 
ATOM     53  C   UNL A   1      39.841  31.366  33.788  1.00  0.00     0.034 A 
ATOM     54  C   UNL A   1      42.942  27.126  29.873  1.00  0.00     0.049 A 
ATOM     55  C   UNL A   1      41.038  30.479  33.968  1.00  0.00     0.074 A 
ATOM     56  C   UNL A   1      44.072  26.382  30.161  1.00  0.00     0.029 A 
ATOM     57  N   UNL A   1      42.649  27.867  31.010  1.00  0.00    -0.354 N 
ATOM     58  N   UNL A   1      41.622  29.694  33.094  1.00  0.00    -0.248 NA
ATOM     59  C   UNL A   1      41.660  30.471  35.298  1.00  0.00     0.031 C 
ATOM     60  C   UNL A   1      44.456  26.664  31.478  1.00  0.00     0.029 A 
ATOM     61  C   UNL A   1      43.579  27.602  32.000  1.00  0.00     0.049 A 
ATOM     62  H   UNL A   1      41.893  28.490  31.098  1.00  0.00     0.167 HD
ATOM     63  C   UNL A   1      42.694  29.115  33.761  1.00  0.00     0.074 A 
ATOM     64  C   UNL A   1      42.692  29.660  35.104  1.00  0.00     0.031 C 
ATOM     65  C   UNL A   1      43.585  28.198  33.312  1.00  0.00     0.034 A 
BRANCH  52  66
ATOM     66  C   UNL A   1      42.613  26.296  27.502  1.00  0.00     0.023 A 
ATOM     67  C   UNL A   1      43.478  26.786  26.505  1.00  0.00     0.012 A 
ATOM     68  C   UNL A   1      42.174  24.957  27.436  1.00  0.00     0.148 A 
ATOM     69  C   UNL A   1      43.865  25.973  25.439  1.00  0.00     0.002 A 
ATOM     70  C   UNL A   1      42.602  24.139  26.397  1.00  0.00     0.091 A 
ATOM     71  F   UNL A   1      41.331  24.511  28.380  1.00  0.00    -0.205 F 
ATOM     72  C   UNL A   1      43.437  24.649  25.390  1.00  0.00     0.022 A 
BRANCH  70  73
ATOM     73  S   UNL A   1      42.168  22.398  26.295  1.00  0.00     0.127 S 
ATOM     74  O   UNL A   1      40.714  22.461  26.165  1.00  0.00    -0.237 OA
ATOM     75  O   UNL A   1      42.869  21.975  25.081  1.00  0.00    -0.237 OA
ATOM     76  O   UNL A   1      42.663  21.788  27.521  1.00  0.00    -0.744 OA
ENDBRANCH  70  73
ENDBRANCH  52  66
BRANCH  53  77
ATOM     77  C   UNL A   1      39.308  32.197  34.904  1.00  0.00     0.023 A 
ATOM     78  C   UNL A   1      38.330  31.657  35.759  1.00  0.00     0.012 A 
ATOM     79  C   UNL A   1      39.812  33.487  35.167  1.00  0.00     0.148 A 
ATOM     80  C   UNL A   1      37.853  32.391  36.846  1.00  0.00     0.002 A 
ATOM     81  C   UNL A   1      39.385  34.185  36.289  1.00  0.00     0.091 A 
ATOM     82  F   UNL A   1      40.730  33.994  34.331  1.00  0.00    -0.205 F 
ATOM     83  C   UNL A   1      38.391  33.646  37.121  1.00  0.00     0.022 A 
BRANCH  81  84
ATOM     84  S   UNL A   1      40.141  35.730  36.809  1.00  0.00     0.127 S 
ATOM     85  O   UNL A   1      39.701  36.646  35.762  1.00  0.00    -0.237 OA
ATOM     86  O   UNL A   1      39.522  35.944  38.118  1.00  0.00    -0.237 OA
ATOM     87  O   UNL A   1      41.573  35.468  36.862  1.00  0.00    -0.744 OA
ENDBRANCH  81  84
ENDBRANCH  53  77
BRANCH  65  88
ATOM     88  C   UNL A   1      44.660  27.759  34.268  1.00  0.00     0.023 A 
ATOM     89  C   UNL A   1      45.891  28.445  34.300  1.00  0.00     0.012 A 
ATOM     90  C   UNL A   1      44.425  26.710  35.177  1.00  0.00     0.148 A 
ATOM     91  C   UNL A   1      46.884  28.071  35.204  1.00  0.00     0.002 A 
ATOM     92  C   UNL A   1      45.401  26.376  36.108  1.00  0.00     0.091 A 
ATOM     93  F   UNL A   1      43.255  26.059  35.113  1.00  0.00    -0.205 F 
ATOM     94  C   UNL A   1      46.635  27.047  36.114  1.00  0.00     0.022 A 
BRANCH  92  95
ATOM     95  S   UNL A   1      45.131  25.134  37.377  1.00  0.00     0.127 S 
ATOM     96  O   UNL A   1      45.496  23.905  36.674  1.00  0.00    -0.237 OA
ATOM     97  O   UNL A   1      46.074  25.545  38.418  1.00  0.00    -0.237 OA
ATOM     98  O   UNL A   1      43.728  25.247  37.756  1.00  0.00    -0.744 OA
ENDBRANCH  92  95
ENDBRANCH  65  88
ENDBRANCH  39  40
ENDBRANCH  32  34
ENDBRANCH  31  32
ENDBRANCH  30  31
ENDBRANCH  29  30
ENDBRANCH   1  29
TORSDOF 20
ENDMDL
MODEL 2
REMARK VINA RESULT:     -11.3      2.036      4.095
REMARK SMILES CCCOC(=O)c1c(NC(=O)[C@@H]2CC=CC[C@H]2C(=O)OCCOC(=O)c2ccc(-c3c4nc(c(-c5cccc(S(=O)(=O)[O-])c5F)c5ccc([nH]5)c(-c5cccc(S(=O)(=O)[O-])c5F)c5nc(c(-c6cccc(S(=O)(=O)[O-])c6F)c6ccc3[nH]6)C=C5)C=C4)cc2)sc2c1CCCC2
REMARK SMILES IDX 20 1 18 2 19 3 17 4 12 5 13 6 14 7 16 8 15 9 10 10 9 11
REMARK SMILES IDX 11 13 8 14 7 15 91 16 89 17 90 18 92 19 95 20 93 21 94 22
REMARK SMILES IDX 5 23 6 24 4 25 3 26 2 27 1 28 21 29 22 30 23 31 24 32 25 33
REMARK SMILES IDX 26 34 27 35 88 36 28 37 87 38 29 39 30 40 31 41 81 42 32 43
REMARK SMILES IDX 86 44 80 45 82 46 33 47 85 48 79 49 78 50 34 52 66 53 46 54
REMARK SMILES IDX 65 55 47 56 50 57 64 58 83 59 48 60 49 61 63 63 84 64 51 65
REMARK SMILES IDX 35 66 36 67 44 68 37 69 39 70 45 71 38 72 40 73 41 74 42 75
REMARK SMILES IDX 43 76 67 77 68 78 76 79 69 80 71 81 77 82 70 83 72 84 73 85
REMARK SMILES IDX 74 86 75 87 52 88 53 89 61 90 54 91 56 92 62 93 55 94 57 95
REMARK SMILES IDX 58 96 59 97 60 98
REMARK H PARENT 9 12 82 51 50 62
REMARK Flexibility Score: inf
ROOT
ATOM      1  O   UNL A   1      32.716  27.571  25.942  1.00  0.00    -0.462 OA
ENDROOT
BRANCH   1   2
ATOM      2  C   UNL A   1      32.323  26.282  26.127  1.00  0.00     0.310 C 
ATOM      3  O   UNL A   1      32.127  25.874  27.246  1.00  0.00    -0.252 OA
BRANCH   2   4
ATOM      4  C   UNL A   1      32.197  25.317  24.896  1.00  0.00     0.116 C 
ATOM      5  C   UNL A   1      31.203  24.171  24.891  1.00  0.00     0.097 C 
ATOM      6  C   UNL A   1      31.754  23.056  23.974  1.00  0.00     0.041 C 
ATOM      7  C   UNL A   1      31.953  23.590  22.578  1.00  0.00    -0.030 C 
ATOM      8  C   UNL A   1      31.996  25.915  23.469  1.00  0.00     0.043 C 
ATOM      9  C   UNL A   1      32.032  24.907  22.348  1.00  0.00    -0.030 C 
BRANCH   5  10
ATOM     10  C   UNL A   1      30.904  23.711  26.257  1.00  0.00     0.229 C 
ATOM     11  N   UNL A   1      31.707  22.756  26.785  1.00  0.00    -0.317 N 
ATOM     12  H   UNL A   1      31.456  22.518  27.707  1.00  0.00     0.170 HD
ATOM     13  O   UNL A   1      29.988  24.187  26.924  1.00  0.00    -0.274 OA
BRANCH  11  14
ATOM     14  C   UNL A   1      32.801  22.039  26.329  1.00  0.00     0.110 A 
ATOM     15  C   UNL A   1      33.258  20.890  25.640  1.00  0.00     0.098 A 
ATOM     16  C   UNL A   1      34.722  21.071  25.447  1.00  0.00    -0.017 A 
ATOM     17  S   UNL A   1      34.082  23.082  26.831  1.00  0.00    -0.122 S 
ATOM     18  C   UNL A   1      35.187  22.302  25.855  1.00  0.00     0.011 A 
ATOM     19  C   UNL A   1      35.679  20.089  24.820  1.00  0.00     0.038 C 
ATOM     20  C   UNL A   1      36.542  22.883  25.624  1.00  0.00     0.047 C 
ATOM     21  C   UNL A   1      37.142  20.491  25.085  1.00  0.00     0.005 C 
ATOM     22  C   UNL A   1      37.375  21.964  24.729  1.00  0.00     0.006 C 
BRANCH  15  23
ATOM     23  C   UNL A   1      32.645  19.623  25.041  1.00  0.00     0.341 C 
ATOM     24  O   UNL A   1      32.219  18.744  25.788  1.00  0.00    -0.246 OA
BRANCH  23  25
ATOM     25  O   UNL A   1      32.445  19.504  23.668  1.00  0.00    -0.462 OA
BRANCH  25  26
ATOM     26  C   UNL A   1      32.446  18.148  23.063  1.00  0.00     0.233 C 
BRANCH  26  27
ATOM     27  C   UNL A   1      33.792  17.330  22.999  1.00  0.00     0.038 C 
ATOM     28  C   UNL A   1      34.307  16.469  24.174  1.00  0.00     0.007 C 
ENDBRANCH  26  27
ENDBRANCH  25  26
ENDBRANCH  23  25
ENDBRANCH  15  23
ENDBRANCH  11  14
ENDBRANCH   5  10
ENDBRANCH   2   4
ENDBRANCH   1   2
BRANCH   1  29
ATOM     29  C   UNL A   1      31.693  28.622  25.923  1.00  0.00     0.274 C 
BRANCH  29  30
ATOM     30  C   UNL A   1      32.154  30.046  26.185  1.00  0.00     0.275 C 
BRANCH  30  31
ATOM     31  O   UNL A   1      32.971  30.057  27.357  1.00  0.00    -0.458 OA
BRANCH  31  32
ATOM     32  C   UNL A   1      33.644  31.208  27.557  1.00  0.00     0.338 C 
ATOM     33  O   UNL A   1      33.157  32.324  27.670  1.00  0.00    -0.246 OA
BRANCH  32  34
ATOM     34  C   UNL A   1      35.086  30.947  27.709  1.00  0.00     0.060 A 
ATOM     35  C   UNL A   1      35.572  29.646  27.764  1.00  0.00     0.016 A 
ATOM     36  C   UNL A   1      35.923  32.011  28.022  1.00  0.00     0.016 A 
ATOM     37  C   UNL A   1      36.781  29.386  28.393  1.00  0.00     0.010 A 
ATOM     38  C   UNL A   1      37.219  31.752  28.462  1.00  0.00     0.010 A 
ATOM     39  C   UNL A   1      37.632  30.436  28.742  1.00  0.00    -0.014 A 
BRANCH  39  40
ATOM     40  C   UNL A   1      38.919  30.194  29.451  1.00  0.00     0.031 A 
ATOM     41  C   UNL A   1      39.903  29.212  28.869  1.00  0.00     0.074 A 
ATOM     42  C   UNL A   1      39.202  30.808  30.617  1.00  0.00     0.049 A 
ATOM     43  N   UNL A   1      40.879  28.572  29.458  1.00  0.00    -0.248 NA
ATOM     44  C   UNL A   1      39.741  28.875  27.442  1.00  0.00     0.031 C 
ATOM     45  C   UNL A   1      38.384  31.831  31.269  1.00  0.00     0.029 A 
ATOM     46  N   UNL A   1      40.260  30.637  31.477  1.00  0.00    -0.354 N 
ATOM     47  C   UNL A   1      41.361  27.672  28.513  1.00  0.00     0.074 A 
ATOM     48  C   UNL A   1      40.591  27.868  27.305  1.00  0.00     0.031 C 
ATOM     49  C   UNL A   1      38.975  32.214  32.408  1.00  0.00     0.029 A 
ATOM     50  C   UNL A   1      40.137  31.369  32.635  1.00  0.00     0.049 A 
ATOM     51  H   UNL A   1      41.027  30.051  31.284  1.00  0.00     0.167 HD
ATOM     52  C   UNL A   1      42.351  26.758  28.653  1.00  0.00     0.034 A 
ATOM     53  C   UNL A   1      40.824  31.310  33.792  1.00  0.00     0.034 A 
ATOM     54  C   UNL A   1      43.172  26.652  29.830  1.00  0.00     0.049 A 
ATOM     55  C   UNL A   1      41.924  30.300  33.925  1.00  0.00     0.074 A 
ATOM     56  C   UNL A   1      44.230  25.794  30.070  1.00  0.00     0.029 A 
ATOM     57  N   UNL A   1      43.039  27.450  30.958  1.00  0.00    -0.354 N 
ATOM     58  N   UNL A   1      42.360  29.433  33.042  1.00  0.00    -0.248 NA
ATOM     59  C   UNL A   1      42.629  30.256  35.213  1.00  0.00     0.031 C 
ATOM     60  C   UNL A   1      44.728  26.064  31.349  1.00  0.00     0.029 A 
ATOM     61  C   UNL A   1      43.997  27.107  31.896  1.00  0.00     0.049 A 
ATOM     62  H   UNL A   1      42.363  28.156  31.073  1.00  0.00     0.167 HD
ATOM     63  C   UNL A   1      43.402  28.754  33.659  1.00  0.00     0.074 A 
ATOM     64  C   UNL A   1      43.550  29.330  34.981  1.00  0.00     0.031 C 
ATOM     65  C   UNL A   1      44.156  27.732  33.185  1.00  0.00     0.034 A 
BRANCH  52  66
ATOM     66  C   UNL A   1      42.597  25.804  27.512  1.00  0.00     0.023 A 
ATOM     67  C   UNL A   1      43.380  26.198  26.409  1.00  0.00     0.012 A 
ATOM     68  C   UNL A   1      42.075  24.495  27.554  1.00  0.00     0.148 A 
ATOM     69  C   UNL A   1      43.603  25.320  25.348  1.00  0.00     0.002 A 
ATOM     70  C   UNL A   1      42.342  23.610  26.515  1.00  0.00     0.091 A 
ATOM     71  F   UNL A   1      41.312  24.142  28.600  1.00  0.00    -0.205 F 
ATOM     72  C   UNL A   1      43.094  24.025  25.406  1.00  0.00     0.022 A 
BRANCH  70  73
ATOM     73  S   UNL A   1      41.797  21.897  26.540  1.00  0.00     0.127 S 
ATOM     74  O   UNL A   1      42.347  21.429  27.811  1.00  0.00    -0.237 OA
ATOM     75  O   UNL A   1      40.339  22.036  26.523  1.00  0.00    -0.237 OA
ATOM     76  O   UNL A   1      42.358  21.280  25.348  1.00  0.00    -0.744 OA
ENDBRANCH  70  73
ENDBRANCH  52  66
BRANCH  53  77
ATOM     77  C   UNL A   1      40.460  32.224  34.912  1.00  0.00     0.023 A 
ATOM     78  C   UNL A   1      41.147  33.442  35.059  1.00  0.00     0.012 A 
ATOM     79  C   UNL A   1      39.396  31.926  35.788  1.00  0.00     0.148 A 
ATOM     80  C   UNL A   1      40.791  34.342  36.064  1.00  0.00     0.002 A 
ATOM     81  C   UNL A   1      39.001  32.856  36.741  1.00  0.00     0.091 A 
ATOM     82  F   UNL A   1      38.764  30.752  35.646  1.00  0.00    -0.205 F 
ATOM     83  C   UNL A   1      39.709  34.058  36.893  1.00  0.00     0.022 A 
BRANCH  81  84
ATOM     84  S   UNL A   1      37.520  32.644  37.738  1.00  0.00     0.127 S 
ATOM     85  O   UNL A   1      37.789  33.530  38.866  1.00  0.00    -0.237 OA
ATOM     86  O   UNL A   1      36.473  33.106  36.826  1.00  0.00    -0.237 OA
ATOM     87  O   UNL A   1      37.456  31.222  38.049  1.00  0.00    -0.744 OA
ENDBRANCH  81  84
ENDBRANCH  53  77
BRANCH  65  88
ATOM     88  C   UNL A   1      45.237  27.199  34.084  1.00  0.00     0.023 A 
ATOM     89  C   UNL A   1      46.529  27.759  34.033  1.00  0.00     0.012 A 
ATOM     90  C   UNL A   1      44.953  26.191  35.025  1.00  0.00     0.148 A 
ATOM     91  C   UNL A   1      47.532  27.299  34.885  1.00  0.00     0.002 A 
ATOM     92  C   UNL A   1      45.944  25.772  35.904  1.00  0.00     0.091 A 
ATOM     93  F   UNL A   1      43.723  25.659  35.040  1.00  0.00    -0.205 F 
ATOM     94  C   UNL A   1      47.237  26.316  35.826  1.00  0.00     0.022 A 
BRANCH  92  95
ATOM     95  S   UNL A   1      45.629  24.580  37.209  1.00  0.00     0.127 S 
ATOM     96  O   UNL A   1      45.325  23.372  36.442  1.00  0.00    -0.237 OA
ATOM     97  O   UNL A   1      46.909  24.548  37.916  1.00  0.00    -0.237 OA
ATOM     98  O   UNL A   1      44.522  25.121  37.987  1.00  0.00    -0.744 OA
ENDBRANCH  92  95
ENDBRANCH  65  88
ENDBRANCH  39  40
ENDBRANCH  32  34
ENDBRANCH  31  32
ENDBRANCH  30  31
ENDBRANCH  29  30
ENDBRANCH   1  29
TORSDOF 20
ENDMDL
MODEL 3
REMARK VINA RESULT:     -10.1      4.955     11.375
REMARK SMILES CCCOC(=O)c1c(NC(=O)[C@@H]2CC=CC[C@H]2C(=O)OCCOC(=O)c2ccc(-c3c4nc(c(-c5cccc(S(=O)(=O)[O-])c5F)c5ccc([nH]5)c(-c5cccc(S(=O)(=O)[O-])c5F)c5nc(c(-c6cccc(S(=O)(=O)[O-])c6F)c6ccc3[nH]6)C=C5)C=C4)cc2)sc2c1CCCC2
REMARK SMILES IDX 20 1 18 2 19 3 17 4 12 5 13 6 14 7 16 8 15 9 10 10 9 11
REMARK SMILES IDX 11 13 8 14 7 15 91 16 89 17 90 18 92 19 95 20 93 21 94 22
REMARK SMILES IDX 5 23 6 24 4 25 3 26 2 27 1 28 21 29 22 30 23 31 24 32 25 33
REMARK SMILES IDX 26 34 27 35 88 36 28 37 87 38 29 39 30 40 31 41 81 42 32 43
REMARK SMILES IDX 86 44 80 45 82 46 33 47 85 48 79 49 78 50 34 52 66 53 46 54
REMARK SMILES IDX 65 55 47 56 50 57 64 58 83 59 48 60 49 61 63 63 84 64 51 65
REMARK SMILES IDX 35 66 36 67 44 68 37 69 39 70 45 71 38 72 40 73 41 74 42 75
REMARK SMILES IDX 43 76 67 77 68 78 76 79 69 80 71 81 77 82 70 83 72 84 73 85
REMARK SMILES IDX 74 86 75 87 52 88 53 89 61 90 54 91 56 92 62 93 55 94 57 95
REMARK SMILES IDX 58 96 59 97 60 98
REMARK H PARENT 9 12 82 51 50 62
REMARK Flexibility Score: inf
ROOT
ATOM      1  O   UNL A   1      46.205  23.559  25.408  1.00  0.00    -0.462 OA
ENDROOT
BRANCH   1   2
ATOM      2  C   UNL A   1      46.576  24.558  26.252  1.00  0.00     0.310 C 
ATOM      3  O   UNL A   1      45.750  25.074  26.963  1.00  0.00    -0.252 OA
BRANCH   2   4
ATOM      4  C   UNL A   1      48.057  25.079  26.246  1.00  0.00     0.116 C 
ATOM      5  C   UNL A   1      48.390  26.501  25.838  1.00  0.00     0.097 C 
ATOM      6  C   UNL A   1      49.824  26.518  25.263  1.00  0.00     0.041 C 
ATOM      7  C   UNL A   1      50.799  26.022  26.300  1.00  0.00    -0.030 C 
ATOM      8  C   UNL A   1      48.940  24.899  27.518  1.00  0.00     0.043 C 
ATOM      9  C   UNL A   1      50.383  25.305  27.352  1.00  0.00    -0.030 C 
BRANCH   5  10
ATOM     10  C   UNL A   1      47.383  27.048  24.914  1.00  0.00     0.229 C 
ATOM     11  N   UNL A   1      46.503  27.950  25.410  1.00  0.00    -0.317 N 
ATOM     12  H   UNL A   1      45.877  28.283  24.727  1.00  0.00     0.170 HD
ATOM     13  O   UNL A   1      47.347  26.738  23.725  1.00  0.00    -0.274 OA
BRANCH  11  14
ATOM     14  C   UNL A   1      46.281  28.514  26.655  1.00  0.00     0.110 A 
ATOM     15  C   UNL A   1      46.836  28.867  27.909  1.00  0.00     0.098 A 
ATOM     16  C   UNL A   1      45.804  29.677  28.611  1.00  0.00    -0.017 A 
ATOM     17  S   UNL A   1      44.626  28.974  26.493  1.00  0.00    -0.122 S 
ATOM     18  C   UNL A   1      44.699  29.959  27.837  1.00  0.00     0.011 A 
ATOM     19  C   UNL A   1      45.890  30.236  30.008  1.00  0.00     0.038 C 
ATOM     20  C   UNL A   1      43.586  30.901  28.152  1.00  0.00     0.047 C 
ATOM     21  C   UNL A   1      44.517  30.739  30.493  1.00  0.00     0.005 C 
ATOM     22  C   UNL A   1      43.875  31.660  29.448  1.00  0.00     0.006 C 
BRANCH  15  23
ATOM     23  C   UNL A   1      48.164  28.676  28.643  1.00  0.00     0.341 C 
ATOM     24  O   UNL A   1      49.197  29.133  28.156  1.00  0.00    -0.246 OA
BRANCH  23  25
ATOM     25  O   UNL A   1      48.206  28.106  29.912  1.00  0.00    -0.462 OA
BRANCH  25  26
ATOM     26  C   UNL A   1      47.608  26.761  30.109  1.00  0.00     0.233 C 
BRANCH  26  27
ATOM     27  C   UNL A   1      47.675  26.084  31.531  1.00  0.00     0.038 C 
ATOM     28  C   UNL A   1      48.978  25.502  32.122  1.00  0.00     0.007 C 
ENDBRANCH  26  27
ENDBRANCH  25  26
ENDBRANCH  23  25
ENDBRANCH  15  23
ENDBRANCH  11  14
ENDBRANCH   5  10
ENDBRANCH   2   4
ENDBRANCH   1   2
BRANCH   1  29
ATOM     29  C   UNL A   1      46.021  22.209  25.952  1.00  0.00     0.274 C 
BRANCH  29  30
ATOM     30  C   UNL A   1      44.662  21.558  25.753  1.00  0.00     0.275 C 
BRANCH  30  31
ATOM     31  O   UNL A   1      43.658  22.408  26.311  1.00  0.00    -0.458 OA
BRANCH  31  32
ATOM     32  C   UNL A   1      43.053  23.218  25.420  1.00  0.00     0.338 C 
ATOM     33  O   UNL A   1      43.061  23.095  24.203  1.00  0.00    -0.246 OA
BRANCH  32  34
ATOM     34  C   UNL A   1      42.286  24.269  26.110  1.00  0.00     0.060 A 
ATOM     35  C   UNL A   1      42.322  25.586  25.667  1.00  0.00     0.016 A 
ATOM     36  C   UNL A   1      41.710  23.971  27.339  1.00  0.00     0.016 A 
ATOM     37  C   UNL A   1      42.050  26.621  26.549  1.00  0.00     0.010 A 
ATOM     38  C   UNL A   1      41.244  25.008  28.144  1.00  0.00     0.010 A 
ATOM     39  C   UNL A   1      41.494  26.350  27.800  1.00  0.00    -0.014 A 
BRANCH  39  40
ATOM     40  C   UNL A   1      41.224  27.433  28.786  1.00  0.00     0.031 A 
ATOM     41  C   UNL A   1      42.160  27.610  29.954  1.00  0.00     0.074 A 
ATOM     42  C   UNL A   1      40.143  28.230  28.672  1.00  0.00     0.049 A 
ATOM     43  N   UNL A   1      41.950  28.202  31.100  1.00  0.00    -0.248 NA
ATOM     44  C   UNL A   1      43.499  27.003  29.830  1.00  0.00     0.031 C 
ATOM     45  C   UNL A   1      39.186  28.226  27.566  1.00  0.00     0.029 A 
ATOM     46  N   UNL A   1      39.656  29.192  29.524  1.00  0.00    -0.354 N 
ATOM     47  C   UNL A   1      43.074  27.932  31.874  1.00  0.00     0.074 A 
ATOM     48  C   UNL A   1      43.975  27.149  31.058  1.00  0.00     0.031 C 
ATOM     49  C   UNL A   1      38.243  29.151  27.790  1.00  0.00     0.029 A 
ATOM     50  C   UNL A   1      38.451  29.714  29.115  1.00  0.00     0.049 A 
ATOM     51  H   UNL A   1      40.121  29.478  30.343  1.00  0.00     0.167 HD
ATOM     52  C   UNL A   1      43.319  28.300  33.154  1.00  0.00     0.034 A 
ATOM     53  C   UNL A   1      37.561  30.491  29.762  1.00  0.00     0.034 A 
ATOM     54  C   UNL A   1      42.455  29.166  33.910  1.00  0.00     0.049 A 
ATOM     55  C   UNL A   1      37.856  30.897  31.176  1.00  0.00     0.074 A 
ATOM     56  C   UNL A   1      42.621  29.639  35.200  1.00  0.00     0.029 A 
ATOM     57  N   UNL A   1      41.270  29.708  33.433  1.00  0.00    -0.354 N 
ATOM     58  N   UNL A   1      38.903  30.619  31.913  1.00  0.00    -0.248 NA
ATOM     59  C   UNL A   1      36.845  31.722  31.850  1.00  0.00     0.031 C 
ATOM     60  C   UNL A   1      41.527  30.458  35.507  1.00  0.00     0.029 A 
ATOM     61  C   UNL A   1      40.695  30.514  34.400  1.00  0.00     0.049 A 
ATOM     62  H   UNL A   1      40.894  29.544  32.538  1.00  0.00     0.167 HD
ATOM     63  C   UNL A   1      38.690  31.252  33.131  1.00  0.00     0.074 A 
ATOM     64  C   UNL A   1      37.425  31.949  33.021  1.00  0.00     0.031 C 
ATOM     65  C   UNL A   1      39.459  31.239  34.247  1.00  0.00     0.034 A 
BRANCH  52  66
ATOM     66  C   UNL A   1      44.565  27.766  33.814  1.00  0.00     0.023 A 
ATOM     67  C   UNL A   1      44.587  26.464  34.349  1.00  0.00     0.012 A 
ATOM     68  C   UNL A   1      45.733  28.555  33.872  1.00  0.00     0.148 A 
ATOM     69  C   UNL A   1      45.736  25.970  34.968  1.00  0.00     0.002 A 
ATOM     70  C   UNL A   1      46.889  28.038  34.448  1.00  0.00     0.091 A 
ATOM     71  F   UNL A   1      45.690  29.802  33.379  1.00  0.00    -0.205 F 
ATOM     72  C   UNL A   1      46.888  26.751  35.008  1.00  0.00     0.022 A 
BRANCH  70  73
ATOM     73  S   UNL A   1      48.443  28.940  34.472  1.00  0.00     0.127 S 
ATOM     74  O   UNL A   1      48.701  29.127  33.046  1.00  0.00    -0.237 OA
ATOM     75  O   UNL A   1      48.079  30.164  35.189  1.00  0.00    -0.237 OA
ATOM     76  O   UNL A   1      49.391  28.088  35.175  1.00  0.00    -0.744 OA
ENDBRANCH  70  73
ENDBRANCH  52  66
BRANCH  53  77
ATOM     77  C   UNL A   1      36.304  30.902  29.075  1.00  0.00     0.023 A 
ATOM     78  C   UNL A   1      35.505  29.923  28.457  1.00  0.00     0.012 A 
ATOM     79  C   UNL A   1      35.862  32.240  29.090  1.00  0.00     0.148 A 
ATOM     80  C   UNL A   1      34.295  30.270  27.855  1.00  0.00     0.002 A 
ATOM     81  C   UNL A   1      34.624  32.569  28.551  1.00  0.00     0.091 A 
ATOM     82  F   UNL A   1      36.645  33.163  29.666  1.00  0.00    -0.205 F 
ATOM     83  C   UNL A   1      33.847  31.588  27.916  1.00  0.00     0.022 A 
BRANCH  81  84
ATOM     84  S   UNL A   1      33.898  34.203  28.730  1.00  0.00     0.127 S 
ATOM     85  O   UNL A   1      34.917  35.052  28.121  1.00  0.00    -0.237 OA
ATOM     86  O   UNL A   1      32.662  34.071  27.958  1.00  0.00    -0.237 OA
ATOM     87  O   UNL A   1      33.691  34.386  30.160  1.00  0.00    -0.744 OA
ENDBRANCH  81  84
ENDBRANCH  53  77
BRANCH  65  88
ATOM     88  C   UNL A   1      38.974  32.040  35.424  1.00  0.00     0.023 A 
ATOM     89  C   UNL A   1      39.103  33.443  35.418  1.00  0.00     0.012 A 
ATOM     90  C   UNL A   1      38.334  31.405  36.506  1.00  0.00     0.148 A 
ATOM     91  C   UNL A   1      38.627  34.200  36.487  1.00  0.00     0.002 A 
ATOM     92  C   UNL A   1      37.819  32.170  37.545  1.00  0.00     0.091 A 
ATOM     93  F   UNL A   1      38.243  30.068  36.500  1.00  0.00    -0.205 F 
ATOM     94  C   UNL A   1      37.976  33.566  37.542  1.00  0.00     0.022 A 
BRANCH  92  95
ATOM     95  S   UNL A   1      36.884  31.448  38.897  1.00  0.00     0.127 S 
ATOM     96  O   UNL A   1      36.723  30.067  38.444  1.00  0.00    -0.237 OA
ATOM     97  O   UNL A   1      37.795  31.618  40.029  1.00  0.00    -0.237 OA
ATOM     98  O   UNL A   1      35.653  32.223  38.992  1.00  0.00    -0.744 OA
ENDBRANCH  92  95
ENDBRANCH  65  88
ENDBRANCH  39  40
ENDBRANCH  32  34
ENDBRANCH  31  32
ENDBRANCH  30  31
ENDBRANCH  29  30
ENDBRANCH   1  29
TORSDOF 20
ENDMDL
