MODEL 1
REMARK VINA RESULT:     -13.9      0.000      0.000
REMARK SMILES O=C(OCCOC(=O)c1ccc(-c2c3nc(c(-c4cccc(S(=O)(=O)[O-])c4F)c4ccc([nH]4)c(-c4cccc(S(=O)(=O)[O-])c4F)c4nc(c(-c5cccc(S(=O)(=O)[O-])c5F)c5ccc2[nH]5)C=C4)C=C3)cc1)C1=Cc2cc(OC(F)(F)F)ccc2O[C@@H]1C(F)(F)F
REMARK SMILES IDX 5 1 4 2 3 3 2 4 1 5 72 6 73 7 86 8 74 9 85 10 75 11 84 12
REMARK SMILES IDX 76 13 83 14 82 15 87 16 88 17 89 18 90 19 77 20 78 21 79 22
REMARK SMILES IDX 80 23 81 24 6 25 7 26 8 27 9 28 10 29 71 30 11 31 70 32
REMARK SMILES IDX 12 33 13 34 14 35 64 36 15 37 69 38 63 39 65 40 16 41 68 42
REMARK SMILES IDX 62 43 61 44 17 46 49 47 29 48 48 49 30 50 33 51 47 52 66 53
REMARK SMILES IDX 31 54 32 55 46 57 67 58 34 59 18 60 19 61 27 62 20 63 22 64
REMARK SMILES IDX 28 65 21 66 23 67 24 68 25 69 26 70 50 71 51 72 59 73 52 74
REMARK SMILES IDX 54 75 60 76 53 77 55 78 56 79 57 80 58 81 35 82 36 83 44 84
REMARK SMILES IDX 37 85 39 86 45 87 38 88 40 89 41 90 42 91 43 92
REMARK H PARENT 65 45 33 56
REMARK Flexibility Score: inf
ROOT
ATOM      1  C   UNL A   1      31.535  31.834  26.896  1.00  0.00     0.275 C 
ENDROOT
BRANCH   1   2
ATOM      2  C   UNL A   1      32.256  30.009  25.988  1.00  0.00     0.275 C 
BRANCH   2   3
ATOM      3  O   UNL A   1      32.592  28.677  26.728  1.00  0.00    -0.459 OA
BRANCH   3   4
ATOM      4  C   UNL A   1      31.787  27.665  26.385  1.00  0.00     0.338 C 
ATOM      5  O   UNL A   1      30.977  27.059  27.038  1.00  0.00    -0.246 OA
BRANCH   4   6
ATOM      6  C   UNL A   1      32.455  27.388  25.141  1.00  0.00     0.087 C 
ATOM      7  C   UNL A   1      33.673  26.603  25.361  1.00  0.00     0.027 C 
ATOM      8  C   UNL A   1      30.898  26.788  24.169  1.00  0.00     0.316 C 
ATOM      9  C   UNL A   1      33.819  24.877  24.900  1.00  0.00     0.021 A 
ATOM     10  O   UNL A   1      31.025  24.911  23.716  1.00  0.00    -0.475 OA
ATOM     11  C   UNL A   1      34.920  24.211  25.342  1.00  0.00     0.058 A 
ATOM     12  C   UNL A   1      32.526  23.983  24.183  1.00  0.00     0.128 A 
ATOM     13  C   UNL A   1      34.900  22.815  25.196  1.00  0.00     0.130 A 
ATOM     14  C   UNL A   1      32.574  22.620  24.067  1.00  0.00     0.051 A 
ATOM     15  C   UNL A   1      33.790  22.064  24.601  1.00  0.00     0.050 A 
BRANCH   8  16
ATOM     16  C   UNL A   1      30.690  28.114  23.337  1.00  0.00     0.430 C 
ATOM     17  F   UNL A   1      31.831  28.509  22.754  1.00  0.00    -0.167 F 
ATOM     18  F   UNL A   1      29.864  27.833  22.282  1.00  0.00    -0.167 F 
ATOM     19  F   UNL A   1      30.061  29.133  23.938  1.00  0.00    -0.167 F 
ENDBRANCH   8  16
BRANCH  13  20
ATOM     20  O   UNL A   1      36.070  22.313  25.707  1.00  0.00    -0.406 OA
BRANCH  20  21
ATOM     21  C   UNL A   1      36.837  21.366  25.008  1.00  0.00     0.573 C 
ATOM     22  F   UNL A   1      38.071  21.257  25.538  1.00  0.00    -0.132 F 
ATOM     23  F   UNL A   1      36.233  20.163  24.992  1.00  0.00    -0.132 F 
ATOM     24  F   UNL A   1      36.964  21.794  23.730  1.00  0.00    -0.132 F 
ENDBRANCH  20  21
ENDBRANCH  13  20
ENDBRANCH   4   6
ENDBRANCH   3   4
ENDBRANCH   2   3
ENDBRANCH   1   2
BRANCH   1  25
ATOM     25  O   UNL A   1      32.491  33.228  27.251  1.00  0.00    -0.458 OA
BRANCH  25  26
ATOM     26  C   UNL A   1      33.330  33.803  28.173  1.00  0.00     0.338 C 
ATOM     27  O   UNL A   1      33.088  34.612  29.050  1.00  0.00    -0.246 OA
BRANCH  26  28
ATOM     28  C   UNL A   1      34.552  32.937  28.184  1.00  0.00     0.060 A 
ATOM     29  C   UNL A   1      35.811  33.563  28.225  1.00  0.00     0.016 A 
ATOM     30  C   UNL A   1      34.432  31.602  28.572  1.00  0.00     0.016 A 
ATOM     31  C   UNL A   1      36.879  32.936  28.893  1.00  0.00     0.010 A 
ATOM     32  C   UNL A   1      35.503  30.975  29.214  1.00  0.00     0.010 A 
ATOM     33  C   UNL A   1      36.708  31.662  29.454  1.00  0.00    -0.014 A 
BRANCH  33  34
ATOM     34  C   UNL A   1      37.844  30.923  30.064  1.00  0.00     0.031 A 
ATOM     35  C   UNL A   1      38.189  31.325  31.468  1.00  0.00     0.074 A 
ATOM     36  C   UNL A   1      38.613  30.028  29.406  1.00  0.00     0.049 A 
ATOM     37  N   UNL A   1      39.170  30.935  32.232  1.00  0.00    -0.248 NA
ATOM     38  C   UNL A   1      37.309  32.342  32.073  1.00  0.00     0.031 C 
ATOM     39  C   UNL A   1      38.423  29.572  28.028  1.00  0.00     0.029 A 
ATOM     40  N   UNL A   1      39.751  29.361  29.812  1.00  0.00    -0.354 N 
ATOM     41  C   UNL A   1      39.035  31.673  33.398  1.00  0.00     0.074 A 
ATOM     42  C   UNL A   1      37.915  32.566  33.223  1.00  0.00     0.031 C 
ATOM     43  C   UNL A   1      39.421  28.725  27.698  1.00  0.00     0.029 A 
ATOM     44  C   UNL A   1      40.331  28.579  28.834  1.00  0.00     0.049 A 
ATOM     45  H   UNL A   1      40.117  29.436  30.723  1.00  0.00     0.167 HD
ATOM     46  C   UNL A   1      39.756  31.600  34.538  1.00  0.00     0.034 A 
ATOM     47  C   UNL A   1      41.464  27.840  28.861  1.00  0.00     0.034 A 
ATOM     48  C   UNL A   1      40.880  30.735  34.715  1.00  0.00     0.049 A 
ATOM     49  C   UNL A   1      42.272  27.789  30.146  1.00  0.00     0.074 A 
ATOM     50  C   UNL A   1      41.674  30.572  35.832  1.00  0.00     0.029 A 
ATOM     51  N   UNL A   1      41.383  29.898  33.731  1.00  0.00    -0.354 N 
ATOM     52  N   UNL A   1      42.036  28.371  31.299  1.00  0.00    -0.248 NA
ATOM     53  C   UNL A   1      43.481  26.947  30.146  1.00  0.00     0.031 C 
ATOM     54  C   UNL A   1      42.673  29.644  35.519  1.00  0.00     0.029 A 
ATOM     55  C   UNL A   1      42.478  29.210  34.216  1.00  0.00     0.049 A 
ATOM     56  H   UNL A   1      41.015  29.807  32.823  1.00  0.00     0.167 HD
ATOM     57  C   UNL A   1      43.030  27.924  32.168  1.00  0.00     0.074 A 
ATOM     58  C   UNL A   1      43.864  27.013  31.415  1.00  0.00     0.031 C 
ATOM     59  C   UNL A   1      43.243  28.245  33.469  1.00  0.00     0.034 A 
BRANCH  46  60
ATOM     60  C   UNL A   1      39.298  32.477  35.667  1.00  0.00     0.023 A 
ATOM     61  C   UNL A   1      39.779  33.802  35.747  1.00  0.00     0.012 A 
ATOM     62  C   UNL A   1      38.460  31.977  36.678  1.00  0.00     0.148 A 
ATOM     63  C   UNL A   1      39.481  34.597  36.849  1.00  0.00     0.002 A 
ATOM     64  C   UNL A   1      38.125  32.795  37.749  1.00  0.00     0.091 A 
ATOM     65  F   UNL A   1      38.044  30.706  36.595  1.00  0.00    -0.205 F 
ATOM     66  C   UNL A   1      38.650  34.096  37.846  1.00  0.00     0.022 A 
BRANCH  64  67
ATOM     67  S   UNL A   1      37.014  32.271  39.056  1.00  0.00     0.127 S 
ATOM     68  O   UNL A   1      37.509  33.048  40.193  1.00  0.00    -0.237 OA
ATOM     69  O   UNL A   1      35.716  32.703  38.541  1.00  0.00    -0.237 OA
ATOM     70  O   UNL A   1      37.178  30.829  39.171  1.00  0.00    -0.744 OA
ENDBRANCH  64  67
ENDBRANCH  46  60
BRANCH  47  71
ATOM     71  C   UNL A   1      41.906  27.021  27.684  1.00  0.00     0.023 A 
ATOM     72  C   UNL A   1      42.421  27.679  26.545  1.00  0.00     0.012 A 
ATOM     73  C   UNL A   1      41.752  25.622  27.641  1.00  0.00     0.148 A 
ATOM     74  C   UNL A   1      42.721  26.972  25.376  1.00  0.00     0.002 A 
ATOM     75  C   UNL A   1      42.097  24.916  26.488  1.00  0.00     0.091 A 
ATOM     76  F   UNL A   1      41.245  25.006  28.718  1.00  0.00    -0.205 F 
ATOM     77  C   UNL A   1      42.562  25.592  25.349  1.00  0.00     0.022 A 
BRANCH  75  78
ATOM     78  S   UNL A   1      42.010  23.123  26.376  1.00  0.00     0.127 S 
ATOM     79  O   UNL A   1      42.628  22.871  25.076  1.00  0.00    -0.237 OA
ATOM     80  O   UNL A   1      42.813  22.709  27.527  1.00  0.00    -0.237 OA
ATOM     81  O   UNL A   1      40.596  22.790  26.477  1.00  0.00    -0.744 OA
ENDBRANCH  75  78
ENDBRANCH  47  71
BRANCH  59  82
ATOM     82  C   UNL A   1      44.374  27.567  34.199  1.00  0.00     0.023 A 
ATOM     83  C   UNL A   1      45.648  28.164  34.239  1.00  0.00     0.012 A 
ATOM     84  C   UNL A   1      44.129  26.405  34.958  1.00  0.00     0.148 A 
ATOM     85  C   UNL A   1      46.669  27.601  35.006  1.00  0.00     0.002 A 
ATOM     86  C   UNL A   1      45.133  25.881  35.762  1.00  0.00     0.091 A 
ATOM     87  F   UNL A   1      42.912  25.843  34.893  1.00  0.00    -0.205 F 
ATOM     88  C   UNL A   1      46.407  26.471  35.779  1.00  0.00     0.022 A 
BRANCH  86  89
ATOM     89  S   UNL A   1      44.849  24.502  36.879  1.00  0.00     0.127 S 
ATOM     90  O   UNL A   1      44.496  23.432  35.948  1.00  0.00    -0.237 OA
ATOM     91  O   UNL A   1      46.155  24.348  37.520  1.00  0.00    -0.237 OA
ATOM     92  O   UNL A   1      43.785  24.927  37.778  1.00  0.00    -0.744 OA
ENDBRANCH  86  89
ENDBRANCH  59  82
ENDBRANCH  33  34
ENDBRANCH  26  28
ENDBRANCH  25  26
ENDBRANCH   1  25
TORSDOF 17
ENDMDL
MODEL 2
REMARK VINA RESULT:     -13.8      1.300      1.645
REMARK SMILES O=C(OCCOC(=O)c1ccc(-c2c3nc(c(-c4cccc(S(=O)(=O)[O-])c4F)c4ccc([nH]4)c(-c4cccc(S(=O)(=O)[O-])c4F)c4nc(c(-c5cccc(S(=O)(=O)[O-])c5F)c5ccc2[nH]5)C=C4)C=C3)cc1)C1=Cc2cc(OC(F)(F)F)ccc2O[C@@H]1C(F)(F)F
REMARK SMILES IDX 5 1 4 2 3 3 2 4 1 5 72 6 73 7 86 8 74 9 85 10 75 11 84 12
REMARK SMILES IDX 76 13 83 14 82 15 87 16 88 17 89 18 90 19 77 20 78 21 79 22
REMARK SMILES IDX 80 23 81 24 6 25 7 26 8 27 9 28 10 29 71 30 11 31 70 32
REMARK SMILES IDX 12 33 13 34 14 35 64 36 15 37 69 38 63 39 65 40 16 41 68 42
REMARK SMILES IDX 62 43 61 44 17 46 49 47 29 48 48 49 30 50 33 51 47 52 66 53
REMARK SMILES IDX 31 54 32 55 46 57 67 58 34 59 18 60 19 61 27 62 20 63 22 64
REMARK SMILES IDX 28 65 21 66 23 67 24 68 25 69 26 70 50 71 51 72 59 73 52 74
REMARK SMILES IDX 54 75 60 76 53 77 55 78 56 79 57 80 58 81 35 82 36 83 44 84
REMARK SMILES IDX 37 85 39 86 45 87 38 88 40 89 41 90 42 91 43 92
REMARK H PARENT 65 45 33 56
REMARK Flexibility Score: inf
ROOT
ATOM      1  C   UNL A   1      31.702  31.907  26.827  1.00  0.00     0.275 C 
ENDROOT
BRANCH   1   2
ATOM      2  C   UNL A   1      32.338  30.067  25.889  1.00  0.00     0.275 C 
BRANCH   2   3
ATOM      3  O   UNL A   1      32.725  28.743  26.618  1.00  0.00    -0.459 OA
BRANCH   3   4
ATOM      4  C   UNL A   1      31.906  27.724  26.333  1.00  0.00     0.338 C 
ATOM      5  O   UNL A   1      31.098  27.159  27.024  1.00  0.00    -0.246 OA
BRANCH   4   6
ATOM      6  C   UNL A   1      32.556  27.380  25.096  1.00  0.00     0.087 C 
ATOM      7  C   UNL A   1      33.748  26.564  25.337  1.00  0.00     0.027 C 
ATOM      8  C   UNL A   1      30.973  26.799  24.155  1.00  0.00     0.316 C 
ATOM      9  C   UNL A   1      33.833  24.819  24.937  1.00  0.00     0.021 A 
ATOM     10  O   UNL A   1      31.034  24.904  23.769  1.00  0.00    -0.475 OA
ATOM     11  C   UNL A   1      34.916  24.132  25.396  1.00  0.00     0.058 A 
ATOM     12  C   UNL A   1      32.507  23.943  24.260  1.00  0.00     0.128 A 
ATOM     13  C   UNL A   1      34.848  22.733  25.301  1.00  0.00     0.130 A 
ATOM     14  C   UNL A   1      32.509  22.576  24.192  1.00  0.00     0.051 A 
ATOM     15  C   UNL A   1      33.710  21.999  24.740  1.00  0.00     0.050 A 
BRANCH   8  16
ATOM     16  C   UNL A   1      30.803  28.100  23.278  1.00  0.00     0.430 C 
ATOM     17  F   UNL A   1      30.174  27.834  22.124  1.00  0.00    -0.167 F 
ATOM     18  F   UNL A   1      29.948  28.948  23.928  1.00  0.00    -0.167 F 
ATOM     19  F   UNL A   1      31.885  28.866  23.086  1.00  0.00    -0.167 F 
ENDBRANCH   8  16
BRANCH  13  20
ATOM     20  O   UNL A   1      36.005  22.211  25.822  1.00  0.00    -0.406 OA
BRANCH  20  21
ATOM     21  C   UNL A   1      36.908  21.480  25.033  1.00  0.00     0.573 C 
ATOM     22  F   UNL A   1      36.955  21.966  23.778  1.00  0.00    -0.132 F 
ATOM     23  F   UNL A   1      38.140  21.478  25.575  1.00  0.00    -0.132 F 
ATOM     24  F   UNL A   1      36.470  20.200  24.974  1.00  0.00    -0.132 F 
ENDBRANCH  20  21
ENDBRANCH  13  20
ENDBRANCH   4   6
ENDBRANCH   3   4
ENDBRANCH   2   3
ENDBRANCH   1   2
BRANCH   1  25
ATOM     25  O   UNL A   1      32.655  32.873  27.897  1.00  0.00    -0.458 OA
BRANCH  25  26
ATOM     26  C   UNL A   1      33.735  33.715  27.979  1.00  0.00     0.338 C 
ATOM     27  O   UNL A   1      33.788  34.889  28.299  1.00  0.00    -0.246 OA
BRANCH  26  28
ATOM     28  C   UNL A   1      34.932  32.815  28.004  1.00  0.00     0.060 A 
ATOM     29  C   UNL A   1      36.209  33.405  28.023  1.00  0.00     0.016 A 
ATOM     30  C   UNL A   1      34.776  31.493  28.424  1.00  0.00     0.016 A 
ATOM     31  C   UNL A   1      37.263  32.764  28.700  1.00  0.00     0.010 A 
ATOM     32  C   UNL A   1      35.832  30.851  29.075  1.00  0.00     0.010 A 
ATOM     33  C   UNL A   1      37.058  31.508  29.291  1.00  0.00    -0.014 A 
BRANCH  33  34
ATOM     34  C   UNL A   1      38.177  30.751  29.913  1.00  0.00     0.031 A 
ATOM     35  C   UNL A   1      38.506  31.140  31.323  1.00  0.00     0.074 A 
ATOM     36  C   UNL A   1      38.944  29.851  29.259  1.00  0.00     0.049 A 
ATOM     37  N   UNL A   1      39.472  30.733  32.099  1.00  0.00    -0.248 NA
ATOM     38  C   UNL A   1      37.631  32.164  31.923  1.00  0.00     0.031 C 
ATOM     39  C   UNL A   1      38.767  29.406  27.876  1.00  0.00     0.029 A 
ATOM     40  N   UNL A   1      40.067  29.168  29.677  1.00  0.00    -0.354 N 
ATOM     41  C   UNL A   1      39.330  31.465  33.268  1.00  0.00     0.074 A 
ATOM     42  C   UNL A   1      38.223  32.373  33.083  1.00  0.00     0.031 C 
ATOM     43  C   UNL A   1      39.759  28.549  27.554  1.00  0.00     0.029 A 
ATOM     44  C   UNL A   1      40.651  28.385  28.702  1.00  0.00     0.049 A 
ATOM     45  H   UNL A   1      40.422  29.232  30.593  1.00  0.00     0.167 HD
ATOM     46  C   UNL A   1      40.034  31.376  34.417  1.00  0.00     0.034 A 
ATOM     47  C   UNL A   1      41.775  27.632  28.740  1.00  0.00     0.034 A 
ATOM     48  C   UNL A   1      41.145  30.495  34.604  1.00  0.00     0.049 A 
ATOM     49  C   UNL A   1      42.564  27.562  30.036  1.00  0.00     0.074 A 
ATOM     50  C   UNL A   1      41.920  30.315  35.731  1.00  0.00     0.029 A 
ATOM     51  N   UNL A   1      41.651  29.658  33.622  1.00  0.00    -0.354 N 
ATOM     52  N   UNL A   1      42.319  28.139  31.189  1.00  0.00    -0.248 NA
ATOM     53  C   UNL A   1      43.763  26.705  30.047  1.00  0.00     0.031 C 
ATOM     54  C   UNL A   1      42.912  29.377  35.426  1.00  0.00     0.029 A 
ATOM     55  C   UNL A   1      42.730  28.954  34.117  1.00  0.00     0.049 A 
ATOM     56  H   UNL A   1      41.294  29.578  32.708  1.00  0.00     0.167 HD
ATOM     57  C   UNL A   1      43.295  27.674  32.069  1.00  0.00     0.074 A 
ATOM     58  C   UNL A   1      44.128  26.758  31.321  1.00  0.00     0.031 C 
ATOM     59  C   UNL A   1      43.494  27.984  33.375  1.00  0.00     0.034 A 
BRANCH  46  60
ATOM     60  C   UNL A   1      39.571  32.251  35.545  1.00  0.00     0.023 A 
ATOM     61  C   UNL A   1      38.557  31.782  36.408  1.00  0.00     0.012 A 
ATOM     62  C   UNL A   1      40.079  33.551  35.708  1.00  0.00     0.148 A 
ATOM     63  C   UNL A   1      38.011  32.616  37.379  1.00  0.00     0.002 A 
ATOM     64  C   UNL A   1      39.565  34.359  36.713  1.00  0.00     0.091 A 
ATOM     65  F   UNL A   1      41.018  33.984  34.856  1.00  0.00    -0.205 F 
ATOM     66  C   UNL A   1      38.520  33.902  37.536  1.00  0.00     0.022 A 
BRANCH  64  67
ATOM     67  S   UNL A   1      40.188  36.010  37.041  1.00  0.00     0.127 S 
ATOM     68  O   UNL A   1      39.734  36.738  35.857  1.00  0.00    -0.237 OA
ATOM     69  O   UNL A   1      39.488  36.357  38.277  1.00  0.00    -0.237 OA
ATOM     70  O   UNL A   1      41.632  35.876  37.173  1.00  0.00    -0.744 OA
ENDBRANCH  64  67
ENDBRANCH  46  60
BRANCH  47  71
ATOM     71  C   UNL A   1      42.223  26.815  27.563  1.00  0.00     0.023 A 
ATOM     72  C   UNL A   1      42.812  27.469  26.459  1.00  0.00     0.012 A 
ATOM     73  C   UNL A   1      42.006  25.426  27.486  1.00  0.00     0.148 A 
ATOM     74  C   UNL A   1      43.123  26.771  25.288  1.00  0.00     0.002 A 
ATOM     75  C   UNL A   1      42.362  24.726  26.333  1.00  0.00     0.091 A 
ATOM     76  F   UNL A   1      41.429  24.814  28.530  1.00  0.00    -0.205 F 
ATOM     77  C   UNL A   1      42.902  25.400  25.226  1.00  0.00     0.022 A 
BRANCH  75  78
ATOM     78  S   UNL A   1      42.196  22.941  26.180  1.00  0.00     0.127 S 
ATOM     79  O   UNL A   1      42.980  22.467  27.318  1.00  0.00    -0.237 OA
ATOM     80  O   UNL A   1      40.750  22.760  26.314  1.00  0.00    -0.237 OA
ATOM     81  O   UNL A   1      42.726  22.607  24.866  1.00  0.00    -0.744 OA
ENDBRANCH  75  78
ENDBRANCH  47  71
BRANCH  59  82
ATOM     82  C   UNL A   1      44.606  27.288  34.116  1.00  0.00     0.023 A 
ATOM     83  C   UNL A   1      45.888  27.866  34.173  1.00  0.00     0.012 A 
ATOM     84  C   UNL A   1      44.335  26.127  34.868  1.00  0.00     0.148 A 
ATOM     85  C   UNL A   1      46.891  27.285  34.950  1.00  0.00     0.002 A 
ATOM     86  C   UNL A   1      45.322  25.586  35.682  1.00  0.00     0.091 A 
ATOM     87  F   UNL A   1      43.111  25.583  34.787  1.00  0.00    -0.205 F 
ATOM     88  C   UNL A   1      46.603  26.157  35.716  1.00  0.00     0.022 A 
BRANCH  86  89
ATOM     89  S   UNL A   1      45.004  24.208  36.792  1.00  0.00     0.127 S 
ATOM     90  O   UNL A   1      44.620  23.154  35.855  1.00  0.00    -0.237 OA
ATOM     91  O   UNL A   1      46.308  24.014  37.427  1.00  0.00    -0.237 OA
ATOM     92  O   UNL A   1      43.954  24.656  37.696  1.00  0.00    -0.744 OA
ENDBRANCH  86  89
ENDBRANCH  59  82
ENDBRANCH  33  34
ENDBRANCH  26  28
ENDBRANCH  25  26
ENDBRANCH   1  25
TORSDOF 17
ENDMDL
MODEL 3
REMARK VINA RESULT:     -13.6      5.111     10.772
REMARK SMILES O=C(OCCOC(=O)c1ccc(-c2c3nc(c(-c4cccc(S(=O)(=O)[O-])c4F)c4ccc([nH]4)c(-c4cccc(S(=O)(=O)[O-])c4F)c4nc(c(-c5cccc(S(=O)(=O)[O-])c5F)c5ccc2[nH]5)C=C4)C=C3)cc1)C1=Cc2cc(OC(F)(F)F)ccc2O[C@@H]1C(F)(F)F
REMARK SMILES IDX 5 1 4 2 3 3 2 4 1 5 72 6 73 7 86 8 74 9 85 10 75 11 84 12
REMARK SMILES IDX 76 13 83 14 82 15 87 16 88 17 89 18 90 19 77 20 78 21 79 22
REMARK SMILES IDX 80 23 81 24 6 25 7 26 8 27 9 28 10 29 71 30 11 31 70 32
REMARK SMILES IDX 12 33 13 34 14 35 64 36 15 37 69 38 63 39 65 40 16 41 68 42
REMARK SMILES IDX 62 43 61 44 17 46 49 47 29 48 48 49 30 50 33 51 47 52 66 53
REMARK SMILES IDX 31 54 32 55 46 57 67 58 34 59 18 60 19 61 27 62 20 63 22 64
REMARK SMILES IDX 28 65 21 66 23 67 24 68 25 69 26 70 50 71 51 72 59 73 52 74
REMARK SMILES IDX 54 75 60 76 53 77 55 78 56 79 57 80 58 81 35 82 36 83 44 84
REMARK SMILES IDX 37 85 39 86 45 87 38 88 40 89 41 90 42 91 43 92
REMARK H PARENT 65 45 33 56
REMARK Flexibility Score: inf
ROOT
ATOM      1  C   UNL A   1      37.059  21.400  24.662  1.00  0.00     0.275 C 
ENDROOT
BRANCH   1   2
ATOM      2  C   UNL A   1      36.277  22.831  23.242  1.00  0.00     0.275 C 
BRANCH   2   3
ATOM      3  O   UNL A   1      34.785  22.989  22.815  1.00  0.00    -0.459 OA
BRANCH   3   4
ATOM      4  C   UNL A   1      33.922  22.548  23.738  1.00  0.00     0.338 C 
ATOM      5  O   UNL A   1      33.193  21.590  23.726  1.00  0.00    -0.246 OA
BRANCH   4   6
ATOM      6  C   UNL A   1      33.957  23.749  24.529  1.00  0.00     0.087 C 
ATOM      7  C   UNL A   1      33.544  24.912  23.739  1.00  0.00     0.027 C 
ATOM      8  C   UNL A   1      33.015  23.045  26.061  1.00  0.00     0.316 C 
ATOM      9  C   UNL A   1      31.980  25.753  23.985  1.00  0.00     0.021 A 
ATOM     10  O   UNL A   1      31.301  23.912  26.299  1.00  0.00    -0.475 OA
ATOM     11  C   UNL A   1      31.628  26.684  23.056  1.00  0.00     0.058 A 
ATOM     12  C   UNL A   1      30.813  25.246  25.153  1.00  0.00     0.128 A 
ATOM     13  C   UNL A   1      30.303  27.146  23.114  1.00  0.00     0.130 A 
ATOM     14  C   UNL A   1      29.537  25.743  25.155  1.00  0.00     0.051 A 
ATOM     15  C   UNL A   1      29.316  26.697  24.099  1.00  0.00     0.050 A 
BRANCH   8  16
ATOM     16  C   UNL A   1      34.288  22.847  26.973  1.00  0.00     0.430 C 
ATOM     17  F   UNL A   1      33.968  22.882  28.275  1.00  0.00    -0.167 F 
ATOM     18  F   UNL A   1      34.757  21.575  26.786  1.00  0.00    -0.167 F 
ATOM     19  F   UNL A   1      35.366  23.598  26.708  1.00  0.00    -0.167 F 
ENDBRANCH   8  16
BRANCH  13  20
ATOM     20  O   UNL A   1      30.121  28.056  22.102  1.00  0.00    -0.406 OA
BRANCH  20  21
ATOM     21  C   UNL A   1      30.395  29.422  22.278  1.00  0.00     0.573 C 
ATOM     22  F   UNL A   1      29.988  29.843  23.492  1.00  0.00    -0.132 F 
ATOM     23  F   UNL A   1      31.705  29.683  22.114  1.00  0.00    -0.132 F 
ATOM     24  F   UNL A   1      29.705  30.111  21.340  1.00  0.00    -0.132 F 
ENDBRANCH  20  21
ENDBRANCH  13  20
ENDBRANCH   4   6
ENDBRANCH   3   4
ENDBRANCH   2   3
ENDBRANCH   1   2
BRANCH   1  25
ATOM     25  O   UNL A   1      38.720  21.225  25.103  1.00  0.00    -0.458 OA
BRANCH  25  26
ATOM     26  C   UNL A   1      39.579  20.945  26.136  1.00  0.00     0.338 C 
ATOM     27  O   UNL A   1      40.362  20.023  26.272  1.00  0.00    -0.246 OA
BRANCH  26  28
ATOM     28  C   UNL A   1      39.690  22.223  26.910  1.00  0.00     0.060 A 
ATOM     29  C   UNL A   1      40.777  22.376  27.790  1.00  0.00     0.016 A 
ATOM     30  C   UNL A   1      39.005  23.351  26.455  1.00  0.00     0.016 A 
ATOM     31  C   UNL A   1      41.329  23.653  28.000  1.00  0.00     0.010 A 
ATOM     32  C   UNL A   1      39.544  24.620  26.686  1.00  0.00     0.010 A 
ATOM     33  C   UNL A   1      40.753  24.777  27.389  1.00  0.00    -0.014 A 
BRANCH  33  34
ATOM     34  C   UNL A   1      41.238  26.152  27.680  1.00  0.00     0.031 A 
ATOM     35  C   UNL A   1      42.644  26.440  27.244  1.00  0.00     0.074 A 
ATOM     36  C   UNL A   1      40.543  27.073  28.383  1.00  0.00     0.049 A 
ATOM     37  N   UNL A   1      43.376  27.503  27.430  1.00  0.00    -0.248 NA
ATOM     38  C   UNL A   1      43.324  25.348  26.523  1.00  0.00     0.031 C 
ATOM     39  C   UNL A   1      39.184  26.918  28.906  1.00  0.00     0.029 A 
ATOM     40  N   UNL A   1      40.913  28.330  28.815  1.00  0.00    -0.354 N 
ATOM     41  C   UNL A   1      44.606  27.198  26.866  1.00  0.00     0.074 A 
ATOM     42  C   UNL A   1      44.539  25.840  26.380  1.00  0.00     0.031 C 
ATOM     43  C   UNL A   1      38.849  28.022  29.606  1.00  0.00     0.029 A 
ATOM     44  C   UNL A   1      39.967  28.965  29.594  1.00  0.00     0.049 A 
ATOM     45  H   UNL A   1      41.778  28.740  28.586  1.00  0.00     0.167 HD
ATOM     46  C   UNL A   1      45.696  27.983  26.729  1.00  0.00     0.034 A 
ATOM     47  C   UNL A   1      40.010  30.163  30.221  1.00  0.00     0.034 A 
ATOM     48  C   UNL A   1      45.780  29.321  27.226  1.00  0.00     0.049 A 
ATOM     49  C   UNL A   1      41.254  31.022  30.072  1.00  0.00     0.074 A 
ATOM     50  C   UNL A   1      46.832  30.210  27.130  1.00  0.00     0.029 A 
ATOM     51  N   UNL A   1      44.772  29.956  27.933  1.00  0.00    -0.354 N 
ATOM     52  N   UNL A   1      42.352  30.782  29.394  1.00  0.00    -0.248 NA
ATOM     53  C   UNL A   1      41.249  32.334  30.743  1.00  0.00     0.031 C 
ATOM     54  C   UNL A   1      46.466  31.383  27.798  1.00  0.00     0.029 A 
ATOM     55  C   UNL A   1      45.174  31.231  28.280  1.00  0.00     0.049 A 
ATOM     56  H   UNL A   1      43.899  29.559  28.155  1.00  0.00     0.167 HD
ATOM     57  C   UNL A   1      43.137  31.927  29.512  1.00  0.00     0.074 A 
ATOM     58  C   UNL A   1      42.385  32.867  30.315  1.00  0.00     0.031 C 
ATOM     59  C   UNL A   1      44.373  32.179  29.011  1.00  0.00     0.034 A 
BRANCH  46  60
ATOM     60  C   UNL A   1      46.852  27.384  25.983  1.00  0.00     0.023 A 
ATOM     61  C   UNL A   1      47.762  26.555  26.675  1.00  0.00     0.012 A 
ATOM     62  C   UNL A   1      47.080  27.694  24.631  1.00  0.00     0.148 A 
ATOM     63  C   UNL A   1      48.915  26.093  26.048  1.00  0.00     0.002 A 
ATOM     64  C   UNL A   1      48.207  27.186  23.999  1.00  0.00     0.091 A 
ATOM     65  F   UNL A   1      46.219  28.509  24.007  1.00  0.00    -0.205 F 
ATOM     66  C   UNL A   1      49.134  26.403  24.710  1.00  0.00     0.022 A 
BRANCH  64  67
ATOM     67  S   UNL A   1      48.554  27.473  22.262  1.00  0.00     0.127 S 
ATOM     68  O   UNL A   1      49.770  28.283  22.334  1.00  0.00    -0.237 OA
ATOM     69  O   UNL A   1      48.756  26.112  21.766  1.00  0.00    -0.237 OA
ATOM     70  O   UNL A   1      47.384  28.152  21.724  1.00  0.00    -0.744 OA
ENDBRANCH  64  67
ENDBRANCH  46  60
BRANCH  47  71
ATOM     71  C   UNL A   1      38.842  30.693  31.001  1.00  0.00     0.023 A 
ATOM     72  C   UNL A   1      38.778  30.450  32.391  1.00  0.00     0.012 A 
ATOM     73  C   UNL A   1      37.765  31.357  30.382  1.00  0.00     0.148 A 
ATOM     74  C   UNL A   1      37.649  30.806  33.135  1.00  0.00     0.002 A 
ATOM     75  C   UNL A   1      36.661  31.753  31.139  1.00  0.00     0.091 A 
ATOM     76  F   UNL A   1      37.823  31.567  29.060  1.00  0.00    -0.205 F 
ATOM     77  C   UNL A   1      36.593  31.460  32.510  1.00  0.00     0.022 A 
BRANCH  75  78
ATOM     78  S   UNL A   1      35.281  32.677  30.447  1.00  0.00     0.127 S 
ATOM     79  O   UNL A   1      35.925  33.928  30.051  1.00  0.00    -0.237 OA
ATOM     80  O   UNL A   1      34.870  31.819  29.335  1.00  0.00    -0.237 OA
ATOM     81  O   UNL A   1      34.302  32.784  31.519  1.00  0.00    -0.744 OA
ENDBRANCH  75  78
ENDBRANCH  47  71
BRANCH  59  82
ATOM     82  C   UNL A   1      44.979  33.537  29.246  1.00  0.00     0.023 A 
ATOM     83  C   UNL A   1      45.731  33.785  30.410  1.00  0.00     0.012 A 
ATOM     84  C   UNL A   1      44.912  34.525  28.242  1.00  0.00     0.148 A 
ATOM     85  C   UNL A   1      46.389  35.003  30.581  1.00  0.00     0.002 A 
ATOM     86  C   UNL A   1      45.614  35.713  28.394  1.00  0.00     0.091 A 
ATOM     87  F   UNL A   1      44.177  34.275  27.148  1.00  0.00    -0.205 F 
ATOM     88  C   UNL A   1      46.345  35.959  29.567  1.00  0.00     0.022 A 
BRANCH  86  89
ATOM     89  S   UNL A   1      45.710  36.946  27.091  1.00  0.00     0.127 S 
ATOM     90  O   UNL A   1      44.310  37.347  26.957  1.00  0.00    -0.237 OA
ATOM     91  O   UNL A   1      46.580  37.961  27.686  1.00  0.00    -0.237 OA
ATOM     92  O   UNL A   1      46.280  36.267  25.936  1.00  0.00    -0.744 OA
ENDBRANCH  86  89
ENDBRANCH  59  82
ENDBRANCH  33  34
ENDBRANCH  26  28
ENDBRANCH  25  26
ENDBRANCH   1  25
TORSDOF 17
ENDMDL
