MODEL 1
REMARK VINA RESULT:     -12.8      0.000      0.000
REMARK SMILES O=C(OCCOC(=O)c1cc(S(=O)(=O)NNC(=O)[C@H]2C=C(c3ccccc3)N=N2)ccc1F)c1ccc(-c2c3nc(c(-c4cccc(S(=O)(=O)[O-])c4F)c4ccc([nH]4)c(-c4cccc(S(=O)(=O)[O-])c4F)c4nc(c(-c5cccc(S(=O)(=O)[O-])c5F)c5ccc2[nH]5)C=C4)C=C3)cc1
REMARK SMILES IDX 5 1 4 2 3 3 2 4 1 5 34 6 35 7 96 8 36 9 95 10 37 11 38 12
REMARK SMILES IDX 39 13 89 14 40 15 94 16 88 17 90 18 41 19 93 20 87 21 86 22
REMARK SMILES IDX 42 24 74 25 54 26 73 27 55 28 58 29 72 30 91 31 56 32 57 33
REMARK SMILES IDX 71 35 92 36 59 37 43 38 44 39 52 40 45 41 47 42 53 43 46 44
REMARK SMILES IDX 48 45 49 46 50 47 51 48 75 49 76 50 84 51 77 52 79 53 85 54
REMARK SMILES IDX 78 55 80 56 81 57 82 58 83 59 60 60 61 61 69 62 62 63 64 64
REMARK SMILES IDX 70 65 63 66 65 67 66 68 67 69 68 70 6 71 7 72 8 73 9 74
REMARK SMILES IDX 10 75 32 76 11 77 31 78 33 79 30 80 12 81 13 82 14 83 15 84
REMARK SMILES IDX 16 86 17 87 18 89 19 90 20 91 29 92 21 93 28 94 22 95 23 96
REMARK SMILES IDX 27 97 24 98 26 99 25 100
REMARK H PARENT 90 23 58 34 15 85 16 88
REMARK Flexibility Score: inf
ROOT
ATOM      1  C   UNL A   1      37.910  19.701  25.097  1.00  0.00     0.275 C 
ENDROOT
BRANCH   1   2
ATOM      2  C   UNL A   1      39.333  19.975  25.587  1.00  0.00     0.275 C 
BRANCH   2   3
ATOM      3  O   UNL A   1      40.280  18.890  25.518  1.00  0.00    -0.458 OA
BRANCH   3   4
ATOM      4  C   UNL A   1      41.565  19.126  25.864  1.00  0.00     0.338 C 
ATOM      5  O   UNL A   1      42.510  18.429  25.533  1.00  0.00    -0.246 OA
BRANCH   4   6
ATOM      6  C   UNL A   1      41.710  20.431  26.545  1.00  0.00     0.060 A 
ATOM      7  C   UNL A   1      41.172  20.663  27.816  1.00  0.00     0.016 A 
ATOM      8  C   UNL A   1      42.444  21.431  25.903  1.00  0.00     0.016 A 
ATOM      9  C   UNL A   1      41.318  21.904  28.420  1.00  0.00     0.010 A 
ATOM     10  C   UNL A   1      42.597  22.671  26.514  1.00  0.00     0.010 A 
ATOM     11  C   UNL A   1      42.013  22.918  27.758  1.00  0.00    -0.014 A 
BRANCH  11  12
ATOM     12  C   UNL A   1      42.150  24.204  28.441  1.00  0.00     0.031 A 
ATOM     13  C   UNL A   1      41.053  25.197  28.235  1.00  0.00     0.074 A 
ATOM     14  C   UNL A   1      43.127  24.465  29.330  1.00  0.00     0.049 A 
ATOM     15  N   UNL A   1      41.122  26.384  27.717  1.00  0.00    -0.248 NA
ATOM     16  C   UNL A   1      39.691  24.787  28.599  1.00  0.00     0.031 C 
ATOM     17  C   UNL A   1      44.090  23.524  29.907  1.00  0.00     0.029 A 
ATOM     18  N   UNL A   1      43.364  25.618  30.019  1.00  0.00    -0.354 N 
ATOM     19  C   UNL A   1      39.851  26.947  27.867  1.00  0.00     0.074 A 
ATOM     20  C   UNL A   1      38.985  25.875  28.286  1.00  0.00     0.031 C 
ATOM     21  C   UNL A   1      44.610  24.063  31.031  1.00  0.00     0.029 A 
ATOM     22  C   UNL A   1      44.141  25.431  31.153  1.00  0.00     0.049 A 
ATOM     23  H   UNL A   1      43.017  26.497  29.739  1.00  0.00     0.167 HD
ATOM     24  C   UNL A   1      39.640  28.294  27.819  1.00  0.00     0.034 A 
ATOM     25  C   UNL A   1      44.319  26.315  32.160  1.00  0.00     0.034 A 
ATOM     26  C   UNL A   1      40.758  28.993  27.247  1.00  0.00     0.049 A 
ATOM     27  C   UNL A   1      43.991  27.661  31.645  1.00  0.00     0.074 A 
ATOM     28  C   UNL A   1      41.417  28.986  26.036  1.00  0.00     0.029 A 
ATOM     29  N   UNL A   1      41.562  29.695  28.109  1.00  0.00    -0.354 N 
ATOM     30  N   UNL A   1      44.691  28.286  30.738  1.00  0.00    -0.248 NA
ATOM     31  C   UNL A   1      42.667  28.202  31.897  1.00  0.00     0.031 C 
ATOM     32  C   UNL A   1      42.777  29.268  26.358  1.00  0.00     0.029 A 
ATOM     33  C   UNL A   1      42.854  29.448  27.741  1.00  0.00     0.049 A 
ATOM     34  H   UNL A   1      41.264  30.269  28.852  1.00  0.00     0.167 HD
ATOM     35  C   UNL A   1      43.755  29.009  30.014  1.00  0.00     0.074 A 
ATOM     36  C   UNL A   1      42.565  29.036  30.859  1.00  0.00     0.031 C 
ATOM     37  C   UNL A   1      43.936  29.265  28.684  1.00  0.00     0.034 A 
BRANCH  24  38
ATOM     38  C   UNL A   1      38.568  29.061  28.571  1.00  0.00     0.023 A 
ATOM     39  C   UNL A   1      37.800  30.002  27.837  1.00  0.00     0.012 A 
ATOM     40  C   UNL A   1      38.467  29.127  29.975  1.00  0.00     0.148 A 
ATOM     41  C   UNL A   1      37.042  30.997  28.466  1.00  0.00     0.002 A 
ATOM     42  C   UNL A   1      37.642  30.062  30.594  1.00  0.00     0.091 A 
ATOM     43  F   UNL A   1      39.262  28.376  30.743  1.00  0.00    -0.205 F 
ATOM     44  C   UNL A   1      36.957  31.025  29.850  1.00  0.00     0.022 A 
BRANCH  42  45
ATOM     45  S   UNL A   1      37.453  30.069  32.377  1.00  0.00     0.127 S 
ATOM     46  O   UNL A   1      36.366  31.024  32.555  1.00  0.00    -0.237 OA
ATOM     47  O   UNL A   1      37.107  28.677  32.662  1.00  0.00    -0.237 OA
ATOM     48  O   UNL A   1      38.762  30.465  32.888  1.00  0.00    -0.744 OA
ENDBRANCH  42  45
ENDBRANCH  24  38
BRANCH  25  49
ATOM     49  C   UNL A   1      44.527  26.051  33.599  1.00  0.00     0.023 A 
ATOM     50  C   UNL A   1      45.835  26.029  34.119  1.00  0.00     0.012 A 
ATOM     51  C   UNL A   1      43.445  26.089  34.507  1.00  0.00     0.148 A 
ATOM     52  C   UNL A   1      46.059  26.075  35.499  1.00  0.00     0.002 A 
ATOM     53  C   UNL A   1      43.673  26.127  35.878  1.00  0.00     0.091 A 
ATOM     54  F   UNL A   1      42.199  26.187  34.024  1.00  0.00    -0.205 F 
ATOM     55  C   UNL A   1      44.982  26.131  36.379  1.00  0.00     0.022 A 
BRANCH  53  56
ATOM     56  S   UNL A   1      42.329  26.228  37.068  1.00  0.00     0.127 S 
ATOM     57  O   UNL A   1      41.636  24.958  36.854  1.00  0.00    -0.237 OA
ATOM     58  O   UNL A   1      43.054  26.327  38.332  1.00  0.00    -0.237 OA
ATOM     59  O   UNL A   1      41.555  27.403  36.689  1.00  0.00    -0.744 OA
ENDBRANCH  53  56
ENDBRANCH  25  49
BRANCH  37  60
ATOM     60  C   UNL A   1      45.290  29.006  28.073  1.00  0.00     0.023 A 
ATOM     61  C   UNL A   1      46.326  29.962  28.141  1.00  0.00     0.012 A 
ATOM     62  C   UNL A   1      45.596  27.703  27.641  1.00  0.00     0.148 A 
ATOM     63  C   UNL A   1      47.631  29.631  27.772  1.00  0.00     0.002 A 
ATOM     64  C   UNL A   1      46.907  27.363  27.330  1.00  0.00     0.091 A 
ATOM     65  F   UNL A   1      44.602  26.803  27.588  1.00  0.00    -0.205 F 
ATOM     66  C   UNL A   1      47.925  28.327  27.385  1.00  0.00     0.022 A 
BRANCH  64  67
ATOM     67  S   UNL A   1      47.378  25.664  26.985  1.00  0.00     0.127 S 
ATOM     68  O   UNL A   1      46.829  24.954  28.138  1.00  0.00    -0.237 OA
ATOM     69  O   UNL A   1      46.693  25.397  25.719  1.00  0.00    -0.237 OA
ATOM     70  O   UNL A   1      48.832  25.669  26.880  1.00  0.00    -0.744 OA
ENDBRANCH  64  67
ENDBRANCH  37  60
ENDBRANCH  11  12
ENDBRANCH   4   6
ENDBRANCH   3   4
ENDBRANCH   2   3
ENDBRANCH   1   2
BRANCH   1  71
ATOM     71  O   UNL A   1      37.083  20.865  25.269  1.00  0.00    -0.458 OA
BRANCH  71  72
ATOM     72  C   UNL A   1      35.764  20.677  25.009  1.00  0.00     0.341 C 
ATOM     73  O   UNL A   1      35.204  19.650  24.673  1.00  0.00    -0.246 OA
BRANCH  72  74
ATOM     74  C   UNL A   1      35.064  21.937  25.267  1.00  0.00     0.097 A 
ATOM     75  C   UNL A   1      33.693  21.930  25.530  1.00  0.00     0.040 A 
ATOM     76  C   UNL A   1      35.763  23.135  25.211  1.00  0.00     0.137 A 
ATOM     77  C   UNL A   1      33.039  23.145  25.781  1.00  0.00     0.085 A 
ATOM     78  C   UNL A   1      35.108  24.345  25.444  1.00  0.00     0.041 A 
ATOM     79  F   UNL A   1      37.070  23.149  24.912  1.00  0.00    -0.206 F 
ATOM     80  C   UNL A   1      33.740  24.356  25.742  1.00  0.00     0.025 A 
BRANCH  77  81
ATOM     81  S   UNL A   1      31.292  23.072  26.076  1.00  0.00     0.257 S 
ATOM     82  O   UNL A   1      30.892  21.696  25.887  1.00  0.00    -0.205 OA
ATOM     83  O   UNL A   1      31.039  23.794  27.300  1.00  0.00    -0.205 OA
BRANCH  81  84
ATOM     84  N   UNL A   1      30.574  23.971  24.837  1.00  0.00    -0.123 NA
ATOM     85  H   UNL A   1      30.510  24.935  25.166  1.00  0.00     0.167 HD
BRANCH  84  86
ATOM     86  N   UNL A   1      31.201  24.010  23.542  1.00  0.00    -0.275 N 
ATOM     87  C   UNL A   1      31.443  25.149  22.805  1.00  0.00     0.265 C 
ATOM     88  H   UNL A   1      31.480  23.150  23.150  1.00  0.00     0.186 HD
ATOM     89  O   UNL A   1      32.097  25.037  21.764  1.00  0.00    -0.271 OA
BRANCH  87  90
ATOM     90  C   UNL A   1      30.780  26.447  23.280  1.00  0.00     0.244 C 
ATOM     91  C   UNL A   1      31.299  26.939  24.572  1.00  0.00     0.042 C 
ATOM     92  N   UNL A   1      31.143  27.552  22.343  1.00  0.00    -0.171 NA
ATOM     93  C   UNL A   1      31.826  28.135  24.307  1.00  0.00     0.091 C 
ATOM     94  N   UNL A   1      31.712  28.484  22.984  1.00  0.00    -0.155 NA
BRANCH  93  95
ATOM     95  C   UNL A   1      32.403  29.007  25.326  1.00  0.00     0.002 A 
ATOM     96  C   UNL A   1      31.719  30.151  25.756  1.00  0.00     0.010 A 
ATOM     97  C   UNL A   1      33.626  28.679  25.927  1.00  0.00     0.010 A 
ATOM     98  C   UNL A   1      32.239  30.937  26.788  1.00  0.00     0.001 A 
ATOM     99  C   UNL A   1      34.149  29.474  26.946  1.00  0.00     0.001 A 
ATOM    100  C   UNL A   1      33.453  30.595  27.383  1.00  0.00     0.000 A 
ENDBRANCH  93  95
ENDBRANCH  87  90
ENDBRANCH  84  86
ENDBRANCH  81  84
ENDBRANCH  77  81
ENDBRANCH  72  74
ENDBRANCH  71  72
ENDBRANCH   1  71
TORSDOF 19
ENDMDL
MODEL 2
REMARK VINA RESULT:     -12.7      3.049      6.910
REMARK SMILES O=C(OCCOC(=O)c1cc(S(=O)(=O)NNC(=O)[C@H]2C=C(c3ccccc3)N=N2)ccc1F)c1ccc(-c2c3nc(c(-c4cccc(S(=O)(=O)[O-])c4F)c4ccc([nH]4)c(-c4cccc(S(=O)(=O)[O-])c4F)c4nc(c(-c5cccc(S(=O)(=O)[O-])c5F)c5ccc2[nH]5)C=C4)C=C3)cc1
REMARK SMILES IDX 5 1 4 2 3 3 2 4 1 5 34 6 35 7 96 8 36 9 95 10 37 11 38 12
REMARK SMILES IDX 39 13 89 14 40 15 94 16 88 17 90 18 41 19 93 20 87 21 86 22
REMARK SMILES IDX 42 24 74 25 54 26 73 27 55 28 58 29 72 30 91 31 56 32 57 33
REMARK SMILES IDX 71 35 92 36 59 37 43 38 44 39 52 40 45 41 47 42 53 43 46 44
REMARK SMILES IDX 48 45 49 46 50 47 51 48 75 49 76 50 84 51 77 52 79 53 85 54
REMARK SMILES IDX 78 55 80 56 81 57 82 58 83 59 60 60 61 61 69 62 62 63 64 64
REMARK SMILES IDX 70 65 63 66 65 67 66 68 67 69 68 70 6 71 7 72 8 73 9 74
REMARK SMILES IDX 10 75 32 76 11 77 31 78 33 79 30 80 12 81 13 82 14 83 15 84
REMARK SMILES IDX 16 86 17 87 18 89 19 90 20 91 29 92 21 93 28 94 22 95 23 96
REMARK SMILES IDX 27 97 24 98 26 99 25 100
REMARK H PARENT 90 23 58 34 15 85 16 88
REMARK Flexibility Score: inf
ROOT
ATOM      1  C   UNL A   1      36.314  20.741  24.991  1.00  0.00     0.275 C 
ENDROOT
BRANCH   1   2
ATOM      2  C   UNL A   1      37.840  20.671  25.061  1.00  0.00     0.275 C 
BRANCH   2   3
ATOM      3  O   UNL A   1      38.540  21.849  25.509  1.00  0.00    -0.458 OA
BRANCH   3   4
ATOM      4  C   UNL A   1      39.540  21.710  26.408  1.00  0.00     0.338 C 
ATOM      5  O   UNL A   1      40.126  20.664  26.633  1.00  0.00    -0.246 OA
BRANCH   4   6
ATOM      6  C   UNL A   1      39.957  23.018  26.959  1.00  0.00     0.060 A 
ATOM      7  C   UNL A   1      41.114  23.155  27.735  1.00  0.00     0.016 A 
ATOM      8  C   UNL A   1      39.184  24.139  26.650  1.00  0.00     0.016 A 
ATOM      9  C   UNL A   1      41.468  24.396  28.245  1.00  0.00     0.010 A 
ATOM     10  C   UNL A   1      39.546  25.383  27.154  1.00  0.00     0.010 A 
ATOM     11  C   UNL A   1      40.671  25.509  27.973  1.00  0.00    -0.014 A 
BRANCH  11  12
ATOM     12  C   UNL A   1      41.093  26.796  28.524  1.00  0.00     0.031 A 
ATOM     13  C   UNL A   1      42.380  27.359  28.015  1.00  0.00     0.074 A 
ATOM     14  C   UNL A   1      40.321  27.535  29.343  1.00  0.00     0.049 A 
ATOM     15  N   UNL A   1      43.458  27.641  28.676  1.00  0.00    -0.248 NA
ATOM     16  C   UNL A   1      42.497  27.578  26.567  1.00  0.00     0.031 C 
ATOM     17  C   UNL A   1      38.914  27.316  29.690  1.00  0.00     0.029 A 
ATOM     18  N   UNL A   1      40.603  28.736  29.924  1.00  0.00    -0.354 N 
ATOM     19  C   UNL A   1      44.324  28.254  27.765  1.00  0.00     0.074 A 
ATOM     20  C   UNL A   1      43.736  28.062  26.464  1.00  0.00     0.031 C 
ATOM     21  C   UNL A   1      38.400  28.464  30.181  1.00  0.00     0.029 A 
ATOM     22  C   UNL A   1      39.472  29.430  30.329  1.00  0.00     0.049 A 
ATOM     23  H   UNL A   1      41.519  29.078  30.043  1.00  0.00     0.167 HD
ATOM     24  C   UNL A   1      45.365  29.040  28.163  1.00  0.00     0.034 A 
ATOM     25  C   UNL A   1      39.413  30.732  30.687  1.00  0.00     0.034 A 
ATOM     26  C   UNL A   1      45.674  28.858  29.556  1.00  0.00     0.049 A 
ATOM     27  C   UNL A   1      40.777  31.162  31.065  1.00  0.00     0.074 A 
ATOM     28  C   UNL A   1      46.076  27.806  30.352  1.00  0.00     0.029 A 
ATOM     29  N   UNL A   1      45.295  29.858  30.415  1.00  0.00    -0.354 N 
ATOM     30  N   UNL A   1      41.415  30.721  32.114  1.00  0.00    -0.248 NA
ATOM     31  C   UNL A   1      41.591  31.849  30.079  1.00  0.00     0.031 C 
ATOM     32  C   UNL A   1      45.475  28.059  31.620  1.00  0.00     0.029 A 
ATOM     33  C   UNL A   1      44.763  29.256  31.519  1.00  0.00     0.049 A 
ATOM     34  H   UNL A   1      45.390  30.826  30.264  1.00  0.00     0.167 HD
ATOM     35  C   UNL A   1      42.746  30.692  31.724  1.00  0.00     0.074 A 
ATOM     36  C   UNL A   1      42.806  31.530  30.531  1.00  0.00     0.031 C 
ATOM     37  C   UNL A   1      43.610  29.762  32.231  1.00  0.00     0.034 A 
BRANCH  24  38
ATOM     38  C   UNL A   1      45.932  30.228  27.409  1.00  0.00     0.023 A 
ATOM     39  C   UNL A   1      47.328  30.461  27.509  1.00  0.00     0.012 A 
ATOM     40  C   UNL A   1      45.160  31.271  26.860  1.00  0.00     0.148 A 
ATOM     41  C   UNL A   1      47.905  31.688  27.159  1.00  0.00     0.002 A 
ATOM     42  C   UNL A   1      45.751  32.456  26.431  1.00  0.00     0.091 A 
ATOM     43  F   UNL A   1      43.825  31.192  26.861  1.00  0.00    -0.205 F 
ATOM     44  C   UNL A   1      47.115  32.688  26.612  1.00  0.00     0.022 A 
BRANCH  42  45
ATOM     45  S   UNL A   1      44.765  33.733  25.649  1.00  0.00     0.127 S 
ATOM     46  O   UNL A   1      44.044  34.288  26.789  1.00  0.00    -0.237 OA
ATOM     47  O   UNL A   1      45.785  34.612  25.077  1.00  0.00    -0.237 OA
ATOM     48  O   UNL A   1      43.968  33.029  24.649  1.00  0.00    -0.744 OA
ENDBRANCH  42  45
ENDBRANCH  24  38
BRANCH  25  49
ATOM     49  C   UNL A   1      38.308  31.696  30.501  1.00  0.00     0.023 A 
ATOM     50  C   UNL A   1      37.878  32.018  29.200  1.00  0.00     0.012 A 
ATOM     51  C   UNL A   1      37.500  32.092  31.591  1.00  0.00     0.148 A 
ATOM     52  C   UNL A   1      36.668  32.686  28.988  1.00  0.00     0.002 A 
ATOM     53  C   UNL A   1      36.301  32.762  31.376  1.00  0.00     0.091 A 
ATOM     54  F   UNL A   1      37.859  31.725  32.829  1.00  0.00    -0.205 F 
ATOM     55  C   UNL A   1      35.876  33.052  30.073  1.00  0.00     0.022 A 
BRANCH  53  56
ATOM     56  S   UNL A   1      35.217  33.239  32.729  1.00  0.00     0.127 S 
ATOM     57  O   UNL A   1      33.932  32.685  32.300  1.00  0.00    -0.237 OA
ATOM     58  O   UNL A   1      35.833  32.555  33.863  1.00  0.00    -0.237 OA
ATOM     59  O   UNL A   1      35.256  34.695  32.770  1.00  0.00    -0.744 OA
ENDBRANCH  53  56
ENDBRANCH  25  49
BRANCH  37  60
ATOM     60  C   UNL A   1      43.181  28.952  33.429  1.00  0.00     0.023 A 
ATOM     61  C   UNL A   1      42.370  27.806  33.293  1.00  0.00     0.012 A 
ATOM     62  C   UNL A   1      43.794  29.208  34.669  1.00  0.00     0.148 A 
ATOM     63  C   UNL A   1      42.163  26.944  34.372  1.00  0.00     0.002 A 
ATOM     64  C   UNL A   1      43.632  28.316  35.723  1.00  0.00     0.091 A 
ATOM     65  F   UNL A   1      44.569  30.298  34.781  1.00  0.00    -0.205 F 
ATOM     66  C   UNL A   1      42.808  27.189  35.581  1.00  0.00     0.022 A 
BRANCH  64  67
ATOM     67  S   UNL A   1      44.565  28.486  37.247  1.00  0.00     0.127 S 
ATOM     68  O   UNL A   1      44.122  29.790  37.735  1.00  0.00    -0.237 OA
ATOM     69  O   UNL A   1      44.095  27.346  38.035  1.00  0.00    -0.237 OA
ATOM     70  O   UNL A   1      45.969  28.401  36.864  1.00  0.00    -0.744 OA
ENDBRANCH  64  67
ENDBRANCH  37  60
ENDBRANCH  11  12
ENDBRANCH   4   6
ENDBRANCH   3   4
ENDBRANCH   2   3
ENDBRANCH   1   2
BRANCH   1  71
ATOM     71  O   UNL A   1      35.896  21.847  24.172  1.00  0.00    -0.458 OA
BRANCH  71  72
ATOM     72  C   UNL A   1      34.560  22.088  24.169  1.00  0.00     0.341 C 
ATOM     73  O   UNL A   1      33.653  21.285  24.050  1.00  0.00    -0.246 OA
BRANCH  72  74
ATOM     74  C   UNL A   1      34.354  23.518  24.406  1.00  0.00     0.097 A 
ATOM     75  C   UNL A   1      33.983  24.353  23.351  1.00  0.00     0.040 A 
ATOM     76  C   UNL A   1      34.564  24.041  25.676  1.00  0.00     0.137 A 
ATOM     77  C   UNL A   1      33.783  25.719  23.597  1.00  0.00     0.085 A 
ATOM     78  C   UNL A   1      34.382  25.403  25.915  1.00  0.00     0.041 A 
ATOM     79  F   UNL A   1      34.966  23.250  26.681  1.00  0.00    -0.206 F 
ATOM     80  C   UNL A   1      33.979  26.251  24.876  1.00  0.00     0.025 A 
BRANCH  77  81
ATOM     81  S   UNL A   1      33.347  26.731  22.208  1.00  0.00     0.257 S 
ATOM     82  O   UNL A   1      34.579  27.275  21.682  1.00  0.00    -0.205 OA
ATOM     83  O   UNL A   1      32.429  25.965  21.399  1.00  0.00    -0.205 OA
BRANCH  81  84
ATOM     84  N   UNL A   1      32.461  28.026  22.836  1.00  0.00    -0.123 NA
ATOM     85  H   UNL A   1      33.135  28.701  23.200  1.00  0.00     0.167 HD
BRANCH  84  86
ATOM     86  N   UNL A   1      31.566  28.751  21.972  1.00  0.00    -0.275 N 
ATOM     87  C   UNL A   1      30.281  29.133  22.292  1.00  0.00     0.265 C 
ATOM     88  H   UNL A   1      31.900  28.994  21.077  1.00  0.00     0.186 HD
ATOM     89  O   UNL A   1      29.675  29.854  21.494  1.00  0.00    -0.271 OA
BRANCH  87  90
ATOM     90  C   UNL A   1      29.667  28.535  23.563  1.00  0.00     0.244 C 
ATOM     91  C   UNL A   1      29.600  27.060  23.553  1.00  0.00     0.042 C 
ATOM     92  N   UNL A   1      30.573  28.811  24.718  1.00  0.00    -0.171 NA
ATOM     93  C   UNL A   1      30.354  26.667  24.580  1.00  0.00     0.091 C 
ATOM     94  N   UNL A   1      30.910  27.719  25.263  1.00  0.00    -0.155 NA
BRANCH  93  95
ATOM     95  C   UNL A   1      30.517  25.270  24.973  1.00  0.00     0.002 A 
ATOM     96  C   UNL A   1      30.538  24.256  24.008  1.00  0.00     0.010 A 
ATOM     97  C   UNL A   1      30.709  24.933  26.320  1.00  0.00     0.010 A 
ATOM     98  C   UNL A   1      30.772  22.930  24.384  1.00  0.00     0.001 A 
ATOM     99  C   UNL A   1      30.928  23.608  26.692  1.00  0.00     0.001 A 
ATOM    100  C   UNL A   1      30.969  22.609  25.726  1.00  0.00     0.000 A 
ENDBRANCH  93  95
ENDBRANCH  87  90
ENDBRANCH  84  86
ENDBRANCH  81  84
ENDBRANCH  77  81
ENDBRANCH  72  74
ENDBRANCH  71  72
ENDBRANCH   1  71
TORSDOF 19
ENDMDL
MODEL 3
REMARK VINA RESULT:     -12.3      3.602      7.297
REMARK SMILES O=C(OCCOC(=O)c1cc(S(=O)(=O)NNC(=O)[C@H]2C=C(c3ccccc3)N=N2)ccc1F)c1ccc(-c2c3nc(c(-c4cccc(S(=O)(=O)[O-])c4F)c4ccc([nH]4)c(-c4cccc(S(=O)(=O)[O-])c4F)c4nc(c(-c5cccc(S(=O)(=O)[O-])c5F)c5ccc2[nH]5)C=C4)C=C3)cc1
REMARK SMILES IDX 5 1 4 2 3 3 2 4 1 5 34 6 35 7 96 8 36 9 95 10 37 11 38 12
REMARK SMILES IDX 39 13 89 14 40 15 94 16 88 17 90 18 41 19 93 20 87 21 86 22
REMARK SMILES IDX 42 24 74 25 54 26 73 27 55 28 58 29 72 30 91 31 56 32 57 33
REMARK SMILES IDX 71 35 92 36 59 37 43 38 44 39 52 40 45 41 47 42 53 43 46 44
REMARK SMILES IDX 48 45 49 46 50 47 51 48 75 49 76 50 84 51 77 52 79 53 85 54
REMARK SMILES IDX 78 55 80 56 81 57 82 58 83 59 60 60 61 61 69 62 62 63 64 64
REMARK SMILES IDX 70 65 63 66 65 67 66 68 67 69 68 70 6 71 7 72 8 73 9 74
REMARK SMILES IDX 10 75 32 76 11 77 31 78 33 79 30 80 12 81 13 82 14 83 15 84
REMARK SMILES IDX 16 86 17 87 18 89 19 90 20 91 29 92 21 93 28 94 22 95 23 96
REMARK SMILES IDX 27 97 24 98 26 99 25 100
REMARK H PARENT 90 23 58 34 15 85 16 88
REMARK Flexibility Score: inf
ROOT
ATOM      1  C   UNL A   1      37.477  23.092  25.348  1.00  0.00     0.275 C 
ENDROOT
BRANCH   1   2
ATOM      2  C   UNL A   1      38.443  21.991  25.792  1.00  0.00     0.275 C 
BRANCH   2   3
ATOM      3  O   UNL A   1      39.816  22.366  26.024  1.00  0.00    -0.458 OA
BRANCH   3   4
ATOM      4  C   UNL A   1      40.287  22.352  27.291  1.00  0.00     0.338 C 
ATOM      5  O   UNL A   1      40.697  21.357  27.866  1.00  0.00    -0.246 OA
BRANCH   4   6
ATOM      6  C   UNL A   1      40.411  23.722  27.836  1.00  0.00     0.060 A 
ATOM      7  C   UNL A   1      41.637  24.230  28.282  1.00  0.00     0.016 A 
ATOM      8  C   UNL A   1      39.270  24.527  27.859  1.00  0.00     0.016 A 
ATOM      9  C   UNL A   1      41.712  25.515  28.798  1.00  0.00     0.010 A 
ATOM     10  C   UNL A   1      39.350  25.818  28.368  1.00  0.00     0.010 A 
ATOM     11  C   UNL A   1      40.562  26.304  28.862  1.00  0.00    -0.014 A 
BRANCH  11  12
ATOM     12  C   UNL A   1      40.696  27.656  29.403  1.00  0.00     0.031 A 
ATOM     13  C   UNL A   1      41.701  28.548  28.751  1.00  0.00     0.074 A 
ATOM     14  C   UNL A   1      39.876  28.156  30.348  1.00  0.00     0.049 A 
ATOM     15  N   UNL A   1      42.746  29.110  29.274  1.00  0.00    -0.248 NA
ATOM     16  C   UNL A   1      41.553  28.795  27.311  1.00  0.00     0.031 C 
ATOM     17  C   UNL A   1      38.642  27.562  30.870  1.00  0.00     0.029 A 
ATOM     18  N   UNL A   1      39.904  29.387  30.934  1.00  0.00    -0.354 N 
ATOM     19  C   UNL A   1      43.280  29.938  28.281  1.00  0.00     0.074 A 
ATOM     20  C   UNL A   1      42.589  29.597  27.063  1.00  0.00     0.031 C 
ATOM     21  C   UNL A   1      37.912  28.527  31.471  1.00  0.00     0.029 A 
ATOM     22  C   UNL A   1      38.697  29.747  31.514  1.00  0.00     0.049 A 
ATOM     23  H   UNL A   1      40.703  29.963  30.944  1.00  0.00     0.167 HD
ATOM     24  C   UNL A   1      44.118  30.975  28.568  1.00  0.00     0.034 A 
ATOM     25  C   UNL A   1      38.341  30.983  31.929  1.00  0.00     0.034 A 
ATOM     26  C   UNL A   1      44.654  30.879  29.899  1.00  0.00     0.049 A 
ATOM     27  C   UNL A   1      39.579  31.765  32.139  1.00  0.00     0.074 A 
ATOM     28  C   UNL A   1      45.430  29.974  30.591  1.00  0.00     0.029 A 
ATOM     29  N   UNL A   1      44.145  31.737  30.840  1.00  0.00    -0.354 N 
ATOM     30  N   UNL A   1      40.451  31.511  33.075  1.00  0.00    -0.248 NA
ATOM     31  C   UNL A   1      40.033  32.651  31.082  1.00  0.00     0.031 C 
ATOM     32  C   UNL A   1      44.966  30.050  31.937  1.00  0.00     0.029 A 
ATOM     33  C   UNL A   1      43.952  31.009  31.980  1.00  0.00     0.049 A 
ATOM     34  H   UNL A   1      43.955  32.695  30.718  1.00  0.00     0.167 HD
ATOM     35  C   UNL A   1      41.673  31.844  32.510  1.00  0.00     0.074 A 
ATOM     36  C   UNL A   1      41.340  32.671  31.354  1.00  0.00     0.031 C 
ATOM     37  C   UNL A   1      42.817  31.182  32.860  1.00  0.00     0.034 A 
BRANCH  24  38
ATOM     38  C   UNL A   1      44.234  32.274  27.794  1.00  0.00     0.023 A 
ATOM     39  C   UNL A   1      45.314  32.398  26.882  1.00  0.00     0.012 A 
ATOM     40  C   UNL A   1      43.541  33.460  28.109  1.00  0.00     0.148 A 
ATOM     41  C   UNL A   1      45.727  33.638  26.380  1.00  0.00     0.002 A 
ATOM     42  C   UNL A   1      43.900  34.678  27.538  1.00  0.00     0.091 A 
ATOM     43  F   UNL A   1      42.606  33.459  29.065  1.00  0.00    -0.205 F 
ATOM     44  C   UNL A   1      45.014  34.782  26.704  1.00  0.00     0.022 A 
BRANCH  42  45
ATOM     45  S   UNL A   1      42.948  36.158  27.879  1.00  0.00     0.127 S 
ATOM     46  O   UNL A   1      43.528  37.106  26.935  1.00  0.00    -0.237 OA
ATOM     47  O   UNL A   1      41.583  35.733  27.567  1.00  0.00    -0.237 OA
ATOM     48  O   UNL A   1      43.170  36.426  29.297  1.00  0.00    -0.744 OA
ENDBRANCH  42  45
ENDBRANCH  24  38
BRANCH  25  49
ATOM     49  C   UNL A   1      37.003  31.612  31.932  1.00  0.00     0.023 A 
ATOM     50  C   UNL A   1      36.436  32.032  33.150  1.00  0.00     0.012 A 
ATOM     51  C   UNL A   1      36.402  32.042  30.728  1.00  0.00     0.148 A 
ATOM     52  C   UNL A   1      35.324  32.880  33.169  1.00  0.00     0.002 A 
ATOM     53  C   UNL A   1      35.291  32.879  30.752  1.00  0.00     0.091 A 
ATOM     54  F   UNL A   1      36.976  31.711  29.563  1.00  0.00    -0.205 F 
ATOM     55  C   UNL A   1      34.755  33.309  31.972  1.00  0.00     0.022 A 
BRANCH  53  56
ATOM     56  S   UNL A   1      34.525  33.493  29.246  1.00  0.00     0.127 S 
ATOM     57  O   UNL A   1      33.406  34.277  29.770  1.00  0.00    -0.237 OA
ATOM     58  O   UNL A   1      35.605  34.282  28.659  1.00  0.00    -0.237 OA
ATOM     59  O   UNL A   1      34.126  32.309  28.496  1.00  0.00    -0.744 OA
ENDBRANCH  53  56
ENDBRANCH  25  49
BRANCH  37  60
ATOM     60  C   UNL A   1      42.792  30.282  34.070  1.00  0.00     0.023 A 
ATOM     61  C   UNL A   1      42.442  28.920  33.970  1.00  0.00     0.012 A 
ATOM     62  C   UNL A   1      43.355  30.753  35.270  1.00  0.00     0.148 A 
ATOM     63  C   UNL A   1      42.633  28.051  35.046  1.00  0.00     0.002 A 
ATOM     64  C   UNL A   1      43.597  29.873  36.318  1.00  0.00     0.091 A 
ATOM     65  F   UNL A   1      43.690  32.051  35.348  1.00  0.00    -0.205 F 
ATOM     66  C   UNL A   1      43.228  28.523  36.213  1.00  0.00     0.022 A 
BRANCH  64  67
ATOM     67  S   UNL A   1      44.509  30.382  37.779  1.00  0.00     0.127 S 
ATOM     68  O   UNL A   1      43.516  31.178  38.498  1.00  0.00    -0.237 OA
ATOM     69  O   UNL A   1      44.839  29.102  38.407  1.00  0.00    -0.237 OA
ATOM     70  O   UNL A   1      45.669  31.115  37.287  1.00  0.00    -0.744 OA
ENDBRANCH  64  67
ENDBRANCH  37  60
ENDBRANCH  11  12
ENDBRANCH   4   6
ENDBRANCH   3   4
ENDBRANCH   2   3
ENDBRANCH   1   2
BRANCH   1  71
ATOM     71  O   UNL A   1      36.272  23.053  26.132  1.00  0.00    -0.458 OA
BRANCH  71  72
ATOM     72  C   UNL A   1      35.181  22.569  25.484  1.00  0.00     0.341 C 
ATOM     73  O   UNL A   1      35.113  21.600  24.749  1.00  0.00    -0.246 OA
BRANCH  72  74
ATOM     74  C   UNL A   1      34.025  23.380  25.867  1.00  0.00     0.097 A 
ATOM     75  C   UNL A   1      34.019  24.751  25.606  1.00  0.00     0.040 A 
ATOM     76  C   UNL A   1      32.955  22.785  26.522  1.00  0.00     0.137 A 
ATOM     77  C   UNL A   1      32.900  25.513  25.974  1.00  0.00     0.085 A 
ATOM     78  C   UNL A   1      31.850  23.547  26.903  1.00  0.00     0.041 A 
ATOM     79  F   UNL A   1      32.977  21.477  26.817  1.00  0.00    -0.206 F 
ATOM     80  C   UNL A   1      31.812  24.918  26.620  1.00  0.00     0.025 A 
BRANCH  77  81
ATOM     81  S   UNL A   1      32.969  27.254  25.645  1.00  0.00     0.257 S 
ATOM     82  O   UNL A   1      33.421  27.893  26.860  1.00  0.00    -0.205 OA
ATOM     83  O   UNL A   1      33.649  27.419  24.382  1.00  0.00    -0.205 OA
BRANCH  81  84
ATOM     84  N   UNL A   1      31.371  27.744  25.392  1.00  0.00    -0.123 NA
ATOM     85  H   UNL A   1      30.914  27.753  26.304  1.00  0.00     0.167 HD
BRANCH  84  86
ATOM     86  N   UNL A   1      31.115  29.022  24.780  1.00  0.00    -0.275 N 
ATOM     87  C   UNL A   1      30.248  29.247  23.733  1.00  0.00     0.265 C 
ATOM     88  H   UNL A   1      31.601  29.799  25.140  1.00  0.00     0.186 HD
ATOM     89  O   UNL A   1      30.042  30.415  23.393  1.00  0.00    -0.271 OA
BRANCH  87  90
ATOM     90  C   UNL A   1      29.697  28.018  23.001  1.00  0.00     0.244 C 
ATOM     91  C   UNL A   1      30.745  27.112  22.489  1.00  0.00     0.042 C 
ATOM     92  N   UNL A   1      28.970  27.153  23.978  1.00  0.00    -0.171 NA
ATOM     93  C   UNL A   1      30.545  25.953  23.117  1.00  0.00     0.091 C 
ATOM     94  N   UNL A   1      29.482  25.995  23.983  1.00  0.00    -0.155 NA
BRANCH  93  95
ATOM     95  C   UNL A   1      31.331  24.749  22.858  1.00  0.00     0.002 A 
ATOM     96  C   UNL A   1      32.560  24.830  22.192  1.00  0.00     0.010 A 
ATOM     97  C   UNL A   1      30.889  23.504  23.323  1.00  0.00     0.010 A 
ATOM     98  C   UNL A   1      33.344  23.686  22.018  1.00  0.00     0.001 A 
ATOM     99  C   UNL A   1      31.667  22.362  23.135  1.00  0.00     0.001 A 
ATOM    100  C   UNL A   1      32.896  22.454  22.492  1.00  0.00     0.000 A 
ENDBRANCH  93  95
ENDBRANCH  87  90
ENDBRANCH  84  86
ENDBRANCH  81  84
ENDBRANCH  77  81
ENDBRANCH  72  74
ENDBRANCH  71  72
ENDBRANCH   1  71
TORSDOF 19
ENDMDL
