MODEL 1
REMARK VINA RESULT:     -12.5      0.000      0.000
REMARK SMILES C#Cc1cc(Cl)cc2c1O[C@H](C(F)(F)F)C(C(=O)OCCOC(=O)c1ccc(-c3c4nc(c(-c5cccc(S(=O)(=O)[O-])c5F)c5ccc([nH]5)c(-c5cccc(S(=O)(=O)[O-])c5F)c5nc(c(-c6cccc(S(=O)(=O)[O-])c6F)c6ccc3[nH]6)C=C5)C=C4)cc1)=C2
REMARK SMILES IDX 21 1 20 2 19 3 17 4 18 5 16 6 3 7 4 8 9 9 5 10 8 11 10 12
REMARK SMILES IDX 6 13 7 14 88 15 11 16 2 17 1 18 12 19 13 20 14 21 15 22
REMARK SMILES IDX 22 23 23 24 24 25 25 26 26 27 87 28 27 29 86 30 28 31 29 32
REMARK SMILES IDX 30 33 80 34 31 35 85 36 79 37 81 38 32 39 84 40 78 41 77 42
REMARK SMILES IDX 33 44 65 45 45 46 64 47 46 48 49 49 63 50 82 51 47 52 48 53
REMARK SMILES IDX 62 55 83 56 50 57 34 58 35 59 43 60 36 61 38 62 44 63 37 64
REMARK SMILES IDX 39 65 40 66 41 67 42 68 66 69 67 70 75 71 68 72 70 73 76 74
REMARK SMILES IDX 69 75 71 76 72 77 73 78 74 79 51 80 52 81 60 82 53 83 55 84
REMARK SMILES IDX 61 85 54 86 56 87 57 88 58 89 59 90
REMARK H PARENT 81 43 49 54
REMARK Flexibility Score: inf
ROOT
ATOM      1  C   UNL A   1      36.637  20.546  25.006  1.00  0.00     0.275 C 
ENDROOT
BRANCH   1   2
ATOM      2  C   UNL A   1      35.314  21.315  24.985  1.00  0.00     0.275 C 
BRANCH   2   3
ATOM      3  O   UNL A   1      35.532  22.740  24.879  1.00  0.00    -0.459 OA
BRANCH   3   4
ATOM      4  C   UNL A   1      35.230  23.285  23.676  1.00  0.00     0.338 C 
ATOM      5  O   UNL A   1      35.686  22.950  22.595  1.00  0.00    -0.246 OA
BRANCH   4   6
ATOM      6  C   UNL A   1      34.255  24.381  23.824  1.00  0.00     0.087 C 
ATOM      7  C   UNL A   1      31.268  27.191  24.679  1.00  0.00     0.068 A 
ATOM      8  C   UNL A   1      31.486  28.130  25.696  1.00  0.00     0.041 A 
ATOM      9  C   UNL A   1      32.276  26.280  24.332  1.00  0.00     0.143 A 
ATOM     10  C   UNL A   1      32.713  28.173  26.353  1.00  0.00     0.043 A 
ATOM     11  C   UNL A   1      33.497  26.330  25.006  1.00  0.00     0.020 A 
ATOM     12  O   UNL A   1      32.026  25.380  23.328  1.00  0.00    -0.474 OA
ATOM     13  Cl  UNL A   1      32.973  29.320  27.607  1.00  0.00    -0.084 Cl
ATOM     14  C   UNL A   1      33.723  27.283  26.008  1.00  0.00     0.032 A 
ATOM     15  C   UNL A   1      34.521  25.353  24.702  1.00  0.00     0.027 C 
ATOM     16  C   UNL A   1      32.939  24.267  23.117  1.00  0.00     0.316 C 
BRANCH   7  17
ATOM     17  C   UNL A   1      29.996  27.168  24.025  1.00  0.00    -0.067 C 
ATOM     18  C   UNL A   1      28.928  27.156  23.473  1.00  0.00     0.010 C 
ENDBRANCH   7  17
BRANCH  16  19
ATOM     19  C   UNL A   1      32.227  22.956  23.483  1.00  0.00     0.430 C 
ATOM     20  F   UNL A   1      32.326  22.694  24.809  1.00  0.00    -0.167 F 
ATOM     21  F   UNL A   1      30.901  23.014  23.206  1.00  0.00    -0.167 F 
ATOM     22  F   UNL A   1      32.733  21.893  22.819  1.00  0.00    -0.167 F 
ENDBRANCH  16  19
ENDBRANCH   4   6
ENDBRANCH   3   4
ENDBRANCH   2   3
ENDBRANCH   1   2
BRANCH   1  23
ATOM     23  O   UNL A   1      37.758  21.447  24.954  1.00  0.00    -0.458 OA
BRANCH  23  24
ATOM     24  C   UNL A   1      38.796  21.094  25.744  1.00  0.00     0.338 C 
ATOM     25  O   UNL A   1      39.367  20.016  25.776  1.00  0.00    -0.246 OA
BRANCH  24  26
ATOM     26  C   UNL A   1      39.272  22.247  26.516  1.00  0.00     0.060 A 
ATOM     27  C   UNL A   1      38.753  23.493  26.195  1.00  0.00     0.016 A 
ATOM     28  C   UNL A   1      40.384  22.148  27.345  1.00  0.00     0.016 A 
ATOM     29  C   UNL A   1      39.464  24.642  26.509  1.00  0.00     0.010 A 
ATOM     30  C   UNL A   1      40.983  23.319  27.826  1.00  0.00     0.010 A 
ATOM     31  C   UNL A   1      40.571  24.583  27.362  1.00  0.00    -0.014 A 
BRANCH  31  32
ATOM     32  C   UNL A   1      41.278  25.836  27.756  1.00  0.00     0.031 A 
ATOM     33  C   UNL A   1      40.578  26.883  28.587  1.00  0.00     0.074 A 
ATOM     34  C   UNL A   1      42.559  26.034  27.372  1.00  0.00     0.049 A 
ATOM     35  N   UNL A   1      40.964  28.099  28.873  1.00  0.00    -0.248 NA
ATOM     36  C   UNL A   1      39.267  26.529  29.159  1.00  0.00     0.031 C 
ATOM     37  C   UNL A   1      43.371  25.089  26.596  1.00  0.00     0.029 A 
ATOM     38  N   UNL A   1      43.409  27.094  27.574  1.00  0.00    -0.354 N 
ATOM     39  C   UNL A   1      39.923  28.674  29.595  1.00  0.00     0.074 A 
ATOM     40  C   UNL A   1      38.882  27.677  29.700  1.00  0.00     0.031 C 
ATOM     41  C   UNL A   1      44.601  25.587  26.429  1.00  0.00     0.029 A 
ATOM     42  C   UNL A   1      44.638  26.936  26.971  1.00  0.00     0.049 A 
ATOM     43  H   UNL A   1      43.164  27.890  28.100  1.00  0.00     0.167 HD
ATOM     44  C   UNL A   1      39.850  29.916  30.130  1.00  0.00     0.034 A 
ATOM     45  C   UNL A   1      45.663  27.794  26.812  1.00  0.00     0.034 A 
ATOM     46  C   UNL A   1      40.919  30.878  30.073  1.00  0.00     0.049 A 
ATOM     47  C   UNL A   1      45.533  29.179  27.377  1.00  0.00     0.074 A 
ATOM     48  C   UNL A   1      40.952  32.153  30.607  1.00  0.00     0.029 A 
ATOM     49  N   UNL A   1      42.143  30.671  29.457  1.00  0.00    -0.354 N 
ATOM     50  N   UNL A   1      44.552  29.694  28.077  1.00  0.00    -0.248 NA
ATOM     51  C   UNL A   1      46.653  30.100  27.141  1.00  0.00     0.031 C 
ATOM     52  C   UNL A   1      42.180  32.732  30.281  1.00  0.00     0.029 A 
ATOM     53  C   UNL A   1      42.933  31.799  29.585  1.00  0.00     0.049 A 
ATOM     54  H   UNL A   1      42.411  29.843  28.996  1.00  0.00     0.167 HD
ATOM     55  C   UNL A   1      44.949  30.986  28.393  1.00  0.00     0.074 A 
ATOM     56  C   UNL A   1      46.271  31.167  27.830  1.00  0.00     0.031 C 
ATOM     57  C   UNL A   1      44.270  31.945  29.068  1.00  0.00     0.034 A 
BRANCH  44  58
ATOM     58  C   UNL A   1      38.589  30.318  30.856  1.00  0.00     0.023 A 
ATOM     59  C   UNL A   1      38.460  30.059  32.235  1.00  0.00     0.012 A 
ATOM     60  C   UNL A   1      37.587  31.061  30.198  1.00  0.00     0.148 A 
ATOM     61  C   UNL A   1      37.349  30.519  32.944  1.00  0.00     0.002 A 
ATOM     62  C   UNL A   1      36.510  31.561  30.920  1.00  0.00     0.091 A 
ATOM     63  F   UNL A   1      37.721  31.285  28.882  1.00  0.00    -0.205 F 
ATOM     64  C   UNL A   1      36.384  31.282  32.291  1.00  0.00     0.022 A 
BRANCH  62  65
ATOM     65  S   UNL A   1      35.262  32.632  30.196  1.00  0.00     0.127 S 
ATOM     66  O   UNL A   1      36.066  33.779  29.776  1.00  0.00    -0.237 OA
ATOM     67  O   UNL A   1      34.754  31.810  29.099  1.00  0.00    -0.237 OA
ATOM     68  O   UNL A   1      34.300  32.908  31.254  1.00  0.00    -0.744 OA
ENDBRANCH  62  65
ENDBRANCH  44  58
BRANCH  45  69
ATOM     69  C   UNL A   1      46.898  27.363  26.092  1.00  0.00     0.023 A 
ATOM     70  C   UNL A   1      47.825  26.532  26.749  1.00  0.00     0.012 A 
ATOM     71  C   UNL A   1      47.143  27.738  24.754  1.00  0.00     0.148 A 
ATOM     72  C   UNL A   1      48.985  26.106  26.100  1.00  0.00     0.002 A 
ATOM     73  C   UNL A   1      48.265  27.255  24.092  1.00  0.00     0.091 A 
ATOM     74  F   UNL A   1      46.258  28.541  24.147  1.00  0.00    -0.205 F 
ATOM     75  C   UNL A   1      49.199  26.455  24.769  1.00  0.00     0.022 A 
BRANCH  73  76
ATOM     76  S   UNL A   1      48.548  27.531  22.339  1.00  0.00     0.127 S 
ATOM     77  O   UNL A   1      47.372  28.313  21.967  1.00  0.00    -0.237 OA
ATOM     78  O   UNL A   1      49.807  28.277  22.352  1.00  0.00    -0.237 OA
ATOM     79  O   UNL A   1      48.640  26.206  21.740  1.00  0.00    -0.744 OA
ENDBRANCH  73  76
ENDBRANCH  45  69
BRANCH  57  80
ATOM     80  C   UNL A   1      44.951  33.271  29.279  1.00  0.00     0.023 A 
ATOM     81  C   UNL A   1      45.742  33.479  30.426  1.00  0.00     0.012 A 
ATOM     82  C   UNL A   1      44.890  34.271  28.287  1.00  0.00     0.148 A 
ATOM     83  C   UNL A   1      46.442  34.672  30.595  1.00  0.00     0.002 A 
ATOM     84  C   UNL A   1      45.639  35.431  28.434  1.00  0.00     0.091 A 
ATOM     85  F   UNL A   1      44.119  34.057  27.210  1.00  0.00    -0.205 F 
ATOM     86  C   UNL A   1      46.403  35.640  29.593  1.00  0.00     0.022 A 
BRANCH  84  87
ATOM     87  S   UNL A   1      45.745  36.683  27.150  1.00  0.00     0.127 S 
ATOM     88  O   UNL A   1      46.763  37.581  27.694  1.00  0.00    -0.237 OA
ATOM     89  O   UNL A   1      46.178  35.898  25.993  1.00  0.00    -0.237 OA
ATOM     90  O   UNL A   1      44.412  37.258  27.032  1.00  0.00    -0.744 OA
ENDBRANCH  84  87
ENDBRANCH  57  80
ENDBRANCH  31  32
ENDBRANCH  24  26
ENDBRANCH  23  24
ENDBRANCH   1  23
TORSDOF 16
ENDMDL
MODEL 2
REMARK VINA RESULT:     -12.5      1.292      1.601
REMARK SMILES C#Cc1cc(Cl)cc2c1O[C@H](C(F)(F)F)C(C(=O)OCCOC(=O)c1ccc(-c3c4nc(c(-c5cccc(S(=O)(=O)[O-])c5F)c5ccc([nH]5)c(-c5cccc(S(=O)(=O)[O-])c5F)c5nc(c(-c6cccc(S(=O)(=O)[O-])c6F)c6ccc3[nH]6)C=C5)C=C4)cc1)=C2
REMARK SMILES IDX 21 1 20 2 19 3 17 4 18 5 16 6 3 7 4 8 9 9 5 10 8 11 10 12
REMARK SMILES IDX 6 13 7 14 88 15 11 16 2 17 1 18 12 19 13 20 14 21 15 22
REMARK SMILES IDX 22 23 23 24 24 25 25 26 26 27 87 28 27 29 86 30 28 31 29 32
REMARK SMILES IDX 30 33 80 34 31 35 85 36 79 37 81 38 32 39 84 40 78 41 77 42
REMARK SMILES IDX 33 44 65 45 45 46 64 47 46 48 49 49 63 50 82 51 47 52 48 53
REMARK SMILES IDX 62 55 83 56 50 57 34 58 35 59 43 60 36 61 38 62 44 63 37 64
REMARK SMILES IDX 39 65 40 66 41 67 42 68 66 69 67 70 75 71 68 72 70 73 76 74
REMARK SMILES IDX 69 75 71 76 72 77 73 78 74 79 51 80 52 81 60 82 53 83 55 84
REMARK SMILES IDX 61 85 54 86 56 87 57 88 58 89 59 90
REMARK H PARENT 81 43 49 54
REMARK Flexibility Score: inf
ROOT
ATOM      1  C   UNL A   1      36.565  20.522  24.984  1.00  0.00     0.275 C 
ENDROOT
BRANCH   1   2
ATOM      2  C   UNL A   1      35.242  21.289  24.942  1.00  0.00     0.275 C 
BRANCH   2   3
ATOM      3  O   UNL A   1      35.459  22.717  24.880  1.00  0.00    -0.459 OA
BRANCH   3   4
ATOM      4  C   UNL A   1      35.198  23.291  23.682  1.00  0.00     0.338 C 
ATOM      5  O   UNL A   1      35.680  22.976  22.608  1.00  0.00    -0.246 OA
BRANCH   4   6
ATOM      6  C   UNL A   1      34.231  24.396  23.827  1.00  0.00     0.087 C 
ATOM      7  C   UNL A   1      31.257  27.224  24.665  1.00  0.00     0.068 A 
ATOM      8  C   UNL A   1      31.465  28.148  25.699  1.00  0.00     0.041 A 
ATOM      9  C   UNL A   1      32.262  26.308  24.325  1.00  0.00     0.143 A 
ATOM     10  C   UNL A   1      32.680  28.169  26.379  1.00  0.00     0.043 A 
ATOM     11  C   UNL A   1      33.470  26.336  25.022  1.00  0.00     0.020 A 
ATOM     12  O   UNL A   1      32.021  25.425  23.303  1.00  0.00    -0.474 OA
ATOM     13  Cl  UNL A   1      32.928  29.295  27.654  1.00  0.00    -0.084 Cl
ATOM     14  C   UNL A   1      33.687  27.273  26.041  1.00  0.00     0.032 A 
ATOM     15  C   UNL A   1      34.490  25.353  24.724  1.00  0.00     0.027 C 
ATOM     16  C   UNL A   1      32.928  24.305  23.094  1.00  0.00     0.316 C 
BRANCH   7  17
ATOM     17  C   UNL A   1      29.997  27.224  23.988  1.00  0.00    -0.067 C 
ATOM     18  C   UNL A   1      28.942  27.227  23.412  1.00  0.00     0.010 C 
ENDBRANCH   7  17
BRANCH  16  19
ATOM     19  C   UNL A   1      32.195  22.997  23.428  1.00  0.00     0.430 C 
ATOM     20  F   UNL A   1      32.731  21.947  22.759  1.00  0.00    -0.167 F 
ATOM     21  F   UNL A   1      32.288  22.694  24.746  1.00  0.00    -0.167 F 
ATOM     22  F   UNL A   1      30.881  23.049  23.117  1.00  0.00    -0.167 F 
ENDBRANCH  16  19
ENDBRANCH   4   6
ENDBRANCH   3   4
ENDBRANCH   2   3
ENDBRANCH   1   2
BRANCH   1  23
ATOM     23  O   UNL A   1      37.685  21.424  24.946  1.00  0.00    -0.458 OA
BRANCH  23  24
ATOM     24  C   UNL A   1      38.725  21.059  25.727  1.00  0.00     0.338 C 
ATOM     25  O   UNL A   1      39.287  19.975  25.750  1.00  0.00    -0.246 OA
BRANCH  24  26
ATOM     26  C   UNL A   1      39.217  22.203  26.502  1.00  0.00     0.060 A 
ATOM     27  C   UNL A   1      38.689  23.452  26.207  1.00  0.00     0.016 A 
ATOM     28  C   UNL A   1      40.347  22.097  27.305  1.00  0.00     0.016 A 
ATOM     29  C   UNL A   1      39.404  24.599  26.519  1.00  0.00     0.010 A 
ATOM     30  C   UNL A   1      40.954  23.263  27.786  1.00  0.00     0.010 A 
ATOM     31  C   UNL A   1      40.530  24.532  27.346  1.00  0.00    -0.014 A 
BRANCH  31  32
ATOM     32  C   UNL A   1      41.244  25.781  27.739  1.00  0.00     0.031 A 
ATOM     33  C   UNL A   1      40.548  26.835  28.566  1.00  0.00     0.074 A 
ATOM     34  C   UNL A   1      42.527  25.971  27.358  1.00  0.00     0.049 A 
ATOM     35  N   UNL A   1      40.941  28.049  28.850  1.00  0.00    -0.248 NA
ATOM     36  C   UNL A   1      39.233  26.489  29.135  1.00  0.00     0.031 C 
ATOM     37  C   UNL A   1      43.335  25.019  26.587  1.00  0.00     0.029 A 
ATOM     38  N   UNL A   1      43.383  27.026  27.560  1.00  0.00    -0.354 N 
ATOM     39  C   UNL A   1      39.902  28.632  29.567  1.00  0.00     0.074 A 
ATOM     40  C   UNL A   1      38.854  27.642  29.673  1.00  0.00     0.031 C 
ATOM     41  C   UNL A   1      44.569  25.509  26.421  1.00  0.00     0.029 A 
ATOM     42  C   UNL A   1      44.612  26.859  26.960  1.00  0.00     0.049 A 
ATOM     43  H   UNL A   1      43.141  27.825  28.083  1.00  0.00     0.167 HD
ATOM     44  C   UNL A   1      39.834  29.876  30.100  1.00  0.00     0.034 A 
ATOM     45  C   UNL A   1      45.643  27.711  26.802  1.00  0.00     0.034 A 
ATOM     46  C   UNL A   1      40.910  30.831  30.043  1.00  0.00     0.049 A 
ATOM     47  C   UNL A   1      45.520  29.097  27.363  1.00  0.00     0.074 A 
ATOM     48  C   UNL A   1      40.949  32.108  30.574  1.00  0.00     0.029 A 
ATOM     49  N   UNL A   1      42.134  30.615  29.430  1.00  0.00    -0.354 N 
ATOM     50  N   UNL A   1      44.540  29.620  28.059  1.00  0.00    -0.248 NA
ATOM     51  C   UNL A   1      46.646  30.010  27.127  1.00  0.00     0.031 C 
ATOM     52  C   UNL A   1      42.182  32.678  30.250  1.00  0.00     0.029 A 
ATOM     53  C   UNL A   1      42.931  31.739  29.558  1.00  0.00     0.049 A 
ATOM     54  H   UNL A   1      42.398  29.784  28.972  1.00  0.00     0.167 HD
ATOM     55  C   UNL A   1      44.944  30.910  28.373  1.00  0.00     0.074 A 
ATOM     56  C   UNL A   1      46.269  31.081  27.813  1.00  0.00     0.031 C 
ATOM     57  C   UNL A   1      44.270  31.875  29.044  1.00  0.00     0.034 A 
BRANCH  44  58
ATOM     58  C   UNL A   1      38.575  30.287  30.822  1.00  0.00     0.023 A 
ATOM     59  C   UNL A   1      38.444  30.040  32.203  1.00  0.00     0.012 A 
ATOM     60  C   UNL A   1      37.575  31.027  30.157  1.00  0.00     0.148 A 
ATOM     61  C   UNL A   1      37.334  30.509  32.906  1.00  0.00     0.002 A 
ATOM     62  C   UNL A   1      36.499  31.536  30.874  1.00  0.00     0.091 A 
ATOM     63  F   UNL A   1      37.710  31.239  28.839  1.00  0.00    -0.205 F 
ATOM     64  C   UNL A   1      36.371  31.269  32.246  1.00  0.00     0.022 A 
BRANCH  62  65
ATOM     65  S   UNL A   1      35.254  32.604  30.140  1.00  0.00     0.127 S 
ATOM     66  O   UNL A   1      36.058  33.753  29.726  1.00  0.00    -0.237 OA
ATOM     67  O   UNL A   1      34.757  31.781  29.038  1.00  0.00    -0.237 OA
ATOM     68  O   UNL A   1      34.283  32.878  31.190  1.00  0.00    -0.744 OA
ENDBRANCH  62  65
ENDBRANCH  44  58
BRANCH  45  69
ATOM     69  C   UNL A   1      46.878  27.270  26.086  1.00  0.00     0.023 A 
ATOM     70  C   UNL A   1      47.019  27.556  24.715  1.00  0.00     0.012 A 
ATOM     71  C   UNL A   1      47.924  26.604  26.757  1.00  0.00     0.148 A 
ATOM     72  C   UNL A   1      48.164  27.163  24.019  1.00  0.00     0.002 A 
ATOM     73  C   UNL A   1      49.090  26.276  26.075  1.00  0.00     0.091 A 
ATOM     74  F   UNL A   1      47.769  26.326  28.059  1.00  0.00    -0.205 F 
ATOM     75  C   UNL A   1      49.203  26.536  24.701  1.00  0.00     0.022 A 
BRANCH  73  76
ATOM     76  S   UNL A   1      50.536  25.601  26.900  1.00  0.00     0.127 S 
ATOM     77  O   UNL A   1      49.997  24.384  27.499  1.00  0.00    -0.237 OA
ATOM     78  O   UNL A   1      51.448  25.384  25.775  1.00  0.00    -0.237 OA
ATOM     79  O   UNL A   1      50.972  26.627  27.838  1.00  0.00    -0.744 OA
ENDBRANCH  73  76
ENDBRANCH  45  69
BRANCH  57  80
ATOM     80  C   UNL A   1      44.958  33.198  29.253  1.00  0.00     0.023 A 
ATOM     81  C   UNL A   1      45.735  33.409  30.409  1.00  0.00     0.012 A 
ATOM     82  C   UNL A   1      44.919  34.189  28.252  1.00  0.00     0.148 A 
ATOM     83  C   UNL A   1      46.442  34.598  30.578  1.00  0.00     0.002 A 
ATOM     84  C   UNL A   1      45.675  35.345  28.400  1.00  0.00     0.091 A 
ATOM     85  F   UNL A   1      44.161  33.973  27.167  1.00  0.00    -0.205 F 
ATOM     86  C   UNL A   1      46.425  35.558  29.568  1.00  0.00     0.022 A 
BRANCH  84  87
ATOM     87  S   UNL A   1      45.808  36.585  27.107  1.00  0.00     0.127 S 
ATOM     88  O   UNL A   1      44.450  37.128  27.076  1.00  0.00    -0.237 OA
ATOM     89  O   UNL A   1      46.815  37.493  27.657  1.00  0.00    -0.237 OA
ATOM     90  O   UNL A   1      46.219  35.875  25.904  1.00  0.00    -0.744 OA
ENDBRANCH  84  87
ENDBRANCH  57  80
ENDBRANCH  31  32
ENDBRANCH  24  26
ENDBRANCH  23  24
ENDBRANCH   1  23
TORSDOF 16
ENDMDL
MODEL 3
REMARK VINA RESULT:     -12.4      5.184     10.010
REMARK SMILES C#Cc1cc(Cl)cc2c1O[C@H](C(F)(F)F)C(C(=O)OCCOC(=O)c1ccc(-c3c4nc(c(-c5cccc(S(=O)(=O)[O-])c5F)c5ccc([nH]5)c(-c5cccc(S(=O)(=O)[O-])c5F)c5nc(c(-c6cccc(S(=O)(=O)[O-])c6F)c6ccc3[nH]6)C=C5)C=C4)cc1)=C2
REMARK SMILES IDX 21 1 20 2 19 3 17 4 18 5 16 6 3 7 4 8 9 9 5 10 8 11 10 12
REMARK SMILES IDX 6 13 7 14 88 15 11 16 2 17 1 18 12 19 13 20 14 21 15 22
REMARK SMILES IDX 22 23 23 24 24 25 25 26 26 27 87 28 27 29 86 30 28 31 29 32
REMARK SMILES IDX 30 33 80 34 31 35 85 36 79 37 81 38 32 39 84 40 78 41 77 42
REMARK SMILES IDX 33 44 65 45 45 46 64 47 46 48 49 49 63 50 82 51 47 52 48 53
REMARK SMILES IDX 62 55 83 56 50 57 34 58 35 59 43 60 36 61 38 62 44 63 37 64
REMARK SMILES IDX 39 65 40 66 41 67 42 68 66 69 67 70 75 71 68 72 70 73 76 74
REMARK SMILES IDX 69 75 71 76 72 77 73 78 74 79 51 80 52 81 60 82 53 83 55 84
REMARK SMILES IDX 61 85 54 86 56 87 57 88 58 89 59 90
REMARK H PARENT 81 43 49 54
REMARK Flexibility Score: inf
ROOT
ATOM      1  C   UNL A   1      31.531  30.166  25.703  1.00  0.00     0.275 C 
ENDROOT
BRANCH   1   2
ATOM      2  C   UNL A   1      31.668  28.840  24.951  1.00  0.00     0.275 C 
BRANCH   2   3
ATOM      3  O   UNL A   1      32.433  27.878  25.711  1.00  0.00    -0.459 OA
BRANCH   3   4
ATOM      4  C   UNL A   1      31.708  26.909  26.318  1.00  0.00     0.338 C 
ATOM      5  O   UNL A   1      30.753  27.076  27.057  1.00  0.00    -0.246 OA
BRANCH   4   6
ATOM      6  C   UNL A   1      32.229  25.571  25.981  1.00  0.00     0.087 C 
ATOM      7  C   UNL A   1      33.813  21.987  24.501  1.00  0.00     0.068 A 
ATOM      8  C   UNL A   1      35.203  21.806  24.494  1.00  0.00     0.041 A 
ATOM      9  C   UNL A   1      33.256  23.151  25.048  1.00  0.00     0.143 A 
ATOM     10  C   UNL A   1      36.033  22.777  25.047  1.00  0.00     0.043 A 
ATOM     11  C   UNL A   1      34.102  24.119  25.590  1.00  0.00     0.020 A 
ATOM     12  O   UNL A   1      31.891  23.287  25.041  1.00  0.00    -0.474 OA
ATOM     13  Cl  UNL A   1      37.739  22.558  25.026  1.00  0.00    -0.084 Cl
ATOM     14  C   UNL A   1      35.491  23.929  25.602  1.00  0.00     0.032 A 
ATOM     15  C   UNL A   1      33.543  25.354  26.098  1.00  0.00     0.027 C 
ATOM     16  C   UNL A   1      31.296  24.576  25.361  1.00  0.00     0.316 C 
BRANCH   7  17
ATOM     17  C   UNL A   1      32.985  20.974  23.922  1.00  0.00    -0.067 C 
ATOM     18  C   UNL A   1      32.295  20.117  23.437  1.00  0.00     0.010 C 
ENDBRANCH   7  17
BRANCH  16  19
ATOM     19  C   UNL A   1      30.634  25.151  24.099  1.00  0.00     0.430 C 
ATOM     20  F   UNL A   1      30.186  24.165  23.284  1.00  0.00    -0.167 F 
ATOM     21  F   UNL A   1      29.554  25.911  24.404  1.00  0.00    -0.167 F 
ATOM     22  F   UNL A   1      31.481  25.920  23.379  1.00  0.00    -0.167 F 
ENDBRANCH  16  19
ENDBRANCH   4   6
ENDBRANCH   3   4
ENDBRANCH   2   3
ENDBRANCH   1   2
BRANCH   1  23
ATOM     23  O   UNL A   1      32.344  30.173  26.889  1.00  0.00    -0.458 OA
BRANCH  23  24
ATOM     24  C   UNL A   1      32.987  31.338  27.120  1.00  0.00     0.338 C 
ATOM     25  O   UNL A   1      32.501  32.457  27.156  1.00  0.00    -0.246 OA
BRANCH  24  26
ATOM     26  C   UNL A   1      34.392  31.093  27.466  1.00  0.00     0.060 A 
ATOM     27  C   UNL A   1      34.783  29.777  27.666  1.00  0.00     0.016 A 
ATOM     28  C   UNL A   1      35.234  32.135  27.840  1.00  0.00     0.016 A 
ATOM     29  C   UNL A   1      35.902  29.496  28.437  1.00  0.00     0.010 A 
ATOM     30  C   UNL A   1      36.462  31.836  28.443  1.00  0.00     0.010 A 
ATOM     31  C   UNL A   1      36.784  30.516  28.809  1.00  0.00    -0.014 A 
BRANCH  31  32
ATOM     32  C   UNL A   1      38.025  30.190  29.570  1.00  0.00     0.031 A 
ATOM     33  C   UNL A   1      39.091  29.312  28.960  1.00  0.00     0.074 A 
ATOM     34  C   UNL A   1      38.201  30.688  30.814  1.00  0.00     0.049 A 
ATOM     35  N   UNL A   1      40.142  28.780  29.527  1.00  0.00    -0.248 NA
ATOM     36  C   UNL A   1      38.953  28.973  27.532  1.00  0.00     0.031 C 
ATOM     37  C   UNL A   1      37.269  31.580  31.513  1.00  0.00     0.029 A 
ATOM     38  N   UNL A   1      39.220  30.518  31.719  1.00  0.00    -0.354 N 
ATOM     39  C   UNL A   1      40.749  27.994  28.553  1.00  0.00     0.074 A 
ATOM     40  C   UNL A   1      39.947  28.112  27.356  1.00  0.00     0.031 C 
ATOM     41  C   UNL A   1      37.775  31.910  32.707  1.00  0.00     0.029 A 
ATOM     42  C   UNL A   1      39.004  31.162  32.918  1.00  0.00     0.049 A 
ATOM     43  H   UNL A   1      40.028  29.987  31.529  1.00  0.00     0.167 HD
ATOM     44  C   UNL A   1      41.878  27.253  28.647  1.00  0.00     0.034 A 
ATOM     45  C   UNL A   1      39.678  31.114  34.083  1.00  0.00     0.034 A 
ATOM     46  C   UNL A   1      42.703  27.194  29.826  1.00  0.00     0.049 A 
ATOM     47  C   UNL A   1      40.900  30.247  34.169  1.00  0.00     0.074 A 
ATOM     48  C   UNL A   1      43.880  26.493  30.012  1.00  0.00     0.029 A 
ATOM     49  N   UNL A   1      42.445  27.866  31.011  1.00  0.00    -0.354 N 
ATOM     50  N   UNL A   1      41.470  29.533  33.230  1.00  0.00    -0.248 NA
ATOM     51  C   UNL A   1      41.578  30.186  35.471  1.00  0.00     0.031 C 
ATOM     52  C   UNL A   1      44.315  26.709  31.321  1.00  0.00     0.029 A 
ATOM     53  C   UNL A   1      43.434  27.584  31.936  1.00  0.00     0.049 A 
ATOM     54  H   UNL A   1      41.673  28.455  31.170  1.00  0.00     0.167 HD
ATOM     55  C   UNL A   1      42.592  28.963  33.817  1.00  0.00     0.074 A 
ATOM     56  C   UNL A   1      42.635  29.437  35.185  1.00  0.00     0.031 C 
ATOM     57  C   UNL A   1      43.494  28.107  33.278  1.00  0.00     0.034 A 
BRANCH  44  58
ATOM     58  C   UNL A   1      42.325  26.460  27.444  1.00  0.00     0.023 A 
ATOM     59  C   UNL A   1      43.157  27.059  26.477  1.00  0.00     0.012 A 
ATOM     60  C   UNL A   1      42.023  25.086  27.336  1.00  0.00     0.148 A 
ATOM     61  C   UNL A   1      43.667  26.310  25.415  1.00  0.00     0.002 A 
ATOM     62  C   UNL A   1      42.576  24.335  26.306  1.00  0.00     0.091 A 
ATOM     63  F   UNL A   1      41.218  24.537  28.258  1.00  0.00    -0.205 F 
ATOM     64  C   UNL A   1      43.390  24.947  25.339  1.00  0.00     0.022 A 
BRANCH  62  65
ATOM     65  S   UNL A   1      42.359  22.556  26.170  1.00  0.00     0.127 S 
ATOM     66  O   UNL A   1      40.903  22.440  26.108  1.00  0.00    -0.237 OA
ATOM     67  O   UNL A   1      43.048  22.260  24.915  1.00  0.00    -0.237 OA
ATOM     68  O   UNL A   1      42.972  21.980  27.359  1.00  0.00    -0.744 OA
ENDBRANCH  62  65
ENDBRANCH  44  58
BRANCH  45  69
ATOM     69  C   UNL A   1      39.210  31.916  35.253  1.00  0.00     0.023 A 
ATOM     70  C   UNL A   1      38.335  31.327  36.186  1.00  0.00     0.012 A 
ATOM     71  C   UNL A   1      39.651  33.238  35.468  1.00  0.00     0.148 A 
ATOM     72  C   UNL A   1      37.886  32.048  37.294  1.00  0.00     0.002 A 
ATOM     73  C   UNL A   1      39.254  33.926  36.608  1.00  0.00     0.091 A 
ATOM     74  F   UNL A   1      40.473  33.789  34.564  1.00  0.00    -0.205 F 
ATOM     75  C   UNL A   1      38.355  33.341  37.512  1.00  0.00     0.022 A 
BRANCH  73  76
ATOM     76  S   UNL A   1      39.921  35.536  37.048  1.00  0.00     0.127 S 
ATOM     77  O   UNL A   1      39.228  35.813  38.303  1.00  0.00    -0.237 OA
ATOM     78  O   UNL A   1      41.348  35.243  37.182  1.00  0.00    -0.237 OA
ATOM     79  O   UNL A   1      39.590  36.418  35.936  1.00  0.00    -0.744 OA
ENDBRANCH  73  76
ENDBRANCH  45  69
BRANCH  57  80
ATOM     80  C   UNL A   1      44.634  27.647  34.147  1.00  0.00     0.023 A 
ATOM     81  C   UNL A   1      45.814  28.413  34.219  1.00  0.00     0.012 A 
ATOM     82  C   UNL A   1      44.490  26.514  34.972  1.00  0.00     0.148 A 
ATOM     83  C   UNL A   1      46.845  28.043  35.080  1.00  0.00     0.002 A 
ATOM     84  C   UNL A   1      45.497  26.187  35.871  1.00  0.00     0.091 A 
ATOM     85  F   UNL A   1      43.364  25.792  34.877  1.00  0.00    -0.205 F 
ATOM     86  C   UNL A   1      46.681  26.941  35.917  1.00  0.00     0.022 A 
BRANCH  84  87
ATOM     87  S   UNL A   1      45.330  24.857  37.068  1.00  0.00     0.127 S 
ATOM     88  O   UNL A   1      44.200  25.322  37.872  1.00  0.00    -0.237 OA
ATOM     89  O   UNL A   1      45.037  23.709  36.210  1.00  0.00    -0.237 OA
ATOM     90  O   UNL A   1      46.602  24.783  37.773  1.00  0.00    -0.744 OA
ENDBRANCH  84  87
ENDBRANCH  57  80
ENDBRANCH  31  32
ENDBRANCH  24  26
ENDBRANCH  23  24
ENDBRANCH   1  23
TORSDOF 16
ENDMDL
