MODEL 1
REMARK VINA RESULT:     -11.3      0.000      0.000
REMARK SMILES C[C@@H](Sc1nc2ccccc2c(=O)n1N)C(=O)OCCOC(=O)c1ccc(-c2c3nc(c(-c4cccc(S(=O)(=O)[O-])c4F)c4ccc([nH]4)c(-c4cccc(S(=O)(=O)[O-])c4F)c4nc(c(-c5cccc(S(=O)(=O)[O-])c5F)c5ccc2[nH]5)C=C4)C=C3)cc1
REMARK SMILES IDX 19 1 18 2 16 3 17 4 2 5 1 6 3 7 4 8 5 9 14 10 6 11 12 12
REMARK SMILES IDX 7 13 11 14 13 15 8 16 10 17 9 18 15 19 20 22 21 23 22 24
REMARK SMILES IDX 23 25 24 26 25 27 86 28 26 29 85 30 27 31 28 32 29 33 79 34
REMARK SMILES IDX 30 35 84 36 78 37 80 38 31 39 83 40 77 41 76 42 32 44 64 45
REMARK SMILES IDX 44 46 63 47 45 48 48 49 62 50 81 51 46 52 47 53 61 55 82 56
REMARK SMILES IDX 49 57 33 58 34 59 42 60 35 61 37 62 43 63 36 64 38 65 39 66
REMARK SMILES IDX 40 67 41 68 65 69 66 70 74 71 67 72 69 73 75 74 68 75 70 76
REMARK SMILES IDX 71 77 72 78 73 79 50 80 51 81 59 82 52 83 54 84 60 85 53 86
REMARK SMILES IDX 55 87 56 88 57 89 58 90
REMARK H PARENT 15 20 15 21 80 43 48 54
REMARK Flexibility Score: inf
ROOT
ATOM      1  C   UNL A   1      36.078  19.826  24.998  1.00  0.00     0.274 C 
ENDROOT
BRANCH   1   2
ATOM      2  O   UNL A   1      35.618  21.120  25.435  1.00  0.00    -0.461 OA
BRANCH   2   3
ATOM      3  C   UNL A   1      34.716  21.740  24.625  1.00  0.00     0.319 C 
ATOM      4  O   UNL A   1      33.604  21.288  24.367  1.00  0.00    -0.251 OA
BRANCH   3   5
ATOM      5  C   UNL A   1      35.227  23.061  24.055  1.00  0.00     0.161 C 
ATOM      6  C   UNL A   1      36.488  22.949  23.209  1.00  0.00     0.032 C 
BRANCH   5   7
ATOM      7  S   UNL A   1      33.850  23.833  23.135  1.00  0.00    -0.071 SA
BRANCH   7   8
ATOM      8  C   UNL A   1      33.197  24.894  24.363  1.00  0.00     0.191 A 
ATOM      9  N   UNL A   1      33.846  25.993  24.576  1.00  0.00    -0.222 NA
ATOM     10  N   UNL A   1      32.003  24.562  25.001  1.00  0.00    -0.202 N 
ATOM     11  C   UNL A   1      33.313  26.911  25.490  1.00  0.00     0.079 A 
ATOM     12  C   UNL A   1      31.409  25.422  25.928  1.00  0.00     0.280 A 
ATOM     13  C   UNL A   1      33.993  28.113  25.698  1.00  0.00     0.029 A 
ATOM     14  C   UNL A   1      32.120  26.689  26.176  1.00  0.00     0.068 A 
ATOM     15  O   UNL A   1      30.353  25.175  26.507  1.00  0.00    -0.267 OA
ATOM     16  C   UNL A   1      33.483  29.077  26.572  1.00  0.00     0.002 A 
ATOM     17  C   UNL A   1      31.601  27.645  27.057  1.00  0.00     0.016 A 
ATOM     18  C   UNL A   1      32.287  28.844  27.251  1.00  0.00     0.001 A 
BRANCH  10  19
ATOM     19  N   UNL A   1      31.320  23.327  24.749  1.00  0.00    -0.334 N 
ATOM     20  H   UNL A   1      30.368  23.333  24.503  1.00  0.00     0.178 HD
ATOM     21  H   UNL A   1      31.805  22.473  24.822  1.00  0.00     0.178 HD
ENDBRANCH  10  19
ENDBRANCH   7   8
ENDBRANCH   5   7
ENDBRANCH   3   5
ENDBRANCH   2   3
ENDBRANCH   1   2
BRANCH   1  22
ATOM     22  C   UNL A   1      37.609  19.734  24.993  1.00  0.00     0.275 C 
BRANCH  22  23
ATOM     23  O   UNL A   1      38.234  20.950  25.439  1.00  0.00    -0.458 OA
BRANCH  23  24
ATOM     24  C   UNL A   1      39.370  20.780  26.154  1.00  0.00     0.338 C 
ATOM     25  O   UNL A   1      39.996  19.743  26.302  1.00  0.00    -0.246 OA
BRANCH  24  26
ATOM     26  C   UNL A   1      39.862  22.076  26.646  1.00  0.00     0.060 A 
ATOM     27  C   UNL A   1      39.291  23.233  26.109  1.00  0.00     0.016 A 
ATOM     28  C   UNL A   1      40.926  22.161  27.546  1.00  0.00     0.016 A 
ATOM     29  C   UNL A   1      39.790  24.484  26.454  1.00  0.00     0.010 A 
ATOM     30  C   UNL A   1      41.424  23.421  27.894  1.00  0.00     0.010 A 
ATOM     31  C   UNL A   1      40.870  24.587  27.338  1.00  0.00    -0.014 A 
BRANCH  31  32
ATOM     32  C   UNL A   1      41.439  25.921  27.639  1.00  0.00     0.031 A 
ATOM     33  C   UNL A   1      42.840  26.252  27.212  1.00  0.00     0.074 A 
ATOM     34  C   UNL A   1      40.690  26.833  28.285  1.00  0.00     0.049 A 
ATOM     35  N   UNL A   1      43.528  27.344  27.417  1.00  0.00    -0.248 NA
ATOM     36  C   UNL A   1      43.562  25.219  26.453  1.00  0.00     0.031 C 
ATOM     37  C   UNL A   1      39.314  26.626  28.738  1.00  0.00     0.029 A 
ATOM     38  N   UNL A   1      40.986  28.111  28.685  1.00  0.00    -0.354 N 
ATOM     39  C   UNL A   1      44.775  27.120  26.846  1.00  0.00     0.074 A 
ATOM     40  C   UNL A   1      44.751  25.786  26.288  1.00  0.00     0.031 C 
ATOM     41  C   UNL A   1      38.890  27.733  29.369  1.00  0.00     0.029 A 
ATOM     42  C   UNL A   1      39.972  28.713  29.392  1.00  0.00     0.049 A 
ATOM     43  H   UNL A   1      41.843  28.555  28.486  1.00  0.00     0.167 HD
ATOM     44  C   UNL A   1      45.836  27.958  26.779  1.00  0.00     0.034 A 
ATOM     45  C   UNL A   1      39.928  29.912  30.007  1.00  0.00     0.034 A 
ATOM     46  C   UNL A   1      45.842  29.298  27.305  1.00  0.00     0.049 A 
ATOM     47  C   UNL A   1      41.127  30.819  29.923  1.00  0.00     0.074 A 
ATOM     48  C   UNL A   1      46.859  30.236  27.258  1.00  0.00     0.029 A 
ATOM     49  N   UNL A   1      44.782  29.890  27.973  1.00  0.00    -0.354 N 
ATOM     50  N   UNL A   1      42.263  30.629  29.296  1.00  0.00    -0.248 NA
ATOM     51  C   UNL A   1      41.027  32.115  30.608  1.00  0.00     0.031 C 
ATOM     52  C   UNL A   1      46.414  31.393  27.906  1.00  0.00     0.029 A 
ATOM     53  C   UNL A   1      45.119  31.180  28.347  1.00  0.00     0.049 A 
ATOM     54  H   UNL A   1      43.917  29.457  28.154  1.00  0.00     0.167 HD
ATOM     55  C   UNL A   1      43.003  31.789  29.487  1.00  0.00     0.074 A 
ATOM     56  C   UNL A   1      42.175  32.687  30.268  1.00  0.00     0.031 C 
ATOM     57  C   UNL A   1      44.260  32.081  29.073  1.00  0.00     0.034 A 
BRANCH  44  58
ATOM     58  C   UNL A   1      47.072  27.463  26.078  1.00  0.00     0.023 A 
ATOM     59  C   UNL A   1      47.245  27.735  24.706  1.00  0.00     0.012 A 
ATOM     60  C   UNL A   1      48.082  26.777  26.781  1.00  0.00     0.148 A 
ATOM     61  C   UNL A   1      48.394  27.312  24.038  1.00  0.00     0.002 A 
ATOM     62  C   UNL A   1      49.240  26.390  26.115  1.00  0.00     0.091 A 
ATOM     63  F   UNL A   1      47.887  26.504  28.078  1.00  0.00    -0.205 F 
ATOM     64  C   UNL A   1      49.394  26.649  24.744  1.00  0.00     0.022 A 
BRANCH  62  65
ATOM     65  S   UNL A   1      50.611  25.589  26.957  1.00  0.00     0.127 S 
ATOM     66  O   UNL A   1      51.056  26.643  27.867  1.00  0.00    -0.237 OA
ATOM     67  O   UNL A   1      49.955  24.455  27.611  1.00  0.00    -0.237 OA
ATOM     68  O   UNL A   1      51.556  25.218  25.913  1.00  0.00    -0.744 OA
ENDBRANCH  62  65
ENDBRANCH  44  58
BRANCH  45  69
ATOM     69  C   UNL A   1      38.690  30.336  30.717  1.00  0.00     0.023 A 
ATOM     70  C   UNL A   1      38.545  30.044  32.087  1.00  0.00     0.012 A 
ATOM     71  C   UNL A   1      37.674  31.052  30.055  1.00  0.00     0.148 A 
ATOM     72  C   UNL A   1      37.400  30.439  32.780  1.00  0.00     0.002 A 
ATOM     73  C   UNL A   1      36.561  31.490  30.765  1.00  0.00     0.091 A 
ATOM     74  F   UNL A   1      37.818  31.298  28.746  1.00  0.00    -0.205 F 
ATOM     75  C   UNL A   1      36.415  31.172  32.123  1.00  0.00     0.022 A 
BRANCH  73  76
ATOM     76  S   UNL A   1      35.316  32.551  30.021  1.00  0.00     0.127 S 
ATOM     77  O   UNL A   1      36.097  33.739  29.685  1.00  0.00    -0.237 OA
ATOM     78  O   UNL A   1      34.878  31.756  28.874  1.00  0.00    -0.237 OA
ATOM     79  O   UNL A   1      34.296  32.727  31.048  1.00  0.00    -0.744 OA
ENDBRANCH  73  76
ENDBRANCH  45  69
BRANCH  57  80
ATOM     80  C   UNL A   1      44.817  33.432  29.436  1.00  0.00     0.023 A 
ATOM     81  C   UNL A   1      45.598  33.570  30.601  1.00  0.00     0.012 A 
ATOM     82  C   UNL A   1      44.630  34.543  28.591  1.00  0.00     0.148 A 
ATOM     83  C   UNL A   1      46.161  34.801  30.934  1.00  0.00     0.002 A 
ATOM     84  C   UNL A   1      45.230  35.756  28.907  1.00  0.00     0.091 A 
ATOM     85  F   UNL A   1      43.866  34.396  27.499  1.00  0.00    -0.205 F 
ATOM     86  C   UNL A   1      45.988  35.890  30.082  1.00  0.00     0.022 A 
BRANCH  84  87
ATOM     87  S   UNL A   1      45.130  37.183  27.819  1.00  0.00     0.127 S 
ATOM     88  O   UNL A   1      45.651  36.640  26.566  1.00  0.00    -0.237 OA
ATOM     89  O   UNL A   1      43.695  37.472  27.809  1.00  0.00    -0.237 OA
ATOM     90  O   UNL A   1      45.945  38.215  28.446  1.00  0.00    -0.744 OA
ENDBRANCH  84  87
ENDBRANCH  57  80
ENDBRANCH  31  32
ENDBRANCH  24  26
ENDBRANCH  23  24
ENDBRANCH  22  23
ENDBRANCH   1  22
TORSDOF 17
ENDMDL
MODEL 2
REMARK VINA RESULT:     -11.2      0.506      7.908
REMARK SMILES C[C@@H](Sc1nc2ccccc2c(=O)n1N)C(=O)OCCOC(=O)c1ccc(-c2c3nc(c(-c4cccc(S(=O)(=O)[O-])c4F)c4ccc([nH]4)c(-c4cccc(S(=O)(=O)[O-])c4F)c4nc(c(-c5cccc(S(=O)(=O)[O-])c5F)c5ccc2[nH]5)C=C4)C=C3)cc1
REMARK SMILES IDX 19 1 18 2 16 3 17 4 2 5 1 6 3 7 4 8 5 9 14 10 6 11 12 12
REMARK SMILES IDX 7 13 11 14 13 15 8 16 10 17 9 18 15 19 20 22 21 23 22 24
REMARK SMILES IDX 23 25 24 26 25 27 86 28 26 29 85 30 27 31 28 32 29 33 79 34
REMARK SMILES IDX 30 35 84 36 78 37 80 38 31 39 83 40 77 41 76 42 32 44 64 45
REMARK SMILES IDX 44 46 63 47 45 48 48 49 62 50 81 51 46 52 47 53 61 55 82 56
REMARK SMILES IDX 49 57 33 58 34 59 42 60 35 61 37 62 43 63 36 64 38 65 39 66
REMARK SMILES IDX 40 67 41 68 65 69 66 70 74 71 67 72 69 73 75 74 68 75 70 76
REMARK SMILES IDX 71 77 72 78 73 79 50 80 51 81 59 82 52 83 54 84 60 85 53 86
REMARK SMILES IDX 55 87 56 88 57 89 58 90
REMARK H PARENT 15 20 15 21 80 43 48 54
REMARK Flexibility Score: inf
ROOT
ATOM      1  C   UNL A   1      35.168  20.194  25.294  1.00  0.00     0.274 C 
ENDROOT
BRANCH   1   2
ATOM      2  O   UNL A   1      34.609  21.510  25.470  1.00  0.00    -0.461 OA
BRANCH   2   3
ATOM      3  C   UNL A   1      34.000  22.053  24.378  1.00  0.00     0.319 C 
ATOM      4  O   UNL A   1      33.013  21.568  23.834  1.00  0.00    -0.251 OA
BRANCH   3   5
ATOM      5  C   UNL A   1      34.674  23.331  23.887  1.00  0.00     0.161 C 
ATOM      6  C   UNL A   1      35.927  23.115  23.049  1.00  0.00     0.032 C 
BRANCH   5   7
ATOM      7  S   UNL A   1      33.414  24.310  22.996  1.00  0.00    -0.071 SA
BRANCH   7   8
ATOM      8  C   UNL A   1      32.817  25.322  24.292  1.00  0.00     0.191 A 
ATOM      9  N   UNL A   1      33.544  26.347  24.601  1.00  0.00    -0.222 NA
ATOM     10  N   UNL A   1      31.587  25.038  24.882  1.00  0.00    -0.202 N 
ATOM     11  C   UNL A   1      33.063  27.231  25.575  1.00  0.00     0.079 A 
ATOM     12  C   UNL A   1      31.040  25.869  25.862  1.00  0.00     0.280 A 
ATOM     13  C   UNL A   1      33.829  28.357  25.888  1.00  0.00     0.029 A 
ATOM     14  C   UNL A   1      31.840  27.053  26.221  1.00  0.00     0.068 A 
ATOM     15  O   UNL A   1      29.954  25.662  26.402  1.00  0.00    -0.267 OA
ATOM     16  C   UNL A   1      33.375  29.289  26.826  1.00  0.00     0.002 A 
ATOM     17  C   UNL A   1      31.377  27.977  27.165  1.00  0.00     0.016 A 
ATOM     18  C   UNL A   1      32.149  29.099  27.464  1.00  0.00     0.001 A 
BRANCH  10  19
ATOM     19  N   UNL A   1      30.816  23.884  24.522  1.00  0.00    -0.334 N 
ATOM     20  H   UNL A   1      31.234  23.151  24.016  1.00  0.00     0.178 HD
ATOM     21  H   UNL A   1      29.868  23.825  24.781  1.00  0.00     0.178 HD
ENDBRANCH  10  19
ENDBRANCH   7   8
ENDBRANCH   5   7
ENDBRANCH   3   5
ENDBRANCH   2   3
ENDBRANCH   1   2
BRANCH   1  22
ATOM     22  C   UNL A   1      36.662  20.247  24.953  1.00  0.00     0.275 C 
BRANCH  22  23
ATOM     23  O   UNL A   1      37.346  21.305  25.648  1.00  0.00    -0.458 OA
BRANCH  23  24
ATOM     24  C   UNL A   1      38.645  21.053  25.936  1.00  0.00     0.338 C 
ATOM     25  O   UNL A   1      39.265  20.029  25.696  1.00  0.00    -0.246 OA
BRANCH  24  26
ATOM     26  C   UNL A   1      39.291  22.259  26.475  1.00  0.00     0.060 A 
ATOM     27  C   UNL A   1      38.770  23.499  26.096  1.00  0.00     0.016 A 
ATOM     28  C   UNL A   1      40.442  22.183  27.262  1.00  0.00     0.016 A 
ATOM     29  C   UNL A   1      39.404  24.674  26.485  1.00  0.00     0.010 A 
ATOM     30  C   UNL A   1      41.077  23.366  27.655  1.00  0.00     0.010 A 
ATOM     31  C   UNL A   1      40.572  24.615  27.255  1.00  0.00    -0.014 A 
BRANCH  31  32
ATOM     32  C   UNL A   1      41.278  25.870  27.600  1.00  0.00     0.031 A 
ATOM     33  C   UNL A   1      40.574  26.931  28.395  1.00  0.00     0.074 A 
ATOM     34  C   UNL A   1      42.553  26.047  27.207  1.00  0.00     0.049 A 
ATOM     35  N   UNL A   1      41.005  28.111  28.759  1.00  0.00    -0.248 NA
ATOM     36  C   UNL A   1      39.205  26.627  28.840  1.00  0.00     0.031 C 
ATOM     37  C   UNL A   1      43.340  25.079  26.440  1.00  0.00     0.029 A 
ATOM     38  N   UNL A   1      43.405  27.106  27.386  1.00  0.00    -0.354 N 
ATOM     39  C   UNL A   1      39.952  28.705  29.445  1.00  0.00     0.074 A 
ATOM     40  C   UNL A   1      38.859  27.757  29.443  1.00  0.00     0.031 C 
ATOM     41  C   UNL A   1      44.556  25.598  26.200  1.00  0.00     0.029 A 
ATOM     42  C   UNL A   1      44.622  26.941  26.767  1.00  0.00     0.049 A 
ATOM     43  H   UNL A   1      43.168  27.908  27.906  1.00  0.00     0.167 HD
ATOM     44  C   UNL A   1      39.908  29.922  30.036  1.00  0.00     0.034 A 
ATOM     45  C   UNL A   1      45.665  27.788  26.653  1.00  0.00     0.034 A 
ATOM     46  C   UNL A   1      41.011  30.846  30.066  1.00  0.00     0.049 A 
ATOM     47  C   UNL A   1      45.584  29.138  27.313  1.00  0.00     0.074 A 
ATOM     48  C   UNL A   1      41.075  32.090  30.667  1.00  0.00     0.029 A 
ATOM     49  N   UNL A   1      42.243  30.626  29.469  1.00  0.00    -0.354 N 
ATOM     50  N   UNL A   1      44.617  29.645  28.039  1.00  0.00    -0.248 NA
ATOM     51  C   UNL A   1      46.748  30.022  27.161  1.00  0.00     0.031 C 
ATOM     52  C   UNL A   1      42.344  32.627  30.426  1.00  0.00     0.029 A 
ATOM     53  C   UNL A   1      43.074  31.713  29.684  1.00  0.00     0.049 A 
ATOM     54  H   UNL A   1      42.490  29.817  28.967  1.00  0.00     0.167 HD
ATOM     55  C   UNL A   1      45.065  30.894  28.453  1.00  0.00     0.074 A 
ATOM     56  C   UNL A   1      46.402  31.056  27.916  1.00  0.00     0.031 C 
ATOM     57  C   UNL A   1      44.423  31.832  29.192  1.00  0.00     0.034 A 
BRANCH  44  58
ATOM     58  C   UNL A   1      38.634  30.311  30.735  1.00  0.00     0.023 A 
ATOM     59  C   UNL A   1      38.447  29.952  32.084  1.00  0.00     0.012 A 
ATOM     60  C   UNL A   1      37.649  31.075  30.078  1.00  0.00     0.148 A 
ATOM     61  C   UNL A   1      37.288  30.325  32.764  1.00  0.00     0.002 A 
ATOM     62  C   UNL A   1      36.511  31.472  30.773  1.00  0.00     0.091 A 
ATOM     63  F   UNL A   1      37.832  31.384  28.787  1.00  0.00    -0.205 F 
ATOM     64  C   UNL A   1      36.326  31.092  32.112  1.00  0.00     0.022 A 
BRANCH  62  65
ATOM     65  S   UNL A   1      35.249  32.518  30.036  1.00  0.00     0.127 S 
ATOM     66  O   UNL A   1      34.325  32.699  31.155  1.00  0.00    -0.237 OA
ATOM     67  O   UNL A   1      36.009  33.715  29.673  1.00  0.00    -0.237 OA
ATOM     68  O   UNL A   1      34.726  31.770  28.902  1.00  0.00    -0.744 OA
ENDBRANCH  62  65
ENDBRANCH  44  58
BRANCH  45  69
ATOM     69  C   UNL A   1      46.888  27.362  25.919  1.00  0.00     0.023 A 
ATOM     70  C   UNL A   1      47.007  27.651  24.547  1.00  0.00     0.012 A 
ATOM     71  C   UNL A   1      47.946  26.703  26.576  1.00  0.00     0.148 A 
ATOM     72  C   UNL A   1      48.147  27.273  23.836  1.00  0.00     0.002 A 
ATOM     73  C   UNL A   1      49.101  26.378  25.875  1.00  0.00     0.091 A 
ATOM     74  F   UNL A   1      47.805  26.412  27.877  1.00  0.00    -0.205 F 
ATOM     75  C   UNL A   1      49.198  26.649  24.502  1.00  0.00     0.022 A 
BRANCH  73  76
ATOM     76  S   UNL A   1      50.549  25.693  26.690  1.00  0.00     0.127 S 
ATOM     77  O   UNL A   1      51.467  25.511  25.569  1.00  0.00    -0.237 OA
ATOM     78  O   UNL A   1      50.914  26.763  27.619  1.00  0.00    -0.237 OA
ATOM     79  O   UNL A   1      50.085  24.473  27.340  1.00  0.00    -0.744 OA
ENDBRANCH  73  76
ENDBRANCH  45  69
BRANCH  57  80
ATOM     80  C   UNL A   1      45.160  33.112  29.485  1.00  0.00     0.023 A 
ATOM     81  C   UNL A   1      45.969  33.198  30.635  1.00  0.00     0.012 A 
ATOM     82  C   UNL A   1      45.109  34.198  28.590  1.00  0.00     0.148 A 
ATOM     83  C   UNL A   1      46.696  34.357  30.905  1.00  0.00     0.002 A 
ATOM     84  C   UNL A   1      45.869  35.334  28.843  1.00  0.00     0.091 A 
ATOM     85  F   UNL A   1      44.315  34.105  27.514  1.00  0.00    -0.205 F 
ATOM     86  C   UNL A   1      46.656  35.419  30.003  1.00  0.00     0.022 A 
BRANCH  84  87
ATOM     87  S   UNL A   1      45.943  36.710  27.690  1.00  0.00     0.127 S 
ATOM     88  O   UNL A   1      46.456  36.062  26.485  1.00  0.00    -0.237 OA
ATOM     89  O   UNL A   1      44.542  37.128  27.608  1.00  0.00    -0.237 OA
ATOM     90  O   UNL A   1      46.827  37.692  28.303  1.00  0.00    -0.744 OA
ENDBRANCH  84  87
ENDBRANCH  57  80
ENDBRANCH  31  32
ENDBRANCH  24  26
ENDBRANCH  23  24
ENDBRANCH  22  23
ENDBRANCH   1  22
TORSDOF 17
ENDMDL
MODEL 3
REMARK VINA RESULT:     -10.9      1.746      2.103
REMARK SMILES C[C@@H](Sc1nc2ccccc2c(=O)n1N)C(=O)OCCOC(=O)c1ccc(-c2c3nc(c(-c4cccc(S(=O)(=O)[O-])c4F)c4ccc([nH]4)c(-c4cccc(S(=O)(=O)[O-])c4F)c4nc(c(-c5cccc(S(=O)(=O)[O-])c5F)c5ccc2[nH]5)C=C4)C=C3)cc1
REMARK SMILES IDX 19 1 18 2 16 3 17 4 2 5 1 6 3 7 4 8 5 9 14 10 6 11 12 12
REMARK SMILES IDX 7 13 11 14 13 15 8 16 10 17 9 18 15 19 20 22 21 23 22 24
REMARK SMILES IDX 23 25 24 26 25 27 86 28 26 29 85 30 27 31 28 32 29 33 79 34
REMARK SMILES IDX 30 35 84 36 78 37 80 38 31 39 83 40 77 41 76 42 32 44 64 45
REMARK SMILES IDX 44 46 63 47 45 48 48 49 62 50 81 51 46 52 47 53 61 55 82 56
REMARK SMILES IDX 49 57 33 58 34 59 42 60 35 61 37 62 43 63 36 64 38 65 39 66
REMARK SMILES IDX 40 67 41 68 65 69 66 70 74 71 67 72 69 73 75 74 68 75 70 76
REMARK SMILES IDX 71 77 72 78 73 79 50 80 51 81 59 82 52 83 54 84 60 85 53 86
REMARK SMILES IDX 55 87 56 88 57 89 58 90
REMARK H PARENT 15 20 15 21 80 43 48 54
REMARK Flexibility Score: inf
ROOT
ATOM      1  C   UNL A   1      34.937  20.539  25.084  1.00  0.00     0.274 C 
ENDROOT
BRANCH   1   2
ATOM      2  O   UNL A   1      34.402  21.536  24.192  1.00  0.00    -0.461 OA
BRANCH   2   3
ATOM      3  C   UNL A   1      33.119  21.928  24.433  1.00  0.00     0.319 C 
ATOM      4  O   UNL A   1      32.181  21.703  23.674  1.00  0.00    -0.251 OA
BRANCH   3   5
ATOM      5  C   UNL A   1      32.959  22.690  25.746  1.00  0.00     0.161 C 
ATOM      6  C   UNL A   1      33.799  23.955  25.860  1.00  0.00     0.032 C 
BRANCH   5   7
ATOM      7  S   UNL A   1      31.177  23.026  25.973  1.00  0.00    -0.071 SA
BRANCH   7   8
ATOM      8  C   UNL A   1      31.113  24.723  25.552  1.00  0.00     0.191 A 
ATOM      9  N   UNL A   1      31.385  25.560  26.501  1.00  0.00    -0.222 NA
ATOM     10  N   UNL A   1      30.847  25.100  24.238  1.00  0.00    -0.202 N 
ATOM     11  C   UNL A   1      31.428  26.924  26.188  1.00  0.00     0.079 A 
ATOM     12  C   UNL A   1      30.868  26.441  23.846  1.00  0.00     0.280 A 
ATOM     13  C   UNL A   1      31.753  27.829  27.202  1.00  0.00     0.029 A 
ATOM     14  C   UNL A   1      31.191  27.414  24.904  1.00  0.00     0.068 A 
ATOM     15  O   UNL A   1      30.649  26.818  22.696  1.00  0.00    -0.267 OA
ATOM     16  C   UNL A   1      31.846  29.198  26.932  1.00  0.00     0.002 A 
ATOM     17  C   UNL A   1      31.277  28.782  24.623  1.00  0.00     0.016 A 
ATOM     18  C   UNL A   1      31.608  29.674  25.643  1.00  0.00     0.001 A 
BRANCH  10  19
ATOM     19  N   UNL A   1      30.537  24.143  23.216  1.00  0.00    -0.334 N 
ATOM     20  H   UNL A   1      29.629  23.768  23.153  1.00  0.00     0.178 HD
ATOM     21  H   UNL A   1      31.232  23.862  22.578  1.00  0.00     0.178 HD
ENDBRANCH  10  19
ENDBRANCH   7   8
ENDBRANCH   5   7
ENDBRANCH   3   5
ENDBRANCH   2   3
ENDBRANCH   1   2
BRANCH   1  22
ATOM     22  C   UNL A   1      36.465  20.447  24.990  1.00  0.00     0.275 C 
BRANCH  22  23
ATOM     23  O   UNL A   1      37.125  21.463  25.765  1.00  0.00    -0.458 OA
BRANCH  23  24
ATOM     24  C   UNL A   1      38.454  21.275  25.940  1.00  0.00     0.338 C 
ATOM     25  O   UNL A   1      39.105  20.293  25.619  1.00  0.00    -0.246 OA
BRANCH  24  26
ATOM     26  C   UNL A   1      39.078  22.499  26.464  1.00  0.00     0.060 A 
ATOM     27  C   UNL A   1      38.493  23.722  26.124  1.00  0.00     0.016 A 
ATOM     28  C   UNL A   1      40.267  22.460  27.194  1.00  0.00     0.016 A 
ATOM     29  C   UNL A   1      39.099  24.916  26.498  1.00  0.00     0.010 A 
ATOM     30  C   UNL A   1      40.875  23.662  27.572  1.00  0.00     0.010 A 
ATOM     31  C   UNL A   1      40.303  24.895  27.212  1.00  0.00    -0.014 A 
BRANCH  31  32
ATOM     32  C   UNL A   1      40.976  26.173  27.539  1.00  0.00     0.031 A 
ATOM     33  C   UNL A   1      42.395  26.404  27.107  1.00  0.00     0.074 A 
ATOM     34  C   UNL A   1      40.306  27.125  28.214  1.00  0.00     0.049 A 
ATOM     35  N   UNL A   1      43.168  27.434  27.332  1.00  0.00    -0.248 NA
ATOM     36  C   UNL A   1      43.029  25.337  26.316  1.00  0.00     0.031 C 
ATOM     37  C   UNL A   1      38.921  27.014  28.674  1.00  0.00     0.029 A 
ATOM     38  N   UNL A   1      40.704  28.366  28.641  1.00  0.00    -0.354 N 
ATOM     39  C   UNL A   1      44.389  27.128  26.744  1.00  0.00     0.074 A 
ATOM     40  C   UNL A   1      44.257  25.814  26.154  1.00  0.00     0.031 C 
ATOM     41  C   UNL A   1      38.589  28.136  29.335  1.00  0.00     0.029 A 
ATOM     42  C   UNL A   1      39.745  29.027  29.371  1.00  0.00     0.049 A 
ATOM     43  H   UNL A   1      41.591  28.746  28.445  1.00  0.00     0.167 HD
ATOM     44  C   UNL A   1      45.513  27.882  26.686  1.00  0.00     0.034 A 
ATOM     45  C   UNL A   1      39.800  30.211  30.015  1.00  0.00     0.034 A 
ATOM     46  C   UNL A   1      45.627  29.204  27.243  1.00  0.00     0.049 A 
ATOM     47  C   UNL A   1      41.065  31.023  29.941  1.00  0.00     0.074 A 
ATOM     48  C   UNL A   1      46.713  30.061  27.209  1.00  0.00     0.029 A 
ATOM     49  N   UNL A   1      44.621  29.861  27.935  1.00  0.00    -0.354 N 
ATOM     50  N   UNL A   1      42.178  30.761  29.299  1.00  0.00    -0.248 NA
ATOM     51  C   UNL A   1      41.072  32.306  30.658  1.00  0.00     0.031 C 
ATOM     52  C   UNL A   1      46.366  31.233  27.889  1.00  0.00     0.029 A 
ATOM     53  C   UNL A   1      45.061  31.111  28.337  1.00  0.00     0.049 A 
ATOM     54  H   UNL A   1      43.727  29.492  28.115  1.00  0.00     0.167 HD
ATOM     55  C   UNL A   1      43.007  31.855  29.511  1.00  0.00     0.074 A 
ATOM     56  C   UNL A   1      42.258  32.795  30.321  1.00  0.00     0.031 C 
ATOM     57  C   UNL A   1      44.281  32.058  29.092  1.00  0.00     0.034 A 
BRANCH  44  58
ATOM     58  C   UNL A   1      46.700  27.309  25.962  1.00  0.00     0.023 A 
ATOM     59  C   UNL A   1      47.500  26.341  26.601  1.00  0.00     0.012 A 
ATOM     60  C   UNL A   1      46.993  27.685  24.636  1.00  0.00     0.148 A 
ATOM     61  C   UNL A   1      48.589  25.773  25.941  1.00  0.00     0.002 A 
ATOM     62  C   UNL A   1      48.060  27.088  23.973  1.00  0.00     0.091 A 
ATOM     63  F   UNL A   1      46.238  28.627  24.055  1.00  0.00    -0.205 F 
ATOM     64  C   UNL A   1      48.863  26.139  24.626  1.00  0.00     0.022 A 
BRANCH  62  65
ATOM     65  S   UNL A   1      48.449  27.448  22.256  1.00  0.00     0.127 S 
ATOM     66  O   UNL A   1      47.259  28.184  21.831  1.00  0.00    -0.237 OA
ATOM     67  O   UNL A   1      49.659  28.263  22.375  1.00  0.00    -0.237 OA
ATOM     68  O   UNL A   1      48.653  26.157  21.615  1.00  0.00    -0.744 OA
ENDBRANCH  62  65
ENDBRANCH  44  58
BRANCH  45  69
ATOM     69  C   UNL A   1      38.604  30.712  30.747  1.00  0.00     0.023 A 
ATOM     70  C   UNL A   1      38.525  30.541  32.142  1.00  0.00     0.012 A 
ATOM     71  C   UNL A   1      37.563  31.384  30.077  1.00  0.00     0.148 A 
ATOM     72  C   UNL A   1      37.421  31.010  32.855  1.00  0.00     0.002 A 
ATOM     73  C   UNL A   1      36.492  31.897  30.801  1.00  0.00     0.091 A 
ATOM     74  F   UNL A   1      37.642  31.515  28.746  1.00  0.00    -0.205 F 
ATOM     75  C   UNL A   1      36.412  31.699  32.187  1.00  0.00     0.022 A 
BRANCH  73  76
ATOM     76  S   UNL A   1      35.222  32.909  30.032  1.00  0.00     0.127 S 
ATOM     77  O   UNL A   1      34.587  31.956  29.126  1.00  0.00    -0.237 OA
ATOM     78  O   UNL A   1      34.406  33.306  31.180  1.00  0.00    -0.237 OA
ATOM     79  O   UNL A   1      35.937  34.011  29.399  1.00  0.00    -0.744 OA
ENDBRANCH  73  76
ENDBRANCH  45  69
BRANCH  57  80
ATOM     80  C   UNL A   1      44.944  33.352  29.482  1.00  0.00     0.023 A 
ATOM     81  C   UNL A   1      45.706  33.412  30.665  1.00  0.00     0.012 A 
ATOM     82  C   UNL A   1      44.874  34.482  28.644  1.00  0.00     0.148 A 
ATOM     83  C   UNL A   1      46.367  34.586  31.024  1.00  0.00     0.002 A 
ATOM     84  C   UNL A   1      45.569  35.636  28.987  1.00  0.00     0.091 A 
ATOM     85  F   UNL A   1      44.126  34.412  27.534  1.00  0.00    -0.205 F 
ATOM     86  C   UNL A   1      46.308  35.693  30.180  1.00  0.00     0.022 A 
BRANCH  84  87
ATOM     87  S   UNL A   1      45.619  37.076  27.912  1.00  0.00     0.127 S 
ATOM     88  O   UNL A   1      44.221  37.503  27.922  1.00  0.00    -0.237 OA
ATOM     89  O   UNL A   1      46.534  37.969  28.625  1.00  0.00    -0.237 OA
ATOM     90  O   UNL A   1      46.123  36.597  26.633  1.00  0.00    -0.744 OA
ENDBRANCH  84  87
ENDBRANCH  57  80
ENDBRANCH  31  32
ENDBRANCH  24  26
ENDBRANCH  23  24
ENDBRANCH  22  23
ENDBRANCH   1  22
TORSDOF 17
ENDMDL
