MODEL 1
REMARK VINA RESULT:     -12.2      0.000      0.000
REMARK SMILES O=C(OCCOC(=O)[C@@H]1[C@@H](C(=O)Nc2cccc(C(F)(F)F)c2)[C@@H]2C=C[C@H]1O2)c1ccc(-c2c3nc(c(-c4cccc(S(=O)(=O)[O-])c4F)c4ccc([nH]4)c(-c4cccc(S(=O)(=O)[O-])c4F)c4nc(c(-c5cccc(S(=O)(=O)[O-])c5F)c5ccc2[nH]5)C=C4)C=C3)cc1
REMARK SMILES IDX 4 1 3 2 2 3 1 4 29 5 30 6 91 7 31 8 90 9 32 10 33 11 34 12
REMARK SMILES IDX 84 13 35 14 89 15 83 16 85 17 36 18 88 19 82 20 81 21 37 23
REMARK SMILES IDX 69 24 49 25 68 26 50 27 53 28 67 29 86 30 51 31 52 32 66 34
REMARK SMILES IDX 87 35 54 36 38 37 39 38 47 39 40 40 42 41 48 42 41 43 43 44
REMARK SMILES IDX 44 45 45 46 46 47 70 48 71 49 79 50 72 51 74 52 80 53 73 54
REMARK SMILES IDX 75 55 76 56 77 57 78 58 55 59 56 60 64 61 57 62 59 63 65 64
REMARK SMILES IDX 58 65 60 66 61 67 62 68 63 69 5 70 6 71 7 72 8 73 9 74 10 75
REMARK SMILES IDX 27 76 24 77 26 78 28 79 25 80 11 81 12 82 13 83 14 85 15 86
REMARK SMILES IDX 23 87 16 88 18 89 17 90 19 91 20 92 21 93 22 94
REMARK H PARENT 85 22 53 33 13 84
REMARK Flexibility Score: inf
ROOT
ATOM      1  C   UNL A   1      31.659  30.452  25.657  1.00  0.00     0.275 C 
ENDROOT
BRANCH   1   2
ATOM      2  O   UNL A   1      32.430  30.437  26.864  1.00  0.00    -0.458 OA
BRANCH   2   3
ATOM      3  C   UNL A   1      33.279  31.382  27.330  1.00  0.00     0.338 C 
ATOM      4  O   UNL A   1      32.929  32.560  27.249  1.00  0.00    -0.246 OA
BRANCH   3   5
ATOM      5  C   UNL A   1      34.680  31.096  27.790  1.00  0.00     0.060 A 
ATOM      6  C   UNL A   1      35.715  32.015  27.971  1.00  0.00     0.016 A 
ATOM      7  C   UNL A   1      34.927  29.771  28.174  1.00  0.00     0.016 A 
ATOM      8  C   UNL A   1      36.866  31.677  28.683  1.00  0.00     0.010 A 
ATOM      9  C   UNL A   1      36.063  29.426  28.903  1.00  0.00     0.010 A 
ATOM     10  C   UNL A   1      37.035  30.388  29.181  1.00  0.00    -0.014 A 
BRANCH  10  11
ATOM     11  C   UNL A   1      38.335  30.028  29.781  1.00  0.00     0.031 A 
ATOM     12  C   UNL A   1      38.610  30.533  31.165  1.00  0.00     0.074 A 
ATOM     13  C   UNL A   1      39.196  29.204  29.151  1.00  0.00     0.049 A 
ATOM     14  N   UNL A   1      39.603  30.254  31.961  1.00  0.00    -0.248 NA
ATOM     15  C   UNL A   1      37.625  31.471  31.739  1.00  0.00     0.031 C 
ATOM     16  C   UNL A   1      39.022  28.656  27.804  1.00  0.00     0.029 A 
ATOM     17  N   UNL A   1      40.394  28.678  29.564  1.00  0.00    -0.354 N 
ATOM     18  C   UNL A   1      39.363  30.982  33.118  1.00  0.00     0.074 A 
ATOM     19  C   UNL A   1      38.175  31.769  32.901  1.00  0.00     0.031 C 
ATOM     20  C   UNL A   1      40.084  27.892  27.493  1.00  0.00     0.029 A 
ATOM     21  C   UNL A   1      41.005  27.880  28.623  1.00  0.00     0.049 A 
ATOM     22  H   UNL A   1      40.781  28.855  30.451  1.00  0.00     0.167 HD
ATOM     23  C   UNL A   1      40.043  30.958  34.284  1.00  0.00     0.034 A 
ATOM     24  C   UNL A   1      42.174  27.210  28.683  1.00  0.00     0.034 A 
ATOM     25  C   UNL A   1      41.212  30.161  34.494  1.00  0.00     0.049 A 
ATOM     26  C   UNL A   1      42.940  27.240  29.982  1.00  0.00     0.074 A 
ATOM     27  C   UNL A   1      41.981  30.047  35.635  1.00  0.00     0.029 A 
ATOM     28  N   UNL A   1      41.791  29.353  33.526  1.00  0.00    -0.354 N 
ATOM     29  N   UNL A   1      42.628  27.829  31.113  1.00  0.00    -0.248 NA
ATOM     30  C   UNL A   1      44.193  26.474  30.034  1.00  0.00     0.031 C 
ATOM     31  C   UNL A   1      43.049  29.192  35.345  1.00  0.00     0.029 A 
ATOM     32  C   UNL A   1      42.919  28.743  34.038  1.00  0.00     0.049 A 
ATOM     33  H   UNL A   1      41.448  29.232  32.612  1.00  0.00     0.167 HD
ATOM     34  C   UNL A   1      43.617  27.468  32.019  1.00  0.00     0.074 A 
ATOM     35  C   UNL A   1      44.528  26.592  31.311  1.00  0.00     0.031 C 
ATOM     36  C   UNL A   1      43.769  27.831  33.317  1.00  0.00     0.034 A 
BRANCH  23  37
ATOM     37  C   UNL A   1      39.507  31.814  35.394  1.00  0.00     0.023 A 
ATOM     38  C   UNL A   1      38.492  31.316  36.237  1.00  0.00     0.012 A 
ATOM     39  C   UNL A   1      39.977  33.127  35.570  1.00  0.00     0.148 A 
ATOM     40  C   UNL A   1      37.916  32.132  37.209  1.00  0.00     0.002 A 
ATOM     41  C   UNL A   1      39.433  33.917  36.573  1.00  0.00     0.091 A 
ATOM     42  F   UNL A   1      40.920  33.586  34.735  1.00  0.00    -0.205 F 
ATOM     43  C   UNL A   1      38.392  33.428  37.382  1.00  0.00     0.022 A 
BRANCH  41  44
ATOM     44  S   UNL A   1      40.015  35.579  36.917  1.00  0.00     0.127 S 
ATOM     45  O   UNL A   1      39.300  35.892  38.154  1.00  0.00    -0.237 OA
ATOM     46  O   UNL A   1      41.453  35.366  37.078  1.00  0.00    -0.237 OA
ATOM     47  O   UNL A   1      39.639  36.385  35.764  1.00  0.00    -0.744 OA
ENDBRANCH  41  44
ENDBRANCH  23  37
BRANCH  24  48
ATOM     48  C   UNL A   1      42.668  26.405  27.524  1.00  0.00     0.023 A 
ATOM     49  C   UNL A   1      43.431  27.028  26.515  1.00  0.00     0.012 A 
ATOM     50  C   UNL A   1      42.349  25.039  27.391  1.00  0.00     0.148 A 
ATOM     51  C   UNL A   1      43.820  26.323  25.373  1.00  0.00     0.002 A 
ATOM     52  C   UNL A   1      42.781  24.330  26.273  1.00  0.00     0.091 A 
ATOM     53  F   UNL A   1      41.615  24.461  28.352  1.00  0.00    -0.205 F 
ATOM     54  C   UNL A   1      43.498  24.974  25.254  1.00  0.00     0.022 A 
BRANCH  52  55
ATOM     55  S   UNL A   1      42.492  22.568  26.065  1.00  0.00     0.127 S 
ATOM     56  O   UNL A   1      43.106  22.019  27.270  1.00  0.00    -0.237 OA
ATOM     57  O   UNL A   1      41.032  22.504  26.031  1.00  0.00    -0.237 OA
ATOM     58  O   UNL A   1      43.142  22.208  24.808  1.00  0.00    -0.744 OA
ENDBRANCH  52  55
ENDBRANCH  24  48
BRANCH  36  59
ATOM     59  C   UNL A   1      44.933  27.252  34.072  1.00  0.00     0.023 A 
ATOM     60  C   UNL A   1      46.166  27.933  34.094  1.00  0.00     0.012 A 
ATOM     61  C   UNL A   1      44.764  26.092  34.851  1.00  0.00     0.148 A 
ATOM     62  C   UNL A   1      47.225  27.446  34.858  1.00  0.00     0.002 A 
ATOM     63  C   UNL A   1      45.802  25.648  35.656  1.00  0.00     0.091 A 
ATOM     64  F   UNL A   1      43.584  25.453  34.800  1.00  0.00    -0.205 F 
ATOM     65  C   UNL A   1      47.039  26.315  35.650  1.00  0.00     0.022 A 
BRANCH  63  66
ATOM     66  S   UNL A   1      45.612  24.275  36.797  1.00  0.00     0.127 S 
ATOM     67  O   UNL A   1      44.563  24.771  37.687  1.00  0.00    -0.237 OA
ATOM     68  O   UNL A   1      45.197  23.190  35.909  1.00  0.00    -0.237 OA
ATOM     69  O   UNL A   1      46.916  24.083  37.418  1.00  0.00    -0.744 OA
ENDBRANCH  63  66
ENDBRANCH  36  59
ENDBRANCH  10  11
ENDBRANCH   3   5
ENDBRANCH   2   3
ENDBRANCH   1   2
BRANCH   1  70
ATOM     70  C   UNL A   1      31.961  29.303  24.685  1.00  0.00     0.274 C 
BRANCH  70  71
ATOM     71  O   UNL A   1      31.250  28.076  24.983  1.00  0.00    -0.462 OA
BRANCH  71  72
ATOM     72  C   UNL A   1      32.042  27.030  25.328  1.00  0.00     0.312 C 
ATOM     73  O   UNL A   1      33.256  27.167  25.458  1.00  0.00    -0.252 OA
BRANCH  72  74
ATOM     74  C   UNL A   1      31.334  25.674  25.385  1.00  0.00     0.147 C 
ATOM     75  C   UNL A   1      32.116  24.304  25.555  1.00  0.00     0.129 C 
ATOM     76  C   UNL A   1      30.746  25.479  23.962  1.00  0.00     0.157 C 
ATOM     77  C   UNL A   1      31.773  23.606  24.225  1.00  0.00     0.155 C 
ATOM     78  C   UNL A   1      31.841  25.427  22.917  1.00  0.00     0.004 C 
ATOM     79  O   UNL A   1      30.422  24.080  23.996  1.00  0.00    -0.365 OA
ATOM     80  C   UNL A   1      32.504  24.285  23.119  1.00  0.00     0.004 C 
BRANCH  75  81
ATOM     81  C   UNL A   1      31.592  23.394  26.676  1.00  0.00     0.231 C 
ATOM     82  O   UNL A   1      30.562  23.675  27.287  1.00  0.00    -0.274 OA
ATOM     83  N   UNL A   1      32.240  22.222  27.028  1.00  0.00    -0.326 N 
ATOM     84  H   UNL A   1      31.829  21.711  27.762  1.00  0.00     0.169 HD
BRANCH  83  85
ATOM     85  C   UNL A   1      33.404  21.668  26.476  1.00  0.00     0.041 A 
ATOM     86  C   UNL A   1      33.290  20.493  25.731  1.00  0.00     0.026 A 
ATOM     87  C   UNL A   1      34.624  22.343  26.507  1.00  0.00     0.039 A 
ATOM     88  C   UNL A   1      34.338  20.102  24.892  1.00  0.00     0.003 A 
ATOM     89  C   UNL A   1      35.701  21.934  25.711  1.00  0.00     0.058 A 
ATOM     90  C   UNL A   1      35.529  20.831  24.865  1.00  0.00     0.013 A 
BRANCH  89  91
ATOM     91  C   UNL A   1      36.988  22.720  25.709  1.00  0.00     0.416 C 
ATOM     92  F   UNL A   1      37.313  23.199  24.476  1.00  0.00    -0.166 F 
ATOM     93  F   UNL A   1      36.922  23.809  26.525  1.00  0.00    -0.166 F 
ATOM     94  F   UNL A   1      38.065  22.001  26.124  1.00  0.00    -0.166 F 
ENDBRANCH  89  91
ENDBRANCH  83  85
ENDBRANCH  75  81
ENDBRANCH  72  74
ENDBRANCH  71  72
ENDBRANCH  70  71
ENDBRANCH   1  70
TORSDOF 17
ENDMDL
MODEL 2
REMARK VINA RESULT:     -12.2      5.137     10.063
REMARK SMILES O=C(OCCOC(=O)[C@@H]1[C@@H](C(=O)Nc2cccc(C(F)(F)F)c2)[C@@H]2C=C[C@H]1O2)c1ccc(-c2c3nc(c(-c4cccc(S(=O)(=O)[O-])c4F)c4ccc([nH]4)c(-c4cccc(S(=O)(=O)[O-])c4F)c4nc(c(-c5cccc(S(=O)(=O)[O-])c5F)c5ccc2[nH]5)C=C4)C=C3)cc1
REMARK SMILES IDX 4 1 3 2 2 3 1 4 29 5 30 6 91 7 31 8 90 9 32 10 33 11 34 12
REMARK SMILES IDX 84 13 35 14 89 15 83 16 85 17 36 18 88 19 82 20 81 21 37 23
REMARK SMILES IDX 69 24 49 25 68 26 50 27 53 28 67 29 86 30 51 31 52 32 66 34
REMARK SMILES IDX 87 35 54 36 38 37 39 38 47 39 40 40 42 41 48 42 41 43 43 44
REMARK SMILES IDX 44 45 45 46 46 47 70 48 71 49 79 50 72 51 74 52 80 53 73 54
REMARK SMILES IDX 75 55 76 56 77 57 78 58 55 59 56 60 64 61 57 62 59 63 65 64
REMARK SMILES IDX 58 65 60 66 61 67 62 68 63 69 5 70 6 71 7 72 8 73 9 74 10 75
REMARK SMILES IDX 27 76 24 77 26 78 28 79 25 80 11 81 12 82 13 83 14 85 15 86
REMARK SMILES IDX 23 87 16 88 18 89 17 90 19 91 20 92 21 93 22 94
REMARK H PARENT 85 22 53 33 13 84
REMARK Flexibility Score: inf
ROOT
ATOM      1  C   UNL A   1      36.621  20.539  25.036  1.00  0.00     0.275 C 
ENDROOT
BRANCH   1   2
ATOM      2  O   UNL A   1      37.679  21.501  25.100  1.00  0.00    -0.458 OA
BRANCH   2   3
ATOM      3  C   UNL A   1      38.813  21.455  25.838  1.00  0.00     0.338 C 
ATOM      4  O   UNL A   1      39.314  20.352  26.053  1.00  0.00    -0.246 OA
BRANCH   3   5
ATOM      5  C   UNL A   1      39.404  22.644  26.539  1.00  0.00     0.060 A 
ATOM      6  C   UNL A   1      40.416  22.642  27.502  1.00  0.00     0.016 A 
ATOM      7  C   UNL A   1      38.950  23.892  26.092  1.00  0.00     0.016 A 
ATOM      8  C   UNL A   1      41.083  23.816  27.853  1.00  0.00     0.010 A 
ATOM      9  C   UNL A   1      39.620  25.069  26.420  1.00  0.00     0.010 A 
ATOM     10  C   UNL A   1      40.709  25.034  27.292  1.00  0.00    -0.014 A 
BRANCH  10  11
ATOM     11  C   UNL A   1      41.327  26.269  27.814  1.00  0.00     0.031 A 
ATOM     12  C   UNL A   1      42.752  26.532  27.433  1.00  0.00     0.074 A 
ATOM     13  C   UNL A   1      40.613  27.167  28.521  1.00  0.00     0.049 A 
ATOM     14  N   UNL A   1      43.479  27.594  27.643  1.00  0.00    -0.248 NA
ATOM     15  C   UNL A   1      43.455  25.458  26.703  1.00  0.00     0.031 C 
ATOM     16  C   UNL A   1      39.219  27.008  28.942  1.00  0.00     0.029 A 
ATOM     17  N   UNL A   1      40.962  28.400  29.011  1.00  0.00    -0.354 N 
ATOM     18  C   UNL A   1      44.715  27.312  27.079  1.00  0.00     0.074 A 
ATOM     19  C   UNL A   1      44.669  25.961  26.580  1.00  0.00     0.031 C 
ATOM     20  C   UNL A   1      38.840  28.089  29.646  1.00  0.00     0.029 A 
ATOM     21  C   UNL A   1      39.955  29.026  29.712  1.00  0.00     0.049 A 
ATOM     22  H   UNL A   1      41.850  28.801  28.874  1.00  0.00     0.167 HD
ATOM     23  C   UNL A   1      45.780  28.127  26.938  1.00  0.00     0.034 A 
ATOM     24  C   UNL A   1      39.943  30.227  30.325  1.00  0.00     0.034 A 
ATOM     25  C   UNL A   1      45.809  29.473  27.423  1.00  0.00     0.049 A 
ATOM     26  C   UNL A   1      41.167  31.099  30.194  1.00  0.00     0.074 A 
ATOM     27  C   UNL A   1      46.830  30.398  27.331  1.00  0.00     0.029 A 
ATOM     28  N   UNL A   1      44.767  30.077  28.110  1.00  0.00    -0.354 N 
ATOM     29  N   UNL A   1      42.281  30.868  29.540  1.00  0.00    -0.248 NA
ATOM     30  C   UNL A   1      41.117  32.418  30.840  1.00  0.00     0.031 C 
ATOM     31  C   UNL A   1      46.415  31.556  27.996  1.00  0.00     0.029 A 
ATOM     32  C   UNL A   1      45.122  31.364  28.463  1.00  0.00     0.049 A 
ATOM     33  H   UNL A   1      43.903  29.653  28.315  1.00  0.00     0.167 HD
ATOM     34  C   UNL A   1      43.042  32.024  29.658  1.00  0.00     0.074 A 
ATOM     35  C   UNL A   1      42.253  32.963  30.428  1.00  0.00     0.031 C 
ATOM     36  C   UNL A   1      44.285  32.289  29.182  1.00  0.00     0.034 A 
BRANCH  23  37
ATOM     37  C   UNL A   1      46.972  27.561  26.221  1.00  0.00     0.023 A 
ATOM     38  C   UNL A   1      47.925  26.804  26.933  1.00  0.00     0.012 A 
ATOM     39  C   UNL A   1      47.169  27.821  24.854  1.00  0.00     0.148 A 
ATOM     40  C   UNL A   1      49.085  26.355  26.305  1.00  0.00     0.002 A 
ATOM     41  C   UNL A   1      48.303  27.327  24.222  1.00  0.00     0.091 A 
ATOM     42  F   UNL A   1      46.264  28.570  24.208  1.00  0.00    -0.205 F 
ATOM     43  C   UNL A   1      49.269  26.610  24.949  1.00  0.00     0.022 A 
BRANCH  41  44
ATOM     44  S   UNL A   1      48.605  27.549  22.468  1.00  0.00     0.127 S 
ATOM     45  O   UNL A   1      49.883  28.262  22.477  1.00  0.00    -0.237 OA
ATOM     46  O   UNL A   1      48.679  26.166  21.999  1.00  0.00    -0.237 OA
ATOM     47  O   UNL A   1      47.475  28.311  21.956  1.00  0.00    -0.744 OA
ENDBRANCH  41  44
ENDBRANCH  23  37
BRANCH  24  48
ATOM     48  C   UNL A   1      38.733  30.714  31.055  1.00  0.00     0.023 A 
ATOM     49  C   UNL A   1      38.619  30.495  32.443  1.00  0.00     0.012 A 
ATOM     50  C   UNL A   1      37.675  31.353  30.378  1.00  0.00     0.148 A 
ATOM     51  C   UNL A   1      37.456  30.851  33.131  1.00  0.00     0.002 A 
ATOM     52  C   UNL A   1      36.539  31.748  31.078  1.00  0.00     0.091 A 
ATOM     53  F   UNL A   1      37.792  31.547  29.057  1.00  0.00    -0.205 F 
ATOM     54  C   UNL A   1      36.418  31.480  32.450  1.00  0.00     0.022 A 
BRANCH  52  55
ATOM     55  S   UNL A   1      35.182  32.643  30.310  1.00  0.00     0.127 S 
ATOM     56  O   UNL A   1      34.231  32.750  31.412  1.00  0.00    -0.237 OA
ATOM     57  O   UNL A   1      35.827  33.898  29.927  1.00  0.00    -0.237 OA
ATOM     58  O   UNL A   1      34.752  31.817  29.185  1.00  0.00    -0.744 OA
ENDBRANCH  52  55
ENDBRANCH  24  48
BRANCH  36  59
ATOM     59  C   UNL A   1      44.853  33.657  29.438  1.00  0.00     0.023 A 
ATOM     60  C   UNL A   1      45.604  33.899  30.605  1.00  0.00     0.012 A 
ATOM     61  C   UNL A   1      44.735  34.666  28.464  1.00  0.00     0.148 A 
ATOM     62  C   UNL A   1      46.204  35.141  30.810  1.00  0.00     0.002 A 
ATOM     63  C   UNL A   1      45.385  35.877  28.647  1.00  0.00     0.091 A 
ATOM     64  F   UNL A   1      44.000  34.415  27.369  1.00  0.00    -0.205 F 
ATOM     65  C   UNL A   1      46.108  36.122  29.826  1.00  0.00     0.022 A 
BRANCH  63  66
ATOM     66  S   UNL A   1      45.417  37.150  27.381  1.00  0.00     0.127 S 
ATOM     67  O   UNL A   1      46.062  36.450  26.271  1.00  0.00    -0.237 OA
ATOM     68  O   UNL A   1      43.994  37.427  27.185  1.00  0.00    -0.237 OA
ATOM     69  O   UNL A   1      46.176  38.259  27.944  1.00  0.00    -0.744 OA
ENDBRANCH  63  66
ENDBRANCH  36  59
ENDBRANCH  10  11
ENDBRANCH   3   5
ENDBRANCH   2   3
ENDBRANCH   1   2
BRANCH   1  70
ATOM     70  C   UNL A   1      35.228  21.088  25.376  1.00  0.00     0.274 C 
BRANCH  70  71
ATOM     71  O   UNL A   1      34.534  21.676  24.248  1.00  0.00    -0.462 OA
BRANCH  71  72
ATOM     72  C   UNL A   1      34.418  23.026  24.292  1.00  0.00     0.312 C 
ATOM     73  O   UNL A   1      34.962  23.683  25.176  1.00  0.00    -0.252 OA
BRANCH  72  74
ATOM     74  C   UNL A   1      33.451  23.626  23.268  1.00  0.00     0.147 C 
ATOM     75  C   UNL A   1      32.955  25.131  23.335  1.00  0.00     0.129 C 
ATOM     76  C   UNL A   1      32.109  22.885  23.515  1.00  0.00     0.157 C 
ATOM     77  C   UNL A   1      31.444  24.931  23.556  1.00  0.00     0.155 C 
ATOM     78  C   UNL A   1      31.585  23.149  24.910  1.00  0.00     0.004 C 
ATOM     79  O   UNL A   1      31.201  23.727  22.787  1.00  0.00    -0.365 OA
ATOM     80  C   UNL A   1      31.220  24.433  24.943  1.00  0.00     0.004 C 
BRANCH  75  81
ATOM     81  C   UNL A   1      33.105  25.922  22.026  1.00  0.00     0.231 C 
ATOM     82  O   UNL A   1      33.390  25.352  20.974  1.00  0.00    -0.274 OA
ATOM     83  N   UNL A   1      32.910  27.291  21.974  1.00  0.00    -0.326 N 
ATOM     84  H   UNL A   1      33.034  27.707  21.090  1.00  0.00     0.169 HD
BRANCH  83  85
ATOM     85  C   UNL A   1      32.557  28.163  23.014  1.00  0.00     0.041 A 
ATOM     86  C   UNL A   1      31.321  28.810  22.946  1.00  0.00     0.026 A 
ATOM     87  C   UNL A   1      33.320  28.267  24.176  1.00  0.00     0.039 A 
ATOM     88  C   UNL A   1      30.788  29.403  24.094  1.00  0.00     0.003 A 
ATOM     89  C   UNL A   1      32.821  28.902  25.320  1.00  0.00     0.058 A 
ATOM     90  C   UNL A   1      31.524  29.430  25.281  1.00  0.00     0.013 A 
BRANCH  89  91
ATOM     91  C   UNL A   1      33.637  28.941  26.587  1.00  0.00     0.416 C 
ATOM     92  F   UNL A   1      34.761  29.702  26.467  1.00  0.00    -0.166 F 
ATOM     93  F   UNL A   1      32.939  29.474  27.628  1.00  0.00    -0.166 F 
ATOM     94  F   UNL A   1      34.059  27.717  27.000  1.00  0.00    -0.166 F 
ENDBRANCH  89  91
ENDBRANCH  83  85
ENDBRANCH  75  81
ENDBRANCH  72  74
ENDBRANCH  71  72
ENDBRANCH  70  71
ENDBRANCH   1  70
TORSDOF 17
ENDMDL
MODEL 3
REMARK VINA RESULT:     -12.1      3.161      4.637
REMARK SMILES O=C(OCCOC(=O)[C@@H]1[C@@H](C(=O)Nc2cccc(C(F)(F)F)c2)[C@@H]2C=C[C@H]1O2)c1ccc(-c2c3nc(c(-c4cccc(S(=O)(=O)[O-])c4F)c4ccc([nH]4)c(-c4cccc(S(=O)(=O)[O-])c4F)c4nc(c(-c5cccc(S(=O)(=O)[O-])c5F)c5ccc2[nH]5)C=C4)C=C3)cc1
REMARK SMILES IDX 4 1 3 2 2 3 1 4 29 5 30 6 91 7 31 8 90 9 32 10 33 11 34 12
REMARK SMILES IDX 84 13 35 14 89 15 83 16 85 17 36 18 88 19 82 20 81 21 37 23
REMARK SMILES IDX 69 24 49 25 68 26 50 27 53 28 67 29 86 30 51 31 52 32 66 34
REMARK SMILES IDX 87 35 54 36 38 37 39 38 47 39 40 40 42 41 48 42 41 43 43 44
REMARK SMILES IDX 44 45 45 46 46 47 70 48 71 49 79 50 72 51 74 52 80 53 73 54
REMARK SMILES IDX 75 55 76 56 77 57 78 58 55 59 56 60 64 61 57 62 59 63 65 64
REMARK SMILES IDX 58 65 60 66 61 67 62 68 63 69 5 70 6 71 7 72 8 73 9 74 10 75
REMARK SMILES IDX 27 76 24 77 26 78 28 79 25 80 11 81 12 82 13 83 14 85 15 86
REMARK SMILES IDX 23 87 16 88 18 89 17 90 19 91 20 92 21 93 22 94
REMARK H PARENT 85 22 53 33 13 84
REMARK Flexibility Score: inf
ROOT
ATOM      1  C   UNL A   1      31.555  31.888  27.124  1.00  0.00     0.275 C 
ENDROOT
BRANCH   1   2
ATOM      2  O   UNL A   1      32.355  33.074  27.060  1.00  0.00    -0.458 OA
BRANCH   2   3
ATOM      3  C   UNL A   1      33.162  33.596  28.014  1.00  0.00     0.338 C 
ATOM      4  O   UNL A   1      32.844  34.680  28.505  1.00  0.00    -0.246 OA
BRANCH   3   5
ATOM      5  C   UNL A   1      34.495  33.017  28.393  1.00  0.00     0.060 A 
ATOM      6  C   UNL A   1      35.757  33.532  28.090  1.00  0.00     0.016 A 
ATOM      7  C   UNL A   1      34.446  31.893  29.228  1.00  0.00     0.016 A 
ATOM      8  C   UNL A   1      36.900  33.076  28.747  1.00  0.00     0.010 A 
ATOM      9  C   UNL A   1      35.577  31.442  29.905  1.00  0.00     0.010 A 
ATOM     10  C   UNL A   1      36.814  32.048  29.682  1.00  0.00    -0.014 A 
BRANCH  10  11
ATOM     11  C   UNL A   1      38.065  31.485  30.228  1.00  0.00     0.031 A 
ATOM     12  C   UNL A   1      38.445  31.893  31.619  1.00  0.00     0.074 A 
ATOM     13  C   UNL A   1      38.782  30.572  29.545  1.00  0.00     0.049 A 
ATOM     14  N   UNL A   1      39.409  31.446  32.374  1.00  0.00    -0.248 NA
ATOM     15  C   UNL A   1      37.620  32.939  32.255  1.00  0.00     0.031 C 
ATOM     16  C   UNL A   1      38.496  30.106  28.186  1.00  0.00     0.029 A 
ATOM     17  N   UNL A   1      39.903  29.866  29.902  1.00  0.00    -0.354 N 
ATOM     18  C   UNL A   1      39.306  32.157  33.562  1.00  0.00     0.074 A 
ATOM     19  C   UNL A   1      38.237  33.111  33.409  1.00  0.00     0.031 C 
ATOM     20  C   UNL A   1      39.429  29.211  27.816  1.00  0.00     0.029 A 
ATOM     21  C   UNL A   1      40.369  29.025  28.915  1.00  0.00     0.049 A 
ATOM     22  H   UNL A   1      40.334  29.952  30.782  1.00  0.00     0.167 HD
ATOM     23  C   UNL A   1      40.006  31.992  34.704  1.00  0.00     0.034 A 
ATOM     24  C   UNL A   1      41.431  28.195  28.916  1.00  0.00     0.034 A 
ATOM     25  C   UNL A   1      41.054  31.030  34.851  1.00  0.00     0.049 A 
ATOM     26  C   UNL A   1      42.228  28.066  30.190  1.00  0.00     0.074 A 
ATOM     27  C   UNL A   1      41.829  30.765  35.962  1.00  0.00     0.029 A 
ATOM     28  N   UNL A   1      41.486  30.185  33.838  1.00  0.00    -0.354 N 
ATOM     29  N   UNL A   1      42.033  28.650  31.350  1.00  0.00    -0.248 NA
ATOM     30  C   UNL A   1      43.359  27.129  30.177  1.00  0.00     0.031 C 
ATOM     31  C   UNL A   1      42.755  29.779  35.610  1.00  0.00     0.029 A 
ATOM     32  C   UNL A   1      42.528  29.403  34.293  1.00  0.00     0.049 A 
ATOM     33  H   UNL A   1      41.106  30.148  32.932  1.00  0.00     0.167 HD
ATOM     34  C   UNL A   1      42.983  28.118  32.212  1.00  0.00     0.074 A 
ATOM     35  C   UNL A   1      43.741  27.150  31.446  1.00  0.00     0.031 C 
ATOM     36  C   UNL A   1      43.220  28.407  33.516  1.00  0.00     0.034 A 
BRANCH  23  37
ATOM     37  C   UNL A   1      39.627  32.873  35.859  1.00  0.00     0.023 A 
ATOM     38  C   UNL A   1      40.172  34.170  35.961  1.00  0.00     0.012 A 
ATOM     39  C   UNL A   1      38.771  32.397  36.866  1.00  0.00     0.148 A 
ATOM     40  C   UNL A   1      39.909  34.963  37.076  1.00  0.00     0.002 A 
ATOM     41  C   UNL A   1      38.472  33.212  37.950  1.00  0.00     0.091 A 
ATOM     42  F   UNL A   1      38.292  31.149  36.761  1.00  0.00    -0.205 F 
ATOM     43  C   UNL A   1      39.053  34.486  38.065  1.00  0.00     0.022 A 
BRANCH  41  44
ATOM     44  S   UNL A   1      37.337  32.717  39.247  1.00  0.00     0.127 S 
ATOM     45  O   UNL A   1      36.058  32.723  38.538  1.00  0.00    -0.237 OA
ATOM     46  O   UNL A   1      37.838  31.388  39.595  1.00  0.00    -0.237 OA
ATOM     47  O   UNL A   1      37.465  33.716  40.299  1.00  0.00    -0.744 OA
ENDBRANCH  41  44
ENDBRANCH  23  37
BRANCH  24  48
ATOM     48  C   UNL A   1      41.774  27.372  27.716  1.00  0.00     0.023 A 
ATOM     49  C   UNL A   1      42.254  28.004  26.550  1.00  0.00     0.012 A 
ATOM     50  C   UNL A   1      41.585  25.976  27.704  1.00  0.00     0.148 A 
ATOM     51  C   UNL A   1      42.488  27.271  25.383  1.00  0.00     0.002 A 
ATOM     52  C   UNL A   1      41.865  25.245  26.553  1.00  0.00     0.091 A 
ATOM     53  F   UNL A   1      41.119  25.389  28.816  1.00  0.00    -0.205 F 
ATOM     54  C   UNL A   1      42.296  25.892  25.385  1.00  0.00     0.022 A 
BRANCH  52  55
ATOM     55  S   UNL A   1      41.734  23.454  26.479  1.00  0.00     0.127 S 
ATOM     56  O   UNL A   1      40.288  23.259  26.471  1.00  0.00    -0.237 OA
ATOM     57  O   UNL A   1      42.405  23.154  25.216  1.00  0.00    -0.237 OA
ATOM     58  O   UNL A   1      42.429  22.958  27.664  1.00  0.00    -0.744 OA
ENDBRANCH  52  55
ENDBRANCH  24  48
BRANCH  36  59
ATOM     59  C   UNL A   1      44.309  27.641  34.214  1.00  0.00     0.023 A 
ATOM     60  C   UNL A   1      45.612  28.171  34.278  1.00  0.00     0.012 A 
ATOM     61  C   UNL A   1      44.006  26.450  34.902  1.00  0.00     0.148 A 
ATOM     62  C   UNL A   1      46.607  27.507  34.994  1.00  0.00     0.002 A 
ATOM     63  C   UNL A   1      44.986  25.828  35.661  1.00  0.00     0.091 A 
ATOM     64  F   UNL A   1      42.761  25.958  34.811  1.00  0.00    -0.205 F 
ATOM     65  C   UNL A   1      46.291  26.347  35.697  1.00  0.00     0.022 A 
BRANCH  63  66
ATOM     66  S   UNL A   1      44.637  24.401  36.694  1.00  0.00     0.127 S 
ATOM     67  O   UNL A   1      43.767  24.980  37.717  1.00  0.00    -0.237 OA
ATOM     68  O   UNL A   1      43.966  23.500  35.758  1.00  0.00    -0.237 OA
ATOM     69  O   UNL A   1      45.929  23.924  37.172  1.00  0.00    -0.744 OA
ENDBRANCH  63  66
ENDBRANCH  36  59
ENDBRANCH  10  11
ENDBRANCH   3   5
ENDBRANCH   2   3
ENDBRANCH   1   2
BRANCH   1  70
ATOM     70  C   UNL A   1      32.015  30.749  26.204  1.00  0.00     0.274 C 
BRANCH  70  71
ATOM     71  O   UNL A   1      32.105  29.460  26.860  1.00  0.00    -0.462 OA
BRANCH  71  72
ATOM     72  C   UNL A   1      33.318  28.861  26.774  1.00  0.00     0.312 C 
ATOM     73  O   UNL A   1      34.124  28.921  27.700  1.00  0.00    -0.252 OA
BRANCH  72  74
ATOM     74  C   UNL A   1      33.647  28.259  25.406  1.00  0.00     0.147 C 
ATOM     75  C   UNL A   1      32.551  28.030  24.283  1.00  0.00     0.129 C 
ATOM     76  C   UNL A   1      34.041  26.788  25.709  1.00  0.00     0.157 C 
ATOM     77  C   UNL A   1      32.585  26.495  24.153  1.00  0.00     0.155 C 
ATOM     78  C   UNL A   1      32.887  26.026  26.325  1.00  0.00     0.004 C 
ATOM     79  O   UNL A   1      33.988  26.220  24.391  1.00  0.00    -0.365 OA
ATOM     80  C   UNL A   1      31.967  25.891  25.366  1.00  0.00     0.004 C 
BRANCH  75  81
ATOM     81  C   UNL A   1      32.910  28.595  22.901  1.00  0.00     0.231 C 
ATOM     82  O   UNL A   1      34.073  28.593  22.501  1.00  0.00    -0.274 OA
ATOM     83  N   UNL A   1      31.947  29.109  22.049  1.00  0.00    -0.326 N 
ATOM     84  H   UNL A   1      32.277  29.452  21.188  1.00  0.00     0.169 HD
BRANCH  83  85
ATOM     85  C   UNL A   1      30.562  29.202  22.253  1.00  0.00     0.041 A 
ATOM     86  C   UNL A   1      29.846  28.027  22.490  1.00  0.00     0.026 A 
ATOM     87  C   UNL A   1      29.922  30.433  22.392  1.00  0.00     0.039 A 
ATOM     88  C   UNL A   1      28.558  28.101  23.028  1.00  0.00     0.003 A 
ATOM     89  C   UNL A   1      28.613  30.521  22.882  1.00  0.00     0.058 A 
ATOM     90  C   UNL A   1      27.953  29.341  23.244  1.00  0.00     0.013 A 
BRANCH  89  91
ATOM     91  C   UNL A   1      27.967  31.868  23.089  1.00  0.00     0.416 C 
ATOM     92  F   UNL A   1      28.805  32.772  23.668  1.00  0.00    -0.166 F 
ATOM     93  F   UNL A   1      27.570  32.430  21.913  1.00  0.00    -0.166 F 
ATOM     94  F   UNL A   1      26.861  31.825  23.880  1.00  0.00    -0.166 F 
ENDBRANCH  89  91
ENDBRANCH  83  85
ENDBRANCH  75  81
ENDBRANCH  72  74
ENDBRANCH  71  72
ENDBRANCH  70  71
ENDBRANCH   1  70
TORSDOF 17
ENDMDL
