MODEL 1
REMARK VINA RESULT:     -11.7      0.000      0.000
REMARK SMILES Cc1c(C[C@@H](C)O)c(=O)oc2cc(OCC(=O)OCCOC(=O)c3ccc(-c4c5nc(c(-c6cccc(S(=O)(=O)[O-])c6F)c6ccc([nH]6)c(-c6cccc(S(=O)(=O)[O-])c6F)c6nc(c(-c7cccc(S(=O)(=O)[O-])c7F)c7ccc4[nH]7)C=C6)C=C5)cc3)ccc12
REMARK SMILES IDX 19 1 18 2 16 3 17 4 15 5 14 6 13 7 1 8 2 9 3 10 89 11 8 12
REMARK SMILES IDX 11 13 88 14 9 15 10 16 12 17 87 18 4 19 5 20 6 21 7 22 20 24
REMARK SMILES IDX 21 25 22 26 23 27 24 28 25 29 86 30 26 31 85 32 27 33 28 34
REMARK SMILES IDX 29 35 79 36 30 37 84 38 78 39 80 40 31 41 83 42 77 43 76 44
REMARK SMILES IDX 32 46 64 47 44 48 63 49 45 50 48 51 62 52 81 53 46 54 47 55
REMARK SMILES IDX 61 57 82 58 49 59 33 60 34 61 42 62 35 63 37 64 43 65 36 66
REMARK SMILES IDX 38 67 39 68 40 69 41 70 65 71 66 72 74 73 67 74 69 75 75 76
REMARK SMILES IDX 68 77 70 78 71 79 72 80 73 81 50 82 51 83 59 84 52 85 54 86
REMARK SMILES IDX 60 87 53 88 55 89 56 90 57 91 58 92
REMARK H PARENT 7 23 80 45 48 56
REMARK Flexibility Score: inf
ROOT
ATOM      1  C   UNL A   1      36.045  20.024  24.985  1.00  0.00     0.274 C 
ENDROOT
BRANCH   1   2
ATOM      2  O   UNL A   1      34.744  20.495  24.578  1.00  0.00    -0.460 OA
BRANCH   2   3
ATOM      3  C   UNL A   1      33.761  19.554  24.541  1.00  0.00     0.344 C 
ATOM      4  O   UNL A   1      33.943  18.346  24.659  1.00  0.00    -0.248 OA
BRANCH   3   5
ATOM      5  C   UNL A   1      32.372  20.143  24.301  1.00  0.00     0.351 C 
BRANCH   5   6
ATOM      6  O   UNL A   1      31.782  20.950  25.308  1.00  0.00    -0.482 OA
BRANCH   6   7
ATOM      7  C   UNL A   1      31.901  22.307  25.217  1.00  0.00     0.123 A 
ATOM      8  C   UNL A   1      31.197  27.397  26.129  1.00  0.00     0.046 C 
ATOM      9  C   UNL A   1      31.839  26.612  25.017  1.00  0.00    -0.030 A 
ATOM     10  C   UNL A   1      32.353  27.157  23.892  1.00  0.00     0.044 A 
ATOM     11  C   UNL A   1      31.854  25.144  25.151  1.00  0.00     0.021 A 
ATOM     12  C   UNL A   1      33.097  26.316  22.907  1.00  0.00     0.339 A 
ATOM     13  C   UNL A   1      32.663  24.404  24.302  1.00  0.00     0.142 A 
ATOM     14  C   UNL A   1      31.056  24.432  26.054  1.00  0.00     0.016 A 
ATOM     15  O   UNL A   1      33.491  26.772  21.839  1.00  0.00    -0.246 OA
ATOM     16  O   UNL A   1      33.414  25.027  23.296  1.00  0.00    -0.422 OA
ATOM     17  C   UNL A   1      32.724  23.007  24.347  1.00  0.00     0.094 A 
ATOM     18  C   UNL A   1      31.070  23.030  26.072  1.00  0.00     0.047 A 
BRANCH  10  19
ATOM     19  C   UNL A   1      32.270  28.619  23.502  1.00  0.00     0.075 C 
BRANCH  19  20
ATOM     20  C   UNL A   1      30.999  28.968  22.700  1.00  0.00     0.116 C 
ATOM     21  C   UNL A   1      29.943  29.702  23.518  1.00  0.00     0.038 C 
BRANCH  20  22
ATOM     22  O   UNL A   1      31.326  29.807  21.588  1.00  0.00    -0.393 OA
ATOM     23  H   UNL A   1      32.137  29.481  21.165  1.00  0.00     0.210 HD
ENDBRANCH  20  22
ENDBRANCH  19  20
ENDBRANCH  10  19
ENDBRANCH   6   7
ENDBRANCH   5   6
ENDBRANCH   3   5
ENDBRANCH   2   3
ENDBRANCH   1   2
BRANCH   1  24
ATOM     24  C   UNL A   1      36.807  21.119  25.724  1.00  0.00     0.275 C 
BRANCH  24  25
ATOM     25  O   UNL A   1      38.112  21.269  25.141  1.00  0.00    -0.458 OA
BRANCH  25  26
ATOM     26  C   UNL A   1      39.148  21.047  25.979  1.00  0.00     0.338 C 
ATOM     27  O   UNL A   1      39.651  19.958  26.235  1.00  0.00    -0.246 OA
BRANCH  26  28
ATOM     28  C   UNL A   1      39.642  22.322  26.543  1.00  0.00     0.060 A 
ATOM     29  C   UNL A   1      39.133  23.554  26.121  1.00  0.00     0.016 A 
ATOM     30  C   UNL A   1      40.728  22.285  27.419  1.00  0.00     0.016 A 
ATOM     31  C   UNL A   1      39.775  24.738  26.490  1.00  0.00     0.010 A 
ATOM     32  C   UNL A   1      41.311  23.474  27.861  1.00  0.00     0.010 A 
ATOM     33  C   UNL A   1      40.866  24.713  27.376  1.00  0.00    -0.014 A 
BRANCH  33  34
ATOM     34  C   UNL A   1      41.522  25.968  27.830  1.00  0.00     0.031 A 
ATOM     35  C   UNL A   1      40.748  27.022  28.580  1.00  0.00     0.074 A 
ATOM     36  C   UNL A   1      42.809  26.195  27.500  1.00  0.00     0.049 A 
ATOM     37  N   UNL A   1      41.121  28.230  28.924  1.00  0.00    -0.248 NA
ATOM     38  C   UNL A   1      39.376  26.682  28.991  1.00  0.00     0.031 C 
ATOM     39  C   UNL A   1      43.663  25.270  26.752  1.00  0.00     0.029 A 
ATOM     40  N   UNL A   1      43.615  27.285  27.720  1.00  0.00    -0.354 N 
ATOM     41  C   UNL A   1      40.019  28.811  29.542  1.00  0.00     0.074 A 
ATOM     42  C   UNL A   1      38.963  27.820  29.533  1.00  0.00     0.031 C 
ATOM     43  C   UNL A   1      44.867  25.829  26.571  1.00  0.00     0.029 A 
ATOM     44  C   UNL A   1      44.855  27.174  27.136  1.00  0.00     0.049 A 
ATOM     45  H   UNL A   1      43.332  28.068  28.244  1.00  0.00     0.167 HD
ATOM     46  C   UNL A   1      39.901  30.049  30.079  1.00  0.00     0.034 A 
ATOM     47  C   UNL A   1      45.862  28.062  27.029  1.00  0.00     0.034 A 
ATOM     48  C   UNL A   1      40.966  31.017  30.132  1.00  0.00     0.049 A 
ATOM     49  C   UNL A   1      45.708  29.425  27.639  1.00  0.00     0.074 A 
ATOM     50  C   UNL A   1      40.958  32.273  30.714  1.00  0.00     0.029 A 
ATOM     51  N   UNL A   1      42.226  30.842  29.583  1.00  0.00    -0.354 N 
ATOM     52  N   UNL A   1      44.695  29.915  28.311  1.00  0.00    -0.248 NA
ATOM     53  C   UNL A   1      46.841  30.349  27.494  1.00  0.00     0.031 C 
ATOM     54  C   UNL A   1      42.214  32.859  30.515  1.00  0.00     0.029 A 
ATOM     55  C   UNL A   1      43.003  31.966  29.810  1.00  0.00     0.049 A 
ATOM     56  H   UNL A   1      42.526  30.035  29.103  1.00  0.00     0.167 HD
ATOM     57  C   UNL A   1      45.073  31.199  28.683  1.00  0.00     0.074 A 
ATOM     58  C   UNL A   1      46.420  31.399  28.187  1.00  0.00     0.031 C 
ATOM     59  C   UNL A   1      44.359  32.136  29.353  1.00  0.00     0.034 A 
BRANCH  46  60
ATOM     60  C   UNL A   1      38.587  30.421  30.714  1.00  0.00     0.023 A 
ATOM     61  C   UNL A   1      38.363  30.100  32.068  1.00  0.00     0.012 A 
ATOM     62  C   UNL A   1      37.616  31.160  30.009  1.00  0.00     0.148 A 
ATOM     63  C   UNL A   1      37.189  30.494  32.707  1.00  0.00     0.002 A 
ATOM     64  C   UNL A   1      36.461  31.576  30.662  1.00  0.00     0.091 A 
ATOM     65  F   UNL A   1      37.835  31.436  28.716  1.00  0.00    -0.205 F 
ATOM     66  C   UNL A   1      36.243  31.240  32.009  1.00  0.00     0.022 A 
BRANCH  64  67
ATOM     67  S   UNL A   1      35.219  32.599  29.861  1.00  0.00     0.127 S 
ATOM     68  O   UNL A   1      34.735  31.707  28.809  1.00  0.00    -0.237 OA
ATOM     69  O   UNL A   1      34.262  32.838  30.943  1.00  0.00    -0.237 OA
ATOM     70  O   UNL A   1      35.922  33.791  29.408  1.00  0.00    -0.744 OA
ENDBRANCH  64  67
ENDBRANCH  46  60
BRANCH  47  71
ATOM     71  C   UNL A   1      47.119  27.659  26.339  1.00  0.00     0.023 A 
ATOM     72  C   UNL A   1      48.082  26.916  27.046  1.00  0.00     0.012 A 
ATOM     73  C   UNL A   1      47.325  27.931  24.973  1.00  0.00     0.148 A 
ATOM     74  C   UNL A   1      49.234  26.458  26.407  1.00  0.00     0.002 A 
ATOM     75  C   UNL A   1      48.446  27.420  24.328  1.00  0.00     0.091 A 
ATOM     76  F   UNL A   1      46.410  28.662  24.321  1.00  0.00    -0.205 F 
ATOM     77  C   UNL A   1      49.408  26.695  25.045  1.00  0.00     0.022 A 
BRANCH  75  78
ATOM     78  S   UNL A   1      48.648  27.553  22.547  1.00  0.00     0.127 S 
ATOM     79  O   UNL A   1      48.685  26.151  22.143  1.00  0.00    -0.237 OA
ATOM     80  O   UNL A   1      47.440  28.277  22.149  1.00  0.00    -0.237 OA
ATOM     81  O   UNL A   1      49.879  28.310  22.361  1.00  0.00    -0.744 OA
ENDBRANCH  75  78
ENDBRANCH  47  71
BRANCH  59  82
ATOM     82  C   UNL A   1      45.021  33.465  29.593  1.00  0.00     0.023 A 
ATOM     83  C   UNL A   1      45.786  33.651  30.762  1.00  0.00     0.012 A 
ATOM     84  C   UNL A   1      44.932  34.506  28.650  1.00  0.00     0.148 A 
ATOM     85  C   UNL A   1      46.431  34.864  31.000  1.00  0.00     0.002 A 
ATOM     86  C   UNL A   1      45.607  35.701  28.878  1.00  0.00     0.091 A 
ATOM     87  F   UNL A   1      44.179  34.321  27.555  1.00  0.00    -0.205 F 
ATOM     88  C   UNL A   1      46.350  35.884  30.055  1.00  0.00     0.022 A 
BRANCH  86  89
ATOM     89  S   UNL A   1      45.607  37.028  27.667  1.00  0.00     0.127 S 
ATOM     90  O   UNL A   1      46.381  38.061  28.352  1.00  0.00    -0.237 OA
ATOM     91  O   UNL A   1      46.286  36.418  26.522  1.00  0.00    -0.237 OA
ATOM     92  O   UNL A   1      44.203  37.337  27.432  1.00  0.00    -0.744 OA
ENDBRANCH  86  89
ENDBRANCH  59  82
ENDBRANCH  33  34
ENDBRANCH  26  28
ENDBRANCH  25  26
ENDBRANCH  24  25
ENDBRANCH   1  24
TORSDOF 19
ENDMDL
MODEL 2
REMARK VINA RESULT:     -11.7      5.160     10.208
REMARK SMILES Cc1c(C[C@@H](C)O)c(=O)oc2cc(OCC(=O)OCCOC(=O)c3ccc(-c4c5nc(c(-c6cccc(S(=O)(=O)[O-])c6F)c6ccc([nH]6)c(-c6cccc(S(=O)(=O)[O-])c6F)c6nc(c(-c7cccc(S(=O)(=O)[O-])c7F)c7ccc4[nH]7)C=C6)C=C5)cc3)ccc12
REMARK SMILES IDX 19 1 18 2 16 3 17 4 15 5 14 6 13 7 1 8 2 9 3 10 89 11 8 12
REMARK SMILES IDX 11 13 88 14 9 15 10 16 12 17 87 18 4 19 5 20 6 21 7 22 20 24
REMARK SMILES IDX 21 25 22 26 23 27 24 28 25 29 86 30 26 31 85 32 27 33 28 34
REMARK SMILES IDX 29 35 79 36 30 37 84 38 78 39 80 40 31 41 83 42 77 43 76 44
REMARK SMILES IDX 32 46 64 47 44 48 63 49 45 50 48 51 62 52 81 53 46 54 47 55
REMARK SMILES IDX 61 57 82 58 49 59 33 60 34 61 42 62 35 63 37 64 43 65 36 66
REMARK SMILES IDX 38 67 39 68 40 69 41 70 65 71 66 72 74 73 67 74 69 75 75 76
REMARK SMILES IDX 68 77 70 78 71 79 72 80 73 81 50 82 51 83 59 84 52 85 54 86
REMARK SMILES IDX 60 87 53 88 55 89 56 90 57 91 58 92
REMARK H PARENT 7 23 80 45 48 56
REMARK Flexibility Score: inf
ROOT
ATOM      1  C   UNL A   1      31.207  29.159  25.052  1.00  0.00     0.274 C 
ENDROOT
BRANCH   1   2
ATOM      2  O   UNL A   1      30.405  30.126  24.345  1.00  0.00    -0.460 OA
BRANCH   2   3
ATOM      3  C   UNL A   1      29.810  29.678  23.206  1.00  0.00     0.344 C 
ATOM      4  O   UNL A   1      28.626  29.837  22.925  1.00  0.00    -0.248 OA
BRANCH   3   5
ATOM      5  C   UNL A   1      30.763  28.909  22.293  1.00  0.00     0.351 C 
BRANCH   5   6
ATOM      6  O   UNL A   1      30.465  27.562  21.962  1.00  0.00    -0.482 OA
BRANCH   6   7
ATOM      7  C   UNL A   1      31.239  26.568  22.489  1.00  0.00     0.123 A 
ATOM      8  C   UNL A   1      35.309  23.421  23.368  1.00  0.00     0.046 C 
ATOM      9  C   UNL A   1      33.851  23.376  23.740  1.00  0.00    -0.030 A 
ATOM     10  C   UNL A   1      33.258  22.353  24.395  1.00  0.00     0.044 A 
ATOM     11  C   UNL A   1      33.011  24.507  23.307  1.00  0.00     0.021 A 
ATOM     12  C   UNL A   1      31.839  22.454  24.847  1.00  0.00     0.339 A 
ATOM     13  C   UNL A   1      31.742  24.644  23.853  1.00  0.00     0.142 A 
ATOM     14  C   UNL A   1      33.389  25.436  22.331  1.00  0.00     0.016 A 
ATOM     15  O   UNL A   1      31.256  21.505  25.360  1.00  0.00    -0.246 OA
ATOM     16  O   UNL A   1      31.240  23.699  24.756  1.00  0.00    -0.422 OA
ATOM     17  C   UNL A   1      30.871  25.676  23.485  1.00  0.00     0.094 A 
ATOM     18  C   UNL A   1      32.505  26.443  21.918  1.00  0.00     0.047 A 
BRANCH  10  19
ATOM     19  C   UNL A   1      33.919  21.039  24.761  1.00  0.00     0.075 C 
BRANCH  19  20
ATOM     20  C   UNL A   1      34.368  20.969  26.236  1.00  0.00     0.116 C 
ATOM     21  C   UNL A   1      34.594  22.337  26.871  1.00  0.00     0.038 C 
BRANCH  20  22
ATOM     22  O   UNL A   1      33.380  20.300  27.026  1.00  0.00    -0.393 OA
ATOM     23  H   UNL A   1      33.025  20.915  27.688  1.00  0.00     0.210 HD
ENDBRANCH  20  22
ENDBRANCH  19  20
ENDBRANCH  10  19
ENDBRANCH   6   7
ENDBRANCH   5   6
ENDBRANCH   3   5
ENDBRANCH   2   3
ENDBRANCH   1   2
BRANCH   1  24
ATOM     24  C   UNL A   1      31.754  29.755  26.346  1.00  0.00     0.275 C 
BRANCH  24  25
ATOM     25  O   UNL A   1      32.931  30.527  26.057  1.00  0.00    -0.458 OA
BRANCH  25  26
ATOM     26  C   UNL A   1      33.291  31.411  27.013  1.00  0.00     0.338 C 
ATOM     27  O   UNL A   1      32.630  32.371  27.396  1.00  0.00    -0.246 OA
BRANCH  26  28
ATOM     28  C   UNL A   1      34.606  31.051  27.586  1.00  0.00     0.060 A 
ATOM     29  C   UNL A   1      34.907  29.736  27.955  1.00  0.00     0.016 A 
ATOM     30  C   UNL A   1      35.507  32.076  27.877  1.00  0.00     0.016 A 
ATOM     31  C   UNL A   1      36.054  29.467  28.705  1.00  0.00     0.010 A 
ATOM     32  C   UNL A   1      36.699  31.790  28.546  1.00  0.00     0.010 A 
ATOM     33  C   UNL A   1      36.971  30.490  28.999  1.00  0.00    -0.014 A 
BRANCH  33  34
ATOM     34  C   UNL A   1      38.229  30.210  29.742  1.00  0.00     0.031 A 
ATOM     35  C   UNL A   1      39.260  29.259  29.192  1.00  0.00     0.074 A 
ATOM     36  C   UNL A   1      38.412  30.762  30.958  1.00  0.00     0.049 A 
ATOM     37  N   UNL A   1      40.341  28.792  29.768  1.00  0.00    -0.248 NA
ATOM     38  C   UNL A   1      39.051  28.759  27.823  1.00  0.00     0.031 C 
ATOM     39  C   UNL A   1      37.478  31.677  31.618  1.00  0.00     0.029 A 
ATOM     40  N   UNL A   1      39.426  30.609  31.871  1.00  0.00    -0.354 N 
ATOM     41  C   UNL A   1      40.909  27.907  28.857  1.00  0.00     0.074 A 
ATOM     42  C   UNL A   1      40.059  27.908  27.685  1.00  0.00     0.031 C 
ATOM     43  C   UNL A   1      37.958  32.000  32.827  1.00  0.00     0.029 A 
ATOM     44  C   UNL A   1      39.201  31.271  33.055  1.00  0.00     0.049 A 
ATOM     45  H   UNL A   1      40.235  30.076  31.695  1.00  0.00     0.167 HD
ATOM     46  C   UNL A   1      42.041  27.174  28.980  1.00  0.00     0.034 A 
ATOM     47  C   UNL A   1      39.889  31.269  34.212  1.00  0.00     0.034 A 
ATOM     48  C   UNL A   1      42.915  27.211  30.125  1.00  0.00     0.049 A 
ATOM     49  C   UNL A   1      41.145  30.453  34.318  1.00  0.00     0.074 A 
ATOM     50  C   UNL A   1      44.118  26.551  30.311  1.00  0.00     0.029 A 
ATOM     51  N   UNL A   1      42.681  27.943  31.278  1.00  0.00    -0.354 N 
ATOM     52  N   UNL A   1      41.720  29.708  33.407  1.00  0.00    -0.248 NA
ATOM     53  C   UNL A   1      41.856  30.495  35.603  1.00  0.00     0.031 C 
ATOM     54  C   UNL A   1      44.611  26.883  31.578  1.00  0.00     0.029 A 
ATOM     55  C   UNL A   1      43.714  27.750  32.180  1.00  0.00     0.049 A 
ATOM     56  H   UNL A   1      41.896  28.517  31.433  1.00  0.00     0.167 HD
ATOM     57  C   UNL A   1      42.868  29.201  34.002  1.00  0.00     0.074 A 
ATOM     58  C   UNL A   1      42.923  29.750  35.342  1.00  0.00     0.031 C 
ATOM     59  C   UNL A   1      43.782  28.339  33.493  1.00  0.00     0.034 A 
BRANCH  46  60
ATOM     60  C   UNL A   1      42.448  26.303  27.820  1.00  0.00     0.023 A 
ATOM     61  C   UNL A   1      43.377  26.797  26.883  1.00  0.00     0.012 A 
ATOM     62  C   UNL A   1      41.986  24.977  27.704  1.00  0.00     0.148 A 
ATOM     63  C   UNL A   1      43.831  25.992  25.839  1.00  0.00     0.002 A 
ATOM     64  C   UNL A   1      42.467  24.170  26.677  1.00  0.00     0.091 A 
ATOM     65  F   UNL A   1      41.085  24.531  28.590  1.00  0.00    -0.205 F 
ATOM     66  C   UNL A   1      43.384  24.676  25.742  1.00  0.00     0.022 A 
BRANCH  64  67
ATOM     67  S   UNL A   1      41.999  22.442  26.515  1.00  0.00     0.127 S 
ATOM     68  O   UNL A   1      40.550  22.542  26.350  1.00  0.00    -0.237 OA
ATOM     69  O   UNL A   1      42.721  22.032  25.309  1.00  0.00    -0.237 OA
ATOM     70  O   UNL A   1      42.456  21.793  27.736  1.00  0.00    -0.744 OA
ENDBRANCH  64  67
ENDBRANCH  46  60
BRANCH  47  71
ATOM     71  C   UNL A   1      39.410  32.106  35.347  1.00  0.00     0.023 A 
ATOM     72  C   UNL A   1      38.597  31.521  36.335  1.00  0.00     0.012 A 
ATOM     73  C   UNL A   1      39.822  33.444  35.497  1.00  0.00     0.148 A 
ATOM     74  C   UNL A   1      38.196  32.257  37.450  1.00  0.00     0.002 A 
ATOM     75  C   UNL A   1      39.468  34.153  36.640  1.00  0.00     0.091 A 
ATOM     76  F   UNL A   1      40.575  33.993  34.533  1.00  0.00    -0.205 F 
ATOM     77  C   UNL A   1      38.644  33.566  37.611  1.00  0.00     0.022 A 
BRANCH  75  78
ATOM     78  S   UNL A   1      40.143  35.782  36.982  1.00  0.00     0.127 S 
ATOM     79  O   UNL A   1      39.675  36.551  35.833  1.00  0.00    -0.237 OA
ATOM     80  O   UNL A   1      39.504  36.125  38.254  1.00  0.00    -0.237 OA
ATOM     81  O   UNL A   1      41.584  35.582  37.080  1.00  0.00    -0.744 OA
ENDBRANCH  75  78
ENDBRANCH  47  71
BRANCH  59  82
ATOM     82  C   UNL A   1      44.923  27.938  34.386  1.00  0.00     0.023 A 
ATOM     83  C   UNL A   1      46.093  28.724  34.404  1.00  0.00     0.012 A 
ATOM     84  C   UNL A   1      44.825  26.823  35.240  1.00  0.00     0.148 A 
ATOM     85  C   UNL A   1      47.158  28.390  35.239  1.00  0.00     0.002 A 
ATOM     86  C   UNL A   1      45.878  26.516  36.096  1.00  0.00     0.091 A 
ATOM     87  F   UNL A   1      43.716  26.071  35.192  1.00  0.00    -0.205 F 
ATOM     88  C   UNL A   1      47.047  27.294  36.091  1.00  0.00     0.022 A 
BRANCH  86  89
ATOM     89  S   UNL A   1      45.771  25.163  37.273  1.00  0.00     0.127 S 
ATOM     90  O   UNL A   1      45.668  24.003  36.390  1.00  0.00    -0.237 OA
ATOM     91  O   UNL A   1      47.041  25.266  37.996  1.00  0.00    -0.237 OA
ATOM     92  O   UNL A   1      44.598  25.450  38.087  1.00  0.00    -0.744 OA
ENDBRANCH  86  89
ENDBRANCH  59  82
ENDBRANCH  33  34
ENDBRANCH  26  28
ENDBRANCH  25  26
ENDBRANCH  24  25
ENDBRANCH   1  24
TORSDOF 19
ENDMDL
MODEL 3
REMARK VINA RESULT:     -11.5      1.683      2.234
REMARK SMILES Cc1c(C[C@@H](C)O)c(=O)oc2cc(OCC(=O)OCCOC(=O)c3ccc(-c4c5nc(c(-c6cccc(S(=O)(=O)[O-])c6F)c6ccc([nH]6)c(-c6cccc(S(=O)(=O)[O-])c6F)c6nc(c(-c7cccc(S(=O)(=O)[O-])c7F)c7ccc4[nH]7)C=C6)C=C5)cc3)ccc12
REMARK SMILES IDX 19 1 18 2 16 3 17 4 15 5 14 6 13 7 1 8 2 9 3 10 89 11 8 12
REMARK SMILES IDX 11 13 88 14 9 15 10 16 12 17 87 18 4 19 5 20 6 21 7 22 20 24
REMARK SMILES IDX 21 25 22 26 23 27 24 28 25 29 86 30 26 31 85 32 27 33 28 34
REMARK SMILES IDX 29 35 79 36 30 37 84 38 78 39 80 40 31 41 83 42 77 43 76 44
REMARK SMILES IDX 32 46 64 47 44 48 63 49 45 50 48 51 62 52 81 53 46 54 47 55
REMARK SMILES IDX 61 57 82 58 49 59 33 60 34 61 42 62 35 63 37 64 43 65 36 66
REMARK SMILES IDX 38 67 39 68 40 69 41 70 65 71 66 72 74 73 67 74 69 75 75 76
REMARK SMILES IDX 68 77 70 78 71 79 72 80 73 81 50 82 51 83 59 84 52 85 54 86
REMARK SMILES IDX 60 87 53 88 55 89 56 90 57 91 58 92
REMARK H PARENT 7 23 80 45 48 56
REMARK Flexibility Score: inf
ROOT
ATOM      1  C   UNL A   1      35.181  20.240  25.132  1.00  0.00     0.274 C 
ENDROOT
BRANCH   1   2
ATOM      2  O   UNL A   1      34.451  19.168  24.500  1.00  0.00    -0.460 OA
BRANCH   2   3
ATOM      3  C   UNL A   1      33.164  19.008  24.912  1.00  0.00     0.344 C 
ATOM      4  O   UNL A   1      32.736  18.024  25.506  1.00  0.00    -0.248 OA
BRANCH   3   5
ATOM      5  C   UNL A   1      32.261  20.181  24.533  1.00  0.00     0.351 C 
BRANCH   5   6
ATOM      6  O   UNL A   1      32.632  21.015  23.447  1.00  0.00    -0.482 OA
BRANCH   6   7
ATOM      7  C   UNL A   1      32.477  22.366  23.571  1.00  0.00     0.123 A 
ATOM      8  C   UNL A   1      33.085  27.495  22.825  1.00  0.00     0.046 C 
ATOM      9  C   UNL A   1      32.427  26.663  23.893  1.00  0.00    -0.030 A 
ATOM     10  C   UNL A   1      31.864  27.163  25.017  1.00  0.00     0.044 A 
ATOM     11  C   UNL A   1      32.453  25.200  23.718  1.00  0.00     0.021 A 
ATOM     12  C   UNL A   1      31.111  26.277  25.953  1.00  0.00     0.339 A 
ATOM     13  C   UNL A   1      31.635  24.416  24.520  1.00  0.00     0.142 A 
ATOM     14  C   UNL A   1      33.295  24.533  22.822  1.00  0.00     0.016 A 
ATOM     15  O   UNL A   1      30.672  26.693  27.020  1.00  0.00    -0.246 OA
ATOM     16  O   UNL A   1      30.838  24.993  25.517  1.00  0.00    -0.422 OA
ATOM     17  C   UNL A   1      31.609  23.020  24.434  1.00  0.00     0.094 A 
ATOM     18  C   UNL A   1      33.316  23.132  22.764  1.00  0.00     0.047 A 
BRANCH  10  19
ATOM     19  C   UNL A   1      31.899  28.615  25.449  1.00  0.00     0.075 C 
BRANCH  19  20
ATOM     20  C   UNL A   1      32.840  28.875  26.645  1.00  0.00     0.116 C 
ATOM     21  C   UNL A   1      34.234  28.285  26.464  1.00  0.00     0.038 C 
BRANCH  20  22
ATOM     22  O   UNL A   1      33.005  30.281  26.852  1.00  0.00    -0.393 OA
ATOM     23  H   UNL A   1      32.430  30.768  26.239  1.00  0.00     0.210 HD
ENDBRANCH  20  22
ENDBRANCH  19  20
ENDBRANCH  10  19
ENDBRANCH   6   7
ENDBRANCH   5   6
ENDBRANCH   3   5
ENDBRANCH   2   3
ENDBRANCH   1   2
BRANCH   1  24
ATOM     24  C   UNL A   1      36.683  20.041  24.963  1.00  0.00     0.275 C 
BRANCH  24  25
ATOM     25  O   UNL A   1      37.376  21.205  25.442  1.00  0.00    -0.458 OA
BRANCH  25  26
ATOM     26  C   UNL A   1      38.650  20.996  25.842  1.00  0.00     0.338 C 
ATOM     27  O   UNL A   1      39.282  19.952  25.727  1.00  0.00    -0.246 OA
BRANCH  26  28
ATOM     28  C   UNL A   1      39.221  22.230  26.425  1.00  0.00     0.060 A 
ATOM     29  C   UNL A   1      38.684  23.489  26.139  1.00  0.00     0.016 A 
ATOM     30  C   UNL A   1      40.397  22.131  27.169  1.00  0.00     0.016 A 
ATOM     31  C   UNL A   1      39.379  24.644  26.506  1.00  0.00     0.010 A 
ATOM     32  C   UNL A   1      41.041  23.286  27.616  1.00  0.00     0.010 A 
ATOM     33  C   UNL A   1      40.561  24.556  27.261  1.00  0.00    -0.014 A 
BRANCH  33  34
ATOM     34  C   UNL A   1      41.281  25.776  27.715  1.00  0.00     0.031 A 
ATOM     35  C   UNL A   1      40.568  26.854  28.493  1.00  0.00     0.074 A 
ATOM     36  C   UNL A   1      42.569  25.951  27.360  1.00  0.00     0.049 A 
ATOM     37  N   UNL A   1      41.001  28.039  28.843  1.00  0.00    -0.248 NA
ATOM     38  C   UNL A   1      39.191  26.568  28.929  1.00  0.00     0.031 C 
ATOM     39  C   UNL A   1      43.366  24.999  26.584  1.00  0.00     0.029 A 
ATOM     40  N   UNL A   1      43.426  27.002  27.576  1.00  0.00    -0.354 N 
ATOM     41  C   UNL A   1      39.938  28.660  29.490  1.00  0.00     0.074 A 
ATOM     42  C   UNL A   1      38.840  27.716  29.493  1.00  0.00     0.031 C 
ATOM     43  C   UNL A   1      44.589  25.508  26.385  1.00  0.00     0.029 A 
ATOM     44  C   UNL A   1      44.648  26.845  26.965  1.00  0.00     0.049 A 
ATOM     45  H   UNL A   1      43.188  27.791  28.114  1.00  0.00     0.167 HD
ATOM     46  C   UNL A   1      39.885  29.895  30.043  1.00  0.00     0.034 A 
ATOM     47  C   UNL A   1      45.690  27.690  26.846  1.00  0.00     0.034 A 
ATOM     48  C   UNL A   1      40.991  30.816  30.085  1.00  0.00     0.049 A 
ATOM     49  C   UNL A   1      45.607  29.051  27.475  1.00  0.00     0.074 A 
ATOM     50  C   UNL A   1      41.050  32.065  30.681  1.00  0.00     0.029 A 
ATOM     51  N   UNL A   1      42.231  30.593  29.507  1.00  0.00    -0.354 N 
ATOM     52  N   UNL A   1      44.631  29.576  28.174  1.00  0.00    -0.248 NA
ATOM     53  C   UNL A   1      46.777  29.926  27.317  1.00  0.00     0.031 C 
ATOM     54  C   UNL A   1      42.326  32.597  30.462  1.00  0.00     0.029 A 
ATOM     55  C   UNL A   1      43.061  31.680  29.730  1.00  0.00     0.049 A 
ATOM     56  H   UNL A   1      42.486  29.780  29.012  1.00  0.00     0.167 HD
ATOM     57  C   UNL A   1      45.072  30.838  28.551  1.00  0.00     0.074 A 
ATOM     58  C   UNL A   1      46.415  30.986  28.030  1.00  0.00     0.031 C 
ATOM     59  C   UNL A   1      44.413  31.797  29.247  1.00  0.00     0.034 A 
BRANCH  46  60
ATOM     60  C   UNL A   1      38.602  30.316  30.710  1.00  0.00     0.023 A 
ATOM     61  C   UNL A   1      38.430  30.070  32.087  1.00  0.00     0.012 A 
ATOM     62  C   UNL A   1      37.610  31.029  30.006  1.00  0.00     0.148 A 
ATOM     63  C   UNL A   1      37.287  30.511  32.751  1.00  0.00     0.002 A 
ATOM     64  C   UNL A   1      36.486  31.493  30.683  1.00  0.00     0.091 A 
ATOM     65  F   UNL A   1      37.779  31.234  28.693  1.00  0.00    -0.205 F 
ATOM     66  C   UNL A   1      36.321  31.231  32.052  1.00  0.00     0.022 A 
BRANCH  64  67
ATOM     67  S   UNL A   1      35.224  32.487  29.879  1.00  0.00     0.127 S 
ATOM     68  O   UNL A   1      34.315  32.766  30.989  1.00  0.00    -0.237 OA
ATOM     69  O   UNL A   1      35.985  33.647  29.412  1.00  0.00    -0.237 OA
ATOM     70  O   UNL A   1      34.685  31.655  28.812  1.00  0.00    -0.744 OA
ENDBRANCH  64  67
ENDBRANCH  46  60
BRANCH  47  71
ATOM     71  C   UNL A   1      46.913  27.241  26.126  1.00  0.00     0.023 A 
ATOM     72  C   UNL A   1      47.080  27.590  24.773  1.00  0.00     0.012 A 
ATOM     73  C   UNL A   1      47.944  26.552  26.792  1.00  0.00     0.148 A 
ATOM     74  C   UNL A   1      48.250  27.251  24.092  1.00  0.00     0.002 A 
ATOM     75  C   UNL A   1      49.132  26.269  26.124  1.00  0.00     0.091 A 
ATOM     76  F   UNL A   1      47.759  26.205  28.073  1.00  0.00    -0.205 F 
ATOM     77  C   UNL A   1      49.281  26.606  24.772  1.00  0.00     0.022 A 
BRANCH  75  78
ATOM     78  S   UNL A   1      50.555  25.588  26.985  1.00  0.00     0.127 S 
ATOM     79  O   UNL A   1      50.846  26.634  27.960  1.00  0.00    -0.237 OA
ATOM     80  O   UNL A   1      50.014  24.351  27.551  1.00  0.00    -0.237 OA
ATOM     81  O   UNL A   1      51.557  25.375  25.948  1.00  0.00    -0.744 OA
ENDBRANCH  75  78
ENDBRANCH  47  71
BRANCH  59  82
ATOM     82  C   UNL A   1      45.137  33.093  29.488  1.00  0.00     0.023 A 
ATOM     83  C   UNL A   1      45.931  33.233  30.644  1.00  0.00     0.012 A 
ATOM     84  C   UNL A   1      45.077  34.147  28.558  1.00  0.00     0.148 A 
ATOM     85  C   UNL A   1      46.633  34.414  30.882  1.00  0.00     0.002 A 
ATOM     86  C   UNL A   1      45.807  35.309  28.784  1.00  0.00     0.091 A 
ATOM     87  F   UNL A   1      44.296  34.007  27.475  1.00  0.00    -0.205 F 
ATOM     88  C   UNL A   1      46.579  35.447  29.949  1.00  0.00     0.022 A 
BRANCH  86  89
ATOM     89  S   UNL A   1      45.843  36.648  27.588  1.00  0.00     0.127 S 
ATOM     90  O   UNL A   1      46.375  35.979  26.403  1.00  0.00    -0.237 OA
ATOM     91  O   UNL A   1      44.432  37.029  27.489  1.00  0.00    -0.237 OA
ATOM     92  O   UNL A   1      46.695  37.671  28.178  1.00  0.00    -0.744 OA
ENDBRANCH  86  89
ENDBRANCH  59  82
ENDBRANCH  33  34
ENDBRANCH  26  28
ENDBRANCH  25  26
ENDBRANCH  24  25
ENDBRANCH   1  24
TORSDOF 19
ENDMDL
