MODEL 1
REMARK VINA RESULT:     -12.2      0.000      0.000
REMARK SMILES COC(=O)c1c(NC(=O)[C@@H]2[C@H]3CC[C@H](CC3)[C@H]2C(=O)OCCOC(=O)c2ccc(-c3c4nc(c(-c5cccc(S(=O)(=O)[O-])c5F)c5ccc([nH]5)c(-c5cccc(S(=O)(=O)[O-])c5F)c5nc(c(-c6cccc(S(=O)(=O)[O-])c6F)c6ccc3[nH]6)C=C5)C=C4)cc2)sc(C)c1-c1ccc(C)cc1
REMARK SMILES IDX 21 1 20 2 18 3 19 4 17 5 10 6 11 7 12 8 16 9 14 10 13 11
REMARK SMILES IDX 15 12 8 13 7 14 9 16 6 17 5 18 92 19 89 20 90 21 91 22 3 23
REMARK SMILES IDX 4 24 2 25 1 26 93 27 94 28 99 29 95 30 98 31 96 32 97 33
REMARK SMILES IDX 22 34 23 35 24 36 25 37 26 38 27 39 88 40 28 41 87 42 29 43
REMARK SMILES IDX 30 44 31 45 81 46 32 47 86 48 80 49 82 50 33 51 85 52 79 53
REMARK SMILES IDX 78 54 34 56 66 57 46 58 65 59 47 60 50 61 64 62 83 63 48 64
REMARK SMILES IDX 49 65 63 67 84 68 51 69 35 70 36 71 44 72 37 73 39 74 45 75
REMARK SMILES IDX 38 76 40 77 41 78 42 79 43 80 67 81 68 82 76 83 69 84 71 85
REMARK SMILES IDX 77 86 70 87 72 88 73 89 74 90 75 91 52 92 53 93 61 94 54 95
REMARK SMILES IDX 56 96 62 97 55 98 57 99 58 100 59 101 60 102
REMARK H PARENT 7 15 82 55 50 66
REMARK Flexibility Score: inf
ROOT
ATOM      1  C   UNL A   1      37.913  21.440  25.269  1.00  0.00     0.274 C 
ENDROOT
BRANCH   1   2
ATOM      2  O   UNL A   1      36.864  21.095  24.341  1.00  0.00    -0.462 OA
BRANCH   2   3
ATOM      3  C   UNL A   1      36.106  22.136  23.935  1.00  0.00     0.310 C 
ATOM      4  O   UNL A   1      36.309  22.777  22.906  1.00  0.00    -0.252 OA
BRANCH   3   5
ATOM      5  C   UNL A   1      34.936  22.492  24.840  1.00  0.00     0.115 C 
ATOM      6  C   UNL A   1      34.021  23.675  24.557  1.00  0.00     0.096 C 
ATOM      7  C   UNL A   1      32.581  23.137  24.283  1.00  0.00     0.002 C 
ATOM      8  C   UNL A   1      32.643  21.990  23.242  1.00  0.00     0.005 C 
ATOM      9  C   UNL A   1      31.993  22.555  25.577  1.00  0.00     0.005 C 
ATOM     10  C   UNL A   1      34.096  21.215  25.124  1.00  0.00     0.004 C 
ATOM     11  C   UNL A   1      33.445  20.799  23.794  1.00  0.00     0.005 C 
ATOM     12  C   UNL A   1      32.916  21.454  26.099  1.00  0.00     0.005 C 
BRANCH   6  13
ATOM     13  C   UNL A   1      33.948  24.876  25.551  1.00  0.00     0.229 C 
ATOM     14  N   UNL A   1      33.191  26.008  25.593  1.00  0.00    -0.317 N 
ATOM     15  H   UNL A   1      33.582  26.634  26.245  1.00  0.00     0.170 HD
ATOM     16  O   UNL A   1      34.856  24.884  26.411  1.00  0.00    -0.274 OA
BRANCH  14  17
ATOM     17  C   UNL A   1      32.054  26.587  25.030  1.00  0.00     0.111 A 
ATOM     18  C   UNL A   1      31.950  27.850  24.431  1.00  0.00     0.102 A 
ATOM     19  C   UNL A   1      30.590  28.099  23.949  1.00  0.00     0.012 A 
ATOM     20  S   UNL A   1      30.528  25.901  25.141  1.00  0.00    -0.122 S 
ATOM     21  C   UNL A   1      29.754  27.024  24.181  1.00  0.00     0.012 A 
ATOM     22  C   UNL A   1      28.335  26.749  23.807  1.00  0.00     0.057 C 
BRANCH  18  23
ATOM     23  C   UNL A   1      33.089  28.771  24.339  1.00  0.00     0.341 C 
ATOM     24  O   UNL A   1      33.285  29.661  25.153  1.00  0.00    -0.246 OA
BRANCH  23  25
ATOM     25  O   UNL A   1      33.867  28.536  23.248  1.00  0.00    -0.465 OA
ATOM     26  C   UNL A   1      33.387  27.564  22.320  1.00  0.00     0.282 C 
ENDBRANCH  23  25
ENDBRANCH  18  23
BRANCH  19  27
ATOM     27  C   UNL A   1      30.035  29.275  23.300  1.00  0.00    -0.016 A 
ATOM     28  C   UNL A   1      29.923  29.346  21.912  1.00  0.00     0.009 A 
ATOM     29  C   UNL A   1      29.533  30.310  24.099  1.00  0.00     0.009 A 
ATOM     30  C   UNL A   1      29.295  30.449  21.327  1.00  0.00     0.004 A 
ATOM     31  C   UNL A   1      28.892  31.398  23.515  1.00  0.00     0.004 A 
ATOM     32  C   UNL A   1      28.761  31.470  22.125  1.00  0.00    -0.051 A 
ATOM     33  C   UNL A   1      28.092  32.653  21.493  1.00  0.00     0.044 C 
ENDBRANCH  19  27
ENDBRANCH  14  17
ENDBRANCH   6  13
ENDBRANCH   3   5
ENDBRANCH   2   3
ENDBRANCH   1   2
BRANCH   1  34
ATOM     34  C   UNL A   1      38.690  20.204  25.727  1.00  0.00     0.275 C 
BRANCH  34  35
ATOM     35  O   UNL A   1      40.117  20.404  25.675  1.00  0.00    -0.458 OA
BRANCH  35  36
ATOM     36  C   UNL A   1      40.711  20.498  26.887  1.00  0.00     0.338 C 
ATOM     37  O   UNL A   1      41.132  19.580  27.572  1.00  0.00    -0.246 OA
BRANCH  36  38
ATOM     38  C   UNL A   1      40.869  21.905  27.284  1.00  0.00     0.060 A 
ATOM     39  C   UNL A   1      40.411  22.887  26.409  1.00  0.00     0.016 A 
ATOM     40  C   UNL A   1      41.617  22.257  28.407  1.00  0.00     0.016 A 
ATOM     41  C   UNL A   1      40.760  24.222  26.611  1.00  0.00     0.010 A 
ATOM     42  C   UNL A   1      41.910  23.609  28.641  1.00  0.00     0.010 A 
ATOM     43  C   UNL A   1      41.517  24.605  27.727  1.00  0.00    -0.014 A 
BRANCH  43  44
ATOM     44  C   UNL A   1      41.918  26.031  27.920  1.00  0.00     0.031 A 
ATOM     45  C   UNL A   1      43.290  26.503  27.503  1.00  0.00     0.074 A 
ATOM     46  C   UNL A   1      41.064  26.911  28.483  1.00  0.00     0.049 A 
ATOM     47  N   UNL A   1      43.876  27.651  27.734  1.00  0.00    -0.248 NA
ATOM     48  C   UNL A   1      44.113  25.558  26.732  1.00  0.00     0.031 C 
ATOM     49  C   UNL A   1      39.702  26.608  28.921  1.00  0.00     0.029 A 
ATOM     50  N   UNL A   1      41.226  28.239  28.804  1.00  0.00    -0.354 N 
ATOM     51  C   UNL A   1      45.157  27.542  27.203  1.00  0.00     0.074 A 
ATOM     52  C   UNL A   1      45.258  26.219  26.624  1.00  0.00     0.031 C 
ATOM     53  C   UNL A   1      39.154  27.710  29.454  1.00  0.00     0.029 A 
ATOM     54  C   UNL A   1      40.146  28.780  29.463  1.00  0.00     0.049 A 
ATOM     55  H   UNL A   1      42.037  28.753  28.583  1.00  0.00     0.167 HD
ATOM     56  C   UNL A   1      46.155  28.459  27.189  1.00  0.00     0.034 A 
ATOM     57  C   UNL A   1      39.981  29.981  30.053  1.00  0.00     0.034 A 
ATOM     58  C   UNL A   1      46.036  29.801  27.697  1.00  0.00     0.049 A 
ATOM     59  C   UNL A   1      41.106  30.979  30.026  1.00  0.00     0.074 A 
ATOM     60  C   UNL A   1      46.978  30.815  27.676  1.00  0.00     0.029 A 
ATOM     61  N   UNL A   1      44.906  30.320  28.311  1.00  0.00    -0.354 N 
ATOM     62  N   UNL A   1      42.284  30.881  29.463  1.00  0.00    -0.248 NA
ATOM     63  C   UNL A   1      40.873  32.263  30.706  1.00  0.00     0.031 C 
ATOM     64  C   UNL A   1      46.423  31.944  28.290  1.00  0.00     0.029 A 
ATOM     65  C   UNL A   1      45.129  31.638  28.677  1.00  0.00     0.049 A 
ATOM     66  H   UNL A   1      44.070  29.825  28.465  1.00  0.00     0.167 HD
ATOM     67  C   UNL A   1      42.921  32.095  29.695  1.00  0.00     0.074 A 
ATOM     68  C   UNL A   1      41.988  32.924  30.428  1.00  0.00     0.031 C 
ATOM     69  C   UNL A   1      44.175  32.478  29.351  1.00  0.00     0.034 A 
BRANCH  56  70
ATOM     70  C   UNL A   1      47.474  28.061  26.577  1.00  0.00     0.023 A 
ATOM     71  C   UNL A   1      48.562  27.728  27.410  1.00  0.00     0.012 A 
ATOM     72  C   UNL A   1      47.611  27.937  25.180  1.00  0.00     0.148 A 
ATOM     73  C   UNL A   1      49.772  27.305  26.861  1.00  0.00     0.002 A 
ATOM     74  C   UNL A   1      48.808  27.476  24.642  1.00  0.00     0.091 A 
ATOM     75  F   UNL A   1      46.572  28.274  24.403  1.00  0.00    -0.205 F 
ATOM     76  C   UNL A   1      49.892  27.170  25.480  1.00  0.00     0.022 A 
BRANCH  74  77
ATOM     77  S   UNL A   1      49.032  27.190  22.881  1.00  0.00     0.127 S 
ATOM     78  O   UNL A   1      48.266  25.962  22.681  1.00  0.00    -0.237 OA
ATOM     79  O   UNL A   1      48.430  28.387  22.295  1.00  0.00    -0.237 OA
ATOM     80  O   UNL A   1      50.469  27.073  22.674  1.00  0.00    -0.744 OA
ENDBRANCH  74  77
ENDBRANCH  56  70
BRANCH  57  81
ATOM     81  C   UNL A   1      38.690  30.309  30.722  1.00  0.00     0.023 A 
ATOM     82  C   UNL A   1      38.485  29.922  32.060  1.00  0.00     0.012 A 
ATOM     83  C   UNL A   1      37.678  31.022  30.050  1.00  0.00     0.148 A 
ATOM     84  C   UNL A   1      37.286  30.221  32.710  1.00  0.00     0.002 A 
ATOM     85  C   UNL A   1      36.512  31.370  30.722  1.00  0.00     0.091 A 
ATOM     86  F   UNL A   1      37.880  31.357  28.768  1.00  0.00    -0.205 F 
ATOM     87  C   UNL A   1      36.307  30.956  32.047  1.00  0.00     0.022 A 
BRANCH  85  88
ATOM     88  S   UNL A   1      35.269  32.437  29.987  1.00  0.00     0.127 S 
ATOM     89  O   UNL A   1      36.067  33.588  29.574  1.00  0.00    -0.237 OA
ATOM     90  O   UNL A   1      34.766  31.609  28.890  1.00  0.00    -0.237 OA
ATOM     91  O   UNL A   1      34.295  32.681  31.044  1.00  0.00    -0.744 OA
ENDBRANCH  85  88
ENDBRANCH  57  81
BRANCH  69  92
ATOM     92  C   UNL A   1      44.607  33.872  29.725  1.00  0.00     0.023 A 
ATOM     93  C   UNL A   1      45.294  34.089  30.935  1.00  0.00     0.012 A 
ATOM     94  C   UNL A   1      44.395  34.953  28.846  1.00  0.00     0.148 A 
ATOM     95  C   UNL A   1      45.738  35.366  31.278  1.00  0.00     0.002 A 
ATOM     96  C   UNL A   1      44.879  36.214  29.175  1.00  0.00     0.091 A 
ATOM     97  F   UNL A   1      43.720  34.730  27.708  1.00  0.00    -0.205 F 
ATOM     98  C   UNL A   1      45.541  36.424  30.394  1.00  0.00     0.022 A 
BRANCH  96  99
ATOM     99  S   UNL A   1      44.747  37.614  28.057  1.00  0.00     0.127 S 
ATOM    100  O   UNL A   1      43.321  37.603  27.733  1.00  0.00    -0.237 OA
ATOM    101  O   UNL A   1      45.171  38.730  28.901  1.00  0.00    -0.237 OA
ATOM    102  O   UNL A   1      45.644  37.324  26.946  1.00  0.00    -0.744 OA
ENDBRANCH  96  99
ENDBRANCH  69  92
ENDBRANCH  43  44
ENDBRANCH  36  38
ENDBRANCH  35  36
ENDBRANCH  34  35
ENDBRANCH   1  34
TORSDOF 19
ENDMDL
MODEL 2
REMARK VINA RESULT:     -11.9      5.073      8.946
REMARK SMILES COC(=O)c1c(NC(=O)[C@@H]2[C@H]3CC[C@H](CC3)[C@H]2C(=O)OCCOC(=O)c2ccc(-c3c4nc(c(-c5cccc(S(=O)(=O)[O-])c5F)c5ccc([nH]5)c(-c5cccc(S(=O)(=O)[O-])c5F)c5nc(c(-c6cccc(S(=O)(=O)[O-])c6F)c6ccc3[nH]6)C=C5)C=C4)cc2)sc(C)c1-c1ccc(C)cc1
REMARK SMILES IDX 21 1 20 2 18 3 19 4 17 5 10 6 11 7 12 8 16 9 14 10 13 11
REMARK SMILES IDX 15 12 8 13 7 14 9 16 6 17 5 18 92 19 89 20 90 21 91 22 3 23
REMARK SMILES IDX 4 24 2 25 1 26 93 27 94 28 99 29 95 30 98 31 96 32 97 33
REMARK SMILES IDX 22 34 23 35 24 36 25 37 26 38 27 39 88 40 28 41 87 42 29 43
REMARK SMILES IDX 30 44 31 45 81 46 32 47 86 48 80 49 82 50 33 51 85 52 79 53
REMARK SMILES IDX 78 54 34 56 66 57 46 58 65 59 47 60 50 61 64 62 83 63 48 64
REMARK SMILES IDX 49 65 63 67 84 68 51 69 35 70 36 71 44 72 37 73 39 74 45 75
REMARK SMILES IDX 38 76 40 77 41 78 42 79 43 80 67 81 68 82 76 83 69 84 71 85
REMARK SMILES IDX 77 86 70 87 72 88 73 89 74 90 75 91 52 92 53 93 61 94 54 95
REMARK SMILES IDX 56 96 62 97 55 98 57 99 58 100 59 101 60 102
REMARK H PARENT 7 15 82 55 50 66
REMARK Flexibility Score: inf
ROOT
ATOM      1  C   UNL A   1      33.654  29.274  27.661  1.00  0.00     0.274 C 
ENDROOT
BRANCH   1   2
ATOM      2  O   UNL A   1      33.421  28.176  26.755  1.00  0.00    -0.462 OA
BRANCH   2   3
ATOM      3  C   UNL A   1      32.120  27.866  26.570  1.00  0.00     0.310 C 
ATOM      4  O   UNL A   1      31.258  27.955  27.443  1.00  0.00    -0.252 OA
BRANCH   3   5
ATOM      5  C   UNL A   1      31.748  27.390  25.173  1.00  0.00     0.115 C 
ATOM      6  C   UNL A   1      30.303  27.188  24.743  1.00  0.00     0.096 C 
ATOM      7  C   UNL A   1      29.979  28.194  23.593  1.00  0.00     0.002 C 
ATOM      8  C   UNL A   1      30.431  29.618  24.006  1.00  0.00     0.005 C 
ATOM      9  C   UNL A   1      30.767  27.807  22.333  1.00  0.00     0.005 C 
ATOM     10  C   UNL A   1      32.513  28.238  24.118  1.00  0.00     0.004 C 
ATOM     11  C   UNL A   1      31.956  29.669  24.201  1.00  0.00     0.005 C 
ATOM     12  C   UNL A   1      32.261  27.784  22.659  1.00  0.00     0.005 C 
BRANCH   6  13
ATOM     13  C   UNL A   1      29.783  25.768  24.353  1.00  0.00     0.229 C 
ATOM     14  N   UNL A   1      30.321  24.520  24.446  1.00  0.00    -0.317 N 
ATOM     15  H   UNL A   1      29.792  23.899  23.895  1.00  0.00     0.170 HD
ATOM     16  O   UNL A   1      28.720  25.775  23.696  1.00  0.00    -0.274 OA
BRANCH  14  17
ATOM     17  C   UNL A   1      31.364  23.817  25.051  1.00  0.00     0.111 A 
ATOM     18  C   UNL A   1      32.467  23.224  24.423  1.00  0.00     0.102 A 
ATOM     19  C   UNL A   1      33.352  22.584  25.399  1.00  0.00     0.012 A 
ATOM     20  S   UNL A   1      31.368  23.410  26.678  1.00  0.00    -0.122 S 
ATOM     21  C   UNL A   1      32.896  22.741  26.693  1.00  0.00     0.012 A 
ATOM     22  C   UNL A   1      33.470  22.365  28.019  1.00  0.00     0.057 C 
BRANCH  18  23
ATOM     23  C   UNL A   1      32.655  23.260  22.969  1.00  0.00     0.341 C 
ATOM     24  O   UNL A   1      32.569  24.290  22.317  1.00  0.00    -0.246 OA
BRANCH  23  25
ATOM     25  O   UNL A   1      32.903  22.031  22.441  1.00  0.00    -0.465 OA
ATOM     26  C   UNL A   1      31.769  21.289  21.993  1.00  0.00     0.282 C 
ENDBRANCH  23  25
ENDBRANCH  18  23
BRANCH  19  27
ATOM     27  C   UNL A   1      34.580  21.836  25.188  1.00  0.00    -0.016 A 
ATOM     28  C   UNL A   1      35.825  22.459  25.261  1.00  0.00     0.009 A 
ATOM     29  C   UNL A   1      34.498  20.451  24.992  1.00  0.00     0.009 A 
ATOM     30  C   UNL A   1      36.988  21.692  25.152  1.00  0.00     0.004 A 
ATOM     31  C   UNL A   1      35.657  19.687  24.901  1.00  0.00     0.004 A 
ATOM     32  C   UNL A   1      36.910  20.301  24.989  1.00  0.00    -0.051 A 
ATOM     33  C   UNL A   1      38.159  19.482  24.867  1.00  0.00     0.044 C 
ENDBRANCH  19  27
ENDBRANCH  14  17
ENDBRANCH   6  13
ENDBRANCH   3   5
ENDBRANCH   2   3
ENDBRANCH   1   2
BRANCH   1  34
ATOM     34  C   UNL A   1      33.856  30.592  26.911  1.00  0.00     0.275 C 
BRANCH  34  35
ATOM     35  O   UNL A   1      33.078  31.667  27.472  1.00  0.00    -0.458 OA
BRANCH  35  36
ATOM     36  C   UNL A   1      33.776  32.804  27.698  1.00  0.00     0.338 C 
ATOM     37  O   UNL A   1      33.500  33.926  27.307  1.00  0.00    -0.246 OA
BRANCH  36  38
ATOM     38  C   UNL A   1      34.931  32.543  28.570  1.00  0.00     0.060 A 
ATOM     39  C   UNL A   1      36.199  32.857  28.088  1.00  0.00     0.016 A 
ATOM     40  C   UNL A   1      34.788  31.836  29.763  1.00  0.00     0.016 A 
ATOM     41  C   UNL A   1      37.335  32.401  28.756  1.00  0.00     0.010 A 
ATOM     42  C   UNL A   1      35.934  31.436  30.467  1.00  0.00     0.010 A 
ATOM     43  C   UNL A   1      37.222  31.682  29.955  1.00  0.00    -0.014 A 
BRANCH  43  44
ATOM     44  C   UNL A   1      38.440  31.166  30.648  1.00  0.00     0.031 A 
ATOM     45  C   UNL A   1      39.311  30.122  29.992  1.00  0.00     0.074 A 
ATOM     46  C   UNL A   1      38.769  31.616  31.877  1.00  0.00     0.049 A 
ATOM     47  N   UNL A   1      40.307  29.439  30.496  1.00  0.00    -0.248 NA
ATOM     48  C   UNL A   1      39.017  29.799  28.586  1.00  0.00     0.031 C 
ATOM     49  C   UNL A   1      38.036  32.633  32.631  1.00  0.00     0.029 A 
ATOM     50  N   UNL A   1      39.796  31.257  32.720  1.00  0.00    -0.354 N 
ATOM     51  C   UNL A   1      40.712  28.558  29.498  1.00  0.00     0.074 A 
ATOM     52  C   UNL A   1      39.861  28.803  28.353  1.00  0.00     0.031 C 
ATOM     53  C   UNL A   1      38.630  32.815  33.820  1.00  0.00     0.029 A 
ATOM     54  C   UNL A   1      39.743  31.879  33.946  1.00  0.00     0.049 A 
ATOM     55  H   UNL A   1      40.501  30.616  32.469  1.00  0.00     0.167 HD
ATOM     56  C   UNL A   1      41.705  27.635  29.527  1.00  0.00     0.034 A 
ATOM     57  C   UNL A   1      40.470  31.690  35.065  1.00  0.00     0.034 A 
ATOM     58  C   UNL A   1      42.601  27.437  30.637  1.00  0.00     0.049 A 
ATOM     59  C   UNL A   1      41.564  30.657  35.072  1.00  0.00     0.074 A 
ATOM     60  C   UNL A   1      43.670  26.562  30.733  1.00  0.00     0.029 A 
ATOM     61  N   UNL A   1      42.541  28.125  31.839  1.00  0.00    -0.354 N 
ATOM     62  N   UNL A   1      41.973  29.882  34.099  1.00  0.00    -0.248 NA
ATOM     63  C   UNL A   1      42.307  30.484  36.329  1.00  0.00     0.031 C 
ATOM     64  C   UNL A   1      44.247  26.711  31.999  1.00  0.00     0.029 A 
ATOM     65  C   UNL A   1      43.549  27.692  32.684  1.00  0.00     0.049 A 
ATOM     66  H   UNL A   1      41.878  28.818  32.060  1.00  0.00     0.167 HD
ATOM     67  C   UNL A   1      43.036  29.150  34.616  1.00  0.00     0.074 A 
ATOM     68  C   UNL A   1      43.225  29.592  35.981  1.00  0.00     0.031 C 
ATOM     69  C   UNL A   1      43.773  28.181  34.019  1.00  0.00     0.034 A 
BRANCH  56  70
ATOM     70  C   UNL A   1      41.905  26.772  28.307  1.00  0.00     0.023 A 
ATOM     71  C   UNL A   1      42.864  27.137  27.340  1.00  0.00     0.012 A 
ATOM     72  C   UNL A   1      41.202  25.560  28.159  1.00  0.00     0.148 A 
ATOM     73  C   UNL A   1      43.100  26.323  26.233  1.00  0.00     0.002 A 
ATOM     74  C   UNL A   1      41.471  24.734  27.074  1.00  0.00     0.091 A 
ATOM     75  F   UNL A   1      40.281  25.239  29.080  1.00  0.00    -0.205 F 
ATOM     76  C   UNL A   1      42.412  25.118  26.105  1.00  0.00     0.022 A 
BRANCH  74  77
ATOM     77  S   UNL A   1      40.696  23.125  26.865  1.00  0.00     0.127 S 
ATOM     78  O   UNL A   1      39.302  23.497  26.631  1.00  0.00    -0.237 OA
ATOM     79  O   UNL A   1      41.391  22.597  25.692  1.00  0.00    -0.237 OA
ATOM     80  O   UNL A   1      40.950  22.395  28.099  1.00  0.00    -0.744 OA
ENDBRANCH  74  77
ENDBRANCH  56  70
BRANCH  57  81
ATOM     81  C   UNL A   1      40.187  32.505  36.281  1.00  0.00     0.023 A 
ATOM     82  C   UNL A   1      40.956  33.656  36.539  1.00  0.00     0.012 A 
ATOM     83  C   UNL A   1      39.146  32.162  37.166  1.00  0.00     0.148 A 
ATOM     84  C   UNL A   1      40.709  34.437  37.668  1.00  0.00     0.002 A 
ATOM     85  C   UNL A   1      38.865  32.978  38.255  1.00  0.00     0.091 A 
ATOM     86  F   UNL A   1      38.444  31.047  36.920  1.00  0.00    -0.205 F 
ATOM     87  C   UNL A   1      39.656  34.107  38.518  1.00  0.00     0.022 A 
BRANCH  85  88
ATOM     88  S   UNL A   1      37.438  32.703  39.311  1.00  0.00     0.127 S 
ATOM     89  O   UNL A   1      37.547  33.813  40.254  1.00  0.00    -0.237 OA
ATOM     90  O   UNL A   1      36.331  32.807  38.360  1.00  0.00    -0.237 OA
ATOM     91  O   UNL A   1      37.621  31.369  39.869  1.00  0.00    -0.744 OA
ENDBRANCH  85  88
ENDBRANCH  57  81
BRANCH  69  92
ATOM     92  C   UNL A   1      44.884  27.555  34.820  1.00  0.00     0.023 A 
ATOM     93  C   UNL A   1      46.193  28.064  34.716  1.00  0.00     0.012 A 
ATOM     94  C   UNL A   1      44.618  26.510  35.727  1.00  0.00     0.148 A 
ATOM     95  C   UNL A   1      47.226  27.524  35.481  1.00  0.00     0.002 A 
ATOM     96  C   UNL A   1      45.645  26.006  36.518  1.00  0.00     0.091 A 
ATOM     97  F   UNL A   1      43.370  26.024  35.797  1.00  0.00    -0.205 F 
ATOM     98  C   UNL A   1      46.950  26.504  36.389  1.00  0.00     0.022 A 
BRANCH  96  99
ATOM     99  S   UNL A   1      45.362  24.754  37.775  1.00  0.00     0.127 S 
ATOM    100  O   UNL A   1      44.936  23.612  36.968  1.00  0.00    -0.237 OA
ATOM    101  O   UNL A   1      46.686  24.612  38.380  1.00  0.00    -0.237 OA
ATOM    102  O   UNL A   1      44.349  25.304  38.666  1.00  0.00    -0.744 OA
ENDBRANCH  96  99
ENDBRANCH  69  92
ENDBRANCH  43  44
ENDBRANCH  36  38
ENDBRANCH  35  36
ENDBRANCH  34  35
ENDBRANCH   1  34
TORSDOF 19
ENDMDL
MODEL 3
REMARK VINA RESULT:     -11.9      4.695     10.064
REMARK SMILES COC(=O)c1c(NC(=O)[C@@H]2[C@H]3CC[C@H](CC3)[C@H]2C(=O)OCCOC(=O)c2ccc(-c3c4nc(c(-c5cccc(S(=O)(=O)[O-])c5F)c5ccc([nH]5)c(-c5cccc(S(=O)(=O)[O-])c5F)c5nc(c(-c6cccc(S(=O)(=O)[O-])c6F)c6ccc3[nH]6)C=C5)C=C4)cc2)sc(C)c1-c1ccc(C)cc1
REMARK SMILES IDX 21 1 20 2 18 3 19 4 17 5 10 6 11 7 12 8 16 9 14 10 13 11
REMARK SMILES IDX 15 12 8 13 7 14 9 16 6 17 5 18 92 19 89 20 90 21 91 22 3 23
REMARK SMILES IDX 4 24 2 25 1 26 93 27 94 28 99 29 95 30 98 31 96 32 97 33
REMARK SMILES IDX 22 34 23 35 24 36 25 37 26 38 27 39 88 40 28 41 87 42 29 43
REMARK SMILES IDX 30 44 31 45 81 46 32 47 86 48 80 49 82 50 33 51 85 52 79 53
REMARK SMILES IDX 78 54 34 56 66 57 46 58 65 59 47 60 50 61 64 62 83 63 48 64
REMARK SMILES IDX 49 65 63 67 84 68 51 69 35 70 36 71 44 72 37 73 39 74 45 75
REMARK SMILES IDX 38 76 40 77 41 78 42 79 43 80 67 81 68 82 76 83 69 84 71 85
REMARK SMILES IDX 77 86 70 87 72 88 73 89 74 90 75 91 52 92 53 93 61 94 54 95
REMARK SMILES IDX 56 96 62 97 55 98 57 99 58 100 59 101 60 102
REMARK H PARENT 7 15 82 55 50 66
REMARK Flexibility Score: inf
ROOT
ATOM      1  C   UNL A   1      33.782  29.030  27.785  1.00  0.00     0.274 C 
ENDROOT
BRANCH   1   2
ATOM      2  O   UNL A   1      33.479  28.104  26.720  1.00  0.00    -0.462 OA
BRANCH   2   3
ATOM      3  C   UNL A   1      32.168  27.814  26.582  1.00  0.00     0.310 C 
ATOM      4  O   UNL A   1      31.342  27.902  27.489  1.00  0.00    -0.252 OA
BRANCH   3   5
ATOM      5  C   UNL A   1      31.736  27.361  25.195  1.00  0.00     0.115 C 
ATOM      6  C   UNL A   1      30.272  27.210  24.810  1.00  0.00     0.096 C 
ATOM      7  C   UNL A   1      29.945  28.236  23.679  1.00  0.00     0.002 C 
ATOM      8  C   UNL A   1      30.457  29.641  24.086  1.00  0.00     0.005 C 
ATOM      9  C   UNL A   1      30.678  27.833  22.391  1.00  0.00     0.005 C 
ATOM     10  C   UNL A   1      32.495  28.192  24.122  1.00  0.00     0.004 C 
ATOM     11  C   UNL A   1      31.988  29.640  24.232  1.00  0.00     0.005 C 
ATOM     12  C   UNL A   1      32.180  27.759  22.668  1.00  0.00     0.005 C 
BRANCH   6  13
ATOM     13  C   UNL A   1      29.693  25.812  24.428  1.00  0.00     0.229 C 
ATOM     14  N   UNL A   1      30.185  24.545  24.510  1.00  0.00    -0.317 N 
ATOM     15  H   UNL A   1      29.624  23.944  23.967  1.00  0.00     0.170 HD
ATOM     16  O   UNL A   1      28.619  25.860  23.789  1.00  0.00    -0.274 OA
BRANCH  14  17
ATOM     17  C   UNL A   1      31.211  23.802  25.096  1.00  0.00     0.111 A 
ATOM     18  C   UNL A   1      32.313  23.220  24.454  1.00  0.00     0.102 A 
ATOM     19  C   UNL A   1      33.179  22.527  25.412  1.00  0.00     0.012 A 
ATOM     20  S   UNL A   1      31.193  23.328  26.703  1.00  0.00    -0.122 S 
ATOM     21  C   UNL A   1      32.711  22.637  26.706  1.00  0.00     0.012 A 
ATOM     22  C   UNL A   1      33.265  22.198  28.021  1.00  0.00     0.057 C 
BRANCH  18  23
ATOM     23  C   UNL A   1      32.517  23.313  23.005  1.00  0.00     0.341 C 
ATOM     24  O   UNL A   1      32.309  24.338  22.373  1.00  0.00    -0.246 OA
BRANCH  23  25
ATOM     25  O   UNL A   1      32.930  22.139  22.456  1.00  0.00    -0.465 OA
ATOM     26  C   UNL A   1      31.907  21.234  22.041  1.00  0.00     0.282 C 
ENDBRANCH  23  25
ENDBRANCH  18  23
BRANCH  19  27
ATOM     27  C   UNL A   1      34.398  21.771  25.182  1.00  0.00    -0.016 A 
ATOM     28  C   UNL A   1      35.646  22.393  25.196  1.00  0.00     0.009 A 
ATOM     29  C   UNL A   1      34.308  20.381  25.028  1.00  0.00     0.009 A 
ATOM     30  C   UNL A   1      36.803  21.621  25.071  1.00  0.00     0.004 A 
ATOM     31  C   UNL A   1      35.462  19.612  24.921  1.00  0.00     0.004 A 
ATOM     32  C   UNL A   1      36.718  20.226  24.950  1.00  0.00    -0.051 A 
ATOM     33  C   UNL A   1      37.962  19.402  24.812  1.00  0.00     0.044 C 
ENDBRANCH  19  27
ENDBRANCH  14  17
ENDBRANCH   6  13
ENDBRANCH   3   5
ENDBRANCH   2   3
ENDBRANCH   1   2
BRANCH   1  34
ATOM     34  C   UNL A   1      33.925  30.461  27.265  1.00  0.00     0.275 C 
BRANCH  34  35
ATOM     35  O   UNL A   1      34.089  31.418  28.330  1.00  0.00    -0.458 OA
BRANCH  35  36
ATOM     36  C   UNL A   1      35.192  32.194  28.218  1.00  0.00     0.338 C 
ATOM     37  O   UNL A   1      35.282  33.263  27.635  1.00  0.00    -0.246 OA
BRANCH  36  38
ATOM     38  C   UNL A   1      36.316  31.618  28.971  1.00  0.00     0.060 A 
ATOM     39  C   UNL A   1      37.586  32.144  28.753  1.00  0.00     0.016 A 
ATOM     40  C   UNL A   1      36.155  30.465  29.737  1.00  0.00     0.016 A 
ATOM     41  C   UNL A   1      38.712  31.479  29.237  1.00  0.00     0.010 A 
ATOM     42  C   UNL A   1      37.285  29.835  30.278  1.00  0.00     0.010 A 
ATOM     43  C   UNL A   1      38.581  30.313  30.005  1.00  0.00    -0.014 A 
BRANCH  43  44
ATOM     44  C   UNL A   1      39.790  29.584  30.492  1.00  0.00     0.031 A 
ATOM     45  C   UNL A   1      40.478  30.006  31.767  1.00  0.00     0.074 A 
ATOM     46  C   UNL A   1      40.292  28.547  29.788  1.00  0.00     0.049 A 
ATOM     47  N   UNL A   1      41.622  29.607  32.262  1.00  0.00    -0.248 NA
ATOM     48  C   UNL A   1      39.792  31.017  32.589  1.00  0.00     0.031 C 
ATOM     49  C   UNL A   1      39.730  28.013  28.548  1.00  0.00     0.029 A 
ATOM     50  N   UNL A   1      41.407  27.769  30.006  1.00  0.00    -0.354 N 
ATOM     51  C   UNL A   1      41.828  30.364  33.411  1.00  0.00     0.074 A 
ATOM     52  C   UNL A   1      40.683  31.238  33.547  1.00  0.00     0.031 C 
ATOM     53  C   UNL A   1      40.498  27.002  28.114  1.00  0.00     0.029 A 
ATOM     54  C   UNL A   1      41.647  26.860  29.002  1.00  0.00     0.049 A 
ATOM     55  H   UNL A   1      41.977  27.856  30.804  1.00  0.00     0.167 HD
ATOM     56  C   UNL A   1      42.870  30.331  34.279  1.00  0.00     0.034 A 
ATOM     57  C   UNL A   1      42.692  26.037  28.786  1.00  0.00     0.034 A 
ATOM     58  C   UNL A   1      43.975  29.413  34.190  1.00  0.00     0.049 A 
ATOM     59  C   UNL A   1      43.837  26.022  29.762  1.00  0.00     0.074 A 
ATOM     60  C   UNL A   1      45.047  29.272  35.055  1.00  0.00     0.029 A 
ATOM     61  N   UNL A   1      44.151  28.476  33.183  1.00  0.00    -0.354 N 
ATOM     62  N   UNL A   1      43.981  26.698  30.875  1.00  0.00    -0.248 NA
ATOM     63  C   UNL A   1      44.957  25.119  29.460  1.00  0.00     0.031 C 
ATOM     64  C   UNL A   1      45.879  28.259  34.563  1.00  0.00     0.029 A 
ATOM     65  C   UNL A   1      45.314  27.757  33.402  1.00  0.00     0.049 A 
ATOM     66  H   UNL A   1      43.539  28.343  32.423  1.00  0.00     0.167 HD
ATOM     67  C   UNL A   1      45.192  26.283  31.419  1.00  0.00     0.074 A 
ATOM     68  C   UNL A   1      45.729  25.278  30.526  1.00  0.00     0.031 C 
ATOM     69  C   UNL A   1      45.813  26.714  32.544  1.00  0.00     0.034 A 
BRANCH  56  70
ATOM     70  C   UNL A   1      42.861  31.301  35.432  1.00  0.00     0.023 A 
ATOM     71  C   UNL A   1      42.317  30.911  36.673  1.00  0.00     0.012 A 
ATOM     72  C   UNL A   1      43.463  32.570  35.311  1.00  0.00     0.148 A 
ATOM     73  C   UNL A   1      42.350  31.777  37.765  1.00  0.00     0.002 A 
ATOM     74  C   UNL A   1      43.528  33.412  36.415  1.00  0.00     0.091 A 
ATOM     75  F   UNL A   1      43.959  32.930  34.118  1.00  0.00    -0.205 F 
ATOM     76  C   UNL A   1      42.963  33.022  37.640  1.00  0.00     0.022 A 
BRANCH  74  77
ATOM     77  S   UNL A   1      44.369  35.000  36.374  1.00  0.00     0.127 S 
ATOM     78  O   UNL A   1      44.209  35.455  37.754  1.00  0.00    -0.237 OA
ATOM     79  O   UNL A   1      45.734  34.618  36.013  1.00  0.00    -0.237 OA
ATOM     80  O   UNL A   1      43.677  35.794  35.369  1.00  0.00    -0.744 OA
ENDBRANCH  74  77
ENDBRANCH  56  70
BRANCH  57  81
ATOM     81  C   UNL A   1      42.705  25.151  27.587  1.00  0.00     0.023 A 
ATOM     82  C   UNL A   1      43.300  25.604  26.395  1.00  0.00     0.012 A 
ATOM     83  C   UNL A   1      42.154  23.855  27.631  1.00  0.00     0.148 A 
ATOM     84  C   UNL A   1      43.327  24.792  25.261  1.00  0.00     0.002 A 
ATOM     85  C   UNL A   1      42.240  23.028  26.517  1.00  0.00     0.091 A 
ATOM     86  F   UNL A   1      41.566  23.451  28.765  1.00  0.00    -0.205 F 
ATOM     87  C   UNL A   1      42.811  23.500  25.326  1.00  0.00     0.022 A 
BRANCH  85  88
ATOM     88  S   UNL A   1      41.730  21.306  26.564  1.00  0.00     0.127 S 
ATOM     89  O   UNL A   1      40.276  21.423  26.501  1.00  0.00    -0.237 OA
ATOM     90  O   UNL A   1      42.359  20.769  25.356  1.00  0.00    -0.237 OA
ATOM     91  O   UNL A   1      42.276  20.775  27.807  1.00  0.00    -0.744 OA
ENDBRANCH  85  88
ENDBRANCH  57  81
BRANCH  69  92
ATOM     92  C   UNL A   1      47.128  26.075  32.905  1.00  0.00     0.023 A 
ATOM     93  C   UNL A   1      48.333  26.701  32.533  1.00  0.00     0.012 A 
ATOM     94  C   UNL A   1      47.169  24.894  33.673  1.00  0.00     0.148 A 
ATOM     95  C   UNL A   1      49.561  26.145  32.896  1.00  0.00     0.002 A 
ATOM     96  C   UNL A   1      48.395  24.370  34.067  1.00  0.00     0.091 A 
ATOM     97  F   UNL A   1      46.010  24.302  33.999  1.00  0.00    -0.205 F 
ATOM     98  C   UNL A   1      49.591  24.988  33.671  1.00  0.00     0.022 A 
BRANCH  96  99
ATOM     99  S   UNL A   1      48.525  22.935  35.139  1.00  0.00     0.127 S 
ATOM    100  O   UNL A   1      48.656  23.557  36.456  1.00  0.00    -0.237 OA
ATOM    101  O   UNL A   1      47.249  22.256  34.911  1.00  0.00    -0.237 OA
ATOM    102  O   UNL A   1      49.691  22.196  34.677  1.00  0.00    -0.744 OA
ENDBRANCH  96  99
ENDBRANCH  69  92
ENDBRANCH  43  44
ENDBRANCH  36  38
ENDBRANCH  35  36
ENDBRANCH  34  35
ENDBRANCH   1  34
TORSDOF 19
ENDMDL
