MODEL 1
REMARK VINA RESULT:     -11.4      0.000      0.000
REMARK SMILES O=C(Cc1ccc(NC(=O)C2CCCC2)cc1)OCCOC(=O)c1ccc(-c2c3nc(c(-c4cccc(S(=O)(=O)[O-])c4F)c4ccc([nH]4)c(-c4cccc(S(=O)(=O)[O-])c4F)c4nc(c(-c5cccc(S(=O)(=O)[O-])c5F)c5ccc2[nH]5)C=C4)C=C3)cc1
REMARK SMILES IDX 19 1 18 2 2 3 1 4 3 5 4 6 5 7 17 8 6 9 16 10 7 11 8 12 9 13
REMARK SMILES IDX 10 15 11 16 12 17 15 18 13 19 14 20 20 21 21 22 22 23 23 24
REMARK SMILES IDX 24 25 25 26 86 27 26 28 85 29 27 30 28 31 29 32 79 33 30 34
REMARK SMILES IDX 84 35 78 36 80 37 31 38 83 39 77 40 76 41 32 43 64 44 44 45
REMARK SMILES IDX 63 46 45 47 48 48 62 49 81 50 46 51 47 52 61 54 82 55 49 56
REMARK SMILES IDX 33 57 34 58 42 59 35 60 37 61 43 62 36 63 38 64 39 65 40 66
REMARK SMILES IDX 41 67 65 68 66 69 74 70 67 71 69 72 75 73 68 74 70 75 71 76
REMARK SMILES IDX 72 77 73 78 50 79 51 80 59 81 52 82 54 83 60 84 53 85 55 86
REMARK SMILES IDX 56 87 57 88 58 89
REMARK H PARENT 8 14 80 42 48 53
REMARK Flexibility Score: inf
ROOT
ATOM      1  C   UNL A   1      36.202  20.358  25.001  1.00  0.00     0.274 C 
ENDROOT
BRANCH   1   2
ATOM      2  O   UNL A   1      35.932  21.489  25.849  1.00  0.00    -0.462 OA
BRANCH   2   3
ATOM      3  C   UNL A   1      35.659  22.687  25.263  1.00  0.00     0.310 C 
ATOM      4  O   UNL A   1      35.773  23.737  25.889  1.00  0.00    -0.252 OA
BRANCH   3   5
ATOM      5  C   UNL A   1      35.086  22.614  23.866  1.00  0.00     0.158 C 
BRANCH   5   6
ATOM      6  C   UNL A   1      33.686  23.124  23.678  1.00  0.00    -0.037 A 
ATOM      7  C   UNL A   1      32.685  22.618  24.512  1.00  0.00     0.006 A 
ATOM      8  C   UNL A   1      33.324  23.996  22.648  1.00  0.00     0.006 A 
ATOM      9  C   UNL A   1      31.382  23.101  24.419  1.00  0.00     0.026 A 
ATOM     10  C   UNL A   1      32.019  24.483  22.563  1.00  0.00     0.026 A 
ATOM     11  C   UNL A   1      31.079  24.128  23.531  1.00  0.00     0.041 A 
BRANCH  11  12
ATOM     12  N   UNL A   1      29.918  24.912  23.595  1.00  0.00    -0.326 N 
ATOM     13  C   UNL A   1      29.741  26.203  24.032  1.00  0.00     0.227 C 
ATOM     14  H   UNL A   1      29.100  24.468  23.276  1.00  0.00     0.169 HD
ATOM     15  O   UNL A   1      28.624  26.703  23.876  1.00  0.00    -0.274 OA
BRANCH  13  16
ATOM     16  C   UNL A   1      30.897  26.991  24.630  1.00  0.00     0.079 C 
ATOM     17  C   UNL A   1      30.810  28.507  24.443  1.00  0.00     0.013 C 
ATOM     18  C   UNL A   1      31.016  26.914  26.151  1.00  0.00     0.013 C 
ATOM     19  C   UNL A   1      31.945  29.015  25.321  1.00  0.00     0.001 C 
ATOM     20  C   UNL A   1      32.014  28.026  26.486  1.00  0.00     0.001 C 
ENDBRANCH  13  16
ENDBRANCH  11  12
ENDBRANCH   5   6
ENDBRANCH   3   5
ENDBRANCH   2   3
ENDBRANCH   1   2
BRANCH   1  21
ATOM     21  C   UNL A   1      37.672  19.931  25.018  1.00  0.00     0.275 C 
BRANCH  21  22
ATOM     22  O   UNL A   1      38.545  21.060  25.196  1.00  0.00    -0.458 OA
BRANCH  22  23
ATOM     23  C   UNL A   1      39.585  20.845  26.044  1.00  0.00     0.338 C 
ATOM     24  O   UNL A   1      40.241  19.819  26.126  1.00  0.00    -0.246 OA
BRANCH  23  25
ATOM     25  C   UNL A   1      39.949  22.096  26.755  1.00  0.00     0.060 A 
ATOM     26  C   UNL A   1      39.260  23.262  26.393  1.00  0.00     0.016 A 
ATOM     27  C   UNL A   1      40.940  22.151  27.741  1.00  0.00     0.016 A 
ATOM     28  C   UNL A   1      39.620  24.492  26.942  1.00  0.00     0.010 A 
ATOM     29  C   UNL A   1      41.301  23.388  28.294  1.00  0.00     0.010 A 
ATOM     30  C   UNL A   1      40.682  24.571  27.852  1.00  0.00    -0.014 A 
BRANCH  30  31
ATOM     31  C   UNL A   1      41.275  25.903  28.145  1.00  0.00     0.031 A 
ATOM     32  C   UNL A   1      42.657  26.201  27.621  1.00  0.00     0.074 A 
ATOM     33  C   UNL A   1      40.598  26.855  28.813  1.00  0.00     0.049 A 
ATOM     34  N   UNL A   1      43.325  27.325  27.636  1.00  0.00    -0.248 NA
ATOM     35  C   UNL A   1      43.382  25.081  26.997  1.00  0.00     0.031 C 
ATOM     36  C   UNL A   1      39.265  26.702  29.393  1.00  0.00     0.029 A 
ATOM     37  N   UNL A   1      40.954  28.146  29.119  1.00  0.00    -0.354 N 
ATOM     38  C   UNL A   1      44.546  27.047  27.034  1.00  0.00     0.074 A 
ATOM     39  C   UNL A   1      44.542  25.642  26.693  1.00  0.00     0.031 C 
ATOM     40  C   UNL A   1      38.920  27.855  29.997  1.00  0.00     0.029 A 
ATOM     41  C   UNL A   1      40.003  28.826  29.843  1.00  0.00     0.049 A 
ATOM     42  H   UNL A   1      41.811  28.546  28.846  1.00  0.00     0.167 HD
ATOM     43  C   UNL A   1      45.572  27.886  26.757  1.00  0.00     0.034 A 
ATOM     44  C   UNL A   1      40.004  30.090  30.314  1.00  0.00     0.034 A 
ATOM     45  C   UNL A   1      45.581  29.287  27.072  1.00  0.00     0.049 A 
ATOM     46  C   UNL A   1      41.162  31.006  29.997  1.00  0.00     0.074 A 
ATOM     47  C   UNL A   1      46.553  30.228  26.779  1.00  0.00     0.029 A 
ATOM     48  N   UNL A   1      44.579  29.948  27.764  1.00  0.00    -0.354 N 
ATOM     49  N   UNL A   1      42.230  30.772  29.274  1.00  0.00    -0.248 NA
ATOM     50  C   UNL A   1      41.087  32.380  30.522  1.00  0.00     0.031 C 
ATOM     51  C   UNL A   1      46.147  31.456  27.314  1.00  0.00     0.029 A 
ATOM     52  C   UNL A   1      44.913  31.283  27.917  1.00  0.00     0.049 A 
ATOM     53  H   UNL A   1      43.753  29.531  28.096  1.00  0.00     0.167 HD
ATOM     54  C   UNL A   1      42.924  31.978  29.214  1.00  0.00     0.074 A 
ATOM     55  C   UNL A   1      42.150  32.943  29.963  1.00  0.00     0.031 C 
ATOM     56  C   UNL A   1      44.103  32.257  28.601  1.00  0.00     0.034 A 
BRANCH  43  57
ATOM     57  C   UNL A   1      46.760  27.311  26.036  1.00  0.00     0.023 A 
ATOM     58  C   UNL A   1      46.813  27.376  24.628  1.00  0.00     0.012 A 
ATOM     59  C   UNL A   1      47.835  26.746  26.746  1.00  0.00     0.148 A 
ATOM     60  C   UNL A   1      47.907  26.859  23.936  1.00  0.00     0.002 A 
ATOM     61  C   UNL A   1      48.941  26.271  26.051  1.00  0.00     0.091 A 
ATOM     62  F   UNL A   1      47.751  26.670  28.081  1.00  0.00    -0.205 F 
ATOM     63  C   UNL A   1      48.974  26.316  24.648  1.00  0.00     0.022 A 
BRANCH  61  64
ATOM     64  S   UNL A   1      50.392  25.618  26.882  1.00  0.00     0.127 S 
ATOM     65  O   UNL A   1      49.838  24.455  27.573  1.00  0.00    -0.237 OA
ATOM     66  O   UNL A   1      51.275  25.297  25.760  1.00  0.00    -0.237 OA
ATOM     67  O   UNL A   1      50.874  26.689  27.744  1.00  0.00    -0.744 OA
ENDBRANCH  61  64
ENDBRANCH  43  57
BRANCH  44  68
ATOM     68  C   UNL A   1      38.831  30.605  31.078  1.00  0.00     0.023 A 
ATOM     69  C   UNL A   1      38.800  30.461  32.479  1.00  0.00     0.012 A 
ATOM     70  C   UNL A   1      37.747  31.219  30.425  1.00  0.00     0.148 A 
ATOM     71  C   UNL A   1      37.692  30.887  33.213  1.00  0.00     0.002 A 
ATOM     72  C   UNL A   1      36.668  31.688  31.168  1.00  0.00     0.091 A 
ATOM     73  F   UNL A   1      37.788  31.330  29.090  1.00  0.00    -0.205 F 
ATOM     74  C   UNL A   1      36.631  31.506  32.559  1.00  0.00     0.022 A 
BRANCH  72  75
ATOM     75  S   UNL A   1      35.313  32.603  30.424  1.00  0.00     0.127 S 
ATOM     76  O   UNL A   1      34.391  32.738  31.549  1.00  0.00    -0.237 OA
ATOM     77  O   UNL A   1      35.976  33.842  30.016  1.00  0.00    -0.237 OA
ATOM     78  O   UNL A   1      34.848  31.780  29.316  1.00  0.00    -0.744 OA
ENDBRANCH  72  75
ENDBRANCH  44  68
BRANCH  56  79
ATOM     79  C   UNL A   1      44.615  33.674  28.660  1.00  0.00     0.023 A 
ATOM     80  C   UNL A   1      44.247  34.597  27.663  1.00  0.00     0.012 A 
ATOM     81  C   UNL A   1      45.394  34.111  29.752  1.00  0.00     0.148 A 
ATOM     82  C   UNL A   1      44.675  35.924  27.731  1.00  0.00     0.002 A 
ATOM     83  C   UNL A   1      45.776  35.446  29.838  1.00  0.00     0.091 A 
ATOM     84  F   UNL A   1      45.752  33.216  30.684  1.00  0.00    -0.205 F 
ATOM     85  C   UNL A   1      45.427  36.351  28.823  1.00  0.00     0.022 A 
BRANCH  83  86
ATOM     86  S   UNL A   1      46.658  36.095  31.263  1.00  0.00     0.127 S 
ATOM     87  O   UNL A   1      46.716  37.522  30.954  1.00  0.00    -0.237 OA
ATOM     88  O   UNL A   1      45.768  35.748  32.371  1.00  0.00    -0.237 OA
ATOM     89  O   UNL A   1      47.939  35.401  31.283  1.00  0.00    -0.744 OA
ENDBRANCH  83  86
ENDBRANCH  56  79
ENDBRANCH  30  31
ENDBRANCH  23  25
ENDBRANCH  22  23
ENDBRANCH  21  22
ENDBRANCH   1  21
TORSDOF 17
ENDMDL
MODEL 2
REMARK VINA RESULT:     -11.4      4.626     10.110
REMARK SMILES O=C(Cc1ccc(NC(=O)C2CCCC2)cc1)OCCOC(=O)c1ccc(-c2c3nc(c(-c4cccc(S(=O)(=O)[O-])c4F)c4ccc([nH]4)c(-c4cccc(S(=O)(=O)[O-])c4F)c4nc(c(-c5cccc(S(=O)(=O)[O-])c5F)c5ccc2[nH]5)C=C4)C=C3)cc1
REMARK SMILES IDX 19 1 18 2 2 3 1 4 3 5 4 6 5 7 17 8 6 9 16 10 7 11 8 12 9 13
REMARK SMILES IDX 10 15 11 16 12 17 15 18 13 19 14 20 20 21 21 22 22 23 23 24
REMARK SMILES IDX 24 25 25 26 86 27 26 28 85 29 27 30 28 31 29 32 79 33 30 34
REMARK SMILES IDX 84 35 78 36 80 37 31 38 83 39 77 40 76 41 32 43 64 44 44 45
REMARK SMILES IDX 63 46 45 47 48 48 62 49 81 50 46 51 47 52 61 54 82 55 49 56
REMARK SMILES IDX 33 57 34 58 42 59 35 60 37 61 43 62 36 63 38 64 39 65 40 66
REMARK SMILES IDX 41 67 65 68 66 69 74 70 67 71 69 72 75 73 68 74 70 75 71 76
REMARK SMILES IDX 72 77 73 78 50 79 51 80 59 81 52 82 54 83 60 84 53 85 55 86
REMARK SMILES IDX 56 87 57 88 58 89
REMARK H PARENT 8 14 80 42 48 53
REMARK Flexibility Score: inf
ROOT
ATOM      1  C   UNL A   1      31.408  30.404  25.423  1.00  0.00     0.274 C 
ENDROOT
BRANCH   1   2
ATOM      2  O   UNL A   1      32.700  29.794  25.248  1.00  0.00    -0.462 OA
BRANCH   2   3
ATOM      3  C   UNL A   1      32.790  28.437  25.309  1.00  0.00     0.310 C 
ATOM      4  O   UNL A   1      33.858  27.866  25.115  1.00  0.00    -0.252 OA
BRANCH   3   5
ATOM      5  C   UNL A   1      31.480  27.706  25.489  1.00  0.00     0.158 C 
BRANCH   5   6
ATOM      6  C   UNL A   1      31.515  26.208  25.372  1.00  0.00    -0.037 A 
ATOM      7  C   UNL A   1      31.447  25.648  24.093  1.00  0.00     0.006 A 
ATOM      8  C   UNL A   1      31.510  25.356  26.479  1.00  0.00     0.006 A 
ATOM      9  C   UNL A   1      31.537  24.269  23.924  1.00  0.00     0.026 A 
ATOM     10  C   UNL A   1      31.607  23.975  26.306  1.00  0.00     0.026 A 
ATOM     11  C   UNL A   1      31.747  23.442  25.024  1.00  0.00     0.041 A 
BRANCH  11  12
ATOM     12  N   UNL A   1      32.191  22.114  24.941  1.00  0.00    -0.326 N 
ATOM     13  C   UNL A   1      33.465  21.607  24.874  1.00  0.00     0.227 C 
ATOM     14  H   UNL A   1      31.476  21.438  24.930  1.00  0.00     0.169 HD
ATOM     15  O   UNL A   1      33.587  20.379  24.923  1.00  0.00    -0.274 OA
BRANCH  13  16
ATOM     16  C   UNL A   1      34.673  22.531  24.799  1.00  0.00     0.079 C 
ATOM     17  C   UNL A   1      35.183  23.039  26.149  1.00  0.00     0.013 C 
ATOM     18  C   UNL A   1      35.947  21.889  24.254  1.00  0.00     0.013 C 
ATOM     19  C   UNL A   1      36.489  23.723  25.774  1.00  0.00     0.001 C 
ATOM     20  C   UNL A   1      37.034  22.912  24.596  1.00  0.00     0.001 C 
ENDBRANCH  13  16
ENDBRANCH  11  12
ENDBRANCH   5   6
ENDBRANCH   3   5
ENDBRANCH   2   3
ENDBRANCH   1   2
BRANCH   1  21
ATOM     21  C   UNL A   1      31.416  31.546  26.443  1.00  0.00     0.275 C 
BRANCH  21  22
ATOM     22  O   UNL A   1      32.429  31.351  27.444  1.00  0.00    -0.458 OA
BRANCH  22  23
ATOM     23  C   UNL A   1      33.249  32.417  27.637  1.00  0.00     0.338 C 
ATOM     24  O   UNL A   1      32.898  33.581  27.731  1.00  0.00    -0.246 OA
BRANCH  23  25
ATOM     25  C   UNL A   1      34.639  31.968  27.902  1.00  0.00     0.060 A 
ATOM     26  C   UNL A   1      34.847  30.591  28.064  1.00  0.00     0.016 A 
ATOM     27  C   UNL A   1      35.718  32.852  28.006  1.00  0.00     0.016 A 
ATOM     28  C   UNL A   1      36.106  30.105  28.418  1.00  0.00     0.010 A 
ATOM     29  C   UNL A   1      36.984  32.362  28.361  1.00  0.00     0.010 A 
ATOM     30  C   UNL A   1      37.169  30.994  28.626  1.00  0.00    -0.014 A 
BRANCH  30  31
ATOM     31  C   UNL A   1      38.379  30.506  29.338  1.00  0.00     0.031 A 
ATOM     32  C   UNL A   1      38.615  30.977  30.752  1.00  0.00     0.074 A 
ATOM     33  C   UNL A   1      39.231  29.628  28.779  1.00  0.00     0.049 A 
ATOM     34  N   UNL A   1      39.520  30.592  31.613  1.00  0.00    -0.248 NA
ATOM     35  C   UNL A   1      37.707  32.019  31.260  1.00  0.00     0.031 C 
ATOM     36  C   UNL A   1      39.140  29.103  27.418  1.00  0.00     0.029 A 
ATOM     37  N   UNL A   1      40.352  29.027  29.299  1.00  0.00    -0.354 N 
ATOM     38  C   UNL A   1      39.298  31.348  32.758  1.00  0.00     0.074 A 
ATOM     39  C   UNL A   1      38.194  32.236  32.473  1.00  0.00     0.031 C 
ATOM     40  C   UNL A   1      40.172  28.265  27.206  1.00  0.00     0.029 A 
ATOM     41  C   UNL A   1      40.993  28.191  28.415  1.00  0.00     0.049 A 
ATOM     42  H   UNL A   1      40.667  29.181  30.219  1.00  0.00     0.167 HD
ATOM     43  C   UNL A   1      39.931  31.293  33.953  1.00  0.00     0.034 A 
ATOM     44  C   UNL A   1      42.106  27.444  28.570  1.00  0.00     0.034 A 
ATOM     45  C   UNL A   1      41.016  30.402  34.256  1.00  0.00     0.049 A 
ATOM     46  C   UNL A   1      42.797  27.403  29.911  1.00  0.00     0.074 A 
ATOM     47  C   UNL A   1      41.682  30.236  35.457  1.00  0.00     0.029 A 
ATOM     48  N   UNL A   1      41.606  29.538  33.348  1.00  0.00    -0.354 N 
ATOM     49  N   UNL A   1      42.466  27.993  31.035  1.00  0.00    -0.248 NA
ATOM     50  C   UNL A   1      43.992  26.549  30.018  1.00  0.00     0.031 C 
ATOM     51  C   UNL A   1      42.690  29.284  35.270  1.00  0.00     0.029 A 
ATOM     52  C   UNL A   1      42.635  28.842  33.958  1.00  0.00     0.049 A 
ATOM     53  H   UNL A   1      41.333  29.434  32.408  1.00  0.00     0.167 HD
ATOM     54  C   UNL A   1      43.375  27.542  31.988  1.00  0.00     0.074 A 
ATOM     55  C   UNL A   1      44.264  26.620  31.315  1.00  0.00     0.031 C 
ATOM     56  C   UNL A   1      43.470  27.871  33.301  1.00  0.00     0.034 A 
BRANCH  43  57
ATOM     57  C   UNL A   1      39.431  32.201  35.042  1.00  0.00     0.023 A 
ATOM     58  C   UNL A   1      38.419  31.746  35.912  1.00  0.00     0.012 A 
ATOM     59  C   UNL A   1      39.985  33.480  35.231  1.00  0.00     0.148 A 
ATOM     60  C   UNL A   1      37.944  32.565  36.936  1.00  0.00     0.002 A 
ATOM     61  C   UNL A   1      39.536  34.274  36.279  1.00  0.00     0.091 A 
ATOM     62  F   UNL A   1      40.926  33.903  34.375  1.00  0.00    -0.205 F 
ATOM     63  C   UNL A   1      38.509  33.824  37.125  1.00  0.00     0.022 A 
BRANCH  61  64
ATOM     64  S   UNL A   1      40.250  35.881  36.645  1.00  0.00     0.127 S 
ATOM     65  O   UNL A   1      39.800  36.671  35.501  1.00  0.00    -0.237 OA
ATOM     66  O   UNL A   1      39.607  36.224  37.914  1.00  0.00    -0.237 OA
ATOM     67  O   UNL A   1      41.688  35.667  36.734  1.00  0.00    -0.744 OA
ENDBRANCH  61  64
ENDBRANCH  43  57
BRANCH  44  68
ATOM     68  C   UNL A   1      42.605  26.603  27.445  1.00  0.00     0.023 A 
ATOM     69  C   UNL A   1      43.445  27.176  26.470  1.00  0.00     0.012 A 
ATOM     70  C   UNL A   1      42.242  25.248  27.329  1.00  0.00     0.148 A 
ATOM     71  C   UNL A   1      43.884  26.425  25.379  1.00  0.00     0.002 A 
ATOM     72  C   UNL A   1      42.725  24.492  26.267  1.00  0.00     0.091 A 
ATOM     73  F   UNL A   1      41.428  24.726  28.257  1.00  0.00    -0.205 F 
ATOM     74  C   UNL A   1      43.531  25.083  25.282  1.00  0.00     0.022 A 
BRANCH  72  75
ATOM     75  S   UNL A   1      42.420  22.727  26.125  1.00  0.00     0.127 S 
ATOM     76  O   UNL A   1      43.060  22.215  27.334  1.00  0.00    -0.237 OA
ATOM     77  O   UNL A   1      40.957  22.674  26.130  1.00  0.00    -0.237 OA
ATOM     78  O   UNL A   1      43.029  22.326  24.864  1.00  0.00    -0.744 OA
ENDBRANCH  72  75
ENDBRANCH  44  68
BRANCH  56  79
ATOM     79  C   UNL A   1      44.537  27.196  34.126  1.00  0.00     0.023 A 
ATOM     80  C   UNL A   1      45.816  27.777  34.234  1.00  0.00     0.012 A 
ATOM     81  C   UNL A   1      44.245  26.028  34.862  1.00  0.00     0.148 A 
ATOM     82  C   UNL A   1      46.797  27.189  35.033  1.00  0.00     0.002 A 
ATOM     83  C   UNL A   1      45.214  25.475  35.693  1.00  0.00     0.091 A 
ATOM     84  F   UNL A   1      43.030  25.476  34.733  1.00  0.00    -0.205 F 
ATOM     85  C   UNL A   1      46.494  26.047  35.771  1.00  0.00     0.022 A 
BRANCH  83  86
ATOM     86  S   UNL A   1      44.867  24.066  36.753  1.00  0.00     0.127 S 
ATOM     87  O   UNL A   1      44.511  23.038  35.778  1.00  0.00    -0.237 OA
ATOM     88  O   UNL A   1      46.151  23.851  37.423  1.00  0.00    -0.237 OA
ATOM     89  O   UNL A   1      43.794  24.494  37.640  1.00  0.00    -0.744 OA
ENDBRANCH  83  86
ENDBRANCH  56  79
ENDBRANCH  30  31
ENDBRANCH  23  25
ENDBRANCH  22  23
ENDBRANCH  21  22
ENDBRANCH   1  21
TORSDOF 17
ENDMDL
MODEL 3
REMARK VINA RESULT:     -11.4      1.474      1.827
REMARK SMILES O=C(Cc1ccc(NC(=O)C2CCCC2)cc1)OCCOC(=O)c1ccc(-c2c3nc(c(-c4cccc(S(=O)(=O)[O-])c4F)c4ccc([nH]4)c(-c4cccc(S(=O)(=O)[O-])c4F)c4nc(c(-c5cccc(S(=O)(=O)[O-])c5F)c5ccc2[nH]5)C=C4)C=C3)cc1
REMARK SMILES IDX 19 1 18 2 2 3 1 4 3 5 4 6 5 7 17 8 6 9 16 10 7 11 8 12 9 13
REMARK SMILES IDX 10 15 11 16 12 17 15 18 13 19 14 20 20 21 21 22 22 23 23 24
REMARK SMILES IDX 24 25 25 26 86 27 26 28 85 29 27 30 28 31 29 32 79 33 30 34
REMARK SMILES IDX 84 35 78 36 80 37 31 38 83 39 77 40 76 41 32 43 64 44 44 45
REMARK SMILES IDX 63 46 45 47 48 48 62 49 81 50 46 51 47 52 61 54 82 55 49 56
REMARK SMILES IDX 33 57 34 58 42 59 35 60 37 61 43 62 36 63 38 64 39 65 40 66
REMARK SMILES IDX 41 67 65 68 66 69 74 70 67 71 69 72 75 73 68 74 70 75 71 76
REMARK SMILES IDX 72 77 73 78 50 79 51 80 59 81 52 82 54 83 60 84 53 85 55 86
REMARK SMILES IDX 56 87 57 88 58 89
REMARK H PARENT 8 14 80 42 48 53
REMARK Flexibility Score: inf
ROOT
ATOM      1  C   UNL A   1      35.678  21.756  25.571  1.00  0.00     0.274 C 
ENDROOT
BRANCH   1   2
ATOM      2  O   UNL A   1      34.473  21.003  25.798  1.00  0.00    -0.462 OA
BRANCH   2   3
ATOM      3  C   UNL A   1      33.287  21.540  25.397  1.00  0.00     0.310 C 
ATOM      4  O   UNL A   1      32.422  21.842  26.213  1.00  0.00    -0.252 OA
BRANCH   3   5
ATOM      5  C   UNL A   1      33.074  21.600  23.902  1.00  0.00     0.158 C 
BRANCH   5   6
ATOM      6  C   UNL A   1      32.627  22.917  23.331  1.00  0.00    -0.037 A 
ATOM      7  C   UNL A   1      31.304  23.312  23.548  1.00  0.00     0.006 A 
ATOM      8  C   UNL A   1      33.439  23.708  22.514  1.00  0.00     0.006 A 
ATOM      9  C   UNL A   1      30.857  24.549  23.093  1.00  0.00     0.026 A 
ATOM     10  C   UNL A   1      32.989  24.951  22.066  1.00  0.00     0.026 A 
ATOM     11  C   UNL A   1      31.738  25.424  22.464  1.00  0.00     0.041 A 
BRANCH  11  12
ATOM     12  N   UNL A   1      31.498  26.793  22.283  1.00  0.00    -0.326 N 
ATOM     13  C   UNL A   1      31.756  27.857  23.112  1.00  0.00     0.227 C 
ATOM     14  H   UNL A   1      31.079  27.030  21.425  1.00  0.00     0.169 HD
ATOM     15  O   UNL A   1      31.549  28.987  22.662  1.00  0.00    -0.274 OA
BRANCH  13  16
ATOM     16  C   UNL A   1      32.327  27.642  24.507  1.00  0.00     0.079 C 
ATOM     17  C   UNL A   1      33.743  28.181  24.716  1.00  0.00     0.013 C 
ATOM     18  C   UNL A   1      31.592  28.374  25.628  1.00  0.00     0.013 C 
ATOM     19  C   UNL A   1      33.937  28.030  26.218  1.00  0.00     0.001 C 
ATOM     20  C   UNL A   1      32.547  28.251  26.818  1.00  0.00     0.001 C 
ENDBRANCH  13  16
ENDBRANCH  11  12
ENDBRANCH   5   6
ENDBRANCH   3   5
ENDBRANCH   2   3
ENDBRANCH   1   2
BRANCH   1  21
ATOM     21  C   UNL A   1      36.851  20.888  25.112  1.00  0.00     0.275 C 
BRANCH  21  22
ATOM     22  O   UNL A   1      38.050  21.666  24.949  1.00  0.00    -0.458 OA
BRANCH  22  23
ATOM     23  C   UNL A   1      39.058  21.339  25.801  1.00  0.00     0.338 C 
ATOM     24  O   UNL A   1      39.655  20.276  25.827  1.00  0.00    -0.246 OA
BRANCH  23  25
ATOM     25  C   UNL A   1      39.474  22.520  26.598  1.00  0.00     0.060 A 
ATOM     26  C   UNL A   1      38.839  23.738  26.317  1.00  0.00     0.016 A 
ATOM     27  C   UNL A   1      40.461  22.462  27.587  1.00  0.00     0.016 A 
ATOM     28  C   UNL A   1      39.251  24.910  26.951  1.00  0.00     0.010 A 
ATOM     29  C   UNL A   1      40.874  23.640  28.226  1.00  0.00     0.010 A 
ATOM     30  C   UNL A   1      40.311  24.878  27.867  1.00  0.00    -0.014 A 
BRANCH  30  31
ATOM     31  C   UNL A   1      40.960  26.158  28.254  1.00  0.00     0.031 A 
ATOM     32  C   UNL A   1      42.360  26.427  27.759  1.00  0.00     0.074 A 
ATOM     33  C   UNL A   1      40.321  27.092  28.981  1.00  0.00     0.049 A 
ATOM     34  N   UNL A   1      43.077  27.516  27.854  1.00  0.00    -0.248 NA
ATOM     35  C   UNL A   1      43.038  25.320  27.064  1.00  0.00     0.031 C 
ATOM     36  C   UNL A   1      38.978  26.962  29.542  1.00  0.00     0.029 A 
ATOM     37  N   UNL A   1      40.733  28.342  29.377  1.00  0.00    -0.354 N 
ATOM     38  C   UNL A   1      44.290  27.224  27.241  1.00  0.00     0.074 A 
ATOM     39  C   UNL A   1      44.225  25.847  26.805  1.00  0.00     0.031 C 
ATOM     40  C   UNL A   1      38.680  28.085  30.221  1.00  0.00     0.029 A 
ATOM     41  C   UNL A   1      39.808  29.014  30.139  1.00  0.00     0.049 A 
ATOM     42  H   UNL A   1      41.610  28.720  29.136  1.00  0.00     0.167 HD
ATOM     43  C   UNL A   1      45.355  28.032  27.028  1.00  0.00     0.034 A 
ATOM     44  C   UNL A   1      39.861  30.242  30.696  1.00  0.00     0.034 A 
ATOM     45  C   UNL A   1      45.425  29.406  27.438  1.00  0.00     0.049 A 
ATOM     46  C   UNL A   1      41.062  31.123  30.449  1.00  0.00     0.074 A 
ATOM     47  C   UNL A   1      46.441  30.319  27.216  1.00  0.00     0.029 A 
ATOM     48  N   UNL A   1      44.448  30.064  28.168  1.00  0.00    -0.354 N 
ATOM     49  N   UNL A   1      42.126  30.890  29.717  1.00  0.00    -0.248 NA
ATOM     50  C   UNL A   1      41.046  32.460  31.066  1.00  0.00     0.031 C 
ATOM     51  C   UNL A   1      46.087  31.525  27.830  1.00  0.00     0.029 A 
ATOM     52  C   UNL A   1      44.840  31.369  28.414  1.00  0.00     0.049 A 
ATOM     53  H   UNL A   1      43.601  29.663  28.466  1.00  0.00     0.167 HD
ATOM     54  C   UNL A   1      42.874  32.064  29.744  1.00  0.00     0.074 A 
ATOM     55  C   UNL A   1      42.138  33.011  30.553  1.00  0.00     0.031 C 
ATOM     56  C   UNL A   1      44.069  32.330  29.158  1.00  0.00     0.034 A 
BRANCH  43  57
ATOM     57  C   UNL A   1      46.522  27.453  26.276  1.00  0.00     0.023 A 
ATOM     58  C   UNL A   1      46.579  27.592  24.874  1.00  0.00     0.012 A 
ATOM     59  C   UNL A   1      47.575  26.812  26.954  1.00  0.00     0.148 A 
ATOM     60  C   UNL A   1      47.654  27.073  24.155  1.00  0.00     0.002 A 
ATOM     61  C   UNL A   1      48.663  26.334  26.234  1.00  0.00     0.091 A 
ATOM     62  F   UNL A   1      47.486  26.666  28.284  1.00  0.00    -0.205 F 
ATOM     63  C   UNL A   1      48.700  26.454  24.835  1.00  0.00     0.022 A 
BRANCH  61  64
ATOM     64  S   UNL A   1      50.088  25.584  27.027  1.00  0.00     0.127 S 
ATOM     65  O   UNL A   1      49.515  24.349  27.557  1.00  0.00    -0.237 OA
ATOM     66  O   UNL A   1      51.007  25.397  25.903  1.00  0.00    -0.237 OA
ATOM     67  O   UNL A   1      50.541  26.545  28.025  1.00  0.00    -0.744 OA
ENDBRANCH  61  64
ENDBRANCH  43  57
BRANCH  44  68
ATOM     68  C   UNL A   1      38.707  30.757  31.487  1.00  0.00     0.023 A 
ATOM     69  C   UNL A   1      38.702  30.603  32.887  1.00  0.00     0.012 A 
ATOM     70  C   UNL A   1      37.613  31.382  30.860  1.00  0.00     0.148 A 
ATOM     71  C   UNL A   1      37.611  31.028  33.646  1.00  0.00     0.002 A 
ATOM     72  C   UNL A   1      36.552  31.849  31.627  1.00  0.00     0.091 A 
ATOM     73  F   UNL A   1      37.629  31.502  29.525  1.00  0.00    -0.205 F 
ATOM     74  C   UNL A   1      36.540  31.658  33.017  1.00  0.00     0.022 A 
BRANCH  72  75
ATOM     75  S   UNL A   1      35.187  32.777  30.917  1.00  0.00     0.127 S 
ATOM     76  O   UNL A   1      34.816  31.940  29.779  1.00  0.00    -0.237 OA
ATOM     77  O   UNL A   1      34.224  32.785  32.019  1.00  0.00    -0.237 OA
ATOM     78  O   UNL A   1      35.734  34.087  30.591  1.00  0.00    -0.744 OA
ENDBRANCH  72  75
ENDBRANCH  44  68
BRANCH  56  79
ATOM     79  C   UNL A   1      44.645  33.714  29.317  1.00  0.00     0.023 A 
ATOM     80  C   UNL A   1      45.568  33.979  30.347  1.00  0.00     0.012 A 
ATOM     81  C   UNL A   1      44.334  34.732  28.391  1.00  0.00     0.148 A 
ATOM     82  C   UNL A   1      46.146  35.243  30.475  1.00  0.00     0.002 A 
ATOM     83  C   UNL A   1      44.950  35.975  28.497  1.00  0.00     0.091 A 
ATOM     84  F   UNL A   1      43.439  34.471  27.428  1.00  0.00    -0.205 F 
ATOM     85  C   UNL A   1      45.847  36.236  29.545  1.00  0.00     0.022 A 
BRANCH  83  86
ATOM     86  S   UNL A   1      44.696  37.271  27.278  1.00  0.00     0.127 S 
ATOM     87  O   UNL A   1      45.813  37.045  26.364  1.00  0.00    -0.237 OA
ATOM     88  O   UNL A   1      43.381  36.936  26.729  1.00  0.00    -0.237 OA
ATOM     89  O   UNL A   1      44.731  38.523  28.022  1.00  0.00    -0.744 OA
ENDBRANCH  83  86
ENDBRANCH  56  79
ENDBRANCH  30  31
ENDBRANCH  23  25
ENDBRANCH  22  23
ENDBRANCH  21  22
ENDBRANCH   1  21
TORSDOF 17
ENDMDL
