MODEL 1
REMARK VINA RESULT:     -12.8      0.000      0.000
REMARK SMILES CCc1ccc(NC(=O)c2cnn3c2N=C(C(=O)OCCOC(=O)c2ccc(-c4c5nc(c(-c6cccc(S(=O)(=O)[O-])c6F)c6ccc([nH]6)c(-c6cccc(S(=O)(=O)[O-])c6F)c6nc(c(-c7cccc(S(=O)(=O)[O-])c7F)c7ccc4[nH]7)C=C6)C=C5)cc2)C[C@H]3c2ccccc2Cl)cc1
REMARK SMILES IDX 20 1 19 2 17 3 18 4 16 5 10 6 11 7 14 8 12 9 13 10 15 11
REMARK SMILES IDX 89 12 88 13 8 14 7 15 9 17 6 18 3 19 4 20 98 21 5 22 97 23
REMARK SMILES IDX 2 24 1 25 90 26 91 27 95 28 92 29 94 30 96 31 93 32 21 33
REMARK SMILES IDX 22 34 23 35 24 36 25 37 26 38 87 39 27 40 86 41 28 42 29 43
REMARK SMILES IDX 30 44 80 45 31 46 85 47 79 48 81 49 32 50 84 51 78 52 77 53
REMARK SMILES IDX 33 55 65 56 45 57 64 58 46 59 49 60 63 61 82 62 47 63 48 64
REMARK SMILES IDX 62 66 83 67 50 68 34 69 35 70 43 71 36 72 38 73 44 74 37 75
REMARK SMILES IDX 39 76 40 77 41 78 42 79 66 80 67 81 75 82 68 83 70 84 76 85
REMARK SMILES IDX 69 86 71 87 72 88 73 89 74 90 51 91 52 92 60 93 53 94 55 95
REMARK SMILES IDX 61 96 54 97 56 98 57 99 58 100 59 101
REMARK H PARENT 7 16 81 54 49 65
REMARK Flexibility Score: inf
ROOT
ATOM      1  C   UNL A   1      32.977  29.905  26.385  1.00  0.00     0.275 C 
ENDROOT
BRANCH   1   2
ATOM      2  O   UNL A   1      33.153  28.517  26.730  1.00  0.00    -0.458 OA
BRANCH   2   3
ATOM      3  C   UNL A   1      32.034  27.763  26.817  1.00  0.00     0.352 C 
ATOM      4  O   UNL A   1      31.226  27.760  27.731  1.00  0.00    -0.245 OA
BRANCH   3   5
ATOM      5  C   UNL A   1      31.895  26.865  25.579  1.00  0.00     0.130 C 
ATOM      6  C   UNL A   1      33.494  24.764  23.121  1.00  0.00     0.104 A 
ATOM      7  C   UNL A   1      32.845  24.655  21.868  1.00  0.00     0.151 A 
ATOM      8  C   UNL A   1      32.793  25.746  23.807  1.00  0.00     0.164 A 
ATOM      9  N   UNL A   1      31.701  25.343  21.826  1.00  0.00    -0.178 NA
ATOM     10  N   UNL A   1      31.659  25.920  23.044  1.00  0.00    -0.239 N 
ATOM     11  N   UNL A   1      32.969  26.427  24.975  1.00  0.00    -0.225 NA
ATOM     12  C   UNL A   1      30.411  26.422  23.608  1.00  0.00     0.147 C 
ATOM     13  C   UNL A   1      30.491  26.520  25.133  1.00  0.00     0.096 C 
BRANCH   6  14
ATOM     14  C   UNL A   1      34.597  23.947  23.563  1.00  0.00     0.261 C 
ATOM     15  N   UNL A   1      34.395  23.017  24.570  1.00  0.00    -0.322 N 
ATOM     16  H   UNL A   1      35.183  22.459  24.765  1.00  0.00     0.170 HD
ATOM     17  O   UNL A   1      35.697  24.014  23.014  1.00  0.00    -0.269 OA
BRANCH  15  18
ATOM     18  C   UNL A   1      33.266  22.722  25.368  1.00  0.00     0.041 A 
ATOM     19  C   UNL A   1      30.815  22.907  26.718  1.00  0.00    -0.048 A 
ATOM     20  C   UNL A   1      30.946  22.075  25.610  1.00  0.00     0.006 A 
ATOM     21  C   UNL A   1      31.974  23.425  27.293  1.00  0.00     0.006 A 
ATOM     22  C   UNL A   1      32.175  21.961  24.963  1.00  0.00     0.026 A 
ATOM     23  C   UNL A   1      33.201  23.315  26.626  1.00  0.00     0.026 A 
BRANCH  19  24
ATOM     24  C   UNL A   1      29.452  23.269  27.239  1.00  0.00     0.032 C 
ATOM     25  C   UNL A   1      28.565  22.058  27.434  1.00  0.00     0.009 C 
ENDBRANCH  19  24
ENDBRANCH  15  18
ENDBRANCH   6  14
BRANCH  12  26
ATOM     26  C   UNL A   1      30.004  27.757  23.015  1.00  0.00    -0.004 A 
ATOM     27  C   UNL A   1      30.985  28.619  22.489  1.00  0.00     0.007 A 
ATOM     28  C   UNL A   1      28.676  28.217  23.076  1.00  0.00     0.046 A 
ATOM     29  C   UNL A   1      30.656  29.905  22.064  1.00  0.00     0.000 A 
ATOM     30  C   UNL A   1      28.351  29.504  22.641  1.00  0.00     0.021 A 
ATOM     31  Cl  UNL A   1      27.387  27.263  23.726  1.00  0.00    -0.084 Cl
ATOM     32  C   UNL A   1      29.341  30.350  22.146  1.00  0.00     0.002 A 
ENDBRANCH  12  26
ENDBRANCH   3   5
ENDBRANCH   2   3
ENDBRANCH   1   2
BRANCH   1  33
ATOM     33  C   UNL A   1      33.498  30.809  27.497  1.00  0.00     0.275 C 
BRANCH  33  34
ATOM     34  O   UNL A   1      34.924  30.781  27.588  1.00  0.00    -0.458 OA
BRANCH  34  35
ATOM     35  C   UNL A   1      35.417  31.601  28.540  1.00  0.00     0.338 C 
ATOM     36  O   UNL A   1      35.224  32.803  28.643  1.00  0.00    -0.246 OA
BRANCH  35  37
ATOM     37  C   UNL A   1      36.452  30.921  29.310  1.00  0.00     0.060 A 
ATOM     38  C   UNL A   1      37.546  31.690  29.682  1.00  0.00     0.016 A 
ATOM     39  C   UNL A   1      36.494  29.521  29.327  1.00  0.00     0.016 A 
ATOM     40  C   UNL A   1      38.753  31.050  29.856  1.00  0.00     0.010 A 
ATOM     41  C   UNL A   1      37.703  28.888  29.544  1.00  0.00     0.010 A 
ATOM     42  C   UNL A   1      38.852  29.662  29.687  1.00  0.00    -0.014 A 
BRANCH  42  43
ATOM     43  C   UNL A   1      40.193  29.077  29.771  1.00  0.00     0.031 A 
ATOM     44  C   UNL A   1      40.656  28.880  31.175  1.00  0.00     0.074 A 
ATOM     45  C   UNL A   1      40.905  28.691  28.690  1.00  0.00     0.049 A 
ATOM     46  N   UNL A   1      41.736  29.324  31.737  1.00  0.00    -0.248 NA
ATOM     47  C   UNL A   1      39.684  28.295  32.120  1.00  0.00     0.031 C 
ATOM     48  C   UNL A   1      40.465  28.685  27.290  1.00  0.00     0.029 A 
ATOM     49  N   UNL A   1      42.113  28.051  28.628  1.00  0.00    -0.354 N 
ATOM     50  C   UNL A   1      41.672  28.858  33.049  1.00  0.00     0.074 A 
ATOM     51  C   UNL A   1      40.315  28.448  33.281  1.00  0.00     0.031 C 
ATOM     52  C   UNL A   1      41.215  27.805  26.596  1.00  0.00     0.029 A 
ATOM     53  C   UNL A   1      42.252  27.287  27.468  1.00  0.00     0.049 A 
ATOM     54  H   UNL A   1      42.806  28.121  29.324  1.00  0.00     0.167 HD
ATOM     55  C   UNL A   1      42.792  28.544  33.751  1.00  0.00     0.034 A 
ATOM     56  C   UNL A   1      43.065  26.217  27.286  1.00  0.00     0.034 A 
ATOM     57  C   UNL A   1      43.954  29.219  33.248  1.00  0.00     0.049 A 
ATOM     58  C   UNL A   1      44.110  26.261  28.330  1.00  0.00     0.074 A 
ATOM     59  C   UNL A   1      44.323  30.538  33.074  1.00  0.00     0.029 A 
ATOM     60  N   UNL A   1      44.840  28.473  32.514  1.00  0.00    -0.354 N 
ATOM     61  N   UNL A   1      45.051  27.159  28.375  1.00  0.00    -0.248 NA
ATOM     62  C   UNL A   1      43.871  25.536  29.567  1.00  0.00     0.031 C 
ATOM     63  C   UNL A   1      45.125  30.545  31.897  1.00  0.00     0.029 A 
ATOM     64  C   UNL A   1      45.236  29.229  31.446  1.00  0.00     0.049 A 
ATOM     65  H   UNL A   1      45.138  27.558  32.720  1.00  0.00     0.167 HD
ATOM     66  C   UNL A   1      45.195  27.433  29.728  1.00  0.00     0.074 A 
ATOM     67  C   UNL A   1      44.536  26.324  30.413  1.00  0.00     0.031 C 
ATOM     68  C   UNL A   1      45.570  28.675  30.155  1.00  0.00     0.034 A 
BRANCH  55  69
ATOM     69  C   UNL A   1      42.889  27.308  34.617  1.00  0.00     0.023 A 
ATOM     70  C   UNL A   1      42.727  27.466  36.009  1.00  0.00     0.012 A 
ATOM     71  C   UNL A   1      43.409  26.067  34.172  1.00  0.00     0.148 A 
ATOM     72  C   UNL A   1      43.103  26.460  36.906  1.00  0.00     0.002 A 
ATOM     73  C   UNL A   1      43.691  25.039  35.059  1.00  0.00     0.091 A 
ATOM     74  F   UNL A   1      43.781  25.910  32.899  1.00  0.00    -0.205 F 
ATOM     75  C   UNL A   1      43.573  25.240  36.432  1.00  0.00     0.022 A 
BRANCH  73  76
ATOM     76  S   UNL A   1      44.247  23.434  34.472  1.00  0.00     0.127 S 
ATOM     77  O   UNL A   1      43.175  23.073  33.549  1.00  0.00    -0.237 OA
ATOM     78  O   UNL A   1      45.524  23.772  33.842  1.00  0.00    -0.237 OA
ATOM     79  O   UNL A   1      44.376  22.607  35.666  1.00  0.00    -0.744 OA
ENDBRANCH  73  76
ENDBRANCH  55  69
BRANCH  56  80
ATOM     80  C   UNL A   1      42.839  25.000  26.465  1.00  0.00     0.023 A 
ATOM     81  C   UNL A   1      43.748  24.672  25.439  1.00  0.00     0.012 A 
ATOM     82  C   UNL A   1      41.893  24.021  26.847  1.00  0.00     0.148 A 
ATOM     83  C   UNL A   1      43.733  23.408  24.835  1.00  0.00     0.002 A 
ATOM     84  C   UNL A   1      41.867  22.774  26.229  1.00  0.00     0.091 A 
ATOM     85  F   UNL A   1      41.081  24.272  27.882  1.00  0.00    -0.205 F 
ATOM     86  C   UNL A   1      42.795  22.458  25.231  1.00  0.00     0.022 A 
BRANCH  84  87
ATOM     87  S   UNL A   1      40.683  21.506  26.700  1.00  0.00     0.127 S 
ATOM     88  O   UNL A   1      39.423  22.071  26.213  1.00  0.00    -0.237 OA
ATOM     89  O   UNL A   1      41.164  20.348  25.952  1.00  0.00    -0.237 OA
ATOM     90  O   UNL A   1      40.766  21.404  28.152  1.00  0.00    -0.744 OA
ENDBRANCH  84  87
ENDBRANCH  56  80
BRANCH  68  91
ATOM     91  C   UNL A   1      46.128  29.637  29.140  1.00  0.00     0.023 A 
ATOM     92  C   UNL A   1      47.480  29.613  28.735  1.00  0.00     0.012 A 
ATOM     93  C   UNL A   1      45.229  30.474  28.461  1.00  0.00     0.148 A 
ATOM     94  C   UNL A   1      47.925  30.426  27.690  1.00  0.00     0.002 A 
ATOM     95  C   UNL A   1      45.665  31.244  27.391  1.00  0.00     0.091 A 
ATOM     96  F   UNL A   1      43.947  30.483  28.858  1.00  0.00    -0.205 F 
ATOM     97  C   UNL A   1      47.015  31.232  27.008  1.00  0.00     0.022 A 
BRANCH  95  98
ATOM     98  S   UNL A   1      44.517  32.199  26.397  1.00  0.00     0.127 S 
ATOM     99  O   UNL A   1      45.380  32.696  25.327  1.00  0.00    -0.237 OA
ATOM    100  O   UNL A   1      43.544  31.188  25.980  1.00  0.00    -0.237 OA
ATOM    101  O   UNL A   1      43.968  33.217  27.286  1.00  0.00    -0.744 OA
ENDBRANCH  95  98
ENDBRANCH  68  91
ENDBRANCH  42  43
ENDBRANCH  35  37
ENDBRANCH  34  35
ENDBRANCH  33  34
ENDBRANCH   1  33
TORSDOF 18
ENDMDL
MODEL 2
REMARK VINA RESULT:     -11.7      1.818      2.143
REMARK SMILES CCc1ccc(NC(=O)c2cnn3c2N=C(C(=O)OCCOC(=O)c2ccc(-c4c5nc(c(-c6cccc(S(=O)(=O)[O-])c6F)c6ccc([nH]6)c(-c6cccc(S(=O)(=O)[O-])c6F)c6nc(c(-c7cccc(S(=O)(=O)[O-])c7F)c7ccc4[nH]7)C=C6)C=C5)cc2)C[C@H]3c2ccccc2Cl)cc1
REMARK SMILES IDX 20 1 19 2 17 3 18 4 16 5 10 6 11 7 14 8 12 9 13 10 15 11
REMARK SMILES IDX 89 12 88 13 8 14 7 15 9 17 6 18 3 19 4 20 98 21 5 22 97 23
REMARK SMILES IDX 2 24 1 25 90 26 91 27 95 28 92 29 94 30 96 31 93 32 21 33
REMARK SMILES IDX 22 34 23 35 24 36 25 37 26 38 87 39 27 40 86 41 28 42 29 43
REMARK SMILES IDX 30 44 80 45 31 46 85 47 79 48 81 49 32 50 84 51 78 52 77 53
REMARK SMILES IDX 33 55 65 56 45 57 64 58 46 59 49 60 63 61 82 62 47 63 48 64
REMARK SMILES IDX 62 66 83 67 50 68 34 69 35 70 43 71 36 72 38 73 44 74 37 75
REMARK SMILES IDX 39 76 40 77 41 78 42 79 66 80 67 81 75 82 68 83 70 84 76 85
REMARK SMILES IDX 69 86 71 87 72 88 73 89 74 90 51 91 52 92 60 93 53 94 55 95
REMARK SMILES IDX 61 96 54 97 56 98 57 99 58 100 59 101
REMARK H PARENT 7 16 81 54 49 65
REMARK Flexibility Score: inf
ROOT
ATOM      1  C   UNL A   1      33.673  28.995  26.206  1.00  0.00     0.275 C 
ENDROOT
BRANCH   1   2
ATOM      2  O   UNL A   1      33.358  27.811  26.963  1.00  0.00    -0.458 OA
BRANCH   2   3
ATOM      3  C   UNL A   1      32.103  27.324  26.840  1.00  0.00     0.352 C 
ATOM      4  O   UNL A   1      31.174  27.499  27.611  1.00  0.00    -0.245 OA
BRANCH   3   5
ATOM      5  C   UNL A   1      31.978  26.480  25.562  1.00  0.00     0.130 C 
ATOM      6  C   UNL A   1      33.603  24.476  23.041  1.00  0.00     0.104 A 
ATOM      7  C   UNL A   1      32.972  24.425  21.776  1.00  0.00     0.151 A 
ATOM      8  C   UNL A   1      32.896  25.432  23.758  1.00  0.00     0.164 A 
ATOM      9  N   UNL A   1      31.831  25.121  21.746  1.00  0.00    -0.178 NA
ATOM     10  N   UNL A   1      31.775  25.645  22.986  1.00  0.00    -0.239 N 
ATOM     11  N   UNL A   1      33.058  26.062  24.956  1.00  0.00    -0.225 NA
ATOM     12  C   UNL A   1      30.520  26.130  23.553  1.00  0.00     0.147 C 
ATOM     13  C   UNL A   1      30.578  26.163  25.082  1.00  0.00     0.096 C 
BRANCH   6  14
ATOM     14  C   UNL A   1      34.694  23.635  23.464  1.00  0.00     0.261 C 
ATOM     15  N   UNL A   1      34.495  22.725  24.490  1.00  0.00    -0.322 N 
ATOM     16  H   UNL A   1      35.272  22.147  24.671  1.00  0.00     0.170 HD
ATOM     17  O   UNL A   1      35.779  23.663  22.884  1.00  0.00    -0.269 OA
BRANCH  15  18
ATOM     18  C   UNL A   1      33.381  22.473  25.323  1.00  0.00     0.041 A 
ATOM     19  C   UNL A   1      30.992  22.757  26.764  1.00  0.00    -0.048 A 
ATOM     20  C   UNL A   1      31.040  21.942  25.637  1.00  0.00     0.006 A 
ATOM     21  C   UNL A   1      32.197  23.203  27.306  1.00  0.00     0.006 A 
ATOM     22  C   UNL A   1      32.238  21.778  24.944  1.00  0.00     0.026 A 
ATOM     23  C   UNL A   1      33.392  23.043  26.593  1.00  0.00     0.026 A 
BRANCH  19  24
ATOM     24  C   UNL A   1      29.669  23.178  27.341  1.00  0.00     0.032 C 
ATOM     25  C   UNL A   1      28.626  22.085  27.258  1.00  0.00     0.009 C 
ENDBRANCH  19  24
ENDBRANCH  15  18
ENDBRANCH   6  14
BRANCH  12  26
ATOM     26  C   UNL A   1      30.130  27.491  23.012  1.00  0.00    -0.004 A 
ATOM     27  C   UNL A   1      31.113  28.336  22.461  1.00  0.00     0.007 A 
ATOM     28  C   UNL A   1      28.822  27.991  23.146  1.00  0.00     0.046 A 
ATOM     29  C   UNL A   1      30.806  29.642  22.083  1.00  0.00     0.000 A 
ATOM     30  C   UNL A   1      28.518  29.297  22.757  1.00  0.00     0.021 A 
ATOM     31  Cl  UNL A   1      27.534  27.061  23.832  1.00  0.00    -0.084 Cl
ATOM     32  C   UNL A   1      29.511  30.125  22.237  1.00  0.00     0.002 A 
ENDBRANCH  12  26
ENDBRANCH   3   5
ENDBRANCH   2   3
ENDBRANCH   1   2
BRANCH   1  33
ATOM     33  C   UNL A   1      34.021  30.154  27.134  1.00  0.00     0.275 C 
BRANCH  33  34
ATOM     34  O   UNL A   1      35.287  29.970  27.771  1.00  0.00    -0.458 OA
BRANCH  34  35
ATOM     35  C   UNL A   1      35.578  30.931  28.673  1.00  0.00     0.338 C 
ATOM     36  O   UNL A   1      35.156  32.077  28.684  1.00  0.00    -0.246 OA
BRANCH  35  37
ATOM     37  C   UNL A   1      36.693  30.516  29.515  1.00  0.00     0.060 A 
ATOM     38  C   UNL A   1      37.794  31.362  29.538  1.00  0.00     0.016 A 
ATOM     39  C   UNL A   1      36.775  29.187  29.949  1.00  0.00     0.016 A 
ATOM     40  C   UNL A   1      39.029  30.805  29.787  1.00  0.00     0.010 A 
ATOM     41  C   UNL A   1      38.015  28.649  30.236  1.00  0.00     0.010 A 
ATOM     42  C   UNL A   1      39.151  29.430  30.035  1.00  0.00    -0.014 A 
BRANCH  42  43
ATOM     43  C   UNL A   1      40.510  28.898  30.170  1.00  0.00     0.031 A 
ATOM     44  C   UNL A   1      41.075  29.085  31.537  1.00  0.00     0.074 A 
ATOM     45  C   UNL A   1      41.153  28.244  29.179  1.00  0.00     0.049 A 
ATOM     46  N   UNL A   1      42.180  29.670  31.878  1.00  0.00    -0.248 NA
ATOM     47  C   UNL A   1      40.189  28.765  32.674  1.00  0.00     0.031 C 
ATOM     48  C   UNL A   1      40.616  27.863  27.868  1.00  0.00     0.029 A 
ATOM     49  N   UNL A   1      42.371  27.619  29.199  1.00  0.00    -0.354 N 
ATOM     50  C   UNL A   1      42.221  29.570  33.268  1.00  0.00     0.074 A 
ATOM     51  C   UNL A   1      40.896  29.226  33.702  1.00  0.00     0.031 C 
ATOM     52  C   UNL A   1      41.339  26.835  27.377  1.00  0.00     0.029 A 
ATOM     53  C   UNL A   1      42.448  26.575  28.275  1.00  0.00     0.049 A 
ATOM     54  H   UNL A   1      43.109  27.877  29.797  1.00  0.00     0.167 HD
ATOM     55  C   UNL A   1      43.396  29.462  33.942  1.00  0.00     0.034 A 
ATOM     56  C   UNL A   1      43.275  25.501  28.321  1.00  0.00     0.034 A 
ATOM     57  C   UNL A   1      44.502  29.987  33.192  1.00  0.00     0.049 A 
ATOM     58  C   UNL A   1      44.389  25.829  29.235  1.00  0.00     0.074 A 
ATOM     59  C   UNL A   1      44.822  31.214  32.648  1.00  0.00     0.029 A 
ATOM     60  N   UNL A   1      45.353  29.079  32.618  1.00  0.00    -0.354 N 
ATOM     61  N   UNL A   1      45.307  26.713  28.970  1.00  0.00    -0.248 NA
ATOM     62  C   UNL A   1      44.258  25.456  30.634  1.00  0.00     0.031 C 
ATOM     63  C   UNL A   1      45.538  30.914  31.455  1.00  0.00     0.029 A 
ATOM     64  C   UNL A   1      45.653  29.526  31.360  1.00  0.00     0.049 A 
ATOM     65  H   UNL A   1      45.689  28.253  33.035  1.00  0.00     0.167 HD
ATOM     66  C   UNL A   1      45.538  27.338  30.187  1.00  0.00     0.074 A 
ATOM     67  C   UNL A   1      44.960  26.446  31.189  1.00  0.00     0.031 C 
ATOM     68  C   UNL A   1      45.909  28.651  30.241  1.00  0.00     0.034 A 
BRANCH  55  69
ATOM     69  C   UNL A   1      43.587  28.501  35.094  1.00  0.00     0.023 A 
ATOM     70  C   UNL A   1      44.128  29.011  36.292  1.00  0.00     0.012 A 
ATOM     71  C   UNL A   1      43.534  27.091  34.968  1.00  0.00     0.148 A 
ATOM     72  C   UNL A   1      44.627  28.163  37.288  1.00  0.00     0.002 A 
ATOM     73  C   UNL A   1      43.943  26.254  35.996  1.00  0.00     0.091 A 
ATOM     74  F   UNL A   1      43.229  26.529  33.795  1.00  0.00    -0.205 F 
ATOM     75  C   UNL A   1      44.522  26.783  37.146  1.00  0.00     0.022 A 
BRANCH  73  76
ATOM     76  S   UNL A   1      43.770  24.470  35.864  1.00  0.00     0.127 S 
ATOM     77  O   UNL A   1      44.486  24.198  34.622  1.00  0.00    -0.237 OA
ATOM     78  O   UNL A   1      44.439  24.013  37.082  1.00  0.00    -0.237 OA
ATOM     79  O   UNL A   1      42.333  24.219  35.848  1.00  0.00    -0.744 OA
ENDBRANCH  73  76
ENDBRANCH  55  69
BRANCH  56  80
ATOM     80  C   UNL A   1      43.024  24.108  27.871  1.00  0.00     0.023 A 
ATOM     81  C   UNL A   1      41.813  23.473  28.210  1.00  0.00     0.012 A 
ATOM     82  C   UNL A   1      43.842  23.493  26.895  1.00  0.00     0.148 A 
ATOM     83  C   UNL A   1      41.418  22.284  27.583  1.00  0.00     0.002 A 
ATOM     84  C   UNL A   1      43.456  22.301  26.289  1.00  0.00     0.091 A 
ATOM     85  F   UNL A   1      44.950  24.123  26.485  1.00  0.00    -0.205 F 
ATOM     86  C   UNL A   1      42.237  21.699  26.621  1.00  0.00     0.022 A 
BRANCH  84  87
ATOM     87  S   UNL A   1      44.470  21.500  25.038  1.00  0.00     0.127 S 
ATOM     88  O   UNL A   1      45.790  21.504  25.669  1.00  0.00    -0.237 OA
ATOM     89  O   UNL A   1      43.844  20.186  24.936  1.00  0.00    -0.237 OA
ATOM     90  O   UNL A   1      44.376  22.342  23.852  1.00  0.00    -0.744 OA
ENDBRANCH  84  87
ENDBRANCH  56  80
BRANCH  68  91
ATOM     91  C   UNL A   1      46.369  29.313  28.969  1.00  0.00     0.023 A 
ATOM     92  C   UNL A   1      45.480  29.963  28.087  1.00  0.00     0.012 A 
ATOM     93  C   UNL A   1      47.751  29.423  28.746  1.00  0.00     0.148 A 
ATOM     94  C   UNL A   1      45.962  30.686  26.993  1.00  0.00     0.002 A 
ATOM     95  C   UNL A   1      48.228  30.183  27.687  1.00  0.00     0.091 A 
ATOM     96  F   UNL A   1      48.582  28.800  29.596  1.00  0.00    -0.205 F 
ATOM     97  C   UNL A   1      47.337  30.808  26.801  1.00  0.00     0.022 A 
BRANCH  95  98
ATOM     98  S   UNL A   1      49.983  30.481  27.466  1.00  0.00     0.127 S 
ATOM     99  O   UNL A   1      50.350  31.098  28.739  1.00  0.00    -0.237 OA
ATOM    100  O   UNL A   1      50.509  29.129  27.266  1.00  0.00    -0.237 OA
ATOM    101  O   UNL A   1      50.099  31.340  26.294  1.00  0.00    -0.744 OA
ENDBRANCH  95  98
ENDBRANCH  68  91
ENDBRANCH  42  43
ENDBRANCH  35  37
ENDBRANCH  34  35
ENDBRANCH  33  34
ENDBRANCH   1  33
TORSDOF 18
ENDMDL
MODEL 3
REMARK VINA RESULT:     -11.2      3.440      9.038
REMARK SMILES CCc1ccc(NC(=O)c2cnn3c2N=C(C(=O)OCCOC(=O)c2ccc(-c4c5nc(c(-c6cccc(S(=O)(=O)[O-])c6F)c6ccc([nH]6)c(-c6cccc(S(=O)(=O)[O-])c6F)c6nc(c(-c7cccc(S(=O)(=O)[O-])c7F)c7ccc4[nH]7)C=C6)C=C5)cc2)C[C@H]3c2ccccc2Cl)cc1
REMARK SMILES IDX 20 1 19 2 17 3 18 4 16 5 10 6 11 7 14 8 12 9 13 10 15 11
REMARK SMILES IDX 89 12 88 13 8 14 7 15 9 17 6 18 3 19 4 20 98 21 5 22 97 23
REMARK SMILES IDX 2 24 1 25 90 26 91 27 95 28 92 29 94 30 96 31 93 32 21 33
REMARK SMILES IDX 22 34 23 35 24 36 25 37 26 38 87 39 27 40 86 41 28 42 29 43
REMARK SMILES IDX 30 44 80 45 31 46 85 47 79 48 81 49 32 50 84 51 78 52 77 53
REMARK SMILES IDX 33 55 65 56 45 57 64 58 46 59 49 60 63 61 82 62 47 63 48 64
REMARK SMILES IDX 62 66 83 67 50 68 34 69 35 70 43 71 36 72 38 73 44 74 37 75
REMARK SMILES IDX 39 76 40 77 41 78 42 79 66 80 67 81 75 82 68 83 70 84 76 85
REMARK SMILES IDX 69 86 71 87 72 88 73 89 74 90 51 91 52 92 60 93 53 94 55 95
REMARK SMILES IDX 61 96 54 97 56 98 57 99 58 100 59 101
REMARK H PARENT 7 16 81 54 49 65
REMARK Flexibility Score: inf
ROOT
ATOM      1  C   UNL A   1      37.121  23.185  26.120  1.00  0.00     0.275 C 
ENDROOT
BRANCH   1   2
ATOM      2  O   UNL A   1      36.549  22.329  25.114  1.00  0.00    -0.458 OA
BRANCH   2   3
ATOM      3  C   UNL A   1      36.012  22.933  24.031  1.00  0.00     0.352 C 
ATOM      4  O   UNL A   1      36.607  23.306  23.033  1.00  0.00    -0.245 OA
BRANCH   3   5
ATOM      5  C   UNL A   1      34.496  23.113  24.213  1.00  0.00     0.130 C 
ATOM      6  C   UNL A   1      31.790  24.772  25.926  1.00  0.00     0.104 A 
ATOM      7  C   UNL A   1      30.568  24.062  26.006  1.00  0.00     0.151 A 
ATOM      8  C   UNL A   1      32.698  23.867  25.393  1.00  0.00     0.164 A 
ATOM      9  N   UNL A   1      30.622  22.882  25.383  1.00  0.00    -0.178 NA
ATOM     10  N   UNL A   1      31.898  22.835  24.952  1.00  0.00    -0.239 N 
ATOM     11  N   UNL A   1      34.047  23.848  25.196  1.00  0.00    -0.225 NA
ATOM     12  C   UNL A   1      32.308  21.939  23.875  1.00  0.00     0.147 C 
ATOM     13  C   UNL A   1      33.597  22.425  23.209  1.00  0.00     0.096 C 
BRANCH   6  14
ATOM     14  C   UNL A   1      31.974  26.160  26.269  1.00  0.00     0.261 C 
ATOM     15  N   UNL A   1      32.137  27.095  25.259  1.00  0.00    -0.322 N 
ATOM     16  H   UNL A   1      32.191  28.025  25.578  1.00  0.00     0.170 HD
ATOM     17  O   UNL A   1      31.919  26.538  27.439  1.00  0.00    -0.269 OA
BRANCH  15  18
ATOM     18  C   UNL A   1      32.238  26.958  23.856  1.00  0.00     0.041 A 
ATOM     19  C   UNL A   1      32.612  25.902  21.285  1.00  0.00    -0.048 A 
ATOM     20  C   UNL A   1      31.340  26.261  21.718  1.00  0.00     0.006 A 
ATOM     21  C   UNL A   1      33.708  26.322  22.039  1.00  0.00     0.006 A 
ATOM     22  C   UNL A   1      31.164  26.817  22.984  1.00  0.00     0.026 A 
ATOM     23  C   UNL A   1      33.518  26.867  23.315  1.00  0.00     0.026 A 
BRANCH  19  24
ATOM     24  C   UNL A   1      32.785  25.041  20.064  1.00  0.00     0.032 C 
ATOM     25  C   UNL A   1      32.016  25.567  18.871  1.00  0.00     0.009 C 
ENDBRANCH  19  24
ENDBRANCH  15  18
ENDBRANCH   6  14
BRANCH  12  26
ATOM     26  C   UNL A   1      32.464  20.506  24.344  1.00  0.00    -0.004 A 
ATOM     27  C   UNL A   1      32.810  20.239  25.683  1.00  0.00     0.007 A 
ATOM     28  C   UNL A   1      32.385  19.424  23.448  1.00  0.00     0.046 A 
ATOM     29  C   UNL A   1      33.094  18.942  26.105  1.00  0.00     0.000 A 
ATOM     30  C   UNL A   1      32.662  18.125  23.879  1.00  0.00     0.021 A 
ATOM     31  Cl  UNL A   1      31.997  19.626  21.774  1.00  0.00    -0.084 Cl
ATOM     32  C   UNL A   1      33.026  17.886  25.202  1.00  0.00     0.002 A 
ENDBRANCH  12  26
ENDBRANCH   3   5
ENDBRANCH   2   3
ENDBRANCH   1   2
BRANCH   1  33
ATOM     33  C   UNL A   1      38.643  23.179  26.034  1.00  0.00     0.275 C 
BRANCH  33  34
ATOM     34  O   UNL A   1      39.209  24.427  26.442  1.00  0.00    -0.458 OA
BRANCH  34  35
ATOM     35  C   UNL A   1      40.476  24.318  26.896  1.00  0.00     0.338 C 
ATOM     36  O   UNL A   1      41.016  23.311  27.327  1.00  0.00    -0.246 OA
BRANCH  35  37
ATOM     37  C   UNL A   1      41.071  25.639  27.063  1.00  0.00     0.060 A 
ATOM     38  C   UNL A   1      42.046  25.754  28.044  1.00  0.00     0.016 A 
ATOM     39  C   UNL A   1      40.422  26.761  26.532  1.00  0.00     0.016 A 
ATOM     40  C   UNL A   1      42.209  26.980  28.649  1.00  0.00     0.010 A 
ATOM     41  C   UNL A   1      40.625  27.995  27.120  1.00  0.00     0.010 A 
ATOM     42  C   UNL A   1      41.426  28.076  28.256  1.00  0.00    -0.014 A 
BRANCH  42  43
ATOM     43  C   UNL A   1      41.577  29.311  29.032  1.00  0.00     0.031 A 
ATOM     44  C   UNL A   1      42.806  30.077  28.673  1.00  0.00     0.074 A 
ATOM     45  C   UNL A   1      40.661  29.744  29.925  1.00  0.00     0.049 A 
ATOM     46  N   UNL A   1      43.763  30.473  29.451  1.00  0.00    -0.248 NA
ATOM     47  C   UNL A   1      43.099  30.230  27.234  1.00  0.00     0.031 C 
ATOM     48  C   UNL A   1      39.351  29.152  30.214  1.00  0.00     0.029 A 
ATOM     49  N   UNL A   1      40.629  30.911  30.638  1.00  0.00    -0.354 N 
ATOM     50  C   UNL A   1      44.657  31.132  28.609  1.00  0.00     0.074 A 
ATOM     51  C   UNL A   1      44.321  30.753  27.265  1.00  0.00     0.031 C 
ATOM     52  C   UNL A   1      38.552  30.094  30.756  1.00  0.00     0.029 A 
ATOM     53  C   UNL A   1      39.327  31.302  30.959  1.00  0.00     0.049 A 
ATOM     54  H   UNL A   1      41.432  31.419  30.896  1.00  0.00     0.167 HD
ATOM     55  C   UNL A   1      45.401  32.184  29.040  1.00  0.00     0.034 A 
ATOM     56  C   UNL A   1      38.896  32.557  31.239  1.00  0.00     0.034 A 
ATOM     57  C   UNL A   1      45.575  32.177  30.465  1.00  0.00     0.049 A 
ATOM     58  C   UNL A   1      40.075  33.369  31.604  1.00  0.00     0.074 A 
ATOM     59  C   UNL A   1      46.118  31.300  31.382  1.00  0.00     0.029 A 
ATOM     60  N   UNL A   1      44.838  33.079  31.187  1.00  0.00    -0.354 N 
ATOM     61  N   UNL A   1      40.762  33.200  32.697  1.00  0.00    -0.248 NA
ATOM     62  C   UNL A   1      40.742  34.117  30.551  1.00  0.00     0.031 C 
ATOM     63  C   UNL A   1      45.322  31.449  32.553  1.00  0.00     0.029 A 
ATOM     64  C   UNL A   1      44.369  32.438  32.301  1.00  0.00     0.049 A 
ATOM     65  H   UNL A   1      44.675  34.020  30.949  1.00  0.00     0.167 HD
ATOM     66  C   UNL A   1      42.078  33.402  32.307  1.00  0.00     0.074 A 
ATOM     67  C   UNL A   1      41.992  34.080  31.015  1.00  0.00     0.031 C 
ATOM     68  C   UNL A   1      43.101  32.739  32.922  1.00  0.00     0.034 A 
BRANCH  55  69
ATOM     69  C   UNL A   1      45.606  33.431  28.209  1.00  0.00     0.023 A 
ATOM     70  C   UNL A   1      46.926  33.769  27.846  1.00  0.00     0.012 A 
ATOM     71  C   UNL A   1      44.616  34.425  28.014  1.00  0.00     0.148 A 
ATOM     72  C   UNL A   1      47.245  35.042  27.359  1.00  0.00     0.002 A 
ATOM     73  C   UNL A   1      44.921  35.651  27.442  1.00  0.00     0.091 A 
ATOM     74  F   UNL A   1      43.388  34.262  28.515  1.00  0.00    -0.205 F 
ATOM     75  C   UNL A   1      46.241  35.980  27.143  1.00  0.00     0.022 A 
BRANCH  73  76
ATOM     76  S   UNL A   1      43.637  36.861  27.102  1.00  0.00     0.127 S 
ATOM     77  O   UNL A   1      44.416  37.964  26.547  1.00  0.00    -0.237 OA
ATOM     78  O   UNL A   1      42.797  36.146  26.142  1.00  0.00    -0.237 OA
ATOM     79  O   UNL A   1      42.989  37.112  28.385  1.00  0.00    -0.744 OA
ENDBRANCH  73  76
ENDBRANCH  55  69
BRANCH  56  80
ATOM     80  C   UNL A   1      37.586  33.185  30.931  1.00  0.00     0.023 A 
ATOM     81  C   UNL A   1      37.136  33.241  29.597  1.00  0.00     0.012 A 
ATOM     82  C   UNL A   1      36.659  33.491  31.954  1.00  0.00     0.148 A 
ATOM     83  C   UNL A   1      35.807  33.564  29.294  1.00  0.00     0.002 A 
ATOM     84  C   UNL A   1      35.345  33.832  31.648  1.00  0.00     0.091 A 
ATOM     85  F   UNL A   1      37.033  33.353  33.232  1.00  0.00    -0.205 F 
ATOM     86  C   UNL A   1      34.910  33.857  30.318  1.00  0.00     0.022 A 
BRANCH  84  87
ATOM     87  S   UNL A   1      34.141  34.217  32.926  1.00  0.00     0.127 S 
ATOM     88  O   UNL A   1      34.999  34.642  34.034  1.00  0.00    -0.237 OA
ATOM     89  O   UNL A   1      33.369  35.288  32.304  1.00  0.00    -0.237 OA
ATOM     90  O   UNL A   1      33.418  32.976  33.178  1.00  0.00    -0.744 OA
ENDBRANCH  84  87
ENDBRANCH  56  80
BRANCH  68  91
ATOM     91  C   UNL A   1      42.813  32.040  34.224  1.00  0.00     0.023 A 
ATOM     92  C   UNL A   1      42.701  32.731  35.449  1.00  0.00     0.012 A 
ATOM     93  C   UNL A   1      42.485  30.675  34.180  1.00  0.00     0.148 A 
ATOM     94  C   UNL A   1      42.294  32.066  36.608  1.00  0.00     0.002 A 
ATOM     95  C   UNL A   1      42.033  30.030  35.323  1.00  0.00     0.091 A 
ATOM     96  F   UNL A   1      42.594  30.033  33.006  1.00  0.00    -0.205 F 
ATOM     97  C   UNL A   1      41.946  30.719  36.543  1.00  0.00     0.022 A 
BRANCH  95  98
ATOM     98  S   UNL A   1      41.450  28.334  35.270  1.00  0.00     0.127 S 
ATOM     99  O   UNL A   1      40.392  28.406  34.264  1.00  0.00    -0.237 OA
ATOM    100  O   UNL A   1      42.646  27.602  34.850  1.00  0.00    -0.237 OA
ATOM    101  O   UNL A   1      41.009  28.020  36.624  1.00  0.00    -0.744 OA
ENDBRANCH  95  98
ENDBRANCH  68  91
ENDBRANCH  42  43
ENDBRANCH  35  37
ENDBRANCH  34  35
ENDBRANCH  33  34
ENDBRANCH   1  33
TORSDOF 18
ENDMDL
