MODEL 1
REMARK VINA RESULT:     -12.1      0.000      0.000
REMARK SMILES O=C(NC1(C(=O)OCCOC(=O)c2ccc(-c3c4nc(c(-c5cccc(S(=O)(=O)[O-])c5F)c5ccc([nH]5)c(-c5cccc(S(=O)(=O)[O-])c5F)c5nc(c(-c6cccc(S(=O)(=O)[O-])c6F)c6ccc3[nH]6)C=C5)C=C4)cc2)CCCCC1)c1c[nH]c(=O)c(Cl)c1
REMARK SMILES IDX 9 1 8 2 7 3 5 4 6 5 4 6 76 7 80 8 77 9 79 10 78 11 3 12 1 13
REMARK SMILES IDX 2 14 81 16 82 17 88 18 83 19 86 20 84 21 87 23 85 24 10 25
REMARK SMILES IDX 11 26 12 27 13 28 14 29 75 30 15 31 74 32 16 33 17 34 18 35
REMARK SMILES IDX 68 36 19 37 73 38 67 39 69 40 20 41 72 42 66 43 65 44 21 46
REMARK SMILES IDX 53 47 33 48 52 49 34 50 37 51 51 52 70 53 35 54 36 55 50 57
REMARK SMILES IDX 71 58 38 59 22 60 23 61 31 62 24 63 26 64 32 65 25 66 27 67
REMARK SMILES IDX 28 68 29 69 30 70 54 71 55 72 63 73 56 74 58 75 64 76 57 77
REMARK SMILES IDX 59 78 60 79 61 80 62 81 39 82 40 83 48 84 41 85 43 86 49 87
REMARK SMILES IDX 42 88 44 89 45 90 46 91 47 92
REMARK H PARENT 3 15 83 22 69 45 37 56
REMARK Flexibility Score: inf
ROOT
ATOM      1  C   UNL A   1      36.602  20.735  24.639  1.00  0.00     0.275 C 
ENDROOT
BRANCH   1   2
ATOM      2  C   UNL A   1      35.286  20.022  25.030  1.00  0.00     0.274 C 
BRANCH   2   3
ATOM      3  O   UNL A   1      34.069  20.748  24.724  1.00  0.00    -0.460 OA
BRANCH   3   4
ATOM      4  C   UNL A   1      33.596  21.482  25.760  1.00  0.00     0.331 C 
ATOM      5  O   UNL A   1      33.670  21.088  26.908  1.00  0.00    -0.249 OA
BRANCH   4   6
ATOM      6  C   UNL A   1      33.005  22.864  25.408  1.00  0.00     0.138 C 
ATOM      7  C   UNL A   1      32.644  23.094  23.934  1.00  0.00     0.040 C 
ATOM      8  C   UNL A   1      34.013  23.942  25.895  1.00  0.00     0.040 C 
ATOM      9  C   UNL A   1      33.837  23.352  23.012  1.00  0.00     0.003 C 
ATOM     10  C   UNL A   1      35.216  24.144  24.974  1.00  0.00     0.003 C 
ATOM     11  C   UNL A   1      34.784  24.422  23.543  1.00  0.00     0.000 C 
BRANCH   6  12
ATOM     12  N   UNL A   1      31.763  23.003  26.249  1.00  0.00    -0.336 N 
ATOM     13  O   UNL A   1      29.963  23.725  27.312  1.00  0.00    -0.269 OA
ATOM     14  C   UNL A   1      30.846  23.986  26.490  1.00  0.00     0.253 C 
ATOM     15  H   UNL A   1      31.563  22.180  26.752  1.00  0.00     0.165 HD
BRANCH  14  16
ATOM     16  C   UNL A   1      30.918  25.357  25.901  1.00  0.00     0.057 A 
ATOM     17  C   UNL A   1      31.739  26.223  26.523  1.00  0.00     0.099 A 
ATOM     18  C   UNL A   1      30.059  25.888  24.861  1.00  0.00     0.041 A 
ATOM     19  N   UNL A   1      31.906  27.505  26.046  1.00  0.00    -0.327 N 
ATOM     20  C   UNL A   1      30.251  27.101  24.324  1.00  0.00     0.106 A 
ATOM     21  C   UNL A   1      31.293  27.995  24.909  1.00  0.00     0.266 A 
ATOM     22  H   UNL A   1      32.497  28.110  26.548  1.00  0.00     0.169 HD
ATOM     23  Cl  UNL A   1      29.265  27.692  23.046  1.00  0.00    -0.078 Cl
ATOM     24  O   UNL A   1      31.587  29.088  24.437  1.00  0.00    -0.268 OA
ENDBRANCH  14  16
ENDBRANCH   6  12
ENDBRANCH   4   6
ENDBRANCH   3   4
ENDBRANCH   2   3
ENDBRANCH   1   2
BRANCH   1  25
ATOM     25  O   UNL A   1      37.232  21.444  25.733  1.00  0.00    -0.458 OA
BRANCH  25  26
ATOM     26  C   UNL A   1      38.541  21.148  25.957  1.00  0.00     0.338 C 
ATOM     27  O   UNL A   1      39.117  20.136  25.581  1.00  0.00    -0.246 OA
BRANCH  26  28
ATOM     28  C   UNL A   1      39.275  22.318  26.508  1.00  0.00     0.060 A 
ATOM     29  C   UNL A   1      38.833  23.587  26.104  1.00  0.00     0.016 A 
ATOM     30  C   UNL A   1      40.362  22.217  27.375  1.00  0.00     0.016 A 
ATOM     31  C   UNL A   1      39.427  24.750  26.585  1.00  0.00     0.010 A 
ATOM     32  C   UNL A   1      41.003  23.391  27.817  1.00  0.00     0.010 A 
ATOM     33  C   UNL A   1      40.541  24.662  27.422  1.00  0.00    -0.014 A 
BRANCH  33  34
ATOM     34  C   UNL A   1      41.295  25.901  27.740  1.00  0.00     0.031 A 
ATOM     35  C   UNL A   1      40.600  26.990  28.509  1.00  0.00     0.074 A 
ATOM     36  C   UNL A   1      42.591  26.042  27.407  1.00  0.00     0.049 A 
ATOM     37  N   UNL A   1      41.034  28.175  28.850  1.00  0.00    -0.248 NA
ATOM     38  C   UNL A   1      39.233  26.694  28.968  1.00  0.00     0.031 C 
ATOM     39  C   UNL A   1      43.408  25.032  26.739  1.00  0.00     0.029 A 
ATOM     40  N   UNL A   1      43.444  27.107  27.575  1.00  0.00    -0.354 N 
ATOM     41  C   UNL A   1      39.986  28.781  29.530  1.00  0.00     0.074 A 
ATOM     42  C   UNL A   1      38.895  27.829  29.561  1.00  0.00     0.031 C 
ATOM     43  C   UNL A   1      44.633  25.540  26.515  1.00  0.00     0.029 A 
ATOM     44  C   UNL A   1      44.677  26.921  26.995  1.00  0.00     0.049 A 
ATOM     45  H   UNL A   1      43.196  27.925  28.065  1.00  0.00     0.167 HD
ATOM     46  C   UNL A   1      39.934  30.015  30.083  1.00  0.00     0.034 A 
ATOM     47  C   UNL A   1      45.708  27.777  26.839  1.00  0.00     0.034 A 
ATOM     48  C   UNL A   1      41.019  30.959  30.061  1.00  0.00     0.049 A 
ATOM     49  C   UNL A   1      45.599  29.175  27.398  1.00  0.00     0.074 A 
ATOM     50  C   UNL A   1      41.060  32.235  30.593  1.00  0.00     0.029 A 
ATOM     51  N   UNL A   1      42.251  30.734  29.466  1.00  0.00    -0.354 N 
ATOM     52  N   UNL A   1      44.625  29.716  28.089  1.00  0.00    -0.248 NA
ATOM     53  C   UNL A   1      46.744  30.072  27.178  1.00  0.00     0.031 C 
ATOM     54  C   UNL A   1      42.306  32.795  30.291  1.00  0.00     0.029 A 
ATOM     55  C   UNL A   1      43.055  31.852  29.606  1.00  0.00     0.049 A 
ATOM     56  H   UNL A   1      42.515  29.902  29.011  1.00  0.00     0.167 HD
ATOM     57  C   UNL A   1      45.053  30.999  28.416  1.00  0.00     0.074 A 
ATOM     58  C   UNL A   1      46.383  31.148  27.864  1.00  0.00     0.031 C 
ATOM     59  C   UNL A   1      44.399  31.971  29.101  1.00  0.00     0.034 A 
BRANCH  46  60
ATOM     60  C   UNL A   1      38.647  30.422  30.749  1.00  0.00     0.023 A 
ATOM     61  C   UNL A   1      38.422  30.094  32.102  1.00  0.00     0.012 A 
ATOM     62  C   UNL A   1      37.673  31.153  30.041  1.00  0.00     0.148 A 
ATOM     63  C   UNL A   1      37.230  30.458  32.729  1.00  0.00     0.002 A 
ATOM     64  C   UNL A   1      36.508  31.550  30.686  1.00  0.00     0.091 A 
ATOM     65  F   UNL A   1      37.897  31.432  28.750  1.00  0.00    -0.205 F 
ATOM     66  C   UNL A   1      36.279  31.192  32.024  1.00  0.00     0.022 A 
BRANCH  64  67
ATOM     67  S   UNL A   1      35.256  32.558  29.886  1.00  0.00     0.127 S 
ATOM     68  O   UNL A   1      34.790  31.666  28.827  1.00  0.00    -0.237 OA
ATOM     69  O   UNL A   1      34.296  32.772  30.969  1.00  0.00    -0.237 OA
ATOM     70  O   UNL A   1      35.938  33.763  29.433  1.00  0.00    -0.744 OA
ENDBRANCH  64  67
ENDBRANCH  46  60
BRANCH  47  71
ATOM     71  C   UNL A   1      46.938  27.347  26.112  1.00  0.00     0.023 A 
ATOM     72  C   UNL A   1      47.041  27.557  24.722  1.00  0.00     0.012 A 
ATOM     73  C   UNL A   1      48.002  26.718  26.789  1.00  0.00     0.148 A 
ATOM     74  C   UNL A   1      48.163  27.118  24.017  1.00  0.00     0.002 A 
ATOM     75  C   UNL A   1      49.141  26.336  26.091  1.00  0.00     0.091 A 
ATOM     76  F   UNL A   1      47.876  26.504  28.106  1.00  0.00    -0.205 F 
ATOM     77  C   UNL A   1      49.216  26.518  24.702  1.00  0.00     0.022 A 
BRANCH  75  78
ATOM     78  S   UNL A   1      50.593  25.662  26.905  1.00  0.00     0.127 S 
ATOM     79  O   UNL A   1      50.063  24.433  27.493  1.00  0.00    -0.237 OA
ATOM     80  O   UNL A   1      51.504  25.462  25.777  1.00  0.00    -0.237 OA
ATOM     81  O   UNL A   1      51.023  26.680  27.853  1.00  0.00    -0.744 OA
ENDBRANCH  75  78
ENDBRANCH  47  71
BRANCH  59  82
ATOM     82  C   UNL A   1      45.119  33.275  29.339  1.00  0.00     0.023 A 
ATOM     83  C   UNL A   1      45.896  33.449  30.502  1.00  0.00     0.012 A 
ATOM     84  C   UNL A   1      45.097  34.294  28.366  1.00  0.00     0.148 A 
ATOM     85  C   UNL A   1      46.611  34.629  30.707  1.00  0.00     0.002 A 
ATOM     86  C   UNL A   1      45.853  35.446  28.553  1.00  0.00     0.091 A 
ATOM     87  F   UNL A   1      44.339  34.118  27.273  1.00  0.00    -0.205 F 
ATOM     88  C   UNL A   1      46.601  35.621  29.728  1.00  0.00     0.022 A 
BRANCH  86  89
ATOM     89  S   UNL A   1      45.979  36.731  27.303  1.00  0.00     0.127 S 
ATOM     90  O   UNL A   1      46.381  35.963  26.125  1.00  0.00    -0.237 OA
ATOM     91  O   UNL A   1      44.612  37.251  27.255  1.00  0.00    -0.237 OA
ATOM     92  O   UNL A   1      46.968  37.678  27.798  1.00  0.00    -0.744 OA
ENDBRANCH  86  89
ENDBRANCH  59  82
ENDBRANCH  33  34
ENDBRANCH  26  28
ENDBRANCH  25  26
ENDBRANCH   1  25
TORSDOF 16
ENDMDL
MODEL 2
REMARK VINA RESULT:     -11.9      5.352     10.108
REMARK SMILES O=C(NC1(C(=O)OCCOC(=O)c2ccc(-c3c4nc(c(-c5cccc(S(=O)(=O)[O-])c5F)c5ccc([nH]5)c(-c5cccc(S(=O)(=O)[O-])c5F)c5nc(c(-c6cccc(S(=O)(=O)[O-])c6F)c6ccc3[nH]6)C=C5)C=C4)cc2)CCCCC1)c1c[nH]c(=O)c(Cl)c1
REMARK SMILES IDX 9 1 8 2 7 3 5 4 6 5 4 6 76 7 80 8 77 9 79 10 78 11 3 12 1 13
REMARK SMILES IDX 2 14 81 16 82 17 88 18 83 19 86 20 84 21 87 23 85 24 10 25
REMARK SMILES IDX 11 26 12 27 13 28 14 29 75 30 15 31 74 32 16 33 17 34 18 35
REMARK SMILES IDX 68 36 19 37 73 38 67 39 69 40 20 41 72 42 66 43 65 44 21 46
REMARK SMILES IDX 53 47 33 48 52 49 34 50 37 51 51 52 70 53 35 54 36 55 50 57
REMARK SMILES IDX 71 58 38 59 22 60 23 61 31 62 24 63 26 64 32 65 25 66 27 67
REMARK SMILES IDX 28 68 29 69 30 70 54 71 55 72 63 73 56 74 58 75 64 76 57 77
REMARK SMILES IDX 59 78 60 79 61 80 62 81 39 82 40 83 48 84 41 85 43 86 49 87
REMARK SMILES IDX 42 88 44 89 45 90 46 91 47 92
REMARK H PARENT 3 15 83 22 69 45 37 56
REMARK Flexibility Score: inf
ROOT
ATOM      1  C   UNL A   1      31.415  30.520  25.442  1.00  0.00     0.275 C 
ENDROOT
BRANCH   1   2
ATOM      2  C   UNL A   1      31.036  29.266  24.619  1.00  0.00     0.274 C 
BRANCH   2   3
ATOM      3  O   UNL A   1      32.100  28.705  23.811  1.00  0.00    -0.460 OA
BRANCH   3   4
ATOM      4  C   UNL A   1      31.718  27.636  23.072  1.00  0.00     0.331 C 
ATOM      5  O   UNL A   1      30.953  27.748  22.133  1.00  0.00    -0.249 OA
BRANCH   4   6
ATOM      6  C   UNL A   1      32.343  26.277  23.458  1.00  0.00     0.138 C 
ATOM      7  C   UNL A   1      31.488  25.361  24.342  1.00  0.00     0.040 C 
ATOM      8  C   UNL A   1      33.709  26.568  24.139  1.00  0.00     0.040 C 
ATOM      9  C   UNL A   1      31.421  25.766  25.815  1.00  0.00     0.003 C 
ATOM     10  C   UNL A   1      33.606  27.014  25.597  1.00  0.00     0.003 C 
ATOM     11  C   UNL A   1      32.793  26.032  26.425  1.00  0.00     0.000 C 
BRANCH   6  12
ATOM     12  N   UNL A   1      32.634  25.578  22.155  1.00  0.00    -0.336 N 
ATOM     13  O   UNL A   1      33.267  24.168  20.574  1.00  0.00    -0.269 OA
ATOM     14  C   UNL A   1      33.123  24.358  21.784  1.00  0.00     0.253 C 
ATOM     15  H   UNL A   1      32.420  26.142  21.377  1.00  0.00     0.165 HD
BRANCH  14  16
ATOM     16  C   UNL A   1      33.574  23.311  22.751  1.00  0.00     0.057 A 
ATOM     17  C   UNL A   1      34.865  23.373  23.126  1.00  0.00     0.099 A 
ATOM     18  C   UNL A   1      32.818  22.144  23.163  1.00  0.00     0.041 A 
ATOM     19  N   UNL A   1      35.379  22.475  24.038  1.00  0.00    -0.327 N 
ATOM     20  C   UNL A   1      33.262  21.302  24.106  1.00  0.00     0.106 A 
ATOM     21  C   UNL A   1      34.638  21.485  24.652  1.00  0.00     0.266 A 
ATOM     22  H   UNL A   1      36.334  22.545  24.263  1.00  0.00     0.169 HD
ATOM     23  Cl  UNL A   1      32.326  19.959  24.633  1.00  0.00    -0.078 Cl
ATOM     24  O   UNL A   1      35.098  20.809  25.566  1.00  0.00    -0.268 OA
ENDBRANCH  14  16
ENDBRANCH   6  12
ENDBRANCH   4   6
ENDBRANCH   3   4
ENDBRANCH   2   3
ENDBRANCH   1   2
BRANCH   1  25
ATOM     25  O   UNL A   1      32.671  30.397  26.152  1.00  0.00    -0.458 OA
BRANCH  25  26
ATOM     26  C   UNL A   1      33.015  31.453  26.939  1.00  0.00     0.338 C 
ATOM     27  O   UNL A   1      32.275  32.376  27.255  1.00  0.00    -0.246 OA
BRANCH  26  28
ATOM     28  C   UNL A   1      34.336  31.239  27.588  1.00  0.00     0.060 A 
ATOM     29  C   UNL A   1      34.648  29.924  27.962  1.00  0.00     0.016 A 
ATOM     30  C   UNL A   1      35.250  32.259  27.847  1.00  0.00     0.016 A 
ATOM     31  C   UNL A   1      35.871  29.606  28.547  1.00  0.00     0.010 A 
ATOM     32  C   UNL A   1      36.463  31.950  28.491  1.00  0.00     0.010 A 
ATOM     33  C   UNL A   1      36.777  30.624  28.847  1.00  0.00    -0.014 A 
BRANCH  33  34
ATOM     34  C   UNL A   1      37.970  30.297  29.670  1.00  0.00     0.031 A 
ATOM     35  C   UNL A   1      39.003  29.364  29.103  1.00  0.00     0.074 A 
ATOM     36  C   UNL A   1      38.169  30.861  30.876  1.00  0.00     0.049 A 
ATOM     37  N   UNL A   1      40.090  28.891  29.655  1.00  0.00    -0.248 NA
ATOM     38  C   UNL A   1      38.785  28.913  27.719  1.00  0.00     0.031 C 
ATOM     39  C   UNL A   1      37.294  31.847  31.504  1.00  0.00     0.029 A 
ATOM     40  N   UNL A   1      39.173  30.667  31.795  1.00  0.00    -0.354 N 
ATOM     41  C   UNL A   1      40.667  28.061  28.704  1.00  0.00     0.074 A 
ATOM     42  C   UNL A   1      39.815  28.099  27.535  1.00  0.00     0.031 C 
ATOM     43  C   UNL A   1      37.775  32.141  32.726  1.00  0.00     0.029 A 
ATOM     44  C   UNL A   1      38.974  31.342  32.977  1.00  0.00     0.049 A 
ATOM     45  H   UNL A   1      39.960  30.100  31.624  1.00  0.00     0.167 HD
ATOM     46  C   UNL A   1      41.806  27.335  28.791  1.00  0.00     0.034 A 
ATOM     47  C   UNL A   1      39.659  31.293  34.138  1.00  0.00     0.034 A 
ATOM     48  C   UNL A   1      42.660  27.302  29.948  1.00  0.00     0.049 A 
ATOM     49  C   UNL A   1      40.885  30.417  34.236  1.00  0.00     0.074 A 
ATOM     50  C   UNL A   1      43.834  26.594  30.130  1.00  0.00     0.029 A 
ATOM     51  N   UNL A   1      42.426  27.998  31.123  1.00  0.00    -0.354 N 
ATOM     52  N   UNL A   1      41.452  29.682  33.312  1.00  0.00    -0.248 NA
ATOM     53  C   UNL A   1      41.579  30.384  35.533  1.00  0.00     0.031 C 
ATOM     54  C   UNL A   1      44.294  26.837  31.429  1.00  0.00     0.029 A 
ATOM     55  C   UNL A   1      43.426  27.727  32.041  1.00  0.00     0.049 A 
ATOM     56  H   UNL A   1      41.662  28.598  31.282  1.00  0.00     0.167 HD
ATOM     57  C   UNL A   1      42.586  29.130  33.901  1.00  0.00     0.074 A 
ATOM     58  C   UNL A   1      42.635  29.632  35.258  1.00  0.00     0.031 C 
ATOM     59  C   UNL A   1      43.497  28.276  33.371  1.00  0.00     0.034 A 
BRANCH  46  60
ATOM     60  C   UNL A   1      42.187  26.499  27.598  1.00  0.00     0.023 A 
ATOM     61  C   UNL A   1      42.889  27.085  26.525  1.00  0.00     0.012 A 
ATOM     62  C   UNL A   1      41.873  25.127  27.554  1.00  0.00     0.148 A 
ATOM     63  C   UNL A   1      43.241  26.323  25.410  1.00  0.00     0.002 A 
ATOM     64  C   UNL A   1      42.266  24.366  26.460  1.00  0.00     0.091 A 
ATOM     65  F   UNL A   1      41.184  24.597  28.574  1.00  0.00    -0.205 F 
ATOM     66  C   UNL A   1      42.937  24.965  25.382  1.00  0.00     0.022 A 
BRANCH  64  67
ATOM     67  S   UNL A   1      41.985  22.596  26.363  1.00  0.00     0.127 S 
ATOM     68  O   UNL A   1      40.525  22.527  26.362  1.00  0.00    -0.237 OA
ATOM     69  O   UNL A   1      42.611  22.254  25.085  1.00  0.00    -0.237 OA
ATOM     70  O   UNL A   1      42.636  22.019  27.531  1.00  0.00    -0.744 OA
ENDBRANCH  64  67
ENDBRANCH  46  60
BRANCH  47  71
ATOM     71  C   UNL A   1      39.203  32.090  35.314  1.00  0.00     0.023 A 
ATOM     72  C   UNL A   1      39.484  33.469  35.378  1.00  0.00     0.012 A 
ATOM     73  C   UNL A   1      38.503  31.484  36.377  1.00  0.00     0.148 A 
ATOM     74  C   UNL A   1      39.108  34.221  36.493  1.00  0.00     0.002 A 
ATOM     75  C   UNL A   1      38.081  32.250  37.457  1.00  0.00     0.091 A 
ATOM     76  F   UNL A   1      38.267  30.166  36.311  1.00  0.00    -0.205 F 
ATOM     77  C   UNL A   1      38.398  33.615  37.526  1.00  0.00     0.022 A 
BRANCH  75  78
ATOM     78  S   UNL A   1      37.063  31.581  38.777  1.00  0.00     0.127 S 
ATOM     79  O   UNL A   1      37.927  31.760  39.941  1.00  0.00    -0.237 OA
ATOM     80  O   UNL A   1      35.897  32.465  38.734  1.00  0.00    -0.237 OA
ATOM     81  O   UNL A   1      36.787  30.202  38.402  1.00  0.00    -0.744 OA
ENDBRANCH  75  78
ENDBRANCH  47  71
BRANCH  59  82
ATOM     82  C   UNL A   1      44.658  27.855  34.237  1.00  0.00     0.023 A 
ATOM     83  C   UNL A   1      45.825  28.643  34.283  1.00  0.00     0.012 A 
ATOM     84  C   UNL A   1      44.557  26.724  35.071  1.00  0.00     0.148 A 
ATOM     85  C   UNL A   1      46.885  28.295  35.121  1.00  0.00     0.002 A 
ATOM     86  C   UNL A   1      45.595  26.412  35.942  1.00  0.00     0.091 A 
ATOM     87  F   UNL A   1      43.446  25.976  35.003  1.00  0.00    -0.205 F 
ATOM     88  C   UNL A   1      46.765  27.189  35.959  1.00  0.00     0.022 A 
BRANCH  86  89
ATOM     89  S   UNL A   1      45.489  25.066  37.127  1.00  0.00     0.127 S 
ATOM     90  O   UNL A   1      45.487  23.895  36.250  1.00  0.00    -0.237 OA
ATOM     91  O   UNL A   1      46.714  25.241  37.907  1.00  0.00    -0.237 OA
ATOM     92  O   UNL A   1      44.259  25.285  37.876  1.00  0.00    -0.744 OA
ENDBRANCH  86  89
ENDBRANCH  59  82
ENDBRANCH  33  34
ENDBRANCH  26  28
ENDBRANCH  25  26
ENDBRANCH   1  25
TORSDOF 16
ENDMDL
MODEL 3
REMARK VINA RESULT:     -11.9      4.899      9.869
REMARK SMILES O=C(NC1(C(=O)OCCOC(=O)c2ccc(-c3c4nc(c(-c5cccc(S(=O)(=O)[O-])c5F)c5ccc([nH]5)c(-c5cccc(S(=O)(=O)[O-])c5F)c5nc(c(-c6cccc(S(=O)(=O)[O-])c6F)c6ccc3[nH]6)C=C5)C=C4)cc2)CCCCC1)c1c[nH]c(=O)c(Cl)c1
REMARK SMILES IDX 9 1 8 2 7 3 5 4 6 5 4 6 76 7 80 8 77 9 79 10 78 11 3 12 1 13
REMARK SMILES IDX 2 14 81 16 82 17 88 18 83 19 86 20 84 21 87 23 85 24 10 25
REMARK SMILES IDX 11 26 12 27 13 28 14 29 75 30 15 31 74 32 16 33 17 34 18 35
REMARK SMILES IDX 68 36 19 37 73 38 67 39 69 40 20 41 72 42 66 43 65 44 21 46
REMARK SMILES IDX 53 47 33 48 52 49 34 50 37 51 51 52 70 53 35 54 36 55 50 57
REMARK SMILES IDX 71 58 38 59 22 60 23 61 31 62 24 63 26 64 32 65 25 66 27 67
REMARK SMILES IDX 28 68 29 69 30 70 54 71 55 72 63 73 56 74 58 75 64 76 57 77
REMARK SMILES IDX 59 78 60 79 61 80 62 81 39 82 40 83 48 84 41 85 43 86 49 87
REMARK SMILES IDX 42 88 44 89 45 90 46 91 47 92
REMARK H PARENT 3 15 83 22 69 45 37 56
REMARK Flexibility Score: inf
ROOT
ATOM      1  C   UNL A   1      31.654  29.449  26.546  1.00  0.00     0.275 C 
ENDROOT
BRANCH   1   2
ATOM      2  C   UNL A   1      31.774  28.185  27.428  1.00  0.00     0.274 C 
BRANCH   2   3
ATOM      3  O   UNL A   1      31.184  26.981  26.877  1.00  0.00    -0.460 OA
BRANCH   3   4
ATOM      4  C   UNL A   1      31.939  26.393  25.917  1.00  0.00     0.331 C 
ATOM      5  O   UNL A   1      33.154  26.383  25.977  1.00  0.00    -0.249 OA
BRANCH   4   6
ATOM      6  C   UNL A   1      31.172  25.698  24.772  1.00  0.00     0.138 C 
ATOM      7  C   UNL A   1      31.932  25.526  23.450  1.00  0.00     0.040 C 
ATOM      8  C   UNL A   1      29.855  26.490  24.542  1.00  0.00     0.040 C 
ATOM      9  C   UNL A   1      32.061  26.799  22.612  1.00  0.00     0.003 C 
ATOM     10  C   UNL A   1      30.025  27.780  23.739  1.00  0.00     0.003 C 
ATOM     11  C   UNL A   1      30.736  27.527  22.419  1.00  0.00     0.000 C 
BRANCH   6  12
ATOM     12  N   UNL A   1      30.789  24.341  25.303  1.00  0.00    -0.336 N 
ATOM     13  O   UNL A   1      30.763  22.258  26.046  1.00  0.00    -0.269 OA
ATOM     14  C   UNL A   1      31.457  23.223  25.712  1.00  0.00     0.253 C 
ATOM     15  H   UNL A   1      29.812  24.232  25.370  1.00  0.00     0.165 HD
BRANCH  14  16
ATOM     16  C   UNL A   1      32.944  23.080  25.679  1.00  0.00     0.057 A 
ATOM     17  C   UNL A   1      33.561  23.059  26.874  1.00  0.00     0.099 A 
ATOM     18  C   UNL A   1      33.785  23.156  24.500  1.00  0.00     0.041 A 
ATOM     19  N   UNL A   1      34.927  22.900  26.961  1.00  0.00    -0.327 N 
ATOM     20  C   UNL A   1      35.104  22.925  24.546  1.00  0.00     0.106 A 
ATOM     21  C   UNL A   1      35.758  22.723  25.872  1.00  0.00     0.266 A 
ATOM     22  H   UNL A   1      35.336  22.915  27.856  1.00  0.00     0.169 HD
ATOM     23  Cl  UNL A   1      36.079  22.953  23.130  1.00  0.00    -0.078 Cl
ATOM     24  O   UNL A   1      36.942  22.434  26.004  1.00  0.00    -0.268 OA
ENDBRANCH  14  16
ENDBRANCH   6  12
ENDBRANCH   4   6
ENDBRANCH   3   4
ENDBRANCH   2   3
ENDBRANCH   1   2
BRANCH   1  25
ATOM     25  O   UNL A   1      32.926  30.051  26.206  1.00  0.00    -0.458 OA
BRANCH  25  26
ATOM     26  C   UNL A   1      33.278  31.147  26.932  1.00  0.00     0.338 C 
ATOM     27  O   UNL A   1      32.550  32.099  27.182  1.00  0.00    -0.246 OA
BRANCH  26  28
ATOM     28  C   UNL A   1      34.588  30.952  27.608  1.00  0.00     0.060 A 
ATOM     29  C   UNL A   1      34.920  29.638  27.971  1.00  0.00     0.016 A 
ATOM     30  C   UNL A   1      35.473  31.988  27.904  1.00  0.00     0.016 A 
ATOM     31  C   UNL A   1      36.136  29.339  28.580  1.00  0.00     0.010 A 
ATOM     32  C   UNL A   1      36.677  31.696  28.572  1.00  0.00     0.010 A 
ATOM     33  C   UNL A   1      37.013  30.371  28.916  1.00  0.00    -0.014 A 
BRANCH  33  34
ATOM     34  C   UNL A   1      38.193  30.058  29.762  1.00  0.00     0.031 A 
ATOM     35  C   UNL A   1      39.238  29.121  29.223  1.00  0.00     0.074 A 
ATOM     36  C   UNL A   1      38.371  30.637  30.964  1.00  0.00     0.049 A 
ATOM     37  N   UNL A   1      40.317  28.659  29.799  1.00  0.00    -0.248 NA
ATOM     38  C   UNL A   1      39.044  28.653  27.842  1.00  0.00     0.031 C 
ATOM     39  C   UNL A   1      37.482  31.628  31.566  1.00  0.00     0.029 A 
ATOM     40  N   UNL A   1      39.360  30.458  31.902  1.00  0.00    -0.354 N 
ATOM     41  C   UNL A   1      40.912  27.819  28.867  1.00  0.00     0.074 A 
ATOM     42  C   UNL A   1      40.078  27.841  27.684  1.00  0.00     0.031 C 
ATOM     43  C   UNL A   1      37.943  31.938  32.792  1.00  0.00     0.029 A 
ATOM     44  C   UNL A   1      39.140  31.146  33.072  1.00  0.00     0.049 A 
ATOM     45  H   UNL A   1      40.151  29.891  31.750  1.00  0.00     0.167 HD
ATOM     46  C   UNL A   1      42.051  27.097  28.981  1.00  0.00     0.034 A 
ATOM     47  C   UNL A   1      39.806  31.113  34.245  1.00  0.00     0.034 A 
ATOM     48  C   UNL A   1      42.886  27.081  30.152  1.00  0.00     0.049 A 
ATOM     49  C   UNL A   1      41.033  30.242  34.373  1.00  0.00     0.074 A 
ATOM     50  C   UNL A   1      44.060  26.380  30.362  1.00  0.00     0.029 A 
ATOM     51  N   UNL A   1      42.631  27.791  31.315  1.00  0.00    -0.354 N 
ATOM     52  N   UNL A   1      41.617  29.497  33.467  1.00  0.00    -0.248 NA
ATOM     53  C   UNL A   1      41.706  30.228  35.681  1.00  0.00     0.031 C 
ATOM     54  C   UNL A   1      44.497  26.640  31.665  1.00  0.00     0.029 A 
ATOM     55  C   UNL A   1      43.617  27.534  32.252  1.00  0.00     0.049 A 
ATOM     56  H   UNL A   1      41.863  28.390  31.454  1.00  0.00     0.167 HD
ATOM     57  C   UNL A   1      42.743  28.957  34.082  1.00  0.00     0.074 A 
ATOM     58  C   UNL A   1      42.769  29.475  35.433  1.00  0.00     0.031 C 
ATOM     59  C   UNL A   1      43.665  28.099  33.577  1.00  0.00     0.034 A 
BRANCH  46  60
ATOM     60  C   UNL A   1      42.454  26.249  27.805  1.00  0.00     0.023 A 
ATOM     61  C   UNL A   1      43.315  26.775  26.820  1.00  0.00     0.012 A 
ATOM     62  C   UNL A   1      42.001  24.920  27.691  1.00  0.00     0.148 A 
ATOM     63  C   UNL A   1      43.689  26.002  25.721  1.00  0.00     0.002 A 
ATOM     64  C   UNL A   1      42.414  24.142  26.616  1.00  0.00     0.091 A 
ATOM     65  F   UNL A   1      41.164  24.448  28.626  1.00  0.00    -0.205 F 
ATOM     66  C   UNL A   1      43.246  24.685  25.625  1.00  0.00     0.022 A 
BRANCH  64  67
ATOM     67  S   UNL A   1      41.956  22.415  26.441  1.00  0.00     0.127 S 
ATOM     68  O   UNL A   1      42.476  21.844  27.682  1.00  0.00    -0.237 OA
ATOM     69  O   UNL A   1      40.496  22.490  26.371  1.00  0.00    -0.237 OA
ATOM     70  O   UNL A   1      42.599  21.949  25.221  1.00  0.00    -0.744 OA
ENDBRANCH  64  67
ENDBRANCH  46  60
BRANCH  47  71
ATOM     71  C   UNL A   1      39.329  31.923  35.404  1.00  0.00     0.023 A 
ATOM     72  C   UNL A   1      38.384  31.379  36.297  1.00  0.00     0.012 A 
ATOM     73  C   UNL A   1      39.795  33.235  35.616  1.00  0.00     0.148 A 
ATOM     74  C   UNL A   1      37.890  32.139  37.359  1.00  0.00     0.002 A 
ATOM     75  C   UNL A   1      39.342  33.966  36.708  1.00  0.00     0.091 A 
ATOM     76  F   UNL A   1      40.674  33.745  34.742  1.00  0.00    -0.205 F 
ATOM     77  C   UNL A   1      38.376  33.426  37.570  1.00  0.00     0.022 A 
BRANCH  75  78
ATOM     78  S   UNL A   1      39.996  35.585  37.126  1.00  0.00     0.127 S 
ATOM     79  O   UNL A   1      39.307  35.871  38.383  1.00  0.00    -0.237 OA
ATOM     80  O   UNL A   1      41.427  35.306  37.258  1.00  0.00    -0.237 OA
ATOM     81  O   UNL A   1      39.652  36.451  36.007  1.00  0.00    -0.744 OA
ENDBRANCH  75  78
ENDBRANCH  47  71
BRANCH  59  82
ATOM     82  C   UNL A   1      44.813  27.692  34.466  1.00  0.00     0.023 A 
ATOM     83  C   UNL A   1      45.958  28.509  34.556  1.00  0.00     0.012 A 
ATOM     84  C   UNL A   1      44.719  26.545  35.278  1.00  0.00     0.148 A 
ATOM     85  C   UNL A   1      47.004  28.172  35.417  1.00  0.00     0.002 A 
ATOM     86  C   UNL A   1      45.741  26.243  36.171  1.00  0.00     0.091 A 
ATOM     87  F   UNL A   1      43.630  25.770  35.168  1.00  0.00    -0.205 F 
ATOM     88  C   UNL A   1      46.890  27.049  36.233  1.00  0.00     0.022 A 
BRANCH  86  89
ATOM     89  S   UNL A   1      45.638  24.875  37.330  1.00  0.00     0.127 S 
ATOM     90  O   UNL A   1      45.819  23.722  36.448  1.00  0.00    -0.237 OA
ATOM     91  O   UNL A   1      46.764  25.140  38.226  1.00  0.00    -0.237 OA
ATOM     92  O   UNL A   1      44.328  24.978  37.960  1.00  0.00    -0.744 OA
ENDBRANCH  86  89
ENDBRANCH  59  82
ENDBRANCH  33  34
ENDBRANCH  26  28
ENDBRANCH  25  26
ENDBRANCH   1  25
TORSDOF 16
ENDMDL
