MODEL 1
REMARK VINA RESULT:     -11.2      0.000      0.000
REMARK SMILES Cc1cc(NCc2ccco2)cc(C(=O)OCCOC(=O)c2ccc(-c3c4nc(c(-c5cccc(S(=O)(=O)[O-])c5F)c5ccc([nH]5)c(-c5cccc(S(=O)(=O)[O-])c5F)c5nc(c(-c6cccc(S(=O)(=O)[O-])c6F)c6ccc3[nH]6)C=C5)C=C4)cc2)c1N
REMARK SMILES IDX 17 1 16 2 14 3 15 4 13 5 1 6 2 7 3 8 85 9 4 10 12 11 86 12
REMARK SMILES IDX 5 15 6 17 7 18 8 19 11 20 9 21 10 22 18 23 19 24 20 25 21 26
REMARK SMILES IDX 22 27 23 28 84 29 24 30 83 31 25 32 26 33 27 34 77 35 28 36
REMARK SMILES IDX 82 37 76 38 78 39 29 40 81 41 75 42 74 43 30 45 62 46 42 47
REMARK SMILES IDX 61 48 43 49 46 50 60 51 79 52 44 53 45 54 59 56 80 57 47 58
REMARK SMILES IDX 31 59 32 60 40 61 33 62 35 63 41 64 34 65 36 66 37 67 38 68
REMARK SMILES IDX 39 69 63 70 64 71 72 72 65 73 67 74 73 75 66 76 68 77 69 78
REMARK SMILES IDX 70 79 71 80 48 81 49 82 57 83 50 84 52 85 58 86 51 87 53 88
REMARK SMILES IDX 54 89 55 90 56 91
REMARK H PARENT 86 13 86 14 5 16 78 44 46 55
REMARK Flexibility Score: inf
ROOT
ATOM      1  C   UNL A   1      31.443  28.297  25.250  1.00  0.00     0.275 C 
ENDROOT
BRANCH   1   2
ATOM      2  O   UNL A   1      30.834  27.855  24.018  1.00  0.00    -0.458 OA
BRANCH   2   3
ATOM      3  C   UNL A   1      29.942  26.833  24.118  1.00  0.00     0.340 C 
ATOM      4  O   UNL A   1      28.739  26.907  23.917  1.00  0.00    -0.246 OA
BRANCH   3   5
ATOM      5  C   UNL A   1      30.648  25.565  24.455  1.00  0.00     0.085 A 
ATOM      6  C   UNL A   1      30.394  22.630  26.877  1.00  0.00     0.047 C 
ATOM      7  C   UNL A   1      30.865  23.568  25.795  1.00  0.00    -0.025 A 
ATOM      8  C   UNL A   1      31.909  23.151  24.947  1.00  0.00     0.031 A 
ATOM      9  C   UNL A   1      30.278  24.829  25.602  1.00  0.00     0.049 A 
ATOM     10  C   UNL A   1      32.382  23.944  23.893  1.00  0.00     0.036 A 
ATOM     11  C   UNL A   1      31.700  25.129  23.628  1.00  0.00     0.043 A 
BRANCH   9  12
ATOM     12  N   UNL A   1      29.258  25.258  26.450  1.00  0.00    -0.398 N 
ATOM     13  H   UNL A   1      28.681  24.597  26.899  1.00  0.00     0.156 HD
ATOM     14  H   UNL A   1      29.114  26.219  26.601  1.00  0.00     0.156 HD
ENDBRANCH   9  12
BRANCH  10  15
ATOM     15  N   UNL A   1      33.433  23.467  23.130  1.00  0.00    -0.378 N 
ATOM     16  H   UNL A   1      33.211  22.921  22.342  1.00  0.00     0.161 HD
BRANCH  15  17
ATOM     17  C   UNL A   1      34.840  23.712  23.403  1.00  0.00     0.188 C 
BRANCH  17  18
ATOM     18  C   UNL A   1      35.569  22.573  24.032  1.00  0.00     0.122 A 
ATOM     19  C   UNL A   1      35.166  21.373  24.582  1.00  0.00     0.047 A 
ATOM     20  O   UNL A   1      36.928  22.690  24.123  1.00  0.00    -0.467 OA
ATOM     21  C   UNL A   1      36.341  20.719  25.025  1.00  0.00     0.042 A 
ATOM     22  C   UNL A   1      37.386  21.558  24.714  1.00  0.00     0.195 A 
ENDBRANCH  17  18
ENDBRANCH  15  17
ENDBRANCH  10  15
ENDBRANCH   3   5
ENDBRANCH   2   3
ENDBRANCH   1   2
BRANCH   1  23
ATOM     23  C   UNL A   1      31.506  29.823  25.291  1.00  0.00     0.275 C 
BRANCH  23  24
ATOM     24  O   UNL A   1      32.844  30.216  25.622  1.00  0.00    -0.458 OA
BRANCH  24  25
ATOM     25  C   UNL A   1      32.978  31.053  26.679  1.00  0.00     0.338 C 
ATOM     26  O   UNL A   1      32.168  31.883  27.052  1.00  0.00    -0.246 OA
BRANCH  25  27
ATOM     27  C   UNL A   1      34.286  30.802  27.336  1.00  0.00     0.060 A 
ATOM     28  C   UNL A   1      34.709  29.499  27.599  1.00  0.00     0.016 A 
ATOM     29  C   UNL A   1      35.078  31.873  27.751  1.00  0.00     0.016 A 
ATOM     30  C   UNL A   1      35.882  29.262  28.317  1.00  0.00     0.010 A 
ATOM     31  C   UNL A   1      36.296  31.630  28.402  1.00  0.00     0.010 A 
ATOM     32  C   UNL A   1      36.704  30.321  28.721  1.00  0.00    -0.014 A 
BRANCH  32  33
ATOM     33  C   UNL A   1      37.941  30.071  29.525  1.00  0.00     0.031 A 
ATOM     34  C   UNL A   1      39.051  29.223  28.954  1.00  0.00     0.074 A 
ATOM     35  C   UNL A   1      38.095  30.590  30.762  1.00  0.00     0.049 A 
ATOM     36  N   UNL A   1      40.086  28.697  29.559  1.00  0.00    -0.248 NA
ATOM     37  C   UNL A   1      38.975  28.907  27.519  1.00  0.00     0.031 C 
ATOM     38  C   UNL A   1      37.133  31.450  31.451  1.00  0.00     0.029 A 
ATOM     39  N   UNL A   1      39.127  30.465  31.666  1.00  0.00    -0.354 N 
ATOM     40  C   UNL A   1      40.720  27.905  28.607  1.00  0.00     0.074 A 
ATOM     41  C   UNL A   1      39.971  28.044  27.377  1.00  0.00     0.031 C 
ATOM     42  C   UNL A   1      37.632  31.807  32.645  1.00  0.00     0.029 A 
ATOM     43  C   UNL A   1      38.910  31.132  32.852  1.00  0.00     0.049 A 
ATOM     44  H   UNL A   1      39.944  29.948  31.482  1.00  0.00     0.167 HD
ATOM     45  C   UNL A   1      41.827  27.137  28.743  1.00  0.00     0.034 A 
ATOM     46  C   UNL A   1      39.628  31.166  33.993  1.00  0.00     0.034 A 
ATOM     47  C   UNL A   1      42.643  27.088  29.927  1.00  0.00     0.049 A 
ATOM     48  C   UNL A   1      40.893  30.357  34.097  1.00  0.00     0.074 A 
ATOM     49  C   UNL A   1      43.797  26.354  30.147  1.00  0.00     0.029 A 
ATOM     50  N   UNL A   1      42.417  27.829  31.075  1.00  0.00    -0.354 N 
ATOM     51  N   UNL A   1      41.467  29.605  33.191  1.00  0.00    -0.248 NA
ATOM     52  C   UNL A   1      41.607  30.398  35.382  1.00  0.00     0.031 C 
ATOM     53  C   UNL A   1      44.276  26.662  31.425  1.00  0.00     0.029 A 
ATOM     54  C   UNL A   1      43.421  27.588  31.999  1.00  0.00     0.049 A 
ATOM     55  H   UNL A   1      41.656  28.438  31.214  1.00  0.00     0.167 HD
ATOM     56  C   UNL A   1      42.607  29.086  33.793  1.00  0.00     0.074 A 
ATOM     57  C   UNL A   1      42.668  29.644  35.127  1.00  0.00     0.031 C 
ATOM     58  C   UNL A   1      43.503  28.196  33.300  1.00  0.00     0.034 A 
BRANCH  45  59
ATOM     59  C   UNL A   1      42.252  26.301  27.565  1.00  0.00     0.023 A 
ATOM     60  C   UNL A   1      43.120  26.842  26.599  1.00  0.00     0.012 A 
ATOM     61  C   UNL A   1      41.846  24.954  27.457  1.00  0.00     0.148 A 
ATOM     62  C   UNL A   1      43.561  26.064  25.529  1.00  0.00     0.002 A 
ATOM     63  C   UNL A   1      42.322  24.174  26.411  1.00  0.00     0.091 A 
ATOM     64  F   UNL A   1      41.000  24.465  28.375  1.00  0.00    -0.205 F 
ATOM     65  C   UNL A   1      43.173  24.729  25.441  1.00  0.00     0.022 A 
BRANCH  63  66
ATOM     66  S   UNL A   1      41.941  22.425  26.262  1.00  0.00     0.127 S 
ATOM     67  O   UNL A   1      42.661  22.068  25.041  1.00  0.00    -0.237 OA
ATOM     68  O   UNL A   1      42.515  21.875  27.490  1.00  0.00    -0.237 OA
ATOM     69  O   UNL A   1      40.489  22.339  26.182  1.00  0.00    -0.744 OA
ENDBRANCH  63  66
ENDBRANCH  45  59
BRANCH  46  70
ATOM     70  C   UNL A   1      39.170  32.013  35.133  1.00  0.00     0.023 A 
ATOM     71  C   UNL A   1      38.272  31.477  36.077  1.00  0.00     0.012 A 
ATOM     72  C   UNL A   1      39.649  33.324  35.315  1.00  0.00     0.148 A 
ATOM     73  C   UNL A   1      37.854  32.235  37.172  1.00  0.00     0.002 A 
ATOM     74  C   UNL A   1      39.284  34.047  36.446  1.00  0.00     0.091 A 
ATOM     75  F   UNL A   1      40.470  33.841  34.390  1.00  0.00    -0.205 F 
ATOM     76  C   UNL A   1      38.374  33.512  37.367  1.00  0.00     0.022 A 
BRANCH  74  77
ATOM     77  S   UNL A   1      40.061  35.619  36.835  1.00  0.00     0.127 S 
ATOM     78  O   UNL A   1      39.642  36.453  35.712  1.00  0.00    -0.237 OA
ATOM     79  O   UNL A   1      39.448  35.964  38.120  1.00  0.00    -0.237 OA
ATOM     80  O   UNL A   1      41.484  35.320  36.924  1.00  0.00    -0.744 OA
ENDBRANCH  74  77
ENDBRANCH  46  70
BRANCH  58  81
ATOM     81  C   UNL A   1      44.634  27.774  34.198  1.00  0.00     0.023 A 
ATOM     82  C   UNL A   1      45.835  28.511  34.185  1.00  0.00     0.012 A 
ATOM     83  C   UNL A   1      44.489  26.701  35.097  1.00  0.00     0.148 A 
ATOM     84  C   UNL A   1      46.884  28.171  35.038  1.00  0.00     0.002 A 
ATOM     85  C   UNL A   1      45.527  26.390  35.969  1.00  0.00     0.091 A 
ATOM     86  F   UNL A   1      43.348  25.998  35.079  1.00  0.00    -0.205 F 
ATOM     87  C   UNL A   1      46.727  27.119  35.936  1.00  0.00     0.022 A 
BRANCH  85  88
ATOM     88  S   UNL A   1      45.377  25.097  37.209  1.00  0.00     0.127 S 
ATOM     89  O   UNL A   1      44.235  25.565  37.991  1.00  0.00    -0.237 OA
ATOM     90  O   UNL A   1      45.113  23.909  36.396  1.00  0.00    -0.237 OA
ATOM     91  O   UNL A   1      46.655  25.071  37.909  1.00  0.00    -0.744 OA
ENDBRANCH  85  88
ENDBRANCH  58  81
ENDBRANCH  32  33
ENDBRANCH  25  27
ENDBRANCH  24  25
ENDBRANCH  23  24
ENDBRANCH   1  23
TORSDOF 18
ENDMDL
MODEL 2
REMARK VINA RESULT:     -11.0      1.779      2.315
REMARK SMILES Cc1cc(NCc2ccco2)cc(C(=O)OCCOC(=O)c2ccc(-c3c4nc(c(-c5cccc(S(=O)(=O)[O-])c5F)c5ccc([nH]5)c(-c5cccc(S(=O)(=O)[O-])c5F)c5nc(c(-c6cccc(S(=O)(=O)[O-])c6F)c6ccc3[nH]6)C=C5)C=C4)cc2)c1N
REMARK SMILES IDX 17 1 16 2 14 3 15 4 13 5 1 6 2 7 3 8 85 9 4 10 12 11 86 12
REMARK SMILES IDX 5 15 6 17 7 18 8 19 11 20 9 21 10 22 18 23 19 24 20 25 21 26
REMARK SMILES IDX 22 27 23 28 84 29 24 30 83 31 25 32 26 33 27 34 77 35 28 36
REMARK SMILES IDX 82 37 76 38 78 39 29 40 81 41 75 42 74 43 30 45 62 46 42 47
REMARK SMILES IDX 61 48 43 49 46 50 60 51 79 52 44 53 45 54 59 56 80 57 47 58
REMARK SMILES IDX 31 59 32 60 40 61 33 62 35 63 41 64 34 65 36 66 37 67 38 68
REMARK SMILES IDX 39 69 63 70 64 71 72 72 65 73 67 74 73 75 66 76 68 77 69 78
REMARK SMILES IDX 70 79 71 80 48 81 49 82 57 83 50 84 52 85 58 86 51 87 53 88
REMARK SMILES IDX 54 89 55 90 56 91
REMARK H PARENT 86 13 86 14 5 16 78 44 46 55
REMARK Flexibility Score: inf
ROOT
ATOM      1  C   UNL A   1      31.747  28.705  26.829  1.00  0.00     0.275 C 
ENDROOT
BRANCH   1   2
ATOM      2  O   UNL A   1      32.537  27.640  26.259  1.00  0.00    -0.458 OA
BRANCH   2   3
ATOM      3  C   UNL A   1      31.969  26.404  26.252  1.00  0.00     0.340 C 
ATOM      4  O   UNL A   1      31.075  26.020  26.990  1.00  0.00    -0.246 OA
BRANCH   3   5
ATOM      5  C   UNL A   1      32.553  25.575  25.160  1.00  0.00     0.085 A 
ATOM      6  C   UNL A   1      32.824  25.521  21.356  1.00  0.00     0.047 C 
ATOM      7  C   UNL A   1      32.938  25.153  22.813  1.00  0.00    -0.025 A 
ATOM      8  C   UNL A   1      33.777  24.083  23.177  1.00  0.00     0.031 A 
ATOM      9  C   UNL A   1      32.248  25.861  23.811  1.00  0.00     0.049 A 
ATOM     10  C   UNL A   1      33.970  23.698  24.511  1.00  0.00     0.036 A 
ATOM     11  C   UNL A   1      33.389  24.494  25.495  1.00  0.00     0.043 A 
BRANCH   9  12
ATOM     12  N   UNL A   1      31.399  26.909  23.458  1.00  0.00    -0.398 N 
ATOM     13  H   UNL A   1      31.731  27.837  23.468  1.00  0.00     0.156 HD
ATOM     14  H   UNL A   1      30.468  26.724  23.198  1.00  0.00     0.156 HD
ENDBRANCH   9  12
BRANCH  10  15
ATOM     15  N   UNL A   1      34.788  22.614  24.773  1.00  0.00    -0.378 N 
ATOM     16  H   UNL A   1      35.693  22.624  24.387  1.00  0.00     0.161 HD
BRANCH  15  17
ATOM     17  C   UNL A   1      34.412  21.461  25.576  1.00  0.00     0.188 C 
BRANCH  17  18
ATOM     18  C   UNL A   1      33.756  20.354  24.823  1.00  0.00     0.122 A 
ATOM     19  C   UNL A   1      32.542  20.231  24.177  1.00  0.00     0.047 A 
ATOM     20  O   UNL A   1      34.450  19.180  24.729  1.00  0.00    -0.467 OA
ATOM     21  C   UNL A   1      32.496  18.916  23.654  1.00  0.00     0.042 A 
ATOM     22  C   UNL A   1      33.684  18.321  24.010  1.00  0.00     0.195 A 
ENDBRANCH  17  18
ENDBRANCH  15  17
ENDBRANCH  10  15
ENDBRANCH   3   5
ENDBRANCH   2   3
ENDBRANCH   1   2
BRANCH   1  23
ATOM     23  C   UNL A   1      31.836  29.955  25.955  1.00  0.00     0.275 C 
BRANCH  23  24
ATOM     24  O   UNL A   1      33.171  30.471  26.029  1.00  0.00    -0.458 OA
BRANCH  24  25
ATOM     25  C   UNL A   1      33.424  31.334  27.042  1.00  0.00     0.338 C 
ATOM     26  O   UNL A   1      32.695  32.233  27.425  1.00  0.00    -0.246 OA
BRANCH  25  27
ATOM     27  C   UNL A   1      34.748  31.018  27.634  1.00  0.00     0.060 A 
ATOM     28  C   UNL A   1      35.085  29.703  27.955  1.00  0.00     0.016 A 
ATOM     29  C   UNL A   1      35.646  32.044  27.931  1.00  0.00     0.016 A 
ATOM     30  C   UNL A   1      36.280  29.414  28.615  1.00  0.00     0.010 A 
ATOM     31  C   UNL A   1      36.881  31.742  28.522  1.00  0.00     0.010 A 
ATOM     32  C   UNL A   1      37.207  30.425  28.900  1.00  0.00    -0.014 A 
BRANCH  32  33
ATOM     33  C   UNL A   1      38.470  30.124  29.643  1.00  0.00     0.031 A 
ATOM     34  C   UNL A   1      39.513  29.228  29.020  1.00  0.00     0.074 A 
ATOM     35  C   UNL A   1      38.708  30.638  30.868  1.00  0.00     0.049 A 
ATOM     36  N   UNL A   1      40.553  28.659  29.575  1.00  0.00    -0.248 NA
ATOM     37  C   UNL A   1      39.352  28.912  27.592  1.00  0.00     0.031 C 
ATOM     38  C   UNL A   1      37.818  31.540  31.600  1.00  0.00     0.029 A 
ATOM     39  N   UNL A   1      39.777  30.470  31.720  1.00  0.00    -0.354 N 
ATOM     40  C   UNL A   1      41.105  27.838  28.596  1.00  0.00     0.074 A 
ATOM     41  C   UNL A   1      40.302  28.007  27.404  1.00  0.00     0.031 C 
ATOM     42  C   UNL A   1      38.391  31.877  32.766  1.00  0.00     0.029 A 
ATOM     43  C   UNL A   1      39.648  31.148  32.912  1.00  0.00     0.049 A 
ATOM     44  H   UNL A   1      40.561  29.918  31.498  1.00  0.00     0.167 HD
ATOM     45  C   UNL A   1      42.183  27.023  28.680  1.00  0.00     0.034 A 
ATOM     46  C   UNL A   1      40.423  31.154  34.017  1.00  0.00     0.034 A 
ATOM     47  C   UNL A   1      43.054  26.942  29.823  1.00  0.00     0.049 A 
ATOM     48  C   UNL A   1      41.655  30.291  34.061  1.00  0.00     0.074 A 
ATOM     49  C   UNL A   1      44.185  26.159  29.988  1.00  0.00     0.029 A 
ATOM     50  N   UNL A   1      42.918  27.694  30.977  1.00  0.00    -0.354 N 
ATOM     51  N   UNL A   1      42.150  29.513  33.130  1.00  0.00    -0.248 NA
ATOM     52  C   UNL A   1      42.433  30.303  35.309  1.00  0.00     0.031 C 
ATOM     53  C   UNL A   1      44.739  26.448  31.239  1.00  0.00     0.029 A 
ATOM     54  C   UNL A   1      43.955  27.412  31.851  1.00  0.00     0.049 A 
ATOM     55  H   UNL A   1      42.191  28.335  31.151  1.00  0.00     0.167 HD
ATOM     56  C   UNL A   1      43.296  28.946  33.678  1.00  0.00     0.074 A 
ATOM     57  C   UNL A   1      43.447  29.504  35.005  1.00  0.00     0.031 C 
ATOM     58  C   UNL A   1      44.128  28.018  33.144  1.00  0.00     0.034 A 
BRANCH  45  59
ATOM     59  C   UNL A   1      42.512  26.168  27.486  1.00  0.00     0.023 A 
ATOM     60  C   UNL A   1      43.297  26.694  26.442  1.00  0.00     0.012 A 
ATOM     61  C   UNL A   1      42.103  24.819  27.435  1.00  0.00     0.148 A 
ATOM     62  C   UNL A   1      43.651  25.898  25.353  1.00  0.00     0.002 A 
ATOM     63  C   UNL A   1      42.494  24.022  26.366  1.00  0.00     0.091 A 
ATOM     64  F   UNL A   1      41.337  24.344  28.427  1.00  0.00    -0.205 F 
ATOM     65  C   UNL A   1      43.261  24.561  25.321  1.00  0.00     0.022 A 
BRANCH  63  66
ATOM     66  S   UNL A   1      42.107  22.269  26.279  1.00  0.00     0.127 S 
ATOM     67  O   UNL A   1      42.591  21.795  27.574  1.00  0.00    -0.237 OA
ATOM     68  O   UNL A   1      40.650  22.278  26.140  1.00  0.00    -0.237 OA
ATOM     69  O   UNL A   1      42.822  21.761  25.116  1.00  0.00    -0.744 OA
ENDBRANCH  63  66
ENDBRANCH  45  59
BRANCH  46  70
ATOM     70  C   UNL A   1      40.059  32.022  35.174  1.00  0.00     0.023 A 
ATOM     71  C   UNL A   1      40.540  33.345  35.226  1.00  0.00     0.012 A 
ATOM     72  C   UNL A   1      39.206  31.566  36.197  1.00  0.00     0.148 A 
ATOM     73  C   UNL A   1      40.186  34.190  36.279  1.00  0.00     0.002 A 
ATOM     74  C   UNL A   1      38.801  32.435  37.205  1.00  0.00     0.091 A 
ATOM     75  F   UNL A   1      38.787  30.293  36.161  1.00  0.00    -0.205 F 
ATOM     76  C   UNL A   1      39.303  33.742  37.258  1.00  0.00     0.022 A 
BRANCH  74  77
ATOM     77  S   UNL A   1      37.529  31.965  38.383  1.00  0.00     0.127 S 
ATOM     78  O   UNL A   1      38.193  32.206  39.661  1.00  0.00    -0.237 OA
ATOM     79  O   UNL A   1      36.446  32.898  38.066  1.00  0.00    -0.237 OA
ATOM     80  O   UNL A   1      37.221  30.577  38.066  1.00  0.00    -0.744 OA
ENDBRANCH  74  77
ENDBRANCH  46  70
BRANCH  58  81
ATOM     81  C   UNL A   1      45.282  27.549  33.987  1.00  0.00     0.023 A 
ATOM     82  C   UNL A   1      46.505  28.247  33.926  1.00  0.00     0.012 A 
ATOM     83  C   UNL A   1      45.142  26.472  34.882  1.00  0.00     0.148 A 
ATOM     84  C   UNL A   1      47.580  27.863  34.728  1.00  0.00     0.002 A 
ATOM     85  C   UNL A   1      46.206  26.118  35.703  1.00  0.00     0.091 A 
ATOM     86  F   UNL A   1      43.978  25.807  34.908  1.00  0.00    -0.205 F 
ATOM     87  C   UNL A   1      47.427  26.808  35.623  1.00  0.00     0.022 A 
BRANCH  85  88
ATOM     88  S   UNL A   1      46.068  24.818  36.937  1.00  0.00     0.127 S 
ATOM     89  O   UNL A   1      45.965  23.624  36.101  1.00  0.00    -0.237 OA
ATOM     90  O   UNL A   1      47.329  24.942  37.669  1.00  0.00    -0.237 OA
ATOM     91  O   UNL A   1      44.885  25.144  37.722  1.00  0.00    -0.744 OA
ENDBRANCH  85  88
ENDBRANCH  58  81
ENDBRANCH  32  33
ENDBRANCH  25  27
ENDBRANCH  24  25
ENDBRANCH  23  24
ENDBRANCH   1  23
TORSDOF 18
ENDMDL
MODEL 3
REMARK VINA RESULT:     -10.8      2.166      2.528
REMARK SMILES Cc1cc(NCc2ccco2)cc(C(=O)OCCOC(=O)c2ccc(-c3c4nc(c(-c5cccc(S(=O)(=O)[O-])c5F)c5ccc([nH]5)c(-c5cccc(S(=O)(=O)[O-])c5F)c5nc(c(-c6cccc(S(=O)(=O)[O-])c6F)c6ccc3[nH]6)C=C5)C=C4)cc2)c1N
REMARK SMILES IDX 17 1 16 2 14 3 15 4 13 5 1 6 2 7 3 8 85 9 4 10 12 11 86 12
REMARK SMILES IDX 5 15 6 17 7 18 8 19 11 20 9 21 10 22 18 23 19 24 20 25 21 26
REMARK SMILES IDX 22 27 23 28 84 29 24 30 83 31 25 32 26 33 27 34 77 35 28 36
REMARK SMILES IDX 82 37 76 38 78 39 29 40 81 41 75 42 74 43 30 45 62 46 42 47
REMARK SMILES IDX 61 48 43 49 46 50 60 51 79 52 44 53 45 54 59 56 80 57 47 58
REMARK SMILES IDX 31 59 32 60 40 61 33 62 35 63 41 64 34 65 36 66 37 67 38 68
REMARK SMILES IDX 39 69 63 70 64 71 72 72 65 73 67 74 73 75 66 76 68 77 69 78
REMARK SMILES IDX 70 79 71 80 48 81 49 82 57 83 50 84 52 85 58 86 51 87 53 88
REMARK SMILES IDX 54 89 55 90 56 91
REMARK H PARENT 86 13 86 14 5 16 78 44 46 55
REMARK Flexibility Score: inf
ROOT
ATOM      1  C   UNL A   1      31.220  28.518  24.776  1.00  0.00     0.275 C 
ENDROOT
BRANCH   1   2
ATOM      2  O   UNL A   1      31.791  27.304  25.309  1.00  0.00    -0.458 OA
BRANCH   2   3
ATOM      3  C   UNL A   1      31.826  26.234  24.470  1.00  0.00     0.340 C 
ATOM      4  O   UNL A   1      31.916  26.278  23.252  1.00  0.00    -0.246 OA
BRANCH   3   5
ATOM      5  C   UNL A   1      31.801  24.965  25.252  1.00  0.00     0.085 A 
ATOM      6  C   UNL A   1      29.399  22.861  27.336  1.00  0.00     0.047 C 
ATOM      7  C   UNL A   1      30.635  23.369  26.639  1.00  0.00    -0.025 A 
ATOM      8  C   UNL A   1      31.765  22.533  26.571  1.00  0.00     0.031 A 
ATOM      9  C   UNL A   1      30.677  24.641  26.043  1.00  0.00     0.049 A 
ATOM     10  C   UNL A   1      32.941  22.912  25.911  1.00  0.00     0.036 A 
ATOM     11  C   UNL A   1      32.921  24.114  25.208  1.00  0.00     0.043 A 
BRANCH   9  12
ATOM     12  N   UNL A   1      29.569  25.483  26.122  1.00  0.00    -0.398 N 
ATOM     13  H   UNL A   1      29.551  26.323  25.608  1.00  0.00     0.156 HD
ATOM     14  H   UNL A   1      28.805  25.239  26.692  1.00  0.00     0.156 HD
ENDBRANCH   9  12
BRANCH  10  15
ATOM     15  N   UNL A   1      34.014  22.039  25.922  1.00  0.00    -0.378 N 
ATOM     16  H   UNL A   1      34.515  21.945  26.764  1.00  0.00     0.161 HD
BRANCH  15  17
ATOM     17  C   UNL A   1      34.457  21.247  24.785  1.00  0.00     0.188 C 
BRANCH  17  18
ATOM     18  C   UNL A   1      33.837  19.896  24.675  1.00  0.00     0.122 A 
ATOM     19  C   UNL A   1      32.532  19.447  24.643  1.00  0.00     0.047 A 
ATOM     20  O   UNL A   1      34.694  18.833  24.601  1.00  0.00    -0.467 OA
ATOM     21  C   UNL A   1      32.595  18.037  24.535  1.00  0.00     0.042 A 
ATOM     22  C   UNL A   1      33.931  17.714  24.504  1.00  0.00     0.195 A 
ENDBRANCH  17  18
ENDBRANCH  15  17
ENDBRANCH  10  15
ENDBRANCH   3   5
ENDBRANCH   2   3
ENDBRANCH   1   2
BRANCH   1  23
ATOM     23  C   UNL A   1      32.131  29.706  25.076  1.00  0.00     0.275 C 
BRANCH  23  24
ATOM     24  O   UNL A   1      32.285  29.817  26.497  1.00  0.00    -0.458 OA
BRANCH  24  25
ATOM     25  C   UNL A   1      32.767  30.997  26.956  1.00  0.00     0.338 C 
ATOM     26  O   UNL A   1      32.207  32.077  26.903  1.00  0.00    -0.246 OA
BRANCH  25  27
ATOM     27  C   UNL A   1      34.109  30.776  27.551  1.00  0.00     0.060 A 
ATOM     28  C   UNL A   1      34.548  29.487  27.852  1.00  0.00     0.016 A 
ATOM     29  C   UNL A   1      34.921  31.865  27.873  1.00  0.00     0.016 A 
ATOM     30  C   UNL A   1      35.759  29.282  28.515  1.00  0.00     0.010 A 
ATOM     31  C   UNL A   1      36.174  31.652  28.466  1.00  0.00     0.010 A 
ATOM     32  C   UNL A   1      36.600  30.359  28.824  1.00  0.00    -0.014 A 
BRANCH  32  33
ATOM     33  C   UNL A   1      37.880  30.145  29.570  1.00  0.00     0.031 A 
ATOM     34  C   UNL A   1      38.980  29.316  28.954  1.00  0.00     0.074 A 
ATOM     35  C   UNL A   1      38.081  30.681  30.792  1.00  0.00     0.049 A 
ATOM     36  N   UNL A   1      40.055  28.820  29.514  1.00  0.00    -0.248 NA
ATOM     37  C   UNL A   1      38.842  28.982  27.527  1.00  0.00     0.031 C 
ATOM     38  C   UNL A   1      37.133  31.528  31.518  1.00  0.00     0.029 A 
ATOM     39  N   UNL A   1      39.158  30.589  31.646  1.00  0.00    -0.354 N 
ATOM     40  C   UNL A   1      40.660  28.031  28.541  1.00  0.00     0.074 A 
ATOM     41  C   UNL A   1      39.851  28.140  27.346  1.00  0.00     0.031 C 
ATOM     42  C   UNL A   1      37.681  31.908  32.682  1.00  0.00     0.029 A 
ATOM     43  C   UNL A   1      38.983  31.264  32.834  1.00  0.00     0.049 A 
ATOM     44  H   UNL A   1      39.977  30.088  31.429  1.00  0.00     0.167 HD
ATOM     45  C   UNL A   1      41.790  27.290  28.630  1.00  0.00     0.034 A 
ATOM     46  C   UNL A   1      39.754  31.328  33.940  1.00  0.00     0.034 A 
ATOM     47  C   UNL A   1      42.663  27.273  29.775  1.00  0.00     0.049 A 
ATOM     48  C   UNL A   1      41.040  30.549  33.991  1.00  0.00     0.074 A 
ATOM     49  C   UNL A   1      43.842  26.567  29.946  1.00  0.00     0.029 A 
ATOM     50  N   UNL A   1      42.476  28.022  30.924  1.00  0.00    -0.354 N 
ATOM     51  N   UNL A   1      41.587  29.799  33.065  1.00  0.00    -0.248 NA
ATOM     52  C   UNL A   1      41.814  30.619  35.239  1.00  0.00     0.031 C 
ATOM     53  C   UNL A   1      44.375  26.900  31.196  1.00  0.00     0.029 A 
ATOM     54  C   UNL A   1      43.527  27.814  31.801  1.00  0.00     0.049 A 
ATOM     55  H   UNL A   1      41.708  28.614  31.094  1.00  0.00     0.167 HD
ATOM     56  C   UNL A   1      42.766  29.312  33.618  1.00  0.00     0.074 A 
ATOM     57  C   UNL A   1      42.879  29.886  34.941  1.00  0.00     0.031 C 
ATOM     58  C   UNL A   1      43.658  28.438  33.091  1.00  0.00     0.034 A 
BRANCH  45  59
ATOM     59  C   UNL A   1      42.177  26.450  27.442  1.00  0.00     0.023 A 
ATOM     60  C   UNL A   1      42.943  27.015  26.405  1.00  0.00     0.012 A 
ATOM     61  C   UNL A   1      41.841  25.082  27.391  1.00  0.00     0.148 A 
ATOM     62  C   UNL A   1      43.350  26.237  25.322  1.00  0.00     0.002 A 
ATOM     63  C   UNL A   1      42.285  24.304  26.328  1.00  0.00     0.091 A 
ATOM     64  F   UNL A   1      41.091  24.569  28.376  1.00  0.00    -0.205 F 
ATOM     65  C   UNL A   1      43.032  24.882  25.289  1.00  0.00     0.022 A 
BRANCH  63  66
ATOM     66  S   UNL A   1      41.993  22.533  26.242  1.00  0.00     0.127 S 
ATOM     67  O   UNL A   1      42.663  22.184  24.991  1.00  0.00    -0.237 OA
ATOM     68  O   UNL A   1      42.663  22.048  27.448  1.00  0.00    -0.237 OA
ATOM     69  O   UNL A   1      40.546  22.367  26.246  1.00  0.00    -0.744 OA
ENDBRANCH  63  66
ENDBRANCH  45  59
BRANCH  46  70
ATOM     70  C   UNL A   1      39.332  32.177  35.091  1.00  0.00     0.023 A 
ATOM     71  C   UNL A   1      39.503  33.574  35.022  1.00  0.00     0.012 A 
ATOM     72  C   UNL A   1      38.722  31.621  36.231  1.00  0.00     0.148 A 
ATOM     73  C   UNL A   1      39.085  34.396  36.070  1.00  0.00     0.002 A 
ATOM     74  C   UNL A   1      38.244  32.452  37.240  1.00  0.00     0.091 A 
ATOM     75  F   UNL A   1      38.601  30.288  36.307  1.00  0.00    -0.205 F 
ATOM     76  C   UNL A   1      38.439  33.838  37.170  1.00  0.00     0.022 A 
BRANCH  74  77
ATOM     77  S   UNL A   1      37.248  31.802  38.586  1.00  0.00     0.127 S 
ATOM     78  O   UNL A   1      37.028  30.422  38.163  1.00  0.00    -0.237 OA
ATOM     79  O   UNL A   1      38.138  31.957  39.739  1.00  0.00    -0.237 OA
ATOM     80  O   UNL A   1      36.072  32.661  38.630  1.00  0.00    -0.744 OA
ENDBRANCH  74  77
ENDBRANCH  46  70
BRANCH  58  81
ATOM     81  C   UNL A   1      44.840  28.051  33.937  1.00  0.00     0.023 A 
ATOM     82  C   UNL A   1      44.715  26.981  34.845  1.00  0.00     0.012 A 
ATOM     83  C   UNL A   1      46.084  28.693  33.790  1.00  0.00     0.148 A 
ATOM     84  C   UNL A   1      45.806  26.570  35.611  1.00  0.00     0.002 A 
ATOM     85  C   UNL A   1      47.176  28.255  34.531  1.00  0.00     0.091 A 
ATOM     86  F   UNL A   1      46.177  29.724  32.937  1.00  0.00    -0.205 F 
ATOM     87  C   UNL A   1      47.037  27.199  35.446  1.00  0.00     0.022 A 
BRANCH  85  88
ATOM     88  S   UNL A   1      48.815  28.963  34.324  1.00  0.00     0.127 S 
ATOM     89  O   UNL A   1      49.607  28.157  35.252  1.00  0.00    -0.237 OA
ATOM     90  O   UNL A   1      49.092  28.711  32.909  1.00  0.00    -0.237 OA
ATOM     91  O   UNL A   1      48.682  30.373  34.666  1.00  0.00    -0.744 OA
ENDBRANCH  85  88
ENDBRANCH  58  81
ENDBRANCH  32  33
ENDBRANCH  25  27
ENDBRANCH  24  25
ENDBRANCH  23  24
ENDBRANCH   1  23
TORSDOF 18
ENDMDL
