MODEL 1
REMARK VINA RESULT:     -12.0      0.000      0.000
REMARK SMILES C[C@@H]1CCCN(c2ccc(NC(=O)Cc3cccs3)c(C(=O)OCCOC(=O)c3ccc(-c4c5nc(c(-c6cccc(S(=O)(=O)[O-])c6F)c6ccc([nH]6)c(-c6cccc(S(=O)(=O)[O-])c6F)c6nc(c(-c7cccc(S(=O)(=O)[O-])c7F)c7ccc4[nH]7)C=C6)C=C5)cc3)c2)C1
REMARK SMILES IDX 24 1 23 2 21 3 22 4 20 5 7 6 8 7 92 8 9 9 10 10 6 11 1 12
REMARK SMILES IDX 2 13 3 14 93 15 4 16 5 17 11 18 12 19 13 21 14 22 15 23
REMARK SMILES IDX 16 24 19 25 17 26 18 27 25 28 26 29 27 30 28 31 29 32 30 33
REMARK SMILES IDX 91 34 31 35 90 36 32 37 33 38 34 39 84 40 35 41 89 42 83 43
REMARK SMILES IDX 85 44 36 45 88 46 82 47 81 48 37 50 69 51 49 52 68 53 50 54
REMARK SMILES IDX 53 55 67 56 86 57 51 58 52 59 66 61 87 62 54 63 38 64 39 65
REMARK SMILES IDX 47 66 40 67 42 68 48 69 41 70 43 71 44 72 45 73 46 74 70 75
REMARK SMILES IDX 71 76 79 77 72 78 74 79 80 80 73 81 75 82 76 83 77 84 78 85
REMARK SMILES IDX 55 86 56 87 64 88 57 89 59 90 65 91 58 92 60 93 61 94 62 95
REMARK SMILES IDX 63 96
REMARK H PARENT 11 20 85 49 53 60
REMARK Flexibility Score: inf
ROOT
ATOM      1  C   UNL A   1      35.659  21.378  24.641  1.00  0.00     0.275 C 
ENDROOT
BRANCH   1   2
ATOM      2  O   UNL A   1      35.104  22.710  24.714  1.00  0.00    -0.458 OA
BRANCH   2   3
ATOM      3  C   UNL A   1      34.945  23.393  23.547  1.00  0.00     0.340 C 
ATOM      4  O   UNL A   1      35.671  23.317  22.573  1.00  0.00    -0.246 OA
BRANCH   3   5
ATOM      5  C   UNL A   1      33.743  24.284  23.597  1.00  0.00     0.085 A 
ATOM      6  C   UNL A   1      32.655  26.263  24.527  1.00  0.00     0.038 A 
ATOM      7  C   UNL A   1      31.524  26.000  23.765  1.00  0.00     0.028 A 
ATOM      8  C   UNL A   1      33.767  25.421  24.413  1.00  0.00     0.043 A 
ATOM      9  C   UNL A   1      31.494  24.898  22.920  1.00  0.00     0.029 A 
ATOM     10  C   UNL A   1      32.562  23.994  22.879  1.00  0.00     0.055 A 
BRANCH   6  11
ATOM     11  N   UNL A   1      32.730  27.354  25.358  1.00  0.00    -0.371 N 
ATOM     12  C   UNL A   1      35.281  29.204  27.441  1.00  0.00     0.009 C 
ATOM     13  C   UNL A   1      34.215  28.961  26.379  1.00  0.00     0.005 C 
ATOM     14  C   UNL A   1      32.988  29.864  26.616  1.00  0.00     0.007 C 
ATOM     15  C   UNL A   1      33.806  27.480  26.331  1.00  0.00     0.119 C 
ATOM     16  C   UNL A   1      31.873  29.586  25.603  1.00  0.00     0.022 C 
ATOM     17  C   UNL A   1      31.510  28.108  25.586  1.00  0.00     0.116 C 
ENDBRANCH   6  11
BRANCH  10  18
ATOM     18  N   UNL A   1      32.439  22.796  22.165  1.00  0.00    -0.325 N 
ATOM     19  C   UNL A   1      32.106  21.532  22.556  1.00  0.00     0.229 C 
ATOM     20  H   UNL A   1      32.628  22.881  21.203  1.00  0.00     0.169 HD
ATOM     21  O   UNL A   1      31.846  20.740  21.641  1.00  0.00    -0.274 OA
BRANCH  19  22
ATOM     22  C   UNL A   1      32.020  21.046  24.003  1.00  0.00     0.147 C 
BRANCH  22  23
ATOM     23  C   UNL A   1      32.459  19.627  24.331  1.00  0.00     0.014 A 
ATOM     24  C   UNL A   1      32.842  18.992  25.501  1.00  0.00     0.016 A 
ATOM     25  S   UNL A   1      32.433  18.472  23.040  1.00  0.00    -0.148 S 
ATOM     26  C   UNL A   1      33.091  17.596  25.351  1.00  0.00     0.012 A 
ATOM     27  C   UNL A   1      32.898  17.184  24.057  1.00  0.00     0.065 A 
ENDBRANCH  22  23
ENDBRANCH  19  22
ENDBRANCH  10  18
ENDBRANCH   3   5
ENDBRANCH   2   3
ENDBRANCH   1   2
BRANCH   1  28
ATOM     28  C   UNL A   1      36.727  21.134  25.712  1.00  0.00     0.275 C 
BRANCH  28  29
ATOM     29  O   UNL A   1      38.030  21.513  25.236  1.00  0.00    -0.458 OA
BRANCH  29  30
ATOM     30  C   UNL A   1      39.053  21.139  26.035  1.00  0.00     0.338 C 
ATOM     31  O   UNL A   1      39.531  20.017  26.138  1.00  0.00    -0.246 OA
BRANCH  30  32
ATOM     32  C   UNL A   1      39.689  22.335  26.610  1.00  0.00     0.060 A 
ATOM     33  C   UNL A   1      39.252  23.549  26.094  1.00  0.00     0.016 A 
ATOM     34  C   UNL A   1      40.688  22.309  27.585  1.00  0.00     0.016 A 
ATOM     35  C   UNL A   1      39.804  24.738  26.543  1.00  0.00     0.010 A 
ATOM     36  C   UNL A   1      41.243  23.521  28.041  1.00  0.00     0.010 A 
ATOM     37  C   UNL A   1      40.795  24.744  27.522  1.00  0.00    -0.014 A 
BRANCH  37  38
ATOM     38  C   UNL A   1      41.372  26.063  27.875  1.00  0.00     0.031 A 
ATOM     39  C   UNL A   1      42.742  26.417  27.383  1.00  0.00     0.074 A 
ATOM     40  C   UNL A   1      40.619  27.004  28.477  1.00  0.00     0.049 A 
ATOM     41  N   UNL A   1      43.431  27.512  27.568  1.00  0.00    -0.248 NA
ATOM     42  C   UNL A   1      43.417  25.411  26.547  1.00  0.00     0.031 C 
ATOM     43  C   UNL A   1      39.217  26.846  28.857  1.00  0.00     0.029 A 
ATOM     44  N   UNL A   1      40.926  28.289  28.855  1.00  0.00    -0.354 N 
ATOM     45  C   UNL A   1      44.639  27.311  26.916  1.00  0.00     0.074 A 
ATOM     46  C   UNL A   1      44.578  26.000  26.306  1.00  0.00     0.031 C 
ATOM     47  C   UNL A   1      38.787  27.983  29.427  1.00  0.00     0.029 A 
ATOM     48  C   UNL A   1      39.895  28.932  29.499  1.00  0.00     0.049 A 
ATOM     49  H   UNL A   1      41.798  28.708  28.680  1.00  0.00     0.167 HD
ATOM     50  C   UNL A   1      45.705  28.140  26.844  1.00  0.00     0.034 A 
ATOM     51  C   UNL A   1      39.860  30.134  30.110  1.00  0.00     0.034 A 
ATOM     52  C   UNL A   1      45.758  29.449  27.438  1.00  0.00     0.049 A 
ATOM     53  C   UNL A   1      41.097  30.997  30.097  1.00  0.00     0.074 A 
ATOM     54  C   UNL A   1      46.812  30.346  27.445  1.00  0.00     0.029 A 
ATOM     55  N   UNL A   1      44.721  30.047  28.137  1.00  0.00    -0.354 N 
ATOM     56  N   UNL A   1      42.236  30.804  29.478  1.00  0.00    -0.248 NA
ATOM     57  C   UNL A   1      41.039  32.255  30.859  1.00  0.00     0.031 C 
ATOM     58  C   UNL A   1      46.425  31.470  28.183  1.00  0.00     0.029 A 
ATOM     59  C   UNL A   1      45.115  31.293  28.597  1.00  0.00     0.049 A 
ATOM     60  H   UNL A   1      43.834  29.645  28.285  1.00  0.00     0.167 HD
ATOM     61  C   UNL A   1      43.016  31.923  29.749  1.00  0.00     0.074 A 
ATOM     62  C   UNL A   1      42.210  32.805  30.567  1.00  0.00     0.031 C 
ATOM     63  C   UNL A   1      44.290  32.189  29.366  1.00  0.00     0.034 A 
BRANCH  50  64
ATOM     64  C   UNL A   1      46.928  27.627  26.137  1.00  0.00     0.023 A 
ATOM     65  C   UNL A   1      47.092  27.834  24.753  1.00  0.00     0.012 A 
ATOM     66  C   UNL A   1      47.932  26.957  26.864  1.00  0.00     0.148 A 
ATOM     67  C   UNL A   1      48.223  27.351  24.097  1.00  0.00     0.002 A 
ATOM     68  C   UNL A   1      49.077  26.520  26.212  1.00  0.00     0.091 A 
ATOM     69  F   UNL A   1      47.742  26.750  28.174  1.00  0.00    -0.205 F 
ATOM     70  C   UNL A   1      49.219  26.703  24.827  1.00  0.00     0.022 A 
BRANCH  68  71
ATOM     71  S   UNL A   1      50.444  25.744  27.078  1.00  0.00     0.127 S 
ATOM     72  O   UNL A   1      51.450  25.652  26.022  1.00  0.00    -0.237 OA
ATOM     73  O   UNL A   1      50.742  26.725  28.121  1.00  0.00    -0.237 OA
ATOM     74  O   UNL A   1      49.940  24.469  27.570  1.00  0.00    -0.744 OA
ENDBRANCH  68  71
ENDBRANCH  50  64
BRANCH  51  75
ATOM     75  C   UNL A   1      38.627  30.591  30.816  1.00  0.00     0.023 A 
ATOM     76  C   UNL A   1      38.421  30.247  32.167  1.00  0.00     0.012 A 
ATOM     77  C   UNL A   1      37.639  31.338  30.143  1.00  0.00     0.148 A 
ATOM     78  C   UNL A   1      37.240  30.604  32.820  1.00  0.00     0.002 A 
ATOM     79  C   UNL A   1      36.493  31.741  30.816  1.00  0.00     0.091 A 
ATOM     80  F   UNL A   1      37.835  31.630  28.849  1.00  0.00    -0.205 F 
ATOM     81  C   UNL A   1      36.281  31.359  32.149  1.00  0.00     0.022 A 
BRANCH  79  82
ATOM     82  S   UNL A   1      35.255  32.804  30.064  1.00  0.00     0.127 S 
ATOM     83  O   UNL A   1      36.059  33.950  29.646  1.00  0.00    -0.237 OA
ATOM     84  O   UNL A   1      34.763  31.967  28.969  1.00  0.00    -0.237 OA
ATOM     85  O   UNL A   1      34.274  33.071  31.106  1.00  0.00    -0.744 OA
ENDBRANCH  79  82
ENDBRANCH  51  75
BRANCH  63  86
ATOM     86  C   UNL A   1      44.896  33.503  29.791  1.00  0.00     0.023 A 
ATOM     87  C   UNL A   1      45.633  33.587  30.989  1.00  0.00     0.012 A 
ATOM     88  C   UNL A   1      44.803  34.637  28.958  1.00  0.00     0.148 A 
ATOM     89  C   UNL A   1      46.242  34.784  31.366  1.00  0.00     0.002 A 
ATOM     90  C   UNL A   1      45.456  35.811  29.314  1.00  0.00     0.091 A 
ATOM     91  F   UNL A   1      44.084  34.544  27.829  1.00  0.00    -0.205 F 
ATOM     92  C   UNL A   1      46.164  35.890  30.524  1.00  0.00     0.022 A 
BRANCH  90  93
ATOM     93  S   UNL A   1      45.498  37.256  28.246  1.00  0.00     0.127 S 
ATOM     94  O   UNL A   1      46.311  38.183  29.030  1.00  0.00    -0.237 OA
ATOM     95  O   UNL A   1      46.153  36.735  27.045  1.00  0.00    -0.237 OA
ATOM     96  O   UNL A   1      44.109  37.655  28.052  1.00  0.00    -0.744 OA
ENDBRANCH  90  93
ENDBRANCH  63  86
ENDBRANCH  37  38
ENDBRANCH  30  32
ENDBRANCH  29  30
ENDBRANCH  28  29
ENDBRANCH   1  28
TORSDOF 18
ENDMDL
MODEL 2
REMARK VINA RESULT:     -11.9      2.236      3.264
REMARK SMILES C[C@@H]1CCCN(c2ccc(NC(=O)Cc3cccs3)c(C(=O)OCCOC(=O)c3ccc(-c4c5nc(c(-c6cccc(S(=O)(=O)[O-])c6F)c6ccc([nH]6)c(-c6cccc(S(=O)(=O)[O-])c6F)c6nc(c(-c7cccc(S(=O)(=O)[O-])c7F)c7ccc4[nH]7)C=C6)C=C5)cc3)c2)C1
REMARK SMILES IDX 24 1 23 2 21 3 22 4 20 5 7 6 8 7 92 8 9 9 10 10 6 11 1 12
REMARK SMILES IDX 2 13 3 14 93 15 4 16 5 17 11 18 12 19 13 21 14 22 15 23
REMARK SMILES IDX 16 24 19 25 17 26 18 27 25 28 26 29 27 30 28 31 29 32 30 33
REMARK SMILES IDX 91 34 31 35 90 36 32 37 33 38 34 39 84 40 35 41 89 42 83 43
REMARK SMILES IDX 85 44 36 45 88 46 82 47 81 48 37 50 69 51 49 52 68 53 50 54
REMARK SMILES IDX 53 55 67 56 86 57 51 58 52 59 66 61 87 62 54 63 38 64 39 65
REMARK SMILES IDX 47 66 40 67 42 68 48 69 41 70 43 71 44 72 45 73 46 74 70 75
REMARK SMILES IDX 71 76 79 77 72 78 74 79 80 80 73 81 75 82 76 83 77 84 78 85
REMARK SMILES IDX 55 86 56 87 64 88 57 89 59 90 65 91 58 92 60 93 61 94 62 95
REMARK SMILES IDX 63 96
REMARK H PARENT 11 20 85 49 53 60
REMARK Flexibility Score: inf
ROOT
ATOM      1  C   UNL A   1      34.452  22.490  25.774  1.00  0.00     0.275 C 
ENDROOT
BRANCH   1   2
ATOM      2  O   UNL A   1      34.551  23.878  26.160  1.00  0.00    -0.458 OA
BRANCH   2   3
ATOM      3  C   UNL A   1      34.171  24.816  25.250  1.00  0.00     0.340 C 
ATOM      4  O   UNL A   1      34.405  24.786  24.055  1.00  0.00    -0.246 OA
BRANCH   3   5
ATOM      5  C   UNL A   1      33.414  25.932  25.901  1.00  0.00     0.085 A 
ATOM      6  C   UNL A   1      33.411  28.208  26.786  1.00  0.00     0.038 A 
ATOM      7  C   UNL A   1      32.074  28.071  27.135  1.00  0.00     0.028 A 
ATOM      8  C   UNL A   1      34.061  27.149  26.143  1.00  0.00     0.043 A 
ATOM      9  C   UNL A   1      31.403  26.884  26.870  1.00  0.00     0.029 A 
ATOM     10  C   UNL A   1      32.073  25.786  26.322  1.00  0.00     0.055 A 
BRANCH   6  11
ATOM     11  N   UNL A   1      34.103  29.372  27.014  1.00  0.00    -0.371 N 
ATOM     12  C   UNL A   1      33.434  32.985  27.892  1.00  0.00     0.009 C 
ATOM     13  C   UNL A   1      33.997  31.572  28.003  1.00  0.00     0.005 C 
ATOM     14  C   UNL A   1      35.539  31.593  27.990  1.00  0.00     0.007 C 
ATOM     15  C   UNL A   1      33.451  30.667  26.886  1.00  0.00     0.119 C 
ATOM     16  C   UNL A   1      36.127  30.180  28.027  1.00  0.00     0.022 C 
ATOM     17  C   UNL A   1      35.551  29.321  26.910  1.00  0.00     0.116 C 
ENDBRANCH   6  11
BRANCH  10  18
ATOM     18  N   UNL A   1      31.431  24.545  26.232  1.00  0.00    -0.325 N 
ATOM     19  C   UNL A   1      30.991  23.820  25.163  1.00  0.00     0.229 C 
ATOM     20  H   UNL A   1      31.266  24.115  27.102  1.00  0.00     0.169 HD
ATOM     21  O   UNL A   1      30.684  22.645  25.403  1.00  0.00    -0.274 OA
BRANCH  19  22
ATOM     22  C   UNL A   1      30.869  24.341  23.731  1.00  0.00     0.147 C 
BRANCH  22  23
ATOM     23  C   UNL A   1      30.351  25.753  23.503  1.00  0.00     0.014 A 
ATOM     24  C   UNL A   1      29.189  26.415  23.865  1.00  0.00     0.016 A 
ATOM     25  S   UNL A   1      31.405  26.861  22.688  1.00  0.00    -0.148 S 
ATOM     26  C   UNL A   1      29.167  27.794  23.503  1.00  0.00     0.012 A 
ATOM     27  C   UNL A   1      30.319  28.166  22.859  1.00  0.00     0.065 A 
ENDBRANCH  22  23
ENDBRANCH  19  22
ENDBRANCH  10  18
ENDBRANCH   3   5
ENDBRANCH   2   3
ENDBRANCH   1   2
BRANCH   1  28
ATOM     28  C   UNL A   1      35.731  21.706  26.087  1.00  0.00     0.275 C 
BRANCH  28  29
ATOM     29  O   UNL A   1      36.858  22.258  25.386  1.00  0.00    -0.458 OA
BRANCH  29  30
ATOM     30  C   UNL A   1      38.052  21.730  25.734  1.00  0.00     0.338 C 
ATOM     31  O   UNL A   1      38.488  20.631  25.420  1.00  0.00    -0.246 OA
BRANCH  30  32
ATOM     32  C   UNL A   1      38.882  22.769  26.365  1.00  0.00     0.060 A 
ATOM     33  C   UNL A   1      38.482  24.079  26.125  1.00  0.00     0.016 A 
ATOM     34  C   UNL A   1      40.020  22.516  27.133  1.00  0.00     0.016 A 
ATOM     35  C   UNL A   1      39.208  25.137  26.646  1.00  0.00     0.010 A 
ATOM     36  C   UNL A   1      40.753  23.595  27.663  1.00  0.00     0.010 A 
ATOM     37  C   UNL A   1      40.342  24.915  27.425  1.00  0.00    -0.014 A 
BRANCH  37  38
ATOM     38  C   UNL A   1      41.089  26.115  27.868  1.00  0.00     0.031 A 
ATOM     39  C   UNL A   1      42.483  26.336  27.365  1.00  0.00     0.074 A 
ATOM     40  C   UNL A   1      40.475  27.087  28.570  1.00  0.00     0.049 A 
ATOM     41  N   UNL A   1      43.309  27.316  27.620  1.00  0.00    -0.248 NA
ATOM     42  C   UNL A   1      43.007  25.330  26.428  1.00  0.00     0.031 C 
ATOM     43  C   UNL A   1      39.072  27.073  28.979  1.00  0.00     0.029 A 
ATOM     44  N   UNL A   1      40.950  28.287  29.044  1.00  0.00    -0.354 N 
ATOM     45  C   UNL A   1      44.468  27.023  26.915  1.00  0.00     0.074 A 
ATOM     46  C   UNL A   1      44.229  25.787  26.200  1.00  0.00     0.031 C 
ATOM     47  C   UNL A   1      38.802  28.203  29.655  1.00  0.00     0.029 A 
ATOM     48  C   UNL A   1      40.023  28.995  29.771  1.00  0.00     0.049 A 
ATOM     49  H   UNL A   1      41.865  28.607  28.877  1.00  0.00     0.167 HD
ATOM     50  C   UNL A   1      45.630  27.715  26.880  1.00  0.00     0.034 A 
ATOM     51  C   UNL A   1      40.155  30.135  30.481  1.00  0.00     0.034 A 
ATOM     52  C   UNL A   1      45.861  28.951  27.579  1.00  0.00     0.049 A 
ATOM     53  C   UNL A   1      41.490  30.834  30.501  1.00  0.00     0.074 A 
ATOM     54  C   UNL A   1      47.021  29.705  27.628  1.00  0.00     0.029 A 
ATOM     55  N   UNL A   1      44.923  29.611  28.357  1.00  0.00    -0.354 N 
ATOM     56  N   UNL A   1      42.583  30.554  29.834  1.00  0.00    -0.248 NA
ATOM     57  C   UNL A   1      41.608  32.018  31.367  1.00  0.00     0.031 C 
ATOM     58  C   UNL A   1      46.795  30.800  28.469  1.00  0.00     0.029 A 
ATOM     59  C   UNL A   1      45.481  30.753  28.906  1.00  0.00     0.049 A 
ATOM     60  H   UNL A   1      43.996  29.312  28.499  1.00  0.00     0.167 HD
ATOM     61  C   UNL A   1      43.505  31.539  30.172  1.00  0.00     0.074 A 
ATOM     62  C   UNL A   1      42.834  32.440  31.086  1.00  0.00     0.031 C 
ATOM     63  C   UNL A   1      44.794  31.675  29.774  1.00  0.00     0.034 A 
BRANCH  50  64
ATOM     64  C   UNL A   1      46.763  27.116  26.094  1.00  0.00     0.023 A 
ATOM     65  C   UNL A   1      47.530  26.067  26.636  1.00  0.00     0.012 A 
ATOM     66  C   UNL A   1      47.046  27.587  24.797  1.00  0.00     0.148 A 
ATOM     67  C   UNL A   1      48.585  25.517  25.909  1.00  0.00     0.002 A 
ATOM     68  C   UNL A   1      48.069  27.004  24.062  1.00  0.00     0.091 A 
ATOM     69  F   UNL A   1      46.319  28.604  24.313  1.00  0.00    -0.205 F 
ATOM     70  C   UNL A   1      48.848  25.978  24.620  1.00  0.00     0.022 A 
BRANCH  68  71
ATOM     71  S   UNL A   1      48.432  27.478  22.369  1.00  0.00     0.127 S 
ATOM     72  O   UNL A   1      49.638  28.286  22.542  1.00  0.00    -0.237 OA
ATOM     73  O   UNL A   1      48.653  26.182  21.728  1.00  0.00    -0.237 OA
ATOM     74  O   UNL A   1      47.262  28.201  21.892  1.00  0.00    -0.744 OA
ENDBRANCH  68  71
ENDBRANCH  50  64
BRANCH  51  75
ATOM     75  C   UNL A   1      39.004  30.679  31.261  1.00  0.00     0.023 A 
ATOM     76  C   UNL A   1      38.629  30.076  32.477  1.00  0.00     0.012 A 
ATOM     77  C   UNL A   1      38.256  31.775  30.783  1.00  0.00     0.148 A 
ATOM     78  C   UNL A   1      37.512  30.527  33.182  1.00  0.00     0.002 A 
ATOM     79  C   UNL A   1      37.182  32.258  31.519  1.00  0.00     0.091 A 
ATOM     80  F   UNL A   1      38.606  32.319  29.609  1.00  0.00    -0.205 F 
ATOM     81  C   UNL A   1      36.794  31.622  32.709  1.00  0.00     0.022 A 
BRANCH  79  82
ATOM     82  S   UNL A   1      36.267  33.728  31.042  1.00  0.00     0.127 S 
ATOM     83  O   UNL A   1      34.890  33.241  31.052  1.00  0.00    -0.237 OA
ATOM     84  O   UNL A   1      36.599  34.655  32.124  1.00  0.00    -0.237 OA
ATOM     85  O   UNL A   1      36.788  34.114  29.738  1.00  0.00    -0.744 OA
ENDBRANCH  79  82
ENDBRANCH  51  75
BRANCH  63  86
ATOM     86  C   UNL A   1      45.571  32.862  30.287  1.00  0.00     0.023 A 
ATOM     87  C   UNL A   1      46.353  32.743  31.453  1.00  0.00     0.012 A 
ATOM     88  C   UNL A   1      45.590  34.072  29.565  1.00  0.00     0.148 A 
ATOM     89  C   UNL A   1      47.116  33.817  31.909  1.00  0.00     0.002 A 
ATOM     90  C   UNL A   1      46.394  35.121  29.995  1.00  0.00     0.091 A 
ATOM     91  F   UNL A   1      44.827  34.174  28.466  1.00  0.00    -0.205 F 
ATOM     92  C   UNL A   1      47.147  35.000  31.174  1.00  0.00     0.022 A 
BRANCH  90  93
ATOM     93  S   UNL A   1      46.576  36.646  29.061  1.00  0.00     0.127 S 
ATOM     94  O   UNL A   1      45.208  37.158  29.056  1.00  0.00    -0.237 OA
ATOM     95  O   UNL A   1      47.509  37.408  29.892  1.00  0.00    -0.237 OA
ATOM     96  O   UNL A   1      47.104  36.261  27.759  1.00  0.00    -0.744 OA
ENDBRANCH  90  93
ENDBRANCH  63  86
ENDBRANCH  37  38
ENDBRANCH  30  32
ENDBRANCH  29  30
ENDBRANCH  28  29
ENDBRANCH   1  28
TORSDOF 18
ENDMDL
MODEL 3
REMARK VINA RESULT:     -11.8      0.707      7.599
REMARK SMILES C[C@@H]1CCCN(c2ccc(NC(=O)Cc3cccs3)c(C(=O)OCCOC(=O)c3ccc(-c4c5nc(c(-c6cccc(S(=O)(=O)[O-])c6F)c6ccc([nH]6)c(-c6cccc(S(=O)(=O)[O-])c6F)c6nc(c(-c7cccc(S(=O)(=O)[O-])c7F)c7ccc4[nH]7)C=C6)C=C5)cc3)c2)C1
REMARK SMILES IDX 24 1 23 2 21 3 22 4 20 5 7 6 8 7 92 8 9 9 10 10 6 11 1 12
REMARK SMILES IDX 2 13 3 14 93 15 4 16 5 17 11 18 12 19 13 21 14 22 15 23
REMARK SMILES IDX 16 24 19 25 17 26 18 27 25 28 26 29 27 30 28 31 29 32 30 33
REMARK SMILES IDX 91 34 31 35 90 36 32 37 33 38 34 39 84 40 35 41 89 42 83 43
REMARK SMILES IDX 85 44 36 45 88 46 82 47 81 48 37 50 69 51 49 52 68 53 50 54
REMARK SMILES IDX 53 55 67 56 86 57 51 58 52 59 66 61 87 62 54 63 38 64 39 65
REMARK SMILES IDX 47 66 40 67 42 68 48 69 41 70 43 71 44 72 45 73 46 74 70 75
REMARK SMILES IDX 71 76 79 77 72 78 74 79 80 80 73 81 75 82 76 83 77 84 78 85
REMARK SMILES IDX 55 86 56 87 64 88 57 89 59 90 65 91 58 92 60 93 61 94 62 95
REMARK SMILES IDX 63 96
REMARK H PARENT 11 20 85 49 53 60
REMARK Flexibility Score: inf
ROOT
ATOM      1  C   UNL A   1      35.661  21.132  24.668  1.00  0.00     0.275 C 
ENDROOT
BRANCH   1   2
ATOM      2  O   UNL A   1      35.265  22.520  24.731  1.00  0.00    -0.458 OA
BRANCH   2   3
ATOM      3  C   UNL A   1      34.950  23.142  23.563  1.00  0.00     0.340 C 
ATOM      4  O   UNL A   1      35.551  23.026  22.510  1.00  0.00    -0.246 OA
BRANCH   3   5
ATOM      5  C   UNL A   1      33.748  24.020  23.719  1.00  0.00     0.085 A 
ATOM      6  C   UNL A   1      32.670  25.891  24.861  1.00  0.00     0.038 A 
ATOM      7  C   UNL A   1      31.530  25.705  24.091  1.00  0.00     0.028 A 
ATOM      8  C   UNL A   1      33.781  25.068  24.647  1.00  0.00     0.043 A 
ATOM      9  C   UNL A   1      31.490  24.695  23.138  1.00  0.00     0.029 A 
ATOM     10  C   UNL A   1      32.558  23.803  22.990  1.00  0.00     0.055 A 
BRANCH   6  11
ATOM     11  N   UNL A   1      32.755  26.890  25.798  1.00  0.00    -0.371 N 
ATOM     12  C   UNL A   1      35.320  29.253  27.252  1.00  0.00     0.009 C 
ATOM     13  C   UNL A   1      34.047  28.785  26.556  1.00  0.00     0.005 C 
ATOM     14  C   UNL A   1      32.796  29.265  27.319  1.00  0.00     0.007 C 
ATOM     15  C   UNL A   1      34.035  27.256  26.388  1.00  0.00     0.119 C 
ATOM     16  C   UNL A   1      31.505  28.745  26.679  1.00  0.00     0.022 C 
ATOM     17  C   UNL A   1      31.545  27.231  26.526  1.00  0.00     0.116 C 
ENDBRANCH   6  11
BRANCH  10  18
ATOM     18  N   UNL A   1      32.427  22.684  22.159  1.00  0.00    -0.325 N 
ATOM     19  C   UNL A   1      32.165  21.372  22.429  1.00  0.00     0.229 C 
ATOM     20  H   UNL A   1      32.547  22.879  21.202  1.00  0.00     0.169 HD
ATOM     21  O   UNL A   1      31.869  20.673  21.452  1.00  0.00    -0.274 OA
BRANCH  19  22
ATOM     22  C   UNL A   1      32.195  20.732  23.817  1.00  0.00     0.147 C 
BRANCH  22  23
ATOM     23  C   UNL A   1      32.544  19.256  23.939  1.00  0.00     0.014 A 
ATOM     24  C   UNL A   1      32.820  18.260  23.017  1.00  0.00     0.016 A 
ATOM     25  S   UNL A   1      32.732  18.617  25.539  1.00  0.00    -0.148 S 
ATOM     26  C   UNL A   1      33.191  17.013  23.601  1.00  0.00     0.012 A 
ATOM     27  C   UNL A   1      33.187  17.074  24.971  1.00  0.00     0.065 A 
ENDBRANCH  22  23
ENDBRANCH  19  22
ENDBRANCH  10  18
ENDBRANCH   3   5
ENDBRANCH   2   3
ENDBRANCH   1   2
BRANCH   1  28
ATOM     28  C   UNL A   1      37.179  20.955  24.781  1.00  0.00     0.275 C 
BRANCH  28  29
ATOM     29  O   UNL A   1      37.721  21.795  25.813  1.00  0.00    -0.458 OA
BRANCH  29  30
ATOM     30  C   UNL A   1      38.975  21.475  26.201  1.00  0.00     0.338 C 
ATOM     31  O   UNL A   1      39.562  20.423  25.987  1.00  0.00    -0.246 OA
BRANCH  30  32
ATOM     32  C   UNL A   1      39.646  22.674  26.728  1.00  0.00     0.060 A 
ATOM     33  C   UNL A   1      39.251  23.878  26.158  1.00  0.00     0.016 A 
ATOM     34  C   UNL A   1      40.640  22.658  27.709  1.00  0.00     0.016 A 
ATOM     35  C   UNL A   1      39.839  25.067  26.559  1.00  0.00     0.010 A 
ATOM     36  C   UNL A   1      41.233  23.869  28.115  1.00  0.00     0.010 A 
ATOM     37  C   UNL A   1      40.826  25.083  27.542  1.00  0.00    -0.014 A 
BRANCH  37  38
ATOM     38  C   UNL A   1      41.443  26.396  27.842  1.00  0.00     0.031 A 
ATOM     39  C   UNL A   1      40.655  27.419  28.602  1.00  0.00     0.074 A 
ATOM     40  C   UNL A   1      42.750  26.614  27.595  1.00  0.00     0.049 A 
ATOM     41  N   UNL A   1      41.002  28.623  28.974  1.00  0.00    -0.248 NA
ATOM     42  C   UNL A   1      39.302  27.021  29.022  1.00  0.00     0.031 C 
ATOM     43  C   UNL A   1      43.671  25.640  27.013  1.00  0.00     0.029 A 
ATOM     44  N   UNL A   1      43.532  27.720  27.825  1.00  0.00    -0.354 N 
ATOM     45  C   UNL A   1      39.897  29.147  29.629  1.00  0.00     0.074 A 
ATOM     46  C   UNL A   1      38.877  28.120  29.628  1.00  0.00     0.031 C 
ATOM     47  C   UNL A   1      44.891  26.195  26.917  1.00  0.00     0.029 A 
ATOM     48  C   UNL A   1      44.826  27.578  27.383  1.00  0.00     0.049 A 
ATOM     49  H   UNL A   1      43.198  28.534  28.265  1.00  0.00     0.167 HD
ATOM     50  C   UNL A   1      39.744  30.378  30.169  1.00  0.00     0.034 A 
ATOM     51  C   UNL A   1      45.834  28.473  27.326  1.00  0.00     0.034 A 
ATOM     52  C   UNL A   1      40.763  31.392  30.182  1.00  0.00     0.049 A 
ATOM     53  C   UNL A   1      45.603  29.868  27.849  1.00  0.00     0.074 A 
ATOM     54  C   UNL A   1      40.684  32.681  30.678  1.00  0.00     0.029 A 
ATOM     55  N   UNL A   1      42.043  31.239  29.671  1.00  0.00    -0.354 N 
ATOM     56  N   UNL A   1      44.557  30.359  28.467  1.00  0.00    -0.248 NA
ATOM     57  C   UNL A   1      46.700  30.834  27.675  1.00  0.00     0.031 C 
ATOM     58  C   UNL A   1      41.903  33.321  30.430  1.00  0.00     0.029 A 
ATOM     59  C   UNL A   1      42.757  32.416  29.822  1.00  0.00     0.049 A 
ATOM     60  H   UNL A   1      42.392  30.415  29.261  1.00  0.00     0.167 HD
ATOM     61  C   UNL A   1      44.879  31.675  28.784  1.00  0.00     0.074 A 
ATOM     62  C   UNL A   1      46.230  31.898  28.311  1.00  0.00     0.031 C 
ATOM     63  C   UNL A   1      44.119  32.616  29.396  1.00  0.00     0.034 A 
BRANCH  50  64
ATOM     64  C   UNL A   1      38.396  30.712  30.746  1.00  0.00     0.023 A 
ATOM     65  C   UNL A   1      38.046  30.277  32.039  1.00  0.00     0.012 A 
ATOM     66  C   UNL A   1      37.485  31.486  30.001  1.00  0.00     0.148 A 
ATOM     67  C   UNL A   1      36.793  30.582  32.570  1.00  0.00     0.002 A 
ATOM     68  C   UNL A   1      36.258  31.824  30.555  1.00  0.00     0.091 A 
ATOM     69  F   UNL A   1      37.831  31.866  28.763  1.00  0.00    -0.205 F 
ATOM     70  C   UNL A   1      35.904  31.362  31.833  1.00  0.00     0.022 A 
BRANCH  68  71
ATOM     71  S   UNL A   1      35.079  32.885  29.714  1.00  0.00     0.127 S 
ATOM     72  O   UNL A   1      34.483  31.960  28.752  1.00  0.00    -0.237 OA
ATOM     73  O   UNL A   1      34.192  33.285  30.806  1.00  0.00    -0.237 OA
ATOM     74  O   UNL A   1      35.856  33.972  29.133  1.00  0.00    -0.744 OA
ENDBRANCH  68  71
ENDBRANCH  50  64
BRANCH  51  75
ATOM     75  C   UNL A   1      47.148  28.098  26.725  1.00  0.00     0.023 A 
ATOM     76  C   UNL A   1      47.322  28.141  25.328  1.00  0.00     0.012 A 
ATOM     77  C   UNL A   1      48.219  27.665  27.533  1.00  0.00     0.148 A 
ATOM     78  C   UNL A   1      48.521  27.725  24.746  1.00  0.00     0.002 A 
ATOM     79  C   UNL A   1      49.429  27.309  26.953  1.00  0.00     0.091 A 
ATOM     80  F   UNL A   1      48.028  27.600  28.859  1.00  0.00    -0.205 F 
ATOM     81  C   UNL A   1      49.576  27.318  25.557  1.00  0.00     0.022 A 
BRANCH  79  82
ATOM     82  S   UNL A   1      50.876  26.875  27.925  1.00  0.00     0.127 S 
ATOM     83  O   UNL A   1      51.030  28.053  28.775  1.00  0.00    -0.237 OA
ATOM     84  O   UNL A   1      50.423  25.671  28.620  1.00  0.00    -0.237 OA
ATOM     85  O   UNL A   1      51.947  26.649  26.964  1.00  0.00    -0.744 OA
ENDBRANCH  79  82
ENDBRANCH  51  75
BRANCH  63  86
ATOM     86  C   UNL A   1      44.731  33.975  29.634  1.00  0.00     0.023 A 
ATOM     87  C   UNL A   1      45.431  34.234  30.829  1.00  0.00     0.012 A 
ATOM     88  C   UNL A   1      44.684  34.966  28.633  1.00  0.00     0.148 A 
ATOM     89  C   UNL A   1      46.046  35.469  31.038  1.00  0.00     0.002 A 
ATOM     90  C   UNL A   1      45.343  36.175  28.826  1.00  0.00     0.091 A 
ATOM     91  F   UNL A   1      44.000  34.708  27.508  1.00  0.00    -0.205 F 
ATOM     92  C   UNL A   1      46.013  36.433  30.033  1.00  0.00     0.022 A 
BRANCH  90  93
ATOM     93  S   UNL A   1      45.442  37.437  27.550  1.00  0.00     0.127 S 
ATOM     94  O   UNL A   1      46.103  36.714  26.466  1.00  0.00    -0.237 OA
ATOM     95  O   UNL A   1      44.032  37.743  27.308  1.00  0.00    -0.237 OA
ATOM     96  O   UNL A   1      46.209  38.534  28.126  1.00  0.00    -0.744 OA
ENDBRANCH  90  93
ENDBRANCH  63  86
ENDBRANCH  37  38
ENDBRANCH  30  32
ENDBRANCH  29  30
ENDBRANCH  28  29
ENDBRANCH   1  28
TORSDOF 18
ENDMDL
