MODEL 1
REMARK VINA RESULT:     -12.2      0.000      0.000
REMARK SMILES O=C(OCCOC(=O)[C@]12C[NH2+]C[C@H]1CN(C(=O)c1ccccc1-n1cncn1)C2)c1ccc(-c2c3nc(c(-c4cccc(S(=O)(=O)[O-])c4F)c4ccc([nH]4)c(-c4cccc(S(=O)(=O)[O-])c4F)c4nc(c(-c5cccc(S(=O)(=O)[O-])c5F)c5ccc2[nH]5)C=C4)C=C3)cc1
REMARK SMILES IDX 4 1 3 2 2 3 1 4 30 5 31 6 92 7 32 8 91 9 33 10 34 11 35 12
REMARK SMILES IDX 85 13 36 14 90 15 84 16 86 17 37 18 89 19 83 20 82 21 38 23
REMARK SMILES IDX 70 24 50 25 69 26 51 27 54 28 68 29 87 30 52 31 53 32 67 34
REMARK SMILES IDX 88 35 55 36 39 37 40 38 48 39 41 40 43 41 49 42 42 43 44 44
REMARK SMILES IDX 45 45 46 46 47 47 71 48 72 49 80 50 73 51 75 52 81 53 74 54
REMARK SMILES IDX 76 55 77 56 78 57 79 58 56 59 57 60 65 61 58 62 60 63 66 64
REMARK SMILES IDX 59 65 61 66 62 67 63 68 64 69 5 70 6 71 7 72 8 73 9 74 10 75
REMARK SMILES IDX 13 76 29 77 11 78 12 79 14 80 15 81 16 84 17 85 18 86 19 87
REMARK SMILES IDX 23 88 20 89 22 90 21 91 24 92 25 93 28 94 26 95 27 96
REMARK H PARENT 86 22 54 33 11 82 11 83
REMARK Flexibility Score: inf
ROOT
ATOM      1  C   UNL A   1      43.296  26.084  27.421  1.00  0.00     0.275 C 
ENDROOT
BRANCH   1   2
ATOM      2  O   UNL A   1      42.698  27.334  27.250  1.00  0.00    -0.458 OA
BRANCH   2   3
ATOM      3  C   UNL A   1      41.422  27.575  27.546  1.00  0.00     0.338 C 
ATOM      4  O   UNL A   1      40.799  27.948  26.547  1.00  0.00    -0.246 OA
BRANCH   3   5
ATOM      5  C   UNL A   1      40.630  27.361  28.911  1.00  0.00     0.060 A 
ATOM      6  C   UNL A   1      39.424  26.930  29.384  1.00  0.00     0.016 A 
ATOM      7  C   UNL A   1      41.219  28.097  29.903  1.00  0.00     0.016 A 
ATOM      8  C   UNL A   1      38.795  27.734  30.459  1.00  0.00     0.010 A 
ATOM      9  C   UNL A   1      40.711  28.779  31.016  1.00  0.00     0.010 A 
ATOM     10  C   UNL A   1      39.391  28.928  31.053  1.00  0.00    -0.014 A 
BRANCH  10  11
ATOM     11  C   UNL A   1      38.903  30.059  32.059  1.00  0.00     0.031 A 
ATOM     12  C   UNL A   1      37.939  30.680  31.101  1.00  0.00     0.074 A 
ATOM     13  C   UNL A   1      39.093  30.483  33.425  1.00  0.00     0.049 A 
ATOM     14  N   UNL A   1      38.401  31.400  30.126  1.00  0.00    -0.248 NA
ATOM     15  C   UNL A   1      36.649  30.045  30.706  1.00  0.00     0.031 C 
ATOM     16  C   UNL A   1      39.790  29.918  34.661  1.00  0.00     0.029 A 
ATOM     17  N   UNL A   1      38.764  31.750  34.031  1.00  0.00    -0.354 N 
ATOM     18  C   UNL A   1      37.300  31.754  29.391  1.00  0.00     0.074 A 
ATOM     19  C   UNL A   1      36.391  30.658  29.537  1.00  0.00     0.031 C 
ATOM     20  C   UNL A   1      39.695  30.700  35.770  1.00  0.00     0.029 A 
ATOM     21  C   UNL A   1      38.947  31.887  35.477  1.00  0.00     0.049 A 
ATOM     22  H   UNL A   1      38.427  32.500  33.490  1.00  0.00     0.167 HD
ATOM     23  C   UNL A   1      37.112  33.093  29.292  1.00  0.00     0.034 A 
ATOM     24  C   UNL A   1      38.711  32.929  36.378  1.00  0.00     0.034 A 
ATOM     25  C   UNL A   1      38.384  33.769  29.571  1.00  0.00     0.049 A 
ATOM     26  C   UNL A   1      38.606  34.169  35.596  1.00  0.00     0.074 A 
ATOM     27  C   UNL A   1      39.678  33.666  29.082  1.00  0.00     0.029 A 
ATOM     28  N   UNL A   1      38.502  34.133  30.888  1.00  0.00    -0.354 N 
ATOM     29  N   UNL A   1      39.642  34.690  35.006  1.00  0.00    -0.248 NA
ATOM     30  C   UNL A   1      37.310  34.353  34.976  1.00  0.00     0.031 C 
ATOM     31  C   UNL A   1      40.548  33.772  30.214  1.00  0.00     0.029 A 
ATOM     32  C   UNL A   1      39.793  34.142  31.321  1.00  0.00     0.049 A 
ATOM     33  H   UNL A   1      37.734  34.364  31.460  1.00  0.00     0.167 HD
ATOM     34  C   UNL A   1      39.238  34.697  33.684  1.00  0.00     0.074 A 
ATOM     35  C   UNL A   1      37.774  34.511  33.734  1.00  0.00     0.031 C 
ATOM     36  C   UNL A   1      40.140  34.457  32.686  1.00  0.00     0.034 A 
BRANCH  23  37
ATOM     37  C   UNL A   1      35.782  33.743  29.614  1.00  0.00     0.023 A 
ATOM     38  C   UNL A   1      35.214  34.505  28.579  1.00  0.00     0.012 A 
ATOM     39  C   UNL A   1      35.192  33.871  30.900  1.00  0.00     0.148 A 
ATOM     40  C   UNL A   1      34.118  35.342  28.806  1.00  0.00     0.002 A 
ATOM     41  C   UNL A   1      34.059  34.644  31.109  1.00  0.00     0.091 A 
ATOM     42  F   UNL A   1      35.776  33.349  31.977  1.00  0.00    -0.205 F 
ATOM     43  C   UNL A   1      33.527  35.398  30.064  1.00  0.00     0.022 A 
BRANCH  41  44
ATOM     44  S   UNL A   1      33.226  34.731  32.703  1.00  0.00     0.127 S 
ATOM     45  O   UNL A   1      33.230  33.340  33.124  1.00  0.00    -0.237 OA
ATOM     46  O   UNL A   1      34.113  35.618  33.445  1.00  0.00    -0.237 OA
ATOM     47  O   UNL A   1      31.896  35.305  32.432  1.00  0.00    -0.744 OA
ENDBRANCH  41  44
ENDBRANCH  23  37
BRANCH  24  48
ATOM     48  C   UNL A   1      38.170  32.959  37.813  1.00  0.00     0.023 A 
ATOM     49  C   UNL A   1      36.854  32.534  38.196  1.00  0.00     0.012 A 
ATOM     50  C   UNL A   1      39.097  33.082  38.857  1.00  0.00     0.148 A 
ATOM     51  C   UNL A   1      36.532  32.191  39.537  1.00  0.00     0.002 A 
ATOM     52  C   UNL A   1      38.789  32.713  40.168  1.00  0.00     0.091 A 
ATOM     53  F   UNL A   1      40.327  33.496  38.547  1.00  0.00    -0.205 F 
ATOM     54  C   UNL A   1      37.515  32.250  40.519  1.00  0.00     0.022 A 
BRANCH  52  55
ATOM     55  S   UNL A   1      40.056  32.728  41.442  1.00  0.00     0.127 S 
ATOM     56  O   UNL A   1      40.576  34.091  41.333  1.00  0.00    -0.237 OA
ATOM     57  O   UNL A   1      39.275  32.461  42.646  1.00  0.00    -0.237 OA
ATOM     58  O   UNL A   1      41.008  31.692  41.065  1.00  0.00    -0.744 OA
ENDBRANCH  52  55
ENDBRANCH  24  48
BRANCH  36  59
ATOM     59  C   UNL A   1      41.609  34.584  32.994  1.00  0.00     0.023 A 
ATOM     60  C   UNL A   1      42.332  35.782  33.194  1.00  0.00     0.012 A 
ATOM     61  C   UNL A   1      42.255  33.359  33.203  1.00  0.00     0.148 A 
ATOM     62  C   UNL A   1      43.688  35.731  33.559  1.00  0.00     0.002 A 
ATOM     63  C   UNL A   1      43.580  33.312  33.589  1.00  0.00     0.091 A 
ATOM     64  F   UNL A   1      41.532  32.240  33.050  1.00  0.00    -0.205 F 
ATOM     65  C   UNL A   1      44.313  34.495  33.754  1.00  0.00     0.022 A 
BRANCH  63  66
ATOM     66  S   UNL A   1      44.371  31.742  33.920  1.00  0.00     0.127 S 
ATOM     67  O   UNL A   1      45.720  32.162  34.295  1.00  0.00    -0.237 OA
ATOM     68  O   UNL A   1      43.562  31.212  35.018  1.00  0.00    -0.237 OA
ATOM     69  O   UNL A   1      44.281  30.969  32.688  1.00  0.00    -0.744 OA
ENDBRANCH  63  66
ENDBRANCH  36  59
ENDBRANCH  10  11
ENDBRANCH   3   5
ENDBRANCH   2   3
ENDBRANCH   1   2
BRANCH   1  70
ATOM     70  C   UNL A   1      42.722  25.006  26.501  1.00  0.00     0.274 C 
BRANCH  70  71
ATOM     71  O   UNL A   1      41.981  23.951  27.199  1.00  0.00    -0.461 OA
BRANCH  71  72
ATOM     72  C   UNL A   1      40.721  23.759  26.727  1.00  0.00     0.320 C 
ATOM     73  O   UNL A   1      40.008  24.715  26.401  1.00  0.00    -0.251 OA
BRANCH  72  74
ATOM     74  C   UNL A   1      40.091  22.345  26.674  1.00  0.00     0.144 C 
ATOM     75  C   UNL A   1      40.894  21.835  27.904  1.00  0.00     0.281 C 
ATOM     76  C   UNL A   1      40.135  21.082  25.771  1.00  0.00     0.088 C 
ATOM     77  C   UNL A   1      38.550  22.767  26.568  1.00  0.00     0.145 C 
ATOM     78  N   UNL A   1      41.032  20.392  27.930  1.00  0.00    -0.345 N 
ATOM     79  C   UNL A   1      40.770  19.920  26.580  1.00  0.00     0.267 C 
ATOM     80  C   UNL A   1      38.625  20.705  25.436  1.00  0.00     0.130 C 
ATOM     81  N   UNL A   1      37.839  21.954  25.548  1.00  0.00    -0.337 N 
ATOM     82  H   UNL A   1      40.360  19.986  28.581  1.00  0.00     0.346 HD
ATOM     83  H   UNL A   1      41.966  20.119  28.238  1.00  0.00     0.346 HD
BRANCH  81  84
ATOM     84  C   UNL A   1      36.763  22.325  24.504  1.00  0.00     0.256 C 
ATOM     85  O   UNL A   1      37.108  23.171  23.665  1.00  0.00    -0.269 OA
BRANCH  84  86
ATOM     86  C   UNL A   1      35.093  21.838  24.380  1.00  0.00     0.065 A 
ATOM     87  C   UNL A   1      35.047  20.509  24.846  1.00  0.00     0.016 A 
ATOM     88  C   UNL A   1      33.754  22.282  23.766  1.00  0.00     0.079 A 
ATOM     89  C   UNL A   1      33.873  19.718  24.833  1.00  0.00     0.001 A 
ATOM     90  C   UNL A   1      32.599  21.462  23.851  1.00  0.00     0.029 A 
ATOM     91  C   UNL A   1      32.657  20.193  24.364  1.00  0.00     0.002 A 
BRANCH  88  92
ATOM     92  N   UNL A   1      33.294  23.459  23.002  1.00  0.00    -0.220 N 
ATOM     93  C   UNL A   1      32.087  24.133  23.186  1.00  0.00     0.225 A 
ATOM     94  N   UNL A   1      34.150  24.530  22.692  1.00  0.00    -0.155 NA
ATOM     95  N   UNL A   1      32.027  25.297  22.594  1.00  0.00    -0.223 NA
ATOM     96  C   UNL A   1      33.304  25.466  22.235  1.00  0.00     0.246 A 
ENDBRANCH  88  92
ENDBRANCH  84  86
ENDBRANCH  81  84
ENDBRANCH  72  74
ENDBRANCH  71  72
ENDBRANCH  70  71
ENDBRANCH   1  70
TORSDOF 17
ENDMDL
MODEL 2
REMARK VINA RESULT:     -12.0      1.970      3.328
REMARK SMILES O=C(OCCOC(=O)[C@]12C[NH2+]C[C@H]1CN(C(=O)c1ccccc1-n1cncn1)C2)c1ccc(-c2c3nc(c(-c4cccc(S(=O)(=O)[O-])c4F)c4ccc([nH]4)c(-c4cccc(S(=O)(=O)[O-])c4F)c4nc(c(-c5cccc(S(=O)(=O)[O-])c5F)c5ccc2[nH]5)C=C4)C=C3)cc1
REMARK SMILES IDX 4 1 3 2 2 3 1 4 30 5 31 6 92 7 32 8 91 9 33 10 34 11 35 12
REMARK SMILES IDX 85 13 36 14 90 15 84 16 86 17 37 18 89 19 83 20 82 21 38 23
REMARK SMILES IDX 70 24 50 25 69 26 51 27 54 28 68 29 87 30 52 31 53 32 67 34
REMARK SMILES IDX 88 35 55 36 39 37 40 38 48 39 41 40 43 41 49 42 42 43 44 44
REMARK SMILES IDX 45 45 46 46 47 47 71 48 72 49 80 50 73 51 75 52 81 53 74 54
REMARK SMILES IDX 76 55 77 56 78 57 79 58 56 59 57 60 65 61 58 62 60 63 66 64
REMARK SMILES IDX 59 65 61 66 62 67 63 68 64 69 5 70 6 71 7 72 8 73 9 74 10 75
REMARK SMILES IDX 13 76 29 77 11 78 12 79 14 80 15 81 16 84 17 85 18 86 19 87
REMARK SMILES IDX 23 88 20 89 22 90 21 91 24 92 25 93 28 94 26 95 27 96
REMARK H PARENT 86 22 54 33 11 82 11 83
REMARK Flexibility Score: inf
ROOT
ATOM      1  C   UNL A   1      39.967  25.286  26.048  1.00  0.00     0.275 C 
ENDROOT
BRANCH   1   2
ATOM      2  O   UNL A   1      40.782  26.026  26.906  1.00  0.00    -0.458 OA
BRANCH   2   3
ATOM      3  C   UNL A   1      40.316  26.989  27.700  1.00  0.00     0.338 C 
ATOM      4  O   UNL A   1      40.080  28.017  27.057  1.00  0.00    -0.246 OA
BRANCH   3   5
ATOM      5  C   UNL A   1      39.956  26.952  29.251  1.00  0.00     0.060 A 
ATOM      6  C   UNL A   1      39.017  26.463  30.112  1.00  0.00     0.016 A 
ATOM      7  C   UNL A   1      40.627  27.951  29.902  1.00  0.00     0.016 A 
ATOM      8  C   UNL A   1      38.542  27.375  31.181  1.00  0.00     0.010 A 
ATOM      9  C   UNL A   1      40.301  28.769  30.991  1.00  0.00     0.010 A 
ATOM     10  C   UNL A   1      39.031  28.736  31.382  1.00  0.00    -0.014 A 
BRANCH  10  11
ATOM     11  C   UNL A   1      38.610  29.971  32.291  1.00  0.00     0.031 A 
ATOM     12  C   UNL A   1      37.696  30.577  31.277  1.00  0.00     0.074 A 
ATOM     13  C   UNL A   1      38.817  30.485  33.624  1.00  0.00     0.049 A 
ATOM     14  N   UNL A   1      38.210  31.188  30.256  1.00  0.00    -0.248 NA
ATOM     15  C   UNL A   1      36.371  29.997  30.915  1.00  0.00     0.031 C 
ATOM     16  C   UNL A   1      39.466  29.974  34.907  1.00  0.00     0.029 A 
ATOM     17  N   UNL A   1      38.566  31.813  34.128  1.00  0.00    -0.354 N 
ATOM     18  C   UNL A   1      37.140  31.554  29.483  1.00  0.00     0.074 A 
ATOM     19  C   UNL A   1      36.161  30.533  29.700  1.00  0.00     0.031 C 
ATOM     20  C   UNL A   1      39.413  30.843  35.953  1.00  0.00     0.029 A 
ATOM     21  C   UNL A   1      38.747  32.049  35.561  1.00  0.00     0.049 A 
ATOM     22  H   UNL A   1      38.283  32.540  33.526  1.00  0.00     0.167 HD
ATOM     23  C   UNL A   1      37.041  32.892  29.279  1.00  0.00     0.034 A 
ATOM     24  C   UNL A   1      38.571  33.170  36.377  1.00  0.00     0.034 A 
ATOM     25  C   UNL A   1      38.351  33.504  29.522  1.00  0.00     0.049 A 
ATOM     26  C   UNL A   1      38.553  34.351  35.502  1.00  0.00     0.074 A 
ATOM     27  C   UNL A   1      39.640  33.281  29.059  1.00  0.00     0.029 A 
ATOM     28  N   UNL A   1      38.483  33.960  30.809  1.00  0.00    -0.354 N 
ATOM     29  N   UNL A   1      39.625  34.757  34.887  1.00  0.00    -0.248 NA
ATOM     30  C   UNL A   1      37.277  34.569  34.852  1.00  0.00     0.031 C 
ATOM     31  C   UNL A   1      40.506  33.418  30.190  1.00  0.00     0.029 A 
ATOM     32  C   UNL A   1      39.769  33.919  31.256  1.00  0.00     0.049 A 
ATOM     33  H   UNL A   1      37.727  34.282  31.352  1.00  0.00     0.167 HD
ATOM     34  C   UNL A   1      39.232  34.689  33.562  1.00  0.00     0.074 A 
ATOM     35  C   UNL A   1      37.759  34.602  33.608  1.00  0.00     0.031 C 
ATOM     36  C   UNL A   1      40.124  34.315  32.597  1.00  0.00     0.034 A 
BRANCH  23  37
ATOM     37  C   UNL A   1      35.753  33.648  29.534  1.00  0.00     0.023 A 
ATOM     38  C   UNL A   1      35.266  34.398  28.450  1.00  0.00     0.012 A 
ATOM     39  C   UNL A   1      35.143  33.879  30.796  1.00  0.00     0.148 A 
ATOM     40  C   UNL A   1      34.228  35.319  28.608  1.00  0.00     0.002 A 
ATOM     41  C   UNL A   1      34.063  34.738  30.938  1.00  0.00     0.091 A 
ATOM     42  F   UNL A   1      35.662  33.370  31.912  1.00  0.00    -0.205 F 
ATOM     43  C   UNL A   1      33.612  35.477  29.845  1.00  0.00     0.022 A 
BRANCH  41  44
ATOM     44  S   UNL A   1      33.200  34.960  32.502  1.00  0.00     0.127 S 
ATOM     45  O   UNL A   1      34.034  35.942  33.173  1.00  0.00    -0.237 OA
ATOM     46  O   UNL A   1      31.899  35.440  32.050  1.00  0.00    -0.237 OA
ATOM     47  O   UNL A   1      33.159  33.629  33.133  1.00  0.00    -0.744 OA
ENDBRANCH  41  44
ENDBRANCH  23  37
BRANCH  24  48
ATOM     48  C   UNL A   1      38.023  33.345  37.798  1.00  0.00     0.023 A 
ATOM     49  C   UNL A   1      37.124  32.430  38.442  1.00  0.00     0.012 A 
ATOM     50  C   UNL A   1      38.679  34.249  38.644  1.00  0.00     0.148 A 
ATOM     51  C   UNL A   1      36.966  32.396  39.855  1.00  0.00     0.002 A 
ATOM     52  C   UNL A   1      38.547  34.193  40.033  1.00  0.00     0.091 A 
ATOM     53  F   UNL A   1      39.507  35.133  38.084  1.00  0.00    -0.205 F 
ATOM     54  C   UNL A   1      37.707  33.261  40.652  1.00  0.00     0.022 A 
BRANCH  52  55
ATOM     55  S   UNL A   1      39.536  35.261  41.088  1.00  0.00     0.127 S 
ATOM     56  O   UNL A   1      40.881  34.726  40.881  1.00  0.00    -0.237 OA
ATOM     57  O   UNL A   1      39.296  36.573  40.494  1.00  0.00    -0.237 OA
ATOM     58  O   UNL A   1      39.017  35.074  42.436  1.00  0.00    -0.744 OA
ENDBRANCH  52  55
ENDBRANCH  24  48
BRANCH  36  59
ATOM     59  C   UNL A   1      41.596  34.372  32.913  1.00  0.00     0.023 A 
ATOM     60  C   UNL A   1      42.395  35.532  33.023  1.00  0.00     0.012 A 
ATOM     61  C   UNL A   1      42.158  33.128  33.232  1.00  0.00     0.148 A 
ATOM     62  C   UNL A   1      43.743  35.423  33.408  1.00  0.00     0.002 A 
ATOM     63  C   UNL A   1      43.474  33.028  33.638  1.00  0.00     0.091 A 
ATOM     64  F   UNL A   1      41.363  32.050  33.163  1.00  0.00    -0.205 F 
ATOM     65  C   UNL A   1      44.283  34.170  33.714  1.00  0.00     0.022 A 
BRANCH  63  66
ATOM     66  S   UNL A   1      44.157  31.442  34.108  1.00  0.00     0.127 S 
ATOM     67  O   UNL A   1      44.304  30.786  32.811  1.00  0.00    -0.237 OA
ATOM     68  O   UNL A   1      45.414  31.824  34.752  1.00  0.00    -0.237 OA
ATOM     69  O   UNL A   1      43.189  30.829  35.009  1.00  0.00    -0.744 OA
ENDBRANCH  63  66
ENDBRANCH  36  59
ENDBRANCH  10  11
ENDBRANCH   3   5
ENDBRANCH   2   3
ENDBRANCH   1   2
BRANCH   1  70
ATOM     70  C   UNL A   1      38.910  24.458  26.779  1.00  0.00     0.274 C 
BRANCH  70  71
ATOM     71  O   UNL A   1      37.590  24.468  26.139  1.00  0.00    -0.461 OA
BRANCH  71  72
ATOM     72  C   UNL A   1      37.201  23.255  25.664  1.00  0.00     0.320 C 
ATOM     73  O   UNL A   1      38.032  22.401  25.332  1.00  0.00    -0.251 OA
BRANCH  72  74
ATOM     74  C   UNL A   1      35.706  22.931  25.423  1.00  0.00     0.144 C 
ATOM     75  C   UNL A   1      35.758  21.614  26.248  1.00  0.00     0.281 C 
ATOM     76  C   UNL A   1      34.782  22.491  24.255  1.00  0.00     0.088 C 
ATOM     77  C   UNL A   1      35.080  24.352  25.815  1.00  0.00     0.145 C 
ATOM     78  N   UNL A   1      34.715  20.676  25.881  1.00  0.00    -0.345 N 
ATOM     79  C   UNL A   1      34.236  21.071  24.566  1.00  0.00     0.267 C 
ATOM     80  C   UNL A   1      33.560  23.512  24.227  1.00  0.00     0.130 C 
ATOM     81  N   UNL A   1      34.043  24.771  24.837  1.00  0.00    -0.337 N 
ATOM     82  H   UNL A   1      33.954  20.714  26.558  1.00  0.00     0.346 HD
ATOM     83  H   UNL A   1      35.071  19.719  25.867  1.00  0.00     0.346 HD
BRANCH  81  84
ATOM     84  C   UNL A   1      33.705  26.146  24.222  1.00  0.00     0.256 C 
ATOM     85  O   UNL A   1      33.965  26.266  23.015  1.00  0.00    -0.269 OA
BRANCH  84  86
ATOM     86  C   UNL A   1      33.125  27.608  24.974  1.00  0.00     0.065 A 
ATOM     87  C   UNL A   1      33.611  27.577  26.296  1.00  0.00     0.016 A 
ATOM     88  C   UNL A   1      32.134  28.764  24.749  1.00  0.00     0.079 A 
ATOM     89  C   UNL A   1      33.291  28.557  27.268  1.00  0.00     0.001 A 
ATOM     90  C   UNL A   1      31.916  29.749  25.747  1.00  0.00     0.029 A 
ATOM     91  C   UNL A   1      32.474  29.643  26.994  1.00  0.00     0.002 A 
BRANCH  88  92
ATOM     92  N   UNL A   1      31.224  29.162  23.657  1.00  0.00    -0.220 N 
ATOM     93  C   UNL A   1      30.760  28.333  22.635  1.00  0.00     0.225 A 
ATOM     94  N   UNL A   1      30.090  29.963  23.882  1.00  0.00    -0.155 NA
ATOM     95  N   UNL A   1      29.757  28.827  21.957  1.00  0.00    -0.223 NA
ATOM     96  C   UNL A   1      29.427  29.876  22.719  1.00  0.00     0.246 A 
ENDBRANCH  88  92
ENDBRANCH  84  86
ENDBRANCH  81  84
ENDBRANCH  72  74
ENDBRANCH  71  72
ENDBRANCH  70  71
ENDBRANCH   1  70
TORSDOF 17
ENDMDL
MODEL 3
REMARK VINA RESULT:     -12.0      5.672     12.839
REMARK SMILES O=C(OCCOC(=O)[C@]12C[NH2+]C[C@H]1CN(C(=O)c1ccccc1-n1cncn1)C2)c1ccc(-c2c3nc(c(-c4cccc(S(=O)(=O)[O-])c4F)c4ccc([nH]4)c(-c4cccc(S(=O)(=O)[O-])c4F)c4nc(c(-c5cccc(S(=O)(=O)[O-])c5F)c5ccc2[nH]5)C=C4)C=C3)cc1
REMARK SMILES IDX 4 1 3 2 2 3 1 4 30 5 31 6 92 7 32 8 91 9 33 10 34 11 35 12
REMARK SMILES IDX 85 13 36 14 90 15 84 16 86 17 37 18 89 19 83 20 82 21 38 23
REMARK SMILES IDX 70 24 50 25 69 26 51 27 54 28 68 29 87 30 52 31 53 32 67 34
REMARK SMILES IDX 88 35 55 36 39 37 40 38 48 39 41 40 43 41 49 42 42 43 44 44
REMARK SMILES IDX 45 45 46 46 47 47 71 48 72 49 80 50 73 51 75 52 81 53 74 54
REMARK SMILES IDX 76 55 77 56 78 57 79 58 56 59 57 60 65 61 58 62 60 63 66 64
REMARK SMILES IDX 59 65 61 66 62 67 63 68 64 69 5 70 6 71 7 72 8 73 9 74 10 75
REMARK SMILES IDX 13 76 29 77 11 78 12 79 14 80 15 81 16 84 17 85 18 86 19 87
REMARK SMILES IDX 23 88 20 89 22 90 21 91 24 92 25 93 28 94 26 95 27 96
REMARK H PARENT 86 22 54 33 11 82 11 83
REMARK Flexibility Score: inf
ROOT
ATOM      1  C   UNL A   1      37.567  29.933  32.247  1.00  0.00     0.275 C 
ENDROOT
BRANCH   1   2
ATOM      2  O   UNL A   1      38.215  28.914  31.546  1.00  0.00    -0.458 OA
BRANCH   2   3
ATOM      3  C   UNL A   1      39.474  29.010  31.126  1.00  0.00     0.338 C 
ATOM      4  O   UNL A   1      40.267  28.771  32.043  1.00  0.00    -0.246 OA
BRANCH   3   5
ATOM      5  C   UNL A   1      40.048  29.278  29.664  1.00  0.00     0.060 A 
ATOM      6  C   UNL A   1      39.698  29.171  28.349  1.00  0.00     0.016 A 
ATOM      7  C   UNL A   1      41.411  29.377  29.717  1.00  0.00     0.016 A 
ATOM      8  C   UNL A   1      40.719  28.625  27.421  1.00  0.00     0.010 A 
ATOM      9  C   UNL A   1      42.433  29.003  28.834  1.00  0.00     0.010 A 
ATOM     10  C   UNL A   1      42.066  28.227  27.819  1.00  0.00    -0.014 A 
BRANCH  10  11
ATOM     11  C   UNL A   1      43.280  27.474  27.120  1.00  0.00     0.031 A 
ATOM     12  C   UNL A   1      42.642  26.124  27.165  1.00  0.00     0.074 A 
ATOM     13  C   UNL A   1      44.559  27.760  26.514  1.00  0.00     0.049 A 
ATOM     14  N   UNL A   1      42.584  25.496  28.298  1.00  0.00    -0.248 NA
ATOM     15  C   UNL A   1      41.496  25.727  26.298  1.00  0.00     0.031 C 
ATOM     16  C   UNL A   1      45.324  29.019  26.113  1.00  0.00     0.029 A 
ATOM     17  N   UNL A   1      45.639  26.852  26.216  1.00  0.00    -0.354 N 
ATOM     18  C   UNL A   1      41.884  24.348  28.034  1.00  0.00     0.074 A 
ATOM     19  C   UNL A   1      40.969  24.704  26.994  1.00  0.00     0.031 C 
ATOM     20  C   UNL A   1      46.540  28.785  25.549  1.00  0.00     0.029 A 
ATOM     21  C   UNL A   1      46.793  27.376  25.483  1.00  0.00     0.049 A 
ATOM     22  H   UNL A   1      45.603  25.909  26.497  1.00  0.00     0.167 HD
ATOM     23  C   UNL A   1      42.574  23.211  28.300  1.00  0.00     0.034 A 
ATOM     24  C   UNL A   1      47.973  26.794  25.011  1.00  0.00     0.034 A 
ATOM     25  C   UNL A   1      43.658  23.524  29.236  1.00  0.00     0.049 A 
ATOM     26  C   UNL A   1      48.159  25.530  25.738  1.00  0.00     0.074 A 
ATOM     27  C   UNL A   1      43.738  24.152  30.470  1.00  0.00     0.029 A 
ATOM     28  N   UNL A   1      44.839  23.797  28.593  1.00  0.00    -0.354 N 
ATOM     29  N   UNL A   1      48.459  25.513  27.005  1.00  0.00    -0.248 NA
ATOM     30  C   UNL A   1      47.361  24.440  25.217  1.00  0.00     0.031 C 
ATOM     31  C   UNL A   1      44.911  24.972  30.432  1.00  0.00     0.029 A 
ATOM     32  C   UNL A   1      45.625  24.673  29.278  1.00  0.00     0.049 A 
ATOM     33  H   UNL A   1      45.092  23.400  27.728  1.00  0.00     0.167 HD
ATOM     34  C   UNL A   1      47.397  24.801  27.534  1.00  0.00     0.074 A 
ATOM     35  C   UNL A   1      46.772  24.134  26.375  1.00  0.00     0.031 C 
ATOM     36  C   UNL A   1      46.893  25.127  28.762  1.00  0.00     0.034 A 
BRANCH  23  37
ATOM     37  C   UNL A   1      42.703  22.096  27.282  1.00  0.00     0.023 A 
ATOM     38  C   UNL A   1      42.073  20.887  27.624  1.00  0.00     0.012 A 
ATOM     39  C   UNL A   1      43.587  22.062  26.170  1.00  0.00     0.148 A 
ATOM     40  C   UNL A   1      42.301  19.715  26.900  1.00  0.00     0.002 A 
ATOM     41  C   UNL A   1      43.756  20.917  25.407  1.00  0.00     0.091 A 
ATOM     42  F   UNL A   1      44.378  23.097  25.893  1.00  0.00    -0.205 F 
ATOM     43  C   UNL A   1      43.126  19.731  25.781  1.00  0.00     0.022 A 
BRANCH  41  44
ATOM     44  S   UNL A   1      44.781  20.881  23.926  1.00  0.00     0.127 S 
ATOM     45  O   UNL A   1      44.329  22.066  23.217  1.00  0.00    -0.237 OA
ATOM     46  O   UNL A   1      46.119  20.960  24.499  1.00  0.00    -0.237 OA
ATOM     47  O   UNL A   1      44.489  19.598  23.265  1.00  0.00    -0.744 OA
ENDBRANCH  41  44
ENDBRANCH  23  37
BRANCH  24  48
ATOM     48  C   UNL A   1      48.783  26.986  23.724  1.00  0.00     0.023 A 
ATOM     49  C   UNL A   1      48.254  27.517  22.500  1.00  0.00     0.012 A 
ATOM     50  C   UNL A   1      50.180  26.967  23.823  1.00  0.00     0.148 A 
ATOM     51  C   UNL A   1      49.092  28.055  21.486  1.00  0.00     0.002 A 
ATOM     52  C   UNL A   1      51.001  27.526  22.842  1.00  0.00     0.091 A 
ATOM     53  F   UNL A   1      50.715  26.460  24.936  1.00  0.00    -0.205 F 
ATOM     54  C   UNL A   1      50.469  28.088  21.675  1.00  0.00     0.022 A 
BRANCH  52  55
ATOM     55  S   UNL A   1      52.778  27.631  23.088  1.00  0.00     0.127 S 
ATOM     56  O   UNL A   1      53.239  28.067  21.770  1.00  0.00    -0.237 OA
ATOM     57  O   UNL A   1      52.877  28.640  24.139  1.00  0.00    -0.237 OA
ATOM     58  O   UNL A   1      53.205  26.289  23.458  1.00  0.00    -0.744 OA
ENDBRANCH  52  55
ENDBRANCH  24  48
BRANCH  36  59
ATOM     59  C   UNL A   1      47.733  25.970  29.686  1.00  0.00     0.023 A 
ATOM     60  C   UNL A   1      48.866  25.552  30.419  1.00  0.00     0.012 A 
ATOM     61  C   UNL A   1      47.379  27.326  29.698  1.00  0.00     0.148 A 
ATOM     62  C   UNL A   1      49.595  26.485  31.178  1.00  0.00     0.002 A 
ATOM     63  C   UNL A   1      48.114  28.245  30.422  1.00  0.00     0.091 A 
ATOM     64  F   UNL A   1      46.326  27.701  28.957  1.00  0.00    -0.205 F 
ATOM     65  C   UNL A   1      49.217  27.831  31.180  1.00  0.00     0.022 A 
BRANCH  63  66
ATOM     66  S   UNL A   1      47.691  29.982  30.371  1.00  0.00     0.127 S 
ATOM     67  O   UNL A   1      46.378  29.987  31.013  1.00  0.00    -0.237 OA
ATOM     68  O   UNL A   1      48.765  30.586  31.160  1.00  0.00    -0.237 OA
ATOM     69  O   UNL A   1      47.697  30.366  28.966  1.00  0.00    -0.744 OA
ENDBRANCH  63  66
ENDBRANCH  36  59
ENDBRANCH  10  11
ENDBRANCH   3   5
ENDBRANCH   2   3
ENDBRANCH   1   2
BRANCH   1  70
ATOM     70  C   UNL A   1      36.358  30.505  31.506  1.00  0.00     0.274 C 
BRANCH  70  71
ATOM     71  O   UNL A   1      36.680  31.122  30.215  1.00  0.00    -0.461 OA
BRANCH  71  72
ATOM     72  C   UNL A   1      36.047  30.547  29.158  1.00  0.00     0.320 C 
ATOM     73  O   UNL A   1      36.282  29.378  28.831  1.00  0.00    -0.251 OA
BRANCH  72  74
ATOM     74  C   UNL A   1      35.084  31.363  28.260  1.00  0.00     0.144 C 
ATOM     75  C   UNL A   1      36.093  32.532  28.073  1.00  0.00     0.281 C 
ATOM     76  C   UNL A   1      33.758  32.160  28.396  1.00  0.00     0.088 C 
ATOM     77  C   UNL A   1      34.665  30.206  27.235  1.00  0.00     0.145 C 
ATOM     78  N   UNL A   1      35.449  33.784  27.727  1.00  0.00    -0.345 N 
ATOM     79  C   UNL A   1      34.050  33.657  28.104  1.00  0.00     0.267 C 
ATOM     80  C   UNL A   1      32.773  31.605  27.274  1.00  0.00     0.130 C 
ATOM     81  N   UNL A   1      33.202  30.220  26.978  1.00  0.00    -0.337 N 
ATOM     82  H   UNL A   1      35.528  33.955  26.725  1.00  0.00     0.346 HD
ATOM     83  H   UNL A   1      35.888  34.568  28.212  1.00  0.00     0.346 HD
BRANCH  81  84
ATOM     84  C   UNL A   1      32.177  29.077  26.808  1.00  0.00     0.256 C 
ATOM     85  O   UNL A   1      31.846  28.501  27.856  1.00  0.00    -0.269 OA
BRANCH  84  86
ATOM     86  C   UNL A   1      31.493  28.380  25.364  1.00  0.00     0.065 A 
ATOM     87  C   UNL A   1      30.993  29.463  24.615  1.00  0.00     0.016 A 
ATOM     88  C   UNL A   1      31.084  27.023  24.762  1.00  0.00     0.079 A 
ATOM     89  C   UNL A   1      30.283  29.310  23.399  1.00  0.00     0.001 A 
ATOM     90  C   UNL A   1      30.434  26.944  23.504  1.00  0.00     0.029 A 
ATOM     91  C   UNL A   1      30.026  28.069  22.836  1.00  0.00     0.002 A 
BRANCH  88  92
ATOM     92  N   UNL A   1      31.177  25.616  25.199  1.00  0.00    -0.220 N 
ATOM     93  C   UNL A   1      32.199  24.724  24.874  1.00  0.00     0.225 A 
ATOM     94  N   UNL A   1      30.893  25.222  26.518  1.00  0.00    -0.155 NA
ATOM     95  N   UNL A   1      32.210  23.634  25.596  1.00  0.00    -0.223 NA
ATOM     96  C   UNL A   1      31.332  23.954  26.553  1.00  0.00     0.246 A 
ENDBRANCH  88  92
ENDBRANCH  84  86
ENDBRANCH  81  84
ENDBRANCH  72  74
ENDBRANCH  71  72
ENDBRANCH  70  71
ENDBRANCH   1  70
TORSDOF 17
ENDMDL
