MODEL 1
REMARK VINA RESULT:     -11.5      0.000      0.000
REMARK SMILES O=C(OCCOC(=O)[C@@H]1C[NH2+]CCN1C(=O)N[C@@H]1CCOC1)c1ccc(-c2c3nc(c(-c4cccc(S(=O)(=O)[O-])c4F)c4ccc([nH]4)c(-c4cccc(S(=O)(=O)[O-])c4F)c4nc(c(-c5cccc(S(=O)(=O)[O-])c5F)c5ccc2[nH]5)C=C4)C=C3)cc1
REMARK SMILES IDX 4 1 3 2 2 3 1 4 23 5 24 6 85 7 25 8 84 9 26 10 27 11 28 12
REMARK SMILES IDX 78 13 29 14 83 15 77 16 79 17 30 18 82 19 76 20 75 21 31 23
REMARK SMILES IDX 63 24 43 25 62 26 44 27 47 28 61 29 80 30 45 31 46 32 60 34
REMARK SMILES IDX 81 35 48 36 32 37 33 38 41 39 34 40 36 41 42 42 35 43 37 44
REMARK SMILES IDX 38 45 39 46 40 47 64 48 65 49 73 50 66 51 68 52 74 53 67 54
REMARK SMILES IDX 69 55 70 56 71 57 72 58 49 59 50 60 58 61 51 62 53 63 59 64
REMARK SMILES IDX 52 65 54 66 55 67 56 68 57 69 5 70 6 71 7 72 8 73 9 74 10 75
REMARK SMILES IDX 14 76 11 77 13 78 12 79 15 82 16 83 17 84 18 86 19 87 22 88
REMARK SMILES IDX 20 89 21 90
REMARK H PARENT 79 22 47 33 11 80 11 81 17 85
REMARK Flexibility Score: inf
ROOT
ATOM      1  C   UNL A   1      32.773  30.431  26.182  1.00  0.00     0.275 C 
ENDROOT
BRANCH   1   2
ATOM      2  O   UNL A   1      32.833  31.017  27.483  1.00  0.00    -0.458 OA
BRANCH   2   3
ATOM      3  C   UNL A   1      33.750  31.928  27.891  1.00  0.00     0.338 C 
ATOM      4  O   UNL A   1      33.592  33.126  27.673  1.00  0.00    -0.246 OA
BRANCH   3   5
ATOM      5  C   UNL A   1      35.053  31.438  28.398  1.00  0.00     0.060 A 
ATOM      6  C   UNL A   1      35.291  30.123  28.810  1.00  0.00     0.016 A 
ATOM      7  C   UNL A   1      36.108  32.350  28.390  1.00  0.00     0.016 A 
ATOM      8  C   UNL A   1      36.591  29.670  29.004  1.00  0.00     0.010 A 
ATOM      9  C   UNL A   1      37.414  31.909  28.618  1.00  0.00     0.010 A 
ATOM     10  C   UNL A   1      37.661  30.560  28.902  1.00  0.00    -0.014 A 
BRANCH  10  11
ATOM     11  C   UNL A   1      38.946  30.145  29.493  1.00  0.00     0.031 A 
ATOM     12  C   UNL A   1      39.179  30.622  30.897  1.00  0.00     0.074 A 
ATOM     13  C   UNL A   1      39.795  29.301  28.876  1.00  0.00     0.049 A 
ATOM     14  N   UNL A   1      40.128  30.310  31.731  1.00  0.00    -0.248 NA
ATOM     15  C   UNL A   1      38.192  31.581  31.436  1.00  0.00     0.031 C 
ATOM     16  C   UNL A   1      39.653  28.775  27.517  1.00  0.00     0.029 A 
ATOM     17  N   UNL A   1      40.951  28.725  29.333  1.00  0.00    -0.354 N 
ATOM     18  C   UNL A   1      39.838  31.023  32.886  1.00  0.00     0.074 A 
ATOM     19  C   UNL A   1      38.702  31.863  32.617  1.00  0.00     0.031 C 
ATOM     20  C   UNL A   1      40.694  27.961  27.249  1.00  0.00     0.029 A 
ATOM     21  C   UNL A   1      41.563  27.893  28.421  1.00  0.00     0.049 A 
ATOM     22  H   UNL A   1      41.313  28.890  30.233  1.00  0.00     0.167 HD
ATOM     23  C   UNL A   1      40.410  30.926  34.103  1.00  0.00     0.034 A 
ATOM     24  C   UNL A   1      42.683  27.153  28.550  1.00  0.00     0.034 A 
ATOM     25  C   UNL A   1      41.529  30.084  34.369  1.00  0.00     0.049 A 
ATOM     26  C   UNL A   1      43.366  27.130  29.902  1.00  0.00     0.074 A 
ATOM     27  C   UNL A   1      42.233  29.929  35.543  1.00  0.00     0.029 A 
ATOM     28  N   UNL A   1      42.115  29.257  33.423  1.00  0.00    -0.354 N 
ATOM     29  N   UNL A   1      43.010  27.720  31.020  1.00  0.00    -0.248 NA
ATOM     30  C   UNL A   1      44.571  26.296  30.028  1.00  0.00     0.031 C 
ATOM     31  C   UNL A   1      43.264  29.016  35.300  1.00  0.00     0.029 A 
ATOM     32  C   UNL A   1      43.174  28.580  33.985  1.00  0.00     0.049 A 
ATOM     33  H   UNL A   1      41.817  29.167  32.488  1.00  0.00     0.167 HD
ATOM     34  C   UNL A   1      43.912  27.288  31.988  1.00  0.00     0.074 A 
ATOM     35  C   UNL A   1      44.819  26.372  31.328  1.00  0.00     0.031 C 
ATOM     36  C   UNL A   1      44.000  27.621  33.301  1.00  0.00     0.034 A 
BRANCH  23  37
ATOM     37  C   UNL A   1      39.778  31.741  35.190  1.00  0.00     0.023 A 
ATOM     38  C   UNL A   1      38.655  31.226  35.877  1.00  0.00     0.012 A 
ATOM     39  C   UNL A   1      40.208  33.053  35.444  1.00  0.00     0.148 A 
ATOM     40  C   UNL A   1      37.931  32.030  36.754  1.00  0.00     0.002 A 
ATOM     41  C   UNL A   1      39.510  33.833  36.355  1.00  0.00     0.091 A 
ATOM     42  F   UNL A   1      41.253  33.527  34.752  1.00  0.00    -0.205 F 
ATOM     43  C   UNL A   1      38.360  33.333  36.994  1.00  0.00     0.022 A 
BRANCH  41  44
ATOM     44  S   UNL A   1      40.002  35.507  36.771  1.00  0.00     0.127 S 
ATOM     45  O   UNL A   1      39.260  35.734  38.011  1.00  0.00    -0.237 OA
ATOM     46  O   UNL A   1      41.447  35.360  36.939  1.00  0.00    -0.237 OA
ATOM     47  O   UNL A   1      39.594  36.338  35.647  1.00  0.00    -0.744 OA
ENDBRANCH  41  44
ENDBRANCH  23  37
BRANCH  24  48
ATOM     48  C   UNL A   1      43.220  26.330  27.422  1.00  0.00     0.023 A 
ATOM     49  C   UNL A   1      44.091  26.910  26.477  1.00  0.00     0.012 A 
ATOM     50  C   UNL A   1      42.805  24.997  27.231  1.00  0.00     0.148 A 
ATOM     51  C   UNL A   1      44.485  26.207  25.335  1.00  0.00     0.002 A 
ATOM     52  C   UNL A   1      43.236  24.286  26.114  1.00  0.00     0.091 A 
ATOM     53  F   UNL A   1      41.972  24.457  28.132  1.00  0.00    -0.205 F 
ATOM     54  C   UNL A   1      44.058  24.895  25.154  1.00  0.00     0.022 A 
BRANCH  52  55
ATOM     55  S   UNL A   1      42.805  22.561  25.847  1.00  0.00     0.127 S 
ATOM     56  O   UNL A   1      41.342  22.620  25.834  1.00  0.00    -0.237 OA
ATOM     57  O   UNL A   1      43.418  22.297  24.541  1.00  0.00    -0.237 OA
ATOM     58  O   UNL A   1      43.402  21.834  26.950  1.00  0.00    -0.744 OA
ENDBRANCH  52  55
ENDBRANCH  24  48
BRANCH  36  59
ATOM     59  C   UNL A   1      45.063  26.952  34.126  1.00  0.00     0.023 A 
ATOM     60  C   UNL A   1      46.328  27.552  34.265  1.00  0.00     0.012 A 
ATOM     61  C   UNL A   1      44.750  25.799  34.873  1.00  0.00     0.148 A 
ATOM     62  C   UNL A   1      47.278  26.999  35.121  1.00  0.00     0.002 A 
ATOM     63  C   UNL A   1      45.679  25.290  35.769  1.00  0.00     0.091 A 
ATOM     64  F   UNL A   1      43.543  25.237  34.709  1.00  0.00    -0.205 F 
ATOM     65  C   UNL A   1      46.948  25.881  35.885  1.00  0.00     0.022 A 
BRANCH  63  66
ATOM     66  S   UNL A   1      45.289  23.938  36.884  1.00  0.00     0.127 S 
ATOM     67  O   UNL A   1      44.642  22.987  35.982  1.00  0.00    -0.237 OA
ATOM     68  O   UNL A   1      46.613  23.533  37.354  1.00  0.00    -0.237 OA
ATOM     69  O   UNL A   1      44.430  24.505  37.916  1.00  0.00    -0.744 OA
ENDBRANCH  63  66
ENDBRANCH  36  59
ENDBRANCH  10  11
ENDBRANCH   3   5
ENDBRANCH   2   3
ENDBRANCH   1   2
BRANCH   1  70
ATOM     70  C   UNL A   1      33.526  29.117  25.949  1.00  0.00     0.274 C 
BRANCH  70  71
ATOM     71  O   UNL A   1      33.057  27.843  26.457  1.00  0.00    -0.460 OA
BRANCH  71  72
ATOM     72  C   UNL A   1      31.762  27.719  26.914  1.00  0.00     0.334 C 
ATOM     73  O   UNL A   1      31.437  27.912  28.078  1.00  0.00    -0.250 OA
BRANCH  72  74
ATOM     74  C   UNL A   1      30.806  27.241  25.760  1.00  0.00     0.252 C 
ATOM     75  C   UNL A   1      31.338  25.777  25.613  1.00  0.00     0.298 C 
ATOM     76  N   UNL A   1      30.535  27.712  24.321  1.00  0.00    -0.300 N 
ATOM     77  N   UNL A   1      30.424  24.811  24.994  1.00  0.00    -0.343 N 
ATOM     78  C   UNL A   1      29.631  26.726  23.636  1.00  0.00     0.183 C 
ATOM     79  C   UNL A   1      30.160  25.283  23.633  1.00  0.00     0.282 C 
ATOM     80  H   UNL A   1      29.553  24.764  25.522  1.00  0.00     0.346 HD
ATOM     81  H   UNL A   1      30.834  23.878  24.981  1.00  0.00     0.346 HD
BRANCH  76  82
ATOM     82  C   UNL A   1      30.800  28.774  23.513  1.00  0.00     0.318 C 
ATOM     83  O   UNL A   1      31.867  28.811  22.873  1.00  0.00    -0.249 OA
ATOM     84  N   UNL A   1      30.086  29.851  23.211  1.00  0.00    -0.333 N 
ATOM     85  H   UNL A   1      30.625  30.368  22.571  1.00  0.00     0.165 HD
BRANCH  84  86
ATOM     86  C   UNL A   1      28.849  30.607  23.412  1.00  0.00     0.112 C 
ATOM     87  C   UNL A   1      27.747  30.189  22.534  1.00  0.00     0.056 C 
ATOM     88  C   UNL A   1      28.890  32.080  23.005  1.00  0.00     0.185 C 
ATOM     89  C   UNL A   1      28.125  30.830  21.222  1.00  0.00     0.162 C 
ATOM     90  O   UNL A   1      28.545  32.148  21.603  1.00  0.00    -0.379 OA
ENDBRANCH  84  86
ENDBRANCH  76  82
ENDBRANCH  72  74
ENDBRANCH  71  72
ENDBRANCH  70  71
ENDBRANCH   1  70
TORSDOF 16
ENDMDL
MODEL 2
REMARK VINA RESULT:     -11.5      5.001     10.115
REMARK SMILES O=C(OCCOC(=O)[C@@H]1C[NH2+]CCN1C(=O)N[C@@H]1CCOC1)c1ccc(-c2c3nc(c(-c4cccc(S(=O)(=O)[O-])c4F)c4ccc([nH]4)c(-c4cccc(S(=O)(=O)[O-])c4F)c4nc(c(-c5cccc(S(=O)(=O)[O-])c5F)c5ccc2[nH]5)C=C4)C=C3)cc1
REMARK SMILES IDX 4 1 3 2 2 3 1 4 23 5 24 6 85 7 25 8 84 9 26 10 27 11 28 12
REMARK SMILES IDX 78 13 29 14 83 15 77 16 79 17 30 18 82 19 76 20 75 21 31 23
REMARK SMILES IDX 63 24 43 25 62 26 44 27 47 28 61 29 80 30 45 31 46 32 60 34
REMARK SMILES IDX 81 35 48 36 32 37 33 38 41 39 34 40 36 41 42 42 35 43 37 44
REMARK SMILES IDX 38 45 39 46 40 47 64 48 65 49 73 50 66 51 68 52 74 53 67 54
REMARK SMILES IDX 69 55 70 56 71 57 72 58 49 59 50 60 58 61 51 62 53 63 59 64
REMARK SMILES IDX 52 65 54 66 55 67 56 68 57 69 5 70 6 71 7 72 8 73 9 74 10 75
REMARK SMILES IDX 14 76 11 77 13 78 12 79 15 82 16 83 17 84 18 86 19 87 22 88
REMARK SMILES IDX 20 89 21 90
REMARK H PARENT 79 22 47 33 11 80 11 81 17 85
REMARK Flexibility Score: inf
ROOT
ATOM      1  C   UNL A   1      37.210  21.247  24.536  1.00  0.00     0.275 C 
ENDROOT
BRANCH   1   2
ATOM      2  O   UNL A   1      37.770  21.475  25.830  1.00  0.00    -0.458 OA
BRANCH   2   3
ATOM      3  C   UNL A   1      39.092  21.452  26.127  1.00  0.00     0.338 C 
ATOM      4  O   UNL A   1      39.726  20.400  26.114  1.00  0.00    -0.246 OA
BRANCH   3   5
ATOM      5  C   UNL A   1      39.709  22.675  26.691  1.00  0.00     0.060 A 
ATOM      6  C   UNL A   1      40.673  22.673  27.704  1.00  0.00     0.016 A 
ATOM      7  C   UNL A   1      39.336  23.887  26.109  1.00  0.00     0.016 A 
ATOM      8  C   UNL A   1      41.404  23.822  27.983  1.00  0.00     0.010 A 
ATOM      9  C   UNL A   1      40.043  25.054  26.411  1.00  0.00     0.010 A 
ATOM     10  C   UNL A   1      41.098  25.018  27.333  1.00  0.00    -0.014 A 
BRANCH  10  11
ATOM     11  C   UNL A   1      41.609  26.265  27.931  1.00  0.00     0.031 A 
ATOM     12  C   UNL A   1      43.043  26.576  27.614  1.00  0.00     0.074 A 
ATOM     13  C   UNL A   1      40.823  27.126  28.604  1.00  0.00     0.049 A 
ATOM     14  N   UNL A   1      43.731  27.652  27.862  1.00  0.00    -0.248 NA
ATOM     15  C   UNL A   1      43.802  25.523  26.908  1.00  0.00     0.031 C 
ATOM     16  C   UNL A   1      39.417  26.920  28.954  1.00  0.00     0.029 A 
ATOM     17  N   UNL A   1      41.108  28.370  29.105  1.00  0.00    -0.354 N 
ATOM     18  C   UNL A   1      44.988  27.403  27.331  1.00  0.00     0.074 A 
ATOM     19  C   UNL A   1      45.009  26.047  26.850  1.00  0.00     0.031 C 
ATOM     20  C   UNL A   1      38.966  27.999  29.626  1.00  0.00     0.029 A 
ATOM     21  C   UNL A   1      40.044  28.979  29.735  1.00  0.00     0.049 A 
ATOM     22  H   UNL A   1      41.993  28.792  29.022  1.00  0.00     0.167 HD
ATOM     23  C   UNL A   1      46.020  28.256  27.171  1.00  0.00     0.034 A 
ATOM     24  C   UNL A   1      39.968  30.199  30.305  1.00  0.00     0.034 A 
ATOM     25  C   UNL A   1      45.994  29.602  27.638  1.00  0.00     0.049 A 
ATOM     26  C   UNL A   1      41.173  31.110  30.196  1.00  0.00     0.074 A 
ATOM     27  C   UNL A   1      46.987  30.555  27.583  1.00  0.00     0.029 A 
ATOM     28  N   UNL A   1      44.900  30.179  28.265  1.00  0.00    -0.354 N 
ATOM     29  N   UNL A   1      42.316  30.900  29.585  1.00  0.00    -0.248 NA
ATOM     30  C   UNL A   1      41.059  32.445  30.802  1.00  0.00     0.031 C 
ATOM     31  C   UNL A   1      46.498  31.711  28.198  1.00  0.00     0.029 A 
ATOM     32  C   UNL A   1      45.189  31.483  28.601  1.00  0.00     0.049 A 
ATOM     33  H   UNL A   1      44.045  29.724  28.443  1.00  0.00     0.167 HD
ATOM     34  C   UNL A   1      43.032  32.090  29.689  1.00  0.00     0.074 A 
ATOM     35  C   UNL A   1      42.184  33.021  30.404  1.00  0.00     0.031 C 
ATOM     36  C   UNL A   1      44.279  32.392  29.248  1.00  0.00     0.034 A 
BRANCH  23  37
ATOM     37  C   UNL A   1      47.208  27.715  26.434  1.00  0.00     0.023 A 
ATOM     38  C   UNL A   1      47.247  27.803  25.024  1.00  0.00     0.012 A 
ATOM     39  C   UNL A   1      48.216  27.014  27.116  1.00  0.00     0.148 A 
ATOM     40  C   UNL A   1      48.238  27.143  24.300  1.00  0.00     0.002 A 
ATOM     41  C   UNL A   1      49.227  26.400  26.390  1.00  0.00     0.091 A 
ATOM     42  F   UNL A   1      48.133  26.916  28.450  1.00  0.00    -0.205 F 
ATOM     43  C   UNL A   1      49.228  26.444  24.984  1.00  0.00     0.022 A 
BRANCH  41  44
ATOM     44  S   UNL A   1      50.574  25.512  27.173  1.00  0.00     0.127 S 
ATOM     45  O   UNL A   1      49.882  24.344  27.719  1.00  0.00    -0.237 OA
ATOM     46  O   UNL A   1      51.447  25.229  26.033  1.00  0.00    -0.237 OA
ATOM     47  O   UNL A   1      51.133  26.418  28.165  1.00  0.00    -0.744 OA
ENDBRANCH  41  44
ENDBRANCH  23  37
BRANCH  24  48
ATOM     48  C   UNL A   1      38.723  30.677  30.982  1.00  0.00     0.023 A 
ATOM     49  C   UNL A   1      38.511  30.400  32.349  1.00  0.00     0.012 A 
ATOM     50  C   UNL A   1      37.705  31.330  30.259  1.00  0.00     0.148 A 
ATOM     51  C   UNL A   1      37.293  30.705  32.964  1.00  0.00     0.002 A 
ATOM     52  C   UNL A   1      36.510  31.671  30.888  1.00  0.00     0.091 A 
ATOM     53  F   UNL A   1      37.914  31.582  28.958  1.00  0.00    -0.205 F 
ATOM     54  C   UNL A   1      36.293  31.340  32.234  1.00  0.00     0.022 A 
BRANCH  52  55
ATOM     55  S   UNL A   1      35.202  32.570  30.044  1.00  0.00     0.127 S 
ATOM     56  O   UNL A   1      34.244  32.788  31.130  1.00  0.00    -0.237 OA
ATOM     57  O   UNL A   1      35.908  33.776  29.599  1.00  0.00    -0.237 OA
ATOM     58  O   UNL A   1      34.761  31.701  28.971  1.00  0.00    -0.744 OA
ENDBRANCH  52  55
ENDBRANCH  24  48
BRANCH  36  59
ATOM     59  C   UNL A   1      44.782  33.791  29.465  1.00  0.00     0.023 A 
ATOM     60  C   UNL A   1      45.443  34.125  30.661  1.00  0.00     0.012 A 
ATOM     61  C   UNL A   1      44.716  34.731  28.416  1.00  0.00     0.148 A 
ATOM     62  C   UNL A   1      46.014  35.386  30.820  1.00  0.00     0.002 A 
ATOM     63  C   UNL A   1      45.340  35.961  28.559  1.00  0.00     0.091 A 
ATOM     64  F   UNL A   1      44.065  34.393  27.293  1.00  0.00    -0.205 F 
ATOM     65  C   UNL A   1      45.978  36.296  29.765  1.00  0.00     0.022 A 
BRANCH  63  66
ATOM     66  S   UNL A   1      45.455  37.136  27.206  1.00  0.00     0.127 S 
ATOM     67  O   UNL A   1      46.145  36.349  26.187  1.00  0.00    -0.237 OA
ATOM     68  O   UNL A   1      44.049  37.414  26.917  1.00  0.00    -0.237 OA
ATOM     69  O   UNL A   1      46.200  38.275  27.728  1.00  0.00    -0.744 OA
ENDBRANCH  63  66
ENDBRANCH  36  59
ENDBRANCH  10  11
ENDBRANCH   3   5
ENDBRANCH   2   3
ENDBRANCH   1   2
BRANCH   1  70
ATOM     70  C   UNL A   1      36.418  22.386  23.884  1.00  0.00     0.274 C 
BRANCH  70  71
ATOM     71  O   UNL A   1      34.970  22.419  23.857  1.00  0.00    -0.460 OA
BRANCH  71  72
ATOM     72  C   UNL A   1      34.275  22.990  24.903  1.00  0.00     0.334 C 
ATOM     73  O   UNL A   1      34.713  23.060  26.044  1.00  0.00    -0.250 OA
BRANCH  72  74
ATOM     74  C   UNL A   1      32.849  23.463  24.435  1.00  0.00     0.252 C 
ATOM     75  C   UNL A   1      33.281  24.277  23.171  1.00  0.00     0.298 C 
ATOM     76  N   UNL A   1      31.726  24.294  25.078  1.00  0.00    -0.300 N 
ATOM     77  N   UNL A   1      32.249  24.493  22.151  1.00  0.00    -0.343 N 
ATOM     78  C   UNL A   1      30.663  24.571  24.053  1.00  0.00     0.183 C 
ATOM     79  C   UNL A   1      31.178  25.266  22.783  1.00  0.00     0.282 C 
ATOM     80  H   UNL A   1      31.887  23.597  21.824  1.00  0.00     0.346 HD
ATOM     81  H   UNL A   1      32.630  24.990  21.346  1.00  0.00     0.346 HD
BRANCH  76  82
ATOM     82  C   UNL A   1      31.369  24.783  26.296  1.00  0.00     0.318 C 
ATOM     83  O   UNL A   1      31.134  23.997  27.233  1.00  0.00    -0.249 OA
ATOM     84  N   UNL A   1      31.242  26.026  26.743  1.00  0.00    -0.333 N 
ATOM     85  H   UNL A   1      30.987  25.954  27.691  1.00  0.00     0.165 HD
BRANCH  84  86
ATOM     86  C   UNL A   1      31.315  27.458  26.446  1.00  0.00     0.112 C 
ATOM     87  C   UNL A   1      32.349  27.810  25.463  1.00  0.00     0.056 C 
ATOM     88  C   UNL A   1      31.799  28.355  27.586  1.00  0.00     0.185 C 
ATOM     89  C   UNL A   1      33.609  27.745  26.290  1.00  0.00     0.162 C 
ATOM     90  O   UNL A   1      33.241  28.403  27.510  1.00  0.00    -0.379 OA
ENDBRANCH  84  86
ENDBRANCH  76  82
ENDBRANCH  72  74
ENDBRANCH  71  72
ENDBRANCH  70  71
ENDBRANCH   1  70
TORSDOF 16
ENDMDL
MODEL 3
REMARK VINA RESULT:     -11.5      5.702     10.740
REMARK SMILES O=C(OCCOC(=O)[C@@H]1C[NH2+]CCN1C(=O)N[C@@H]1CCOC1)c1ccc(-c2c3nc(c(-c4cccc(S(=O)(=O)[O-])c4F)c4ccc([nH]4)c(-c4cccc(S(=O)(=O)[O-])c4F)c4nc(c(-c5cccc(S(=O)(=O)[O-])c5F)c5ccc2[nH]5)C=C4)C=C3)cc1
REMARK SMILES IDX 4 1 3 2 2 3 1 4 23 5 24 6 85 7 25 8 84 9 26 10 27 11 28 12
REMARK SMILES IDX 78 13 29 14 83 15 77 16 79 17 30 18 82 19 76 20 75 21 31 23
REMARK SMILES IDX 63 24 43 25 62 26 44 27 47 28 61 29 80 30 45 31 46 32 60 34
REMARK SMILES IDX 81 35 48 36 32 37 33 38 41 39 34 40 36 41 42 42 35 43 37 44
REMARK SMILES IDX 38 45 39 46 40 47 64 48 65 49 73 50 66 51 68 52 74 53 67 54
REMARK SMILES IDX 69 55 70 56 71 57 72 58 49 59 50 60 58 61 51 62 53 63 59 64
REMARK SMILES IDX 52 65 54 66 55 67 56 68 57 69 5 70 6 71 7 72 8 73 9 74 10 75
REMARK SMILES IDX 14 76 11 77 13 78 12 79 15 82 16 83 17 84 18 86 19 87 22 88
REMARK SMILES IDX 20 89 21 90
REMARK H PARENT 79 22 47 33 11 80 11 81 17 85
REMARK Flexibility Score: inf
ROOT
ATOM      1  C   UNL A   1      36.887  21.677  24.583  1.00  0.00     0.275 C 
ENDROOT
BRANCH   1   2
ATOM      2  O   UNL A   1      37.519  21.715  25.863  1.00  0.00    -0.458 OA
BRANCH   2   3
ATOM      3  C   UNL A   1      38.856  21.696  26.078  1.00  0.00     0.338 C 
ATOM      4  O   UNL A   1      39.499  20.654  25.977  1.00  0.00    -0.246 OA
BRANCH   3   5
ATOM      5  C   UNL A   1      39.493  22.899  26.663  1.00  0.00     0.060 A 
ATOM      6  C   UNL A   1      40.427  22.867  27.703  1.00  0.00     0.016 A 
ATOM      7  C   UNL A   1      39.173  24.123  26.073  1.00  0.00     0.016 A 
ATOM      8  C   UNL A   1      41.184  23.992  28.006  1.00  0.00     0.010 A 
ATOM      9  C   UNL A   1      39.907  25.267  26.398  1.00  0.00     0.010 A 
ATOM     10  C   UNL A   1      40.933  25.198  27.350  1.00  0.00    -0.014 A 
BRANCH  10  11
ATOM     11  C   UNL A   1      41.463  26.428  27.965  1.00  0.00     0.031 A 
ATOM     12  C   UNL A   1      42.905  26.714  27.661  1.00  0.00     0.074 A 
ATOM     13  C   UNL A   1      40.690  27.298  28.642  1.00  0.00     0.049 A 
ATOM     14  N   UNL A   1      43.612  27.775  27.926  1.00  0.00    -0.248 NA
ATOM     15  C   UNL A   1      43.649  25.655  26.949  1.00  0.00     0.031 C 
ATOM     16  C   UNL A   1      39.277  27.115  28.980  1.00  0.00     0.029 A 
ATOM     17  N   UNL A   1      40.995  28.530  29.159  1.00  0.00    -0.354 N 
ATOM     18  C   UNL A   1      44.869  27.507  27.401  1.00  0.00     0.074 A 
ATOM     19  C   UNL A   1      44.866  26.156  26.906  1.00  0.00     0.031 C 
ATOM     20  C   UNL A   1      38.843  28.195  29.660  1.00  0.00     0.029 A 
ATOM     21  C   UNL A   1      39.939  29.153  29.787  1.00  0.00     0.049 A 
ATOM     22  H   UNL A   1      41.889  28.935  29.087  1.00  0.00     0.167 HD
ATOM     23  C   UNL A   1      45.918  28.341  27.257  1.00  0.00     0.034 A 
ATOM     24  C   UNL A   1      39.882  30.367  30.371  1.00  0.00     0.034 A 
ATOM     25  C   UNL A   1      45.914  29.682  27.739  1.00  0.00     0.049 A 
ATOM     26  C   UNL A   1      41.105  31.256  30.280  1.00  0.00     0.074 A 
ATOM     27  C   UNL A   1      46.927  30.616  27.702  1.00  0.00     0.029 A 
ATOM     28  N   UNL A   1      44.828  30.274  28.365  1.00  0.00    -0.354 N 
ATOM     29  N   UNL A   1      42.249  31.031  29.675  1.00  0.00    -0.248 NA
ATOM     30  C   UNL A   1      41.013  32.586  30.900  1.00  0.00     0.031 C 
ATOM     31  C   UNL A   1      46.456  31.775  28.326  1.00  0.00     0.029 A 
ATOM     32  C   UNL A   1      45.140  31.568  28.717  1.00  0.00     0.049 A 
ATOM     33  H   UNL A   1      43.962  29.834  28.532  1.00  0.00     0.167 HD
ATOM     34  C   UNL A   1      42.987  32.205  29.797  1.00  0.00     0.074 A 
ATOM     35  C   UNL A   1      42.152  33.145  30.516  1.00  0.00     0.031 C 
ATOM     36  C   UNL A   1      44.243  32.487  29.368  1.00  0.00     0.034 A 
BRANCH  23  37
ATOM     37  C   UNL A   1      47.101  27.785  26.523  1.00  0.00     0.023 A 
ATOM     38  C   UNL A   1      48.212  27.312  27.257  1.00  0.00     0.012 A 
ATOM     39  C   UNL A   1      47.168  27.847  25.122  1.00  0.00     0.148 A 
ATOM     40  C   UNL A   1      49.396  26.970  26.609  1.00  0.00     0.002 A 
ATOM     41  C   UNL A   1      48.335  27.458  24.479  1.00  0.00     0.091 A 
ATOM     42  F   UNL A   1      46.113  28.334  24.454  1.00  0.00    -0.205 F 
ATOM     43  C   UNL A   1      49.456  27.042  25.220  1.00  0.00     0.022 A 
BRANCH  41  44
ATOM     44  S   UNL A   1      48.504  27.470  22.694  1.00  0.00     0.127 S 
ATOM     45  O   UNL A   1      47.359  28.287  22.293  1.00  0.00    -0.237 OA
ATOM     46  O   UNL A   1      49.806  28.114  22.522  1.00  0.00    -0.237 OA
ATOM     47  O   UNL A   1      48.447  26.078  22.274  1.00  0.00    -0.744 OA
ENDBRANCH  41  44
ENDBRANCH  23  37
BRANCH  24  48
ATOM     48  C   UNL A   1      38.642  30.862  31.045  1.00  0.00     0.023 A 
ATOM     49  C   UNL A   1      38.440  30.621  32.419  1.00  0.00     0.012 A 
ATOM     50  C   UNL A   1      37.619  31.497  30.312  1.00  0.00     0.148 A 
ATOM     51  C   UNL A   1      37.227  30.940  33.035  1.00  0.00     0.002 A 
ATOM     52  C   UNL A   1      36.428  31.853  30.941  1.00  0.00     0.091 A 
ATOM     53  F   UNL A   1      37.818  31.715  29.004  1.00  0.00    -0.205 F 
ATOM     54  C   UNL A   1      36.221  31.556  32.296  1.00  0.00     0.022 A 
BRANCH  52  55
ATOM     55  S   UNL A   1      35.114  32.729  30.084  1.00  0.00     0.127 S 
ATOM     56  O   UNL A   1      34.167  32.981  31.172  1.00  0.00    -0.237 OA
ATOM     57  O   UNL A   1      35.817  33.921  29.597  1.00  0.00    -0.237 OA
ATOM     58  O   UNL A   1      34.660  31.831  29.041  1.00  0.00    -0.744 OA
ENDBRANCH  52  55
ENDBRANCH  24  48
BRANCH  36  59
ATOM     59  C   UNL A   1      44.771  33.874  29.603  1.00  0.00     0.023 A 
ATOM     60  C   UNL A   1      45.492  34.164  30.777  1.00  0.00     0.012 A 
ATOM     61  C   UNL A   1      44.667  34.847  28.589  1.00  0.00     0.148 A 
ATOM     62  C   UNL A   1      46.083  35.414  30.948  1.00  0.00     0.002 A 
ATOM     63  C   UNL A   1      45.311  36.066  28.739  1.00  0.00     0.091 A 
ATOM     64  F   UNL A   1      43.960  34.551  27.488  1.00  0.00    -0.205 F 
ATOM     65  C   UNL A   1      46.009  36.357  29.923  1.00  0.00     0.022 A 
BRANCH  63  66
ATOM     66  S   UNL A   1      45.375  37.281  27.420  1.00  0.00     0.127 S 
ATOM     67  O   UNL A   1      46.156  38.350  28.038  1.00  0.00    -0.237 OA
ATOM     68  O   UNL A   1      46.069  36.552  26.360  1.00  0.00    -0.237 OA
ATOM     69  O   UNL A   1      43.990  37.614  27.114  1.00  0.00    -0.744 OA
ENDBRANCH  63  66
ENDBRANCH  36  59
ENDBRANCH  10  11
ENDBRANCH   3   5
ENDBRANCH   2   3
ENDBRANCH   1   2
BRANCH   1  70
ATOM     70  C   UNL A   1      36.644  23.006  23.860  1.00  0.00     0.274 C 
BRANCH  70  71
ATOM     71  O   UNL A   1      35.402  23.744  23.972  1.00  0.00    -0.460 OA
BRANCH  71  72
ATOM     72  C   UNL A   1      34.283  23.315  23.290  1.00  0.00     0.334 C 
ATOM     73  O   UNL A   1      34.235  23.208  22.072  1.00  0.00    -0.250 OA
BRANCH  72  74
ATOM     74  C   UNL A   1      33.089  23.056  24.282  1.00  0.00     0.252 C 
ATOM     75  C   UNL A   1      32.942  24.508  24.848  1.00  0.00     0.298 C 
ATOM     76  N   UNL A   1      32.878  22.134  25.495  1.00  0.00    -0.300 N 
ATOM     77  N   UNL A   1      31.644  24.846  25.442  1.00  0.00    -0.343 N 
ATOM     78  C   UNL A   1      31.573  22.476  26.158  1.00  0.00     0.183 C 
ATOM     79  C   UNL A   1      31.448  23.947  26.582  1.00  0.00     0.282 C 
ATOM     80  H   UNL A   1      30.899  24.712  24.759  1.00  0.00     0.346 HD
ATOM     81  H   UNL A   1      31.624  25.821  25.741  1.00  0.00     0.346 HD
BRANCH  76  82
ATOM     82  C   UNL A   1      33.467  21.067  26.098  1.00  0.00     0.318 C 
ATOM     83  O   UNL A   1      34.363  21.253  26.943  1.00  0.00    -0.249 OA
ATOM     84  N   UNL A   1      33.247  19.763  25.993  1.00  0.00    -0.333 N 
ATOM     85  H   UNL A   1      33.872  19.326  26.615  1.00  0.00     0.165 HD
BRANCH  84  86
ATOM     86  C   UNL A   1      32.482  18.688  25.358  1.00  0.00     0.112 C 
ATOM     87  C   UNL A   1      32.996  17.342  25.644  1.00  0.00     0.056 C 
ATOM     88  C   UNL A   1      32.561  18.620  23.833  1.00  0.00     0.185 C 
ATOM     89  C   UNL A   1      34.193  17.257  24.731  1.00  0.00     0.162 C 
ATOM     90  O   UNL A   1      33.712  17.813  23.499  1.00  0.00    -0.379 OA
ENDBRANCH  84  86
ENDBRANCH  76  82
ENDBRANCH  72  74
ENDBRANCH  71  72
ENDBRANCH  70  71
ENDBRANCH   1  70
TORSDOF 16
ENDMDL
