MODEL 1
REMARK VINA RESULT:     -11.9      0.000      0.000
REMARK SMILES CCc1cc(OC(F)(F)F)cc2c1O[C@@H](C(F)(F)F)C(C(=O)OCCOC(=O)c1ccc(-c3c4nc(c(-c5cccc(S(=O)(=O)[O-])c5F)c5ccc([nH]5)c(-c5cccc(S(=O)(=O)[O-])c5F)c5nc(c(-c6cccc(S(=O)(=O)[O-])c6F)c6ccc3[nH]6)C=C5)C=C4)cc1)=C2
REMARK SMILES IDX 25 1 24 2 23 3 21 4 22 5 20 6 3 7 4 8 13 9 5 10 12 11 14 12
REMARK SMILES IDX 11 13 92 14 15 15 2 16 1 17 6 18 7 19 8 20 9 21 10 22 16 23
REMARK SMILES IDX 17 24 18 25 19 26 26 27 27 28 28 29 29 30 30 31 91 32 31 33
REMARK SMILES IDX 90 34 32 35 33 36 34 37 84 38 35 39 89 40 83 41 85 42 36 43
REMARK SMILES IDX 88 44 82 45 81 46 37 48 69 49 49 50 68 51 50 52 53 53 67 54
REMARK SMILES IDX 86 55 51 56 52 57 66 59 87 60 54 61 38 62 39 63 47 64 40 65
REMARK SMILES IDX 42 66 48 67 41 68 43 69 44 70 45 71 46 72 70 73 71 74 79 75
REMARK SMILES IDX 72 76 74 77 80 78 73 79 75 80 76 81 77 82 78 83 55 84 56 85
REMARK SMILES IDX 64 86 57 87 59 88 65 89 58 90 60 91 61 92 62 93 63 94
REMARK H PARENT 85 47 53 58
REMARK Flexibility Score: inf
ROOT
ATOM      1  C   UNL A   1      31.642  30.429  25.696  1.00  0.00     0.275 C 
ENDROOT
BRANCH   1   2
ATOM      2  C   UNL A   1      31.313  29.021  25.185  1.00  0.00     0.275 C 
BRANCH   2   3
ATOM      3  O   UNL A   1      32.441  28.129  25.311  1.00  0.00    -0.459 OA
BRANCH   3   4
ATOM      4  C   UNL A   1      32.916  27.615  24.147  1.00  0.00     0.338 C 
ATOM      5  O   UNL A   1      33.179  28.259  23.150  1.00  0.00    -0.246 OA
BRANCH   4   6
ATOM      6  C   UNL A   1      33.112  26.150  24.226  1.00  0.00     0.087 C 
ATOM      7  C   UNL A   1      33.303  21.979  24.485  1.00  0.00    -0.002 A 
ATOM      8  C   UNL A   1      34.497  21.378  24.928  1.00  0.00     0.054 A 
ATOM      9  C   UNL A   1      33.224  23.376  24.527  1.00  0.00     0.131 A 
ATOM     10  C   UNL A   1      35.578  22.148  25.371  1.00  0.00     0.130 A 
ATOM     11  C   UNL A   1      34.329  24.168  24.872  1.00  0.00     0.021 A 
ATOM     12  O   UNL A   1      32.005  23.964  24.332  1.00  0.00    -0.475 OA
ATOM     13  C   UNL A   1      35.504  23.543  25.298  1.00  0.00     0.058 A 
ATOM     14  C   UNL A   1      34.204  25.630  24.820  1.00  0.00     0.027 C 
ATOM     15  C   UNL A   1      32.054  25.236  23.635  1.00  0.00     0.316 C 
BRANCH   7  16
ATOM     16  C   UNL A   1      32.186  21.060  24.030  1.00  0.00     0.036 C 
ATOM     17  C   UNL A   1      32.428  19.555  24.084  1.00  0.00     0.009 C 
ENDBRANCH   7  16
BRANCH  10  18
ATOM     18  O   UNL A   1      36.745  21.655  25.884  1.00  0.00    -0.406 OA
BRANCH  18  19
ATOM     19  C   UNL A   1      37.579  20.914  25.004  1.00  0.00     0.573 C 
ATOM     20  F   UNL A   1      37.469  21.345  23.728  1.00  0.00    -0.132 F 
ATOM     21  F   UNL A   1      38.869  20.976  25.393  1.00  0.00    -0.132 F 
ATOM     22  F   UNL A   1      37.195  19.617  25.034  1.00  0.00    -0.132 F 
ENDBRANCH  18  19
ENDBRANCH  10  18
BRANCH  15  23
ATOM     23  C   UNL A   1      30.603  25.734  23.502  1.00  0.00     0.430 C 
ATOM     24  F   UNL A   1      30.485  26.716  22.582  1.00  0.00    -0.167 F 
ATOM     25  F   UNL A   1      29.809  24.720  23.063  1.00  0.00    -0.167 F 
ATOM     26  F   UNL A   1      30.090  26.158  24.675  1.00  0.00    -0.167 F 
ENDBRANCH  15  23
ENDBRANCH   4   6
ENDBRANCH   3   4
ENDBRANCH   2   3
ENDBRANCH   1   2
BRANCH   1  27
ATOM     27  O   UNL A   1      32.502  30.397  26.848  1.00  0.00    -0.458 OA
BRANCH  27  28
ATOM     28  C   UNL A   1      33.084  31.580  27.161  1.00  0.00     0.338 C 
ATOM     29  O   UNL A   1      32.580  32.688  27.058  1.00  0.00    -0.246 OA
BRANCH  28  30
ATOM     30  C   UNL A   1      34.375  31.349  27.839  1.00  0.00     0.060 A 
ATOM     31  C   UNL A   1      34.609  30.058  28.320  1.00  0.00     0.016 A 
ATOM     32  C   UNL A   1      35.329  32.349  28.028  1.00  0.00     0.016 A 
ATOM     33  C   UNL A   1      35.827  29.729  28.910  1.00  0.00     0.010 A 
ATOM     34  C   UNL A   1      36.529  32.037  28.681  1.00  0.00     0.010 A 
ATOM     35  C   UNL A   1      36.788  30.722  29.110  1.00  0.00    -0.014 A 
BRANCH  35  36
ATOM     36  C   UNL A   1      38.010  30.408  29.887  1.00  0.00     0.031 A 
ATOM     37  C   UNL A   1      39.035  29.493  29.282  1.00  0.00     0.074 A 
ATOM     38  C   UNL A   1      38.207  30.935  31.109  1.00  0.00     0.049 A 
ATOM     39  N   UNL A   1      40.131  29.015  29.809  1.00  0.00    -0.248 NA
ATOM     40  C   UNL A   1      38.797  29.071  27.892  1.00  0.00     0.031 C 
ATOM     41  C   UNL A   1      37.321  31.892  31.770  1.00  0.00     0.029 A 
ATOM     42  N   UNL A   1      39.211  30.718  32.022  1.00  0.00    -0.354 N 
ATOM     43  C   UNL A   1      40.703  28.216  28.827  1.00  0.00     0.074 A 
ATOM     44  C   UNL A   1      39.838  28.281  27.669  1.00  0.00     0.031 C 
ATOM     45  C   UNL A   1      37.797  32.145  33.002  1.00  0.00     0.029 A 
ATOM     46  C   UNL A   1      38.997  31.341  33.230  1.00  0.00     0.049 A 
ATOM     47  H   UNL A   1      40.005  30.170  31.830  1.00  0.00     0.167 HD
ATOM     48  C   UNL A   1      41.843  27.491  28.887  1.00  0.00     0.034 A 
ATOM     49  C   UNL A   1      39.671  31.238  34.394  1.00  0.00     0.034 A 
ATOM     50  C   UNL A   1      42.688  27.414  30.047  1.00  0.00     0.049 A 
ATOM     51  C   UNL A   1      40.888  30.348  34.462  1.00  0.00     0.074 A 
ATOM     52  C   UNL A   1      43.859  26.696  30.210  1.00  0.00     0.029 A 
ATOM     53  N   UNL A   1      42.444  28.061  31.247  1.00  0.00    -0.354 N 
ATOM     54  N   UNL A   1      41.453  29.644  33.509  1.00  0.00    -0.248 NA
ATOM     55  C   UNL A   1      41.578  30.254  35.758  1.00  0.00     0.031 C 
ATOM     56  C   UNL A   1      44.303  26.878  31.522  1.00  0.00     0.029 A 
ATOM     57  C   UNL A   1      43.436  27.752  32.160  1.00  0.00     0.049 A 
ATOM     58  H   UNL A   1      41.678  28.654  31.424  1.00  0.00     0.167 HD
ATOM     59  C   UNL A   1      42.589  29.073  34.076  1.00  0.00     0.074 A 
ATOM     60  C   UNL A   1      42.635  29.513  35.454  1.00  0.00     0.031 C 
ATOM     61  C   UNL A   1      43.508  28.256  33.507  1.00  0.00     0.034 A 
BRANCH  48  62
ATOM     62  C   UNL A   1      42.235  26.706  27.664  1.00  0.00     0.023 A 
ATOM     63  C   UNL A   1      42.905  27.348  26.604  1.00  0.00     0.012 A 
ATOM     64  C   UNL A   1      41.980  25.323  27.589  1.00  0.00     0.148 A 
ATOM     65  C   UNL A   1      43.288  26.629  25.471  1.00  0.00     0.002 A 
ATOM     66  C   UNL A   1      42.406  24.605  26.479  1.00  0.00     0.091 A 
ATOM     67  F   UNL A   1      41.322  24.739  28.601  1.00  0.00    -0.205 F 
ATOM     68  C   UNL A   1      43.048  25.258  25.413  1.00  0.00     0.022 A 
BRANCH  66  69
ATOM     69  S   UNL A   1      42.210  22.826  26.342  1.00  0.00     0.127 S 
ATOM     70  O   UNL A   1      40.771  22.671  26.560  1.00  0.00    -0.237 OA
ATOM     71  O   UNL A   1      42.649  22.574  24.970  1.00  0.00    -0.237 OA
ATOM     72  O   UNL A   1      43.060  22.245  27.371  1.00  0.00    -0.744 OA
ENDBRANCH  66  69
ENDBRANCH  48  62
BRANCH  49  73
ATOM     73  C   UNL A   1      39.220  31.990  35.601  1.00  0.00     0.023 A 
ATOM     74  C   UNL A   1      39.601  33.336  35.767  1.00  0.00     0.012 A 
ATOM     75  C   UNL A   1      38.444  31.370  36.600  1.00  0.00     0.148 A 
ATOM     76  C   UNL A   1      39.254  34.037  36.923  1.00  0.00     0.002 A 
ATOM     77  C   UNL A   1      38.055  32.090  37.723  1.00  0.00     0.091 A 
ATOM     78  F   UNL A   1      38.106  30.083  36.436  1.00  0.00    -0.205 F 
ATOM     79  C   UNL A   1      38.475  33.418  37.897  1.00  0.00     0.022 A 
BRANCH  77  80
ATOM     80  S   UNL A   1      36.967  31.410  38.981  1.00  0.00     0.127 S 
ATOM     81  O   UNL A   1      37.804  31.490  40.175  1.00  0.00    -0.237 OA
ATOM     82  O   UNL A   1      35.846  32.349  38.949  1.00  0.00    -0.237 OA
ATOM     83  O   UNL A   1      36.638  30.064  38.532  1.00  0.00    -0.744 OA
ENDBRANCH  77  80
ENDBRANCH  49  73
BRANCH  61  84
ATOM     84  C   UNL A   1      44.701  27.838  34.330  1.00  0.00     0.023 A 
ATOM     85  C   UNL A   1      45.832  28.669  34.420  1.00  0.00     0.012 A 
ATOM     86  C   UNL A   1      44.638  26.665  35.110  1.00  0.00     0.148 A 
ATOM     87  C   UNL A   1      46.894  28.330  35.260  1.00  0.00     0.002 A 
ATOM     88  C   UNL A   1      45.674  26.361  35.984  1.00  0.00     0.091 A 
ATOM     89  F   UNL A   1      43.557  25.880  34.996  1.00  0.00    -0.205 F 
ATOM     90  C   UNL A   1      46.808  27.186  36.051  1.00  0.00     0.022 A 
BRANCH  88  91
ATOM     91  S   UNL A   1      45.603  24.970  37.120  1.00  0.00     0.127 S 
ATOM     92  O   UNL A   1      45.970  23.855  36.247  1.00  0.00    -0.237 OA
ATOM     93  O   UNL A   1      46.617  25.330  38.110  1.00  0.00    -0.237 OA
ATOM     94  O   UNL A   1      44.239  24.934  37.632  1.00  0.00    -0.744 OA
ENDBRANCH  88  91
ENDBRANCH  61  84
ENDBRANCH  35  36
ENDBRANCH  28  30
ENDBRANCH  27  28
ENDBRANCH   1  27
TORSDOF 18
ENDMDL
MODEL 2
REMARK VINA RESULT:     -11.7      5.154     10.463
REMARK SMILES CCc1cc(OC(F)(F)F)cc2c1O[C@@H](C(F)(F)F)C(C(=O)OCCOC(=O)c1ccc(-c3c4nc(c(-c5cccc(S(=O)(=O)[O-])c5F)c5ccc([nH]5)c(-c5cccc(S(=O)(=O)[O-])c5F)c5nc(c(-c6cccc(S(=O)(=O)[O-])c6F)c6ccc3[nH]6)C=C5)C=C4)cc1)=C2
REMARK SMILES IDX 25 1 24 2 23 3 21 4 22 5 20 6 3 7 4 8 13 9 5 10 12 11 14 12
REMARK SMILES IDX 11 13 92 14 15 15 2 16 1 17 6 18 7 19 8 20 9 21 10 22 16 23
REMARK SMILES IDX 17 24 18 25 19 26 26 27 27 28 28 29 29 30 30 31 91 32 31 33
REMARK SMILES IDX 90 34 32 35 33 36 34 37 84 38 35 39 89 40 83 41 85 42 36 43
REMARK SMILES IDX 88 44 82 45 81 46 37 48 69 49 49 50 68 51 50 52 53 53 67 54
REMARK SMILES IDX 86 55 51 56 52 57 66 59 87 60 54 61 38 62 39 63 47 64 40 65
REMARK SMILES IDX 42 66 48 67 41 68 43 69 44 70 45 71 46 72 70 73 71 74 79 75
REMARK SMILES IDX 72 76 74 77 80 78 73 79 75 80 76 81 77 82 78 83 55 84 56 85
REMARK SMILES IDX 64 86 57 87 59 88 65 89 58 90 60 91 61 92 62 93 63 94
REMARK H PARENT 85 47 53 58
REMARK Flexibility Score: inf
ROOT
ATOM      1  C   UNL A   1      36.747  21.060  24.606  1.00  0.00     0.275 C 
ENDROOT
BRANCH   1   2
ATOM      2  C   UNL A   1      35.218  20.991  24.690  1.00  0.00     0.275 C 
BRANCH   2   3
ATOM      3  O   UNL A   1      34.590  22.012  23.885  1.00  0.00    -0.459 OA
BRANCH   3   4
ATOM      4  C   UNL A   1      33.238  22.092  23.986  1.00  0.00     0.338 C 
ATOM      5  O   UNL A   1      32.468  21.162  23.851  1.00  0.00    -0.246 OA
BRANCH   4   6
ATOM      6  C   UNL A   1      32.785  23.463  24.313  1.00  0.00     0.087 C 
ATOM      7  C   UNL A   1      31.441  27.218  25.575  1.00  0.00    -0.002 A 
ATOM      8  C   UNL A   1      30.928  28.114  24.618  1.00  0.00     0.054 A 
ATOM      9  C   UNL A   1      31.767  25.926  25.147  1.00  0.00     0.131 A 
ATOM     10  C   UNL A   1      30.770  27.738  23.280  1.00  0.00     0.130 A 
ATOM     11  C   UNL A   1      31.711  25.561  23.793  1.00  0.00     0.021 A 
ATOM     12  O   UNL A   1      32.037  24.976  26.092  1.00  0.00    -0.475 OA
ATOM     13  C   UNL A   1      31.207  26.475  22.865  1.00  0.00     0.058 A 
ATOM     14  C   UNL A   1      32.142  24.213  23.398  1.00  0.00     0.027 C 
ATOM     15  C   UNL A   1      33.048  24.010  25.704  1.00  0.00     0.316 C 
BRANCH   7  16
ATOM     16  C   UNL A   1      31.568  27.716  27.002  1.00  0.00     0.036 C 
ATOM     17  C   UNL A   1      31.773  29.211  27.224  1.00  0.00     0.009 C 
ENDBRANCH   7  16
BRANCH  10  18
ATOM     18  O   UNL A   1      30.216  28.512  22.298  1.00  0.00    -0.406 OA
BRANCH  18  19
ATOM     19  C   UNL A   1      28.970  29.131  22.587  1.00  0.00     0.573 C 
ATOM     20  F   UNL A   1      28.129  28.290  23.227  1.00  0.00    -0.132 F 
ATOM     21  F   UNL A   1      29.145  30.246  23.328  1.00  0.00    -0.132 F 
ATOM     22  F   UNL A   1      28.385  29.491  21.421  1.00  0.00    -0.132 F 
ENDBRANCH  18  19
ENDBRANCH  10  18
BRANCH  15  23
ATOM     23  C   UNL A   1      33.221  23.038  26.886  1.00  0.00     0.430 C 
ATOM     24  F   UNL A   1      32.694  21.822  26.625  1.00  0.00    -0.167 F 
ATOM     25  F   UNL A   1      34.545  22.825  27.115  1.00  0.00    -0.167 F 
ATOM     26  F   UNL A   1      32.693  23.516  28.032  1.00  0.00    -0.167 F 
ENDBRANCH  15  23
ENDBRANCH   4   6
ENDBRANCH   3   4
ENDBRANCH   2   3
ENDBRANCH   1   2
BRANCH   1  27
ATOM     27  O   UNL A   1      37.327  21.624  25.795  1.00  0.00    -0.458 OA
BRANCH  27  28
ATOM     28  C   UNL A   1      38.616  21.275  26.023  1.00  0.00     0.338 C 
ATOM     29  O   UNL A   1      39.146  20.215  25.728  1.00  0.00    -0.246 OA
BRANCH  28  30
ATOM     30  C   UNL A   1      39.378  22.438  26.520  1.00  0.00     0.060 A 
ATOM     31  C   UNL A   1      38.945  23.698  26.100  1.00  0.00     0.016 A 
ATOM     32  C   UNL A   1      40.492  22.323  27.352  1.00  0.00     0.016 A 
ATOM     33  C   UNL A   1      39.557  24.855  26.572  1.00  0.00     0.010 A 
ATOM     34  C   UNL A   1      41.152  23.485  27.777  1.00  0.00     0.010 A 
ATOM     35  C   UNL A   1      40.677  24.755  27.401  1.00  0.00    -0.014 A 
BRANCH  35  36
ATOM     36  C   UNL A   1      41.427  25.980  27.766  1.00  0.00     0.031 A 
ATOM     37  C   UNL A   1      40.722  27.055  28.540  1.00  0.00     0.074 A 
ATOM     38  C   UNL A   1      42.718  26.129  27.419  1.00  0.00     0.049 A 
ATOM     39  N   UNL A   1      41.149  28.238  28.892  1.00  0.00    -0.248 NA
ATOM     40  C   UNL A   1      39.353  26.748  28.989  1.00  0.00     0.031 C 
ATOM     41  C   UNL A   1      43.530  25.127  26.732  1.00  0.00     0.029 A 
ATOM     42  N   UNL A   1      43.566  27.198  27.579  1.00  0.00    -0.354 N 
ATOM     43  C   UNL A   1      40.098  28.829  29.580  1.00  0.00     0.074 A 
ATOM     44  C   UNL A   1      39.014  27.871  29.606  1.00  0.00     0.031 C 
ATOM     45  C   UNL A   1      44.747  25.645  26.489  1.00  0.00     0.029 A 
ATOM     46  C   UNL A   1      44.787  27.026  26.968  1.00  0.00     0.049 A 
ATOM     47  H   UNL A   1      43.323  28.008  28.083  1.00  0.00     0.167 HD
ATOM     48  C   UNL A   1      40.040  30.061  30.137  1.00  0.00     0.034 A 
ATOM     49  C   UNL A   1      45.799  27.899  26.783  1.00  0.00     0.034 A 
ATOM     50  C   UNL A   1      41.112  31.016  30.092  1.00  0.00     0.049 A 
ATOM     51  C   UNL A   1      45.671  29.299  27.334  1.00  0.00     0.074 A 
ATOM     52  C   UNL A   1      41.145  32.296  30.616  1.00  0.00     0.029 A 
ATOM     53  N   UNL A   1      42.333  30.806  29.471  1.00  0.00    -0.354 N 
ATOM     54  N   UNL A   1      44.696  29.827  28.035  1.00  0.00    -0.248 NA
ATOM     55  C   UNL A   1      46.793  30.219  27.090  1.00  0.00     0.031 C 
ATOM     56  C   UNL A   1      42.372  32.873  30.279  1.00  0.00     0.029 A 
ATOM     57  C   UNL A   1      43.123  31.934  29.589  1.00  0.00     0.049 A 
ATOM     58  H   UNL A   1      42.599  29.976  29.013  1.00  0.00     0.167 HD
ATOM     59  C   UNL A   1      45.111  31.115  28.361  1.00  0.00     0.074 A 
ATOM     60  C   UNL A   1      46.426  31.289  27.782  1.00  0.00     0.031 C 
ATOM     61  C   UNL A   1      44.460  32.067  29.071  1.00  0.00     0.034 A 
BRANCH  48  62
ATOM     62  C   UNL A   1      38.764  30.452  30.831  1.00  0.00     0.023 A 
ATOM     63  C   UNL A   1      38.612  30.210  32.211  1.00  0.00     0.012 A 
ATOM     64  C   UNL A   1      37.734  31.103  30.124  1.00  0.00     0.148 A 
ATOM     65  C   UNL A   1      37.441  30.582  32.871  1.00  0.00     0.002 A 
ATOM     66  C   UNL A   1      36.590  31.512  30.797  1.00  0.00     0.091 A 
ATOM     67  F   UNL A   1      37.892  31.304  28.808  1.00  0.00    -0.205 F 
ATOM     68  C   UNL A   1      36.436  31.241  32.167  1.00  0.00     0.022 A 
BRANCH  66  69
ATOM     69  S   UNL A   1      35.273  32.432  29.996  1.00  0.00     0.127 S 
ATOM     70  O   UNL A   1      35.993  33.602  29.494  1.00  0.00    -0.237 OA
ATOM     71  O   UNL A   1      34.832  31.497  28.961  1.00  0.00    -0.237 OA
ATOM     72  O   UNL A   1      34.285  32.707  31.030  1.00  0.00    -0.744 OA
ENDBRANCH  66  69
ENDBRANCH  48  62
BRANCH  49  73
ATOM     73  C   UNL A   1      47.027  27.490  26.041  1.00  0.00     0.023 A 
ATOM     74  C   UNL A   1      48.083  26.863  26.732  1.00  0.00     0.012 A 
ATOM     75  C   UNL A   1      47.169  27.748  24.664  1.00  0.00     0.148 A 
ATOM     76  C   UNL A   1      49.271  26.540  26.075  1.00  0.00     0.002 A 
ATOM     77  C   UNL A   1      48.333  27.374  24.004  1.00  0.00     0.091 A 
ATOM     78  F   UNL A   1      46.162  28.363  24.025  1.00  0.00    -0.205 F 
ATOM     79  C   UNL A   1      49.394  26.788  24.711  1.00  0.00     0.022 A 
BRANCH  77  80
ATOM     80  S   UNL A   1      48.542  27.559  22.229  1.00  0.00     0.127 S 
ATOM     81  O   UNL A   1      49.757  28.366  22.153  1.00  0.00    -0.237 OA
ATOM     82  O   UNL A   1      48.696  26.169  21.798  1.00  0.00    -0.237 OA
ATOM     83  O   UNL A   1      47.326  28.205  21.753  1.00  0.00    -0.744 OA
ENDBRANCH  77  80
ENDBRANCH  49  73
BRANCH  61  84
ATOM     84  C   UNL A   1      45.175  33.365  29.350  1.00  0.00     0.023 A 
ATOM     85  C   UNL A   1      46.038  33.481  30.456  1.00  0.00     0.012 A 
ATOM     86  C   UNL A   1      45.075  34.433  28.434  1.00  0.00     0.148 A 
ATOM     87  C   UNL A   1      46.775  34.648  30.658  1.00  0.00     0.002 A 
ATOM     88  C   UNL A   1      45.852  35.570  28.612  1.00  0.00     0.091 A 
ATOM     89  F   UNL A   1      44.235  34.306  27.397  1.00  0.00    -0.205 F 
ATOM     90  C   UNL A   1      46.694  35.684  29.729  1.00  0.00     0.022 A 
BRANCH  88  91
ATOM     91  S   UNL A   1      45.896  36.908  27.413  1.00  0.00     0.127 S 
ATOM     92  O   UNL A   1      44.471  37.149  27.185  1.00  0.00    -0.237 OA
ATOM     93  O   UNL A   1      46.583  37.964  28.155  1.00  0.00    -0.237 OA
ATOM     94  O   UNL A   1      46.629  36.396  26.262  1.00  0.00    -0.744 OA
ENDBRANCH  88  91
ENDBRANCH  61  84
ENDBRANCH  35  36
ENDBRANCH  28  30
ENDBRANCH  27  28
ENDBRANCH   1  27
TORSDOF 18
ENDMDL
MODEL 3
REMARK VINA RESULT:     -11.7      5.207     10.246
REMARK SMILES CCc1cc(OC(F)(F)F)cc2c1O[C@@H](C(F)(F)F)C(C(=O)OCCOC(=O)c1ccc(-c3c4nc(c(-c5cccc(S(=O)(=O)[O-])c5F)c5ccc([nH]5)c(-c5cccc(S(=O)(=O)[O-])c5F)c5nc(c(-c6cccc(S(=O)(=O)[O-])c6F)c6ccc3[nH]6)C=C5)C=C4)cc1)=C2
REMARK SMILES IDX 25 1 24 2 23 3 21 4 22 5 20 6 3 7 4 8 13 9 5 10 12 11 14 12
REMARK SMILES IDX 11 13 92 14 15 15 2 16 1 17 6 18 7 19 8 20 9 21 10 22 16 23
REMARK SMILES IDX 17 24 18 25 19 26 26 27 27 28 28 29 29 30 30 31 91 32 31 33
REMARK SMILES IDX 90 34 32 35 33 36 34 37 84 38 35 39 89 40 83 41 85 42 36 43
REMARK SMILES IDX 88 44 82 45 81 46 37 48 69 49 49 50 68 51 50 52 53 53 67 54
REMARK SMILES IDX 86 55 51 56 52 57 66 59 87 60 54 61 38 62 39 63 47 64 40 65
REMARK SMILES IDX 42 66 48 67 41 68 43 69 44 70 45 71 46 72 70 73 71 74 79 75
REMARK SMILES IDX 72 76 74 77 80 78 73 79 75 80 76 81 77 82 78 83 55 84 56 85
REMARK SMILES IDX 64 86 57 87 59 88 65 89 58 90 60 91 61 92 62 93 63 94
REMARK H PARENT 85 47 53 58
REMARK Flexibility Score: inf
ROOT
ATOM      1  C   UNL A   1      36.705  20.630  25.071  1.00  0.00     0.275 C 
ENDROOT
BRANCH   1   2
ATOM      2  C   UNL A   1      35.227  21.015  24.935  1.00  0.00     0.275 C 
BRANCH   2   3
ATOM      3  O   UNL A   1      35.030  22.438  25.070  1.00  0.00    -0.459 OA
BRANCH   3   4
ATOM      4  C   UNL A   1      34.103  22.820  25.987  1.00  0.00     0.338 C 
ATOM      5  O   UNL A   1      33.898  22.266  27.049  1.00  0.00    -0.246 OA
BRANCH   4   6
ATOM      6  C   UNL A   1      33.364  24.029  25.560  1.00  0.00     0.087 C 
ATOM      7  C   UNL A   1      31.178  27.262  24.054  1.00  0.00    -0.002 A 
ATOM      8  C   UNL A   1      31.509  28.563  24.476  1.00  0.00     0.054 A 
ATOM      9  C   UNL A   1      32.002  26.212  24.474  1.00  0.00     0.131 A 
ATOM     10  C   UNL A   1      32.608  28.801  25.307  1.00  0.00     0.130 A 
ATOM     11  C   UNL A   1      33.049  26.415  25.388  1.00  0.00     0.021 A 
ATOM     12  O   UNL A   1      31.844  24.986  23.890  1.00  0.00    -0.475 OA
ATOM     13  C   UNL A   1      33.347  27.717  25.796  1.00  0.00     0.058 A 
ATOM     14  C   UNL A   1      33.827  25.260  25.850  1.00  0.00     0.027 C 
ATOM     15  C   UNL A   1      32.074  23.861  24.777  1.00  0.00     0.316 C 
BRANCH   7  16
ATOM     16  C   UNL A   1      29.971  27.107  23.148  1.00  0.00     0.036 C 
ATOM     17  C   UNL A   1      28.664  26.628  23.771  1.00  0.00     0.009 C 
ENDBRANCH   7  16
BRANCH  10  18
ATOM     18  O   UNL A   1      33.048  30.032  25.709  1.00  0.00    -0.406 OA
BRANCH  18  19
ATOM     19  C   UNL A   1      32.234  30.742  26.631  1.00  0.00     0.573 C 
ATOM     20  F   UNL A   1      31.366  31.565  26.003  1.00  0.00    -0.132 F 
ATOM     21  F   UNL A   1      31.553  29.893  27.429  1.00  0.00    -0.132 F 
ATOM     22  F   UNL A   1      33.030  31.505  27.415  1.00  0.00    -0.132 F 
ENDBRANCH  18  19
ENDBRANCH  10  18
BRANCH  15  23
ATOM     23  C   UNL A   1      31.843  22.582  23.952  1.00  0.00     0.430 C 
ATOM     24  F   UNL A   1      30.728  22.661  23.193  1.00  0.00    -0.167 F 
ATOM     25  F   UNL A   1      32.871  22.408  23.078  1.00  0.00    -0.167 F 
ATOM     26  F   UNL A   1      31.783  21.474  24.718  1.00  0.00    -0.167 F 
ENDBRANCH  15  23
ENDBRANCH   4   6
ENDBRANCH   3   4
ENDBRANCH   2   3
ENDBRANCH   1   2
BRANCH   1  27
ATOM     27  O   UNL A   1      37.485  21.686  25.656  1.00  0.00    -0.458 OA
BRANCH  27  28
ATOM     28  C   UNL A   1      38.708  21.314  26.104  1.00  0.00     0.338 C 
ATOM     29  O   UNL A   1      39.215  20.207  26.000  1.00  0.00    -0.246 OA
BRANCH  28  30
ATOM     30  C   UNL A   1      39.457  22.493  26.582  1.00  0.00     0.060 A 
ATOM     31  C   UNL A   1      39.044  23.737  26.098  1.00  0.00     0.016 A 
ATOM     32  C   UNL A   1      40.540  22.408  27.457  1.00  0.00     0.016 A 
ATOM     33  C   UNL A   1      39.645  24.910  26.547  1.00  0.00     0.010 A 
ATOM     34  C   UNL A   1      41.189  23.583  27.860  1.00  0.00     0.010 A 
ATOM     35  C   UNL A   1      40.733  24.839  27.419  1.00  0.00    -0.014 A 
BRANCH  35  36
ATOM     36  C   UNL A   1      41.474  26.075  27.763  1.00  0.00     0.031 A 
ATOM     37  C   UNL A   1      40.790  27.120  28.594  1.00  0.00     0.074 A 
ATOM     38  C   UNL A   1      42.741  26.260  27.346  1.00  0.00     0.049 A 
ATOM     39  N   UNL A   1      41.210  28.307  28.942  1.00  0.00    -0.248 NA
ATOM     40  C   UNL A   1      39.456  26.774  29.114  1.00  0.00     0.031 C 
ATOM     41  C   UNL A   1      43.535  25.289  26.597  1.00  0.00     0.029 A 
ATOM     42  N   UNL A   1      43.572  27.347  27.478  1.00  0.00    -0.354 N 
ATOM     43  C   UNL A   1      40.187  28.862  29.699  1.00  0.00     0.074 A 
ATOM     44  C   UNL A   1      39.128  27.878  29.769  1.00  0.00     0.031 C 
ATOM     45  C   UNL A   1      44.724  25.840  26.295  1.00  0.00     0.029 A 
ATOM     46  C   UNL A   1      44.759  27.213  26.796  1.00  0.00     0.049 A 
ATOM     47  H   UNL A   1      43.340  28.142  28.008  1.00  0.00     0.167 HD
ATOM     48  C   UNL A   1      40.132  30.082  30.281  1.00  0.00     0.034 A 
ATOM     49  C   UNL A   1      45.739  28.113  26.570  1.00  0.00     0.034 A 
ATOM     50  C   UNL A   1      41.178  31.064  30.192  1.00  0.00     0.049 A 
ATOM     51  C   UNL A   1      45.611  29.500  27.151  1.00  0.00     0.074 A 
ATOM     52  C   UNL A   1      41.212  32.335  30.736  1.00  0.00     0.029 A 
ATOM     53  N   UNL A   1      42.366  30.893  29.499  1.00  0.00    -0.354 N 
ATOM     54  N   UNL A   1      44.666  29.994  27.916  1.00  0.00    -0.248 NA
ATOM     55  C   UNL A   1      46.696  30.450  26.861  1.00  0.00     0.031 C 
ATOM     56  C   UNL A   1      42.404  32.947  30.341  1.00  0.00     0.029 A 
ATOM     57  C   UNL A   1      43.136  32.037  29.593  1.00  0.00     0.049 A 
ATOM     58  H   UNL A   1      42.624  30.076  29.012  1.00  0.00     0.167 HD
ATOM     59  C   UNL A   1      45.069  31.285  28.240  1.00  0.00     0.074 A 
ATOM     60  C   UNL A   1      46.345  31.500  27.592  1.00  0.00     0.031 C 
ATOM     61  C   UNL A   1      44.438  32.210  29.003  1.00  0.00     0.034 A 
BRANCH  48  62
ATOM     62  C   UNL A   1      38.889  30.432  31.052  1.00  0.00     0.023 A 
ATOM     63  C   UNL A   1      38.770  30.048  32.402  1.00  0.00     0.012 A 
ATOM     64  C   UNL A   1      37.859  31.182  30.451  1.00  0.00     0.148 A 
ATOM     65  C   UNL A   1      37.630  30.379  33.135  1.00  0.00     0.002 A 
ATOM     66  C   UNL A   1      36.748  31.548  31.199  1.00  0.00     0.091 A 
ATOM     67  F   UNL A   1      37.986  31.518  29.158  1.00  0.00    -0.205 F 
ATOM     68  C   UNL A   1      36.625  31.137  32.537  1.00  0.00     0.022 A 
BRANCH  66  69
ATOM     69  S   UNL A   1      35.437  32.583  30.543  1.00  0.00     0.127 S 
ATOM     70  O   UNL A   1      34.360  32.339  31.502  1.00  0.00    -0.237 OA
ATOM     71  O   UNL A   1      36.032  33.917  30.620  1.00  0.00    -0.237 OA
ATOM     72  O   UNL A   1      35.184  32.107  29.190  1.00  0.00    -0.744 OA
ENDBRANCH  66  69
ENDBRANCH  48  62
BRANCH  49  73
ATOM     73  C   UNL A   1      46.933  27.746  25.753  1.00  0.00     0.023 A 
ATOM     74  C   UNL A   1      46.906  27.933  24.356  1.00  0.00     0.012 A 
ATOM     75  C   UNL A   1      48.079  27.182  26.346  1.00  0.00     0.148 A 
ATOM     76  C   UNL A   1      47.980  27.528  23.563  1.00  0.00     0.002 A 
ATOM     77  C   UNL A   1      49.168  26.831  25.556  1.00  0.00     0.091 A 
ATOM     78  F   UNL A   1      48.080  26.992  27.673  1.00  0.00    -0.205 F 
ATOM     79  C   UNL A   1      49.114  26.985  24.163  1.00  0.00     0.022 A 
BRANCH  77  80
ATOM     80  S   UNL A   1      50.709  26.220  26.249  1.00  0.00     0.127 S 
ATOM     81  O   UNL A   1      51.578  26.204  25.075  1.00  0.00    -0.237 OA
ATOM     82  O   UNL A   1      51.025  27.253  27.236  1.00  0.00    -0.237 OA
ATOM     83  O   UNL A   1      50.396  24.917  26.819  1.00  0.00    -0.744 OA
ENDBRANCH  77  80
ENDBRANCH  49  73
BRANCH  61  84
ATOM     84  C   UNL A   1      45.138  33.520  29.265  1.00  0.00     0.023 A 
ATOM     85  C   UNL A   1      45.970  33.672  30.390  1.00  0.00     0.012 A 
ATOM     86  C   UNL A   1      45.057  34.561  28.316  1.00  0.00     0.148 A 
ATOM     87  C   UNL A   1      46.695  34.849  30.578  1.00  0.00     0.002 A 
ATOM     88  C   UNL A   1      45.823  35.707  28.483  1.00  0.00     0.091 A 
ATOM     89  F   UNL A   1      44.246  34.400  27.261  1.00  0.00    -0.205 F 
ATOM     90  C   UNL A   1      46.634  35.858  29.619  1.00  0.00     0.022 A 
BRANCH  88  91
ATOM     91  S   UNL A   1      45.892  37.011  27.248  1.00  0.00     0.127 S 
ATOM     92  O   UNL A   1      46.534  36.324  26.127  1.00  0.00    -0.237 OA
ATOM     93  O   UNL A   1      44.477  37.317  27.045  1.00  0.00    -0.237 OA
ATOM     94  O   UNL A   1      46.669  38.091  27.841  1.00  0.00    -0.744 OA
ENDBRANCH  88  91
ENDBRANCH  61  84
ENDBRANCH  35  36
ENDBRANCH  28  30
ENDBRANCH  27  28
ENDBRANCH   1  27
TORSDOF 18
ENDMDL
