MODEL 1
REMARK VINA RESULT:      -9.2      0.000      0.000
REMARK SMILES CCCCOc1ccccc1C[C@@H]([NH3+])C(=O)OCCOC(=O)c1ccc(-c2c3nc(c(-c4cccc(S(=O)(=O)[O-])c4F)c4ccc([nH]4)c(-c4cccc(S(=O)(=O)[O-])c4F)c4nc(c(-c5cccc(S(=O)(=O)[O-])c5F)c5ccc2[nH]5)C=C4)C=C3)cc1
REMARK SMILES IDX 17 1 15 2 16 3 13 4 12 5 11 6 6 7 7 8 8 9 10 10 9 11 5 12
REMARK SMILES IDX 4 13 3 14 2 15 1 16 14 17 18 21 19 22 20 23 21 24 22 25
REMARK SMILES IDX 23 26 24 27 85 28 25 29 84 30 26 31 27 32 28 33 78 34 29 35
REMARK SMILES IDX 83 36 77 37 79 38 30 39 82 40 76 41 75 42 31 44 63 45 43 46
REMARK SMILES IDX 62 47 44 48 47 49 61 50 80 51 45 52 46 53 60 55 81 56 48 57
REMARK SMILES IDX 32 58 33 59 41 60 34 61 36 62 42 63 35 64 37 65 38 66 39 67
REMARK SMILES IDX 40 68 64 69 65 70 73 71 66 72 68 73 74 74 67 75 69 76 70 77
REMARK SMILES IDX 71 78 72 79 49 80 50 81 58 82 51 83 53 84 59 85 52 86 54 87
REMARK SMILES IDX 55 88 56 89 57 90
REMARK H PARENT 14 18 14 19 14 20 79 43 47 54
REMARK Flexibility Score: inf
ROOT
ATOM      1  O   UNL A   1      32.687  34.903  29.965  1.00  0.00    -0.458 OA
ENDROOT
BRANCH   1   2
ATOM      2  C   UNL A   1      32.932  36.000  30.733  1.00  0.00     0.365 C 
ATOM      3  O   UNL A   1      32.659  37.151  30.408  1.00  0.00    -0.245 OA
BRANCH   2   4
ATOM      4  C   UNL A   1      33.687  35.681  32.047  1.00  0.00     0.296 C 
BRANCH   4   5
ATOM      5  C   UNL A   1      34.513  34.386  31.950  1.00  0.00     0.116 C 
BRANCH   5   6
ATOM      6  C   UNL A   1      35.577  34.132  33.007  1.00  0.00     0.001 A 
ATOM      7  C   UNL A   1      36.950  34.113  32.689  1.00  0.00     0.122 A 
ATOM      8  C   UNL A   1      37.917  33.924  33.684  1.00  0.00     0.047 A 
ATOM      9  C   UNL A   1      37.536  33.833  35.019  1.00  0.00     0.004 A 
ATOM     10  C   UNL A   1      35.219  34.057  34.362  1.00  0.00     0.008 A 
ATOM     11  C   UNL A   1      36.189  33.910  35.358  1.00  0.00     0.001 A 
BRANCH   7  12
ATOM     12  O   UNL A   1      37.327  34.278  31.381  1.00  0.00    -0.493 OA
BRANCH  12  13
ATOM     13  C   UNL A   1      38.723  34.591  31.222  1.00  0.00     0.229 C 
BRANCH  13  14
ATOM     14  C   UNL A   1      39.110  34.518  29.743  1.00  0.00     0.041 C 
BRANCH  14  15
ATOM     15  C   UNL A   1      40.584  34.861  29.494  1.00  0.00     0.000 C 
ATOM     16  C   UNL A   1      41.540  33.832  30.067  1.00  0.00     0.004 C 
ENDBRANCH  14  15
ENDBRANCH  13  14
ENDBRANCH  12  13
ENDBRANCH   7  12
ENDBRANCH   5   6
ENDBRANCH   4   5
BRANCH   4  17
ATOM     17  N   UNL A   1      34.481  36.881  32.420  1.00  0.00    -0.346 N 
ATOM     18  H   UNL A   1      35.322  36.924  31.845  1.00  0.00     0.345 HD
ATOM     19  H   UNL A   1      34.746  36.821  33.404  1.00  0.00     0.345 HD
ATOM     20  H   UNL A   1      33.921  37.720  32.269  1.00  0.00     0.345 HD
ENDBRANCH   4  17
ENDBRANCH   2   4
ENDBRANCH   1   2
BRANCH   1  21
ATOM     21  C   UNL A   1      33.280  34.889  28.651  1.00  0.00     0.274 C 
BRANCH  21  22
ATOM     22  C   UNL A   1      33.339  33.475  28.068  1.00  0.00     0.275 C 
BRANCH  22  23
ATOM     23  O   UNL A   1      34.619  32.863  28.309  1.00  0.00    -0.458 OA
BRANCH  23  24
ATOM     24  C   UNL A   1      34.618  31.521  28.163  1.00  0.00     0.338 C 
ATOM     25  O   UNL A   1      33.725  30.842  27.676  1.00  0.00    -0.246 OA
BRANCH  24  26
ATOM     26  C   UNL A   1      35.903  30.950  28.566  1.00  0.00     0.060 A 
ATOM     27  C   UNL A   1      35.897  29.775  29.323  1.00  0.00     0.016 A 
ATOM     28  C   UNL A   1      37.096  31.619  28.296  1.00  0.00     0.016 A 
ATOM     29  C   UNL A   1      37.093  29.244  29.798  1.00  0.00     0.010 A 
ATOM     30  C   UNL A   1      38.296  31.087  28.773  1.00  0.00     0.010 A 
ATOM     31  C   UNL A   1      38.300  29.899  29.526  1.00  0.00    -0.014 A 
BRANCH  31  32
ATOM     32  C   UNL A   1      39.580  29.334  30.010  1.00  0.00     0.031 A 
ATOM     33  C   UNL A   1      40.311  29.987  31.144  1.00  0.00     0.074 A 
ATOM     34  C   UNL A   1      40.098  28.264  29.381  1.00  0.00     0.049 A 
ATOM     35  N   UNL A   1      41.496  29.716  31.623  1.00  0.00    -0.248 NA
ATOM     36  C   UNL A   1      39.622  31.092  31.828  1.00  0.00     0.031 C 
ATOM     37  C   UNL A   1      39.458  27.545  28.277  1.00  0.00     0.029 A 
ATOM     38  N   UNL A   1      41.291  27.612  29.558  1.00  0.00    -0.354 N 
ATOM     39  C   UNL A   1      41.719  30.644  32.631  1.00  0.00     0.074 A 
ATOM     40  C   UNL A   1      40.539  31.480  32.703  1.00  0.00     0.031 C 
ATOM     41  C   UNL A   1      40.274  26.565  27.862  1.00  0.00     0.029 A 
ATOM     42  C   UNL A   1      41.511  26.616  28.636  1.00  0.00     0.049 A 
ATOM     43  H   UNL A   1      41.928  27.835  30.276  1.00  0.00     0.167 HD
ATOM     44  C   UNL A   1      42.808  30.781  33.424  1.00  0.00     0.034 A 
ATOM     45  C   UNL A   1      42.600  25.855  28.419  1.00  0.00     0.034 A 
ATOM     46  C   UNL A   1      43.961  29.921  33.361  1.00  0.00     0.049 A 
ATOM     47  C   UNL A   1      43.806  26.047  29.297  1.00  0.00     0.074 A 
ATOM     48  C   UNL A   1      45.091  29.935  34.158  1.00  0.00     0.029 A 
ATOM     49  N   UNL A   1      44.133  28.896  32.442  1.00  0.00    -0.354 N 
ATOM     50  N   UNL A   1      43.964  26.861  30.312  1.00  0.00    -0.248 NA
ATOM     51  C   UNL A   1      44.977  25.207  29.012  1.00  0.00     0.031 C 
ATOM     52  C   UNL A   1      45.958  28.936  33.704  1.00  0.00     0.029 A 
ATOM     53  C   UNL A   1      45.357  28.283  32.639  1.00  0.00     0.049 A 
ATOM     54  H   UNL A   1      43.480  28.643  31.750  1.00  0.00     0.167 HD
ATOM     55  C   UNL A   1      45.234  26.606  30.813  1.00  0.00     0.074 A 
ATOM     56  C   UNL A   1      45.801  25.554  29.992  1.00  0.00     0.031 C 
ATOM     57  C   UNL A   1      45.880  27.196  31.848  1.00  0.00     0.034 A 
BRANCH  44  58
ATOM     58  C   UNL A   1      42.804  31.893  34.440  1.00  0.00     0.023 A 
ATOM     59  C   UNL A   1      43.267  33.173  34.078  1.00  0.00     0.012 A 
ATOM     60  C   UNL A   1      42.292  31.684  35.736  1.00  0.00     0.148 A 
ATOM     61  C   UNL A   1      43.249  34.221  34.999  1.00  0.00     0.002 A 
ATOM     62  C   UNL A   1      42.242  32.742  36.636  1.00  0.00     0.091 A 
ATOM     63  F   UNL A   1      41.878  30.453  36.071  1.00  0.00    -0.205 F 
ATOM     64  C   UNL A   1      42.727  34.008  36.273  1.00  0.00     0.022 A 
BRANCH  62  65
ATOM     65  S   UNL A   1      41.522  32.577  38.275  1.00  0.00     0.127 S 
ATOM     66  O   UNL A   1      42.348  31.520  38.855  1.00  0.00    -0.237 OA
ATOM     67  O   UNL A   1      41.742  33.906  38.847  1.00  0.00    -0.237 OA
ATOM     68  O   UNL A   1      40.122  32.239  38.061  1.00  0.00    -0.744 OA
ENDBRANCH  62  65
ENDBRANCH  44  58
BRANCH  45  69
ATOM     69  C   UNL A   1      42.577  24.817  27.352  1.00  0.00     0.023 A 
ATOM     70  C   UNL A   1      43.158  25.103  26.102  1.00  0.00     0.012 A 
ATOM     71  C   UNL A   1      42.030  23.538  27.578  1.00  0.00     0.148 A 
ATOM     72  C   UNL A   1      43.181  24.142  25.091  1.00  0.00     0.002 A 
ATOM     73  C   UNL A   1      42.102  22.568  26.585  1.00  0.00     0.091 A 
ATOM     74  F   UNL A   1      41.463  23.290  28.768  1.00  0.00    -0.205 F 
ATOM     75  C   UNL A   1      42.665  22.873  25.336  1.00  0.00     0.022 A 
BRANCH  73  76
ATOM     76  S   UNL A   1      41.578  20.871  26.855  1.00  0.00     0.127 S 
ATOM     77  O   UNL A   1      41.917  20.247  25.578  1.00  0.00    -0.237 OA
ATOM     78  O   UNL A   1      42.422  20.468  27.981  1.00  0.00    -0.237 OA
ATOM     79  O   UNL A   1      40.157  20.943  27.166  1.00  0.00    -0.744 OA
ENDBRANCH  73  76
ENDBRANCH  45  69
BRANCH  57  80
ATOM     80  C   UNL A   1      47.257  26.695  32.189  1.00  0.00     0.023 A 
ATOM     81  C   UNL A   1      48.387  27.317  31.623  1.00  0.00     0.012 A 
ATOM     82  C   UNL A   1      47.432  25.673  33.143  1.00  0.00     0.148 A 
ATOM     83  C   UNL A   1      49.671  26.915  31.986  1.00  0.00     0.002 A 
ATOM     84  C   UNL A   1      48.714  25.308  33.533  1.00  0.00     0.091 A 
ATOM     85  F   UNL A   1      46.342  25.082  33.654  1.00  0.00    -0.205 F 
ATOM     86  C   UNL A   1      49.835  25.921  32.948  1.00  0.00     0.022 A 
BRANCH  84  87
ATOM     87  S   UNL A   1      49.021  24.108  34.834  1.00  0.00     0.127 S 
ATOM     88  O   UNL A   1      50.482  24.065  34.862  1.00  0.00    -0.237 OA
ATOM     89  O   UNL A   1      48.407  24.748  35.998  1.00  0.00    -0.237 OA
ATOM     90  O   UNL A   1      48.369  22.877  34.408  1.00  0.00    -0.744 OA
ENDBRANCH  84  87
ENDBRANCH  57  80
ENDBRANCH  31  32
ENDBRANCH  24  26
ENDBRANCH  23  24
ENDBRANCH  22  23
ENDBRANCH  21  22
ENDBRANCH   1  21
TORSDOF 21
ENDMDL
MODEL 2
REMARK VINA RESULT:      -9.1      4.196     11.638
REMARK SMILES CCCCOc1ccccc1C[C@@H]([NH3+])C(=O)OCCOC(=O)c1ccc(-c2c3nc(c(-c4cccc(S(=O)(=O)[O-])c4F)c4ccc([nH]4)c(-c4cccc(S(=O)(=O)[O-])c4F)c4nc(c(-c5cccc(S(=O)(=O)[O-])c5F)c5ccc2[nH]5)C=C4)C=C3)cc1
REMARK SMILES IDX 17 1 15 2 16 3 13 4 12 5 11 6 6 7 7 8 8 9 10 10 9 11 5 12
REMARK SMILES IDX 4 13 3 14 2 15 1 16 14 17 18 21 19 22 20 23 21 24 22 25
REMARK SMILES IDX 23 26 24 27 85 28 25 29 84 30 26 31 27 32 28 33 78 34 29 35
REMARK SMILES IDX 83 36 77 37 79 38 30 39 82 40 76 41 75 42 31 44 63 45 43 46
REMARK SMILES IDX 62 47 44 48 47 49 61 50 80 51 45 52 46 53 60 55 81 56 48 57
REMARK SMILES IDX 32 58 33 59 41 60 34 61 36 62 42 63 35 64 37 65 38 66 39 67
REMARK SMILES IDX 40 68 64 69 65 70 73 71 66 72 68 73 74 74 67 75 69 76 70 77
REMARK SMILES IDX 71 78 72 79 49 80 50 81 58 82 51 83 53 84 59 85 52 86 54 87
REMARK SMILES IDX 55 88 56 89 57 90
REMARK H PARENT 14 18 14 19 14 20 79 43 47 54
REMARK Flexibility Score: inf
ROOT
ATOM      1  O   UNL A   1      42.133  20.304  26.531  1.00  0.00    -0.458 OA
ENDROOT
BRANCH   1   2
ATOM      2  C   UNL A   1      43.088  20.248  25.563  1.00  0.00     0.365 C 
ATOM      3  O   UNL A   1      43.348  19.248  24.899  1.00  0.00    -0.245 OA
BRANCH   2   4
ATOM      4  C   UNL A   1      43.908  21.554  25.422  1.00  0.00     0.296 C 
BRANCH   4   5
ATOM      5  C   UNL A   1      43.216  22.755  26.094  1.00  0.00     0.116 C 
BRANCH   5   6
ATOM      6  C   UNL A   1      43.717  23.199  27.460  1.00  0.00     0.001 A 
ATOM      7  C   UNL A   1      44.829  24.051  27.603  1.00  0.00     0.122 A 
ATOM      8  C   UNL A   1      45.246  24.486  28.867  1.00  0.00     0.047 A 
ATOM      9  C   UNL A   1      44.513  24.145  29.999  1.00  0.00     0.004 A 
ATOM     10  C   UNL A   1      42.982  22.885  28.614  1.00  0.00     0.008 A 
ATOM     11  C   UNL A   1      43.375  23.354  29.871  1.00  0.00     0.001 A 
BRANCH   7  12
ATOM     12  O   UNL A   1      45.507  24.446  26.479  1.00  0.00    -0.493 OA
BRANCH  12  13
ATOM     13  C   UNL A   1      46.929  24.552  26.674  1.00  0.00     0.229 C 
BRANCH  13  14
ATOM     14  C   UNL A   1      47.408  25.951  26.278  1.00  0.00     0.041 C 
BRANCH  14  15
ATOM     15  C   UNL A   1      48.141  25.971  24.930  1.00  0.00     0.000 C 
ATOM     16  C   UNL A   1      47.766  27.162  24.067  1.00  0.00     0.004 C 
ENDBRANCH  14  15
ENDBRANCH  13  14
ENDBRANCH  12  13
ENDBRANCH   7  12
ENDBRANCH   5   6
ENDBRANCH   4   5
BRANCH   4  17
ATOM     17  N   UNL A   1      45.282  21.288  25.922  1.00  0.00    -0.346 N 
ATOM     18  H   UNL A   1      45.348  20.319  26.235  1.00  0.00     0.345 HD
ATOM     19  H   UNL A   1      45.486  21.911  26.703  1.00  0.00     0.345 HD
ATOM     20  H   UNL A   1      45.953  21.450  25.172  1.00  0.00     0.345 HD
ENDBRANCH   4  17
ENDBRANCH   2   4
ENDBRANCH   1   2
BRANCH   1  21
ATOM     21  C   UNL A   1      40.918  19.569  26.284  1.00  0.00     0.274 C 
BRANCH  21  22
ATOM     22  C   UNL A   1      39.743  20.500  25.972  1.00  0.00     0.275 C 
BRANCH  22  23
ATOM     23  O   UNL A   1      40.035  21.857  26.353  1.00  0.00    -0.458 OA
BRANCH  23  24
ATOM     24  C   UNL A   1      38.959  22.671  26.339  1.00  0.00     0.338 C 
ATOM     25  O   UNL A   1      37.803  22.346  26.105  1.00  0.00    -0.246 OA
BRANCH  24  26
ATOM     26  C   UNL A   1      39.320  24.024  26.763  1.00  0.00     0.060 A 
ATOM     27  C   UNL A   1      40.017  24.835  25.864  1.00  0.00     0.016 A 
ATOM     28  C   UNL A   1      39.071  24.452  28.067  1.00  0.00     0.016 A 
ATOM     29  C   UNL A   1      40.453  26.097  26.257  1.00  0.00     0.010 A 
ATOM     30  C   UNL A   1      39.509  25.718  28.460  1.00  0.00     0.010 A 
ATOM     31  C   UNL A   1      40.201  26.545  27.559  1.00  0.00    -0.014 A 
BRANCH  31  32
ATOM     32  C   UNL A   1      40.643  27.894  27.983  1.00  0.00     0.031 A 
ATOM     33  C   UNL A   1      42.102  28.238  27.999  1.00  0.00     0.074 A 
ATOM     34  C   UNL A   1      39.721  28.779  28.401  1.00  0.00     0.049 A 
ATOM     35  N   UNL A   1      42.688  29.315  28.452  1.00  0.00    -0.248 NA
ATOM     36  C   UNL A   1      43.025  27.241  27.435  1.00  0.00     0.031 C 
ATOM     37  C   UNL A   1      38.275  28.548  28.410  1.00  0.00     0.029 A 
ATOM     38  N   UNL A   1      39.862  30.037  28.928  1.00  0.00    -0.354 N 
ATOM     39  C   UNL A   1      44.049  29.108  28.276  1.00  0.00     0.074 A 
ATOM     40  C   UNL A   1      44.203  27.806  27.661  1.00  0.00     0.031 C 
ATOM     41  C   UNL A   1      37.664  29.619  28.935  1.00  0.00     0.029 A 
ATOM     42  C   UNL A   1      38.674  30.590  29.343  1.00  0.00     0.049 A 
ATOM     43  H   UNL A   1      40.729  30.498  29.001  1.00  0.00     0.167 HD
ATOM     44  C   UNL A   1      45.075  29.934  28.595  1.00  0.00     0.034 A 
ATOM     45  C   UNL A   1      38.433  31.736  30.008  1.00  0.00     0.034 A 
ATOM     46  C   UNL A   1      44.903  31.239  29.176  1.00  0.00     0.049 A 
ATOM     47  C   UNL A   1      39.592  32.620  30.374  1.00  0.00     0.074 A 
ATOM     48  C   UNL A   1      45.870  32.179  29.482  1.00  0.00     0.029 A 
ATOM     49  N   UNL A   1      43.683  31.786  29.547  1.00  0.00    -0.354 N 
ATOM     50  N   UNL A   1      40.866  32.460  30.110  1.00  0.00    -0.248 NA
ATOM     51  C   UNL A   1      39.283  33.851  31.115  1.00  0.00     0.031 C 
ATOM     52  C   UNL A   1      45.237  33.284  30.062  1.00  0.00     0.029 A 
ATOM     53  C   UNL A   1      43.872  33.042  30.095  1.00  0.00     0.049 A 
ATOM     54  H   UNL A   1      42.810  31.344  29.436  1.00  0.00     0.167 HD
ATOM     55  C   UNL A   1      41.507  33.584  30.616  1.00  0.00     0.074 A 
ATOM     56  C   UNL A   1      40.477  34.424  31.195  1.00  0.00     0.031 C 
ATOM     57  C   UNL A   1      42.827  33.889  30.613  1.00  0.00     0.034 A 
BRANCH  44  58
ATOM     58  C   UNL A   1      46.475  29.459  28.310  1.00  0.00     0.023 A 
ATOM     59  C   UNL A   1      47.160  29.940  27.177  1.00  0.00     0.012 A 
ATOM     60  C   UNL A   1      47.131  28.578  29.193  1.00  0.00     0.148 A 
ATOM     61  C   UNL A   1      48.466  29.528  26.910  1.00  0.00     0.002 A 
ATOM     62  C   UNL A   1      48.446  28.203  28.941  1.00  0.00     0.091 A 
ATOM     63  F   UNL A   1      46.455  28.111  30.253  1.00  0.00    -0.205 F 
ATOM     64  C   UNL A   1      49.111  28.669  27.796  1.00  0.00     0.022 A 
BRANCH  62  65
ATOM     65  S   UNL A   1      49.378  27.155  30.064  1.00  0.00     0.127 S 
ATOM     66  O   UNL A   1      49.392  27.964  31.280  1.00  0.00    -0.237 OA
ATOM     67  O   UNL A   1      48.542  25.956  30.139  1.00  0.00    -0.237 OA
ATOM     68  O   UNL A   1      50.673  26.946  29.429  1.00  0.00    -0.744 OA
ENDBRANCH  62  65
ENDBRANCH  44  58
BRANCH  45  69
ATOM     69  C   UNL A   1      37.031  32.125  30.328  1.00  0.00     0.023 A 
ATOM     70  C   UNL A   1      36.515  31.841  31.607  1.00  0.00     0.012 A 
ATOM     71  C   UNL A   1      36.225  32.812  29.399  1.00  0.00     0.148 A 
ATOM     72  C   UNL A   1      35.217  32.219  31.950  1.00  0.00     0.002 A 
ATOM     73  C   UNL A   1      34.951  33.232  29.764  1.00  0.00     0.091 A 
ATOM     74  F   UNL A   1      36.727  33.056  28.180  1.00  0.00    -0.205 F 
ATOM     75  C   UNL A   1      34.440  32.924  31.035  1.00  0.00     0.022 A 
BRANCH  73  76
ATOM     76  S   UNL A   1      33.930  34.254  28.696  1.00  0.00     0.127 S 
ATOM     77  O   UNL A   1      33.559  33.310  27.645  1.00  0.00    -0.237 OA
ATOM     78  O   UNL A   1      32.840  34.637  29.594  1.00  0.00    -0.237 OA
ATOM     79  O   UNL A   1      34.782  35.361  28.281  1.00  0.00    -0.744 OA
ENDBRANCH  73  76
ENDBRANCH  45  69
BRANCH  57  80
ATOM     80  C   UNL A   1      43.241  35.204  31.216  1.00  0.00     0.023 A 
ATOM     81  C   UNL A   1      43.551  35.278  32.588  1.00  0.00     0.012 A 
ATOM     82  C   UNL A   1      43.414  36.342  30.403  1.00  0.00     0.148 A 
ATOM     83  C   UNL A   1      44.008  36.471  33.147  1.00  0.00     0.002 A 
ATOM     84  C   UNL A   1      43.913  37.514  30.957  1.00  0.00     0.091 A 
ATOM     85  F   UNL A   1      43.094  36.254  29.103  1.00  0.00    -0.205 F 
ATOM     86  C   UNL A   1      44.200  37.583  32.330  1.00  0.00     0.022 A 
BRANCH  84  87
ATOM     87  S   UNL A   1      44.284  38.966  29.967  1.00  0.00     0.127 S 
ATOM     88  O   UNL A   1      44.800  39.891  30.976  1.00  0.00    -0.237 OA
ATOM     89  O   UNL A   1      45.290  38.458  29.035  1.00  0.00    -0.237 OA
ATOM     90  O   UNL A   1      43.028  39.361  29.344  1.00  0.00    -0.744 OA
ENDBRANCH  84  87
ENDBRANCH  57  80
ENDBRANCH  31  32
ENDBRANCH  24  26
ENDBRANCH  23  24
ENDBRANCH  22  23
ENDBRANCH  21  22
ENDBRANCH   1  21
TORSDOF 21
ENDMDL
MODEL 3
REMARK VINA RESULT:      -8.9      5.650      9.775
REMARK SMILES CCCCOc1ccccc1C[C@@H]([NH3+])C(=O)OCCOC(=O)c1ccc(-c2c3nc(c(-c4cccc(S(=O)(=O)[O-])c4F)c4ccc([nH]4)c(-c4cccc(S(=O)(=O)[O-])c4F)c4nc(c(-c5cccc(S(=O)(=O)[O-])c5F)c5ccc2[nH]5)C=C4)C=C3)cc1
REMARK SMILES IDX 17 1 15 2 16 3 13 4 12 5 11 6 6 7 7 8 8 9 10 10 9 11 5 12
REMARK SMILES IDX 4 13 3 14 2 15 1 16 14 17 18 21 19 22 20 23 21 24 22 25
REMARK SMILES IDX 23 26 24 27 85 28 25 29 84 30 26 31 27 32 28 33 78 34 29 35
REMARK SMILES IDX 83 36 77 37 79 38 30 39 82 40 76 41 75 42 31 44 63 45 43 46
REMARK SMILES IDX 62 47 44 48 47 49 61 50 80 51 45 52 46 53 60 55 81 56 48 57
REMARK SMILES IDX 32 58 33 59 41 60 34 61 36 62 42 63 35 64 37 65 38 66 39 67
REMARK SMILES IDX 40 68 64 69 65 70 73 71 66 72 68 73 74 74 67 75 69 76 70 77
REMARK SMILES IDX 71 78 72 79 49 80 50 81 58 82 51 83 53 84 59 85 52 86 54 87
REMARK SMILES IDX 55 88 56 89 57 90
REMARK H PARENT 14 18 14 19 14 20 79 43 47 54
REMARK Flexibility Score: inf
ROOT
ATOM      1  O   UNL A   1      34.235  21.473  25.057  1.00  0.00    -0.458 OA
ENDROOT
BRANCH   1   2
ATOM      2  C   UNL A   1      33.794  21.817  26.298  1.00  0.00     0.365 C 
ATOM      3  O   UNL A   1      34.095  21.227  27.331  1.00  0.00    -0.245 OA
BRANCH   2   4
ATOM      4  C   UNL A   1      32.781  22.988  26.295  1.00  0.00     0.296 C 
BRANCH   4   5
ATOM      5  C   UNL A   1      33.127  24.059  25.245  1.00  0.00     0.116 C 
BRANCH   5   6
ATOM      6  C   UNL A   1      32.857  25.516  25.590  1.00  0.00     0.001 A 
ATOM      7  C   UNL A   1      31.552  26.047  25.602  1.00  0.00     0.122 A 
ATOM      8  C   UNL A   1      31.319  27.379  25.967  1.00  0.00     0.047 A 
ATOM      9  C   UNL A   1      32.372  28.177  26.404  1.00  0.00     0.004 A 
ATOM     10  C   UNL A   1      33.899  26.335  26.052  1.00  0.00     0.008 A 
ATOM     11  C   UNL A   1      33.659  27.651  26.456  1.00  0.00     0.001 A 
BRANCH   7  12
ATOM     12  O   UNL A   1      30.506  25.237  25.242  1.00  0.00    -0.493 OA
BRANCH  12  13
ATOM     13  C   UNL A   1      29.892  25.613  23.996  1.00  0.00     0.229 C 
BRANCH  13  14
ATOM     14  C   UNL A   1      30.715  25.072  22.824  1.00  0.00     0.041 C 
BRANCH  14  15
ATOM     15  C   UNL A   1      31.511  26.165  22.098  1.00  0.00     0.000 C 
ATOM     16  C   UNL A   1      32.708  25.624  21.337  1.00  0.00     0.004 C 
ENDBRANCH  14  15
ENDBRANCH  13  14
ENDBRANCH  12  13
ENDBRANCH   7  12
ENDBRANCH   5   6
ENDBRANCH   4   5
BRANCH   4  17
ATOM     17  N   UNL A   1      31.418  22.413  26.148  1.00  0.00    -0.346 N 
ATOM     18  H   UNL A   1      31.472  21.537  25.629  1.00  0.00     0.345 HD
ATOM     19  H   UNL A   1      30.824  23.071  25.643  1.00  0.00     0.345 HD
ATOM     20  H   UNL A   1      31.023  22.237  27.072  1.00  0.00     0.345 HD
ENDBRANCH   4  17
ENDBRANCH   2   4
ENDBRANCH   1   2
BRANCH   1  21
ATOM     21  C   UNL A   1      35.142  20.356  24.980  1.00  0.00     0.274 C 
BRANCH  21  22
ATOM     22  C   UNL A   1      36.571  20.804  24.662  1.00  0.00     0.275 C 
BRANCH  22  23
ATOM     23  O   UNL A   1      37.137  21.558  25.749  1.00  0.00    -0.458 OA
BRANCH  23  24
ATOM     24  C   UNL A   1      38.435  21.276  25.991  1.00  0.00     0.338 C 
ATOM     25  O   UNL A   1      39.004  20.217  25.763  1.00  0.00    -0.246 OA
BRANCH  24  26
ATOM     26  C   UNL A   1      39.147  22.459  26.474  1.00  0.00     0.060 A 
ATOM     27  C   UNL A   1      38.652  23.718  26.126  1.00  0.00     0.016 A 
ATOM     28  C   UNL A   1      40.347  22.331  27.172  1.00  0.00     0.016 A 
ATOM     29  C   UNL A   1      39.346  24.867  26.493  1.00  0.00     0.010 A 
ATOM     30  C   UNL A   1      41.044  23.484  27.540  1.00  0.00     0.010 A 
ATOM     31  C   UNL A   1      40.547  24.756  27.203  1.00  0.00    -0.014 A 
BRANCH  31  32
ATOM     32  C   UNL A   1      41.285  25.971  27.616  1.00  0.00     0.031 A 
ATOM     33  C   UNL A   1      40.593  27.040  28.407  1.00  0.00     0.074 A 
ATOM     34  C   UNL A   1      42.563  26.122  27.224  1.00  0.00     0.049 A 
ATOM     35  N   UNL A   1      41.032  28.222  28.752  1.00  0.00    -0.248 NA
ATOM     36  C   UNL A   1      39.229  26.744  28.870  1.00  0.00     0.031 C 
ATOM     37  C   UNL A   1      43.332  25.133  26.465  1.00  0.00     0.029 A 
ATOM     38  N   UNL A   1      43.430  27.172  27.382  1.00  0.00    -0.354 N 
ATOM     39  C   UNL A   1      39.984  28.833  29.428  1.00  0.00     0.074 A 
ATOM     40  C   UNL A   1      38.890  27.884  29.456  1.00  0.00     0.031 C 
ATOM     41  C   UNL A   1      44.549  25.632  26.205  1.00  0.00     0.029 A 
ATOM     42  C   UNL A   1      44.630  26.989  26.737  1.00  0.00     0.049 A 
ATOM     43  H   UNL A   1      43.214  27.977  27.906  1.00  0.00     0.167 HD
ATOM     44  C   UNL A   1      39.944  30.070  29.978  1.00  0.00     0.034 A 
ATOM     45  C   UNL A   1      45.664  27.835  26.565  1.00  0.00     0.034 A 
ATOM     46  C   UNL A   1      41.052  30.988  29.969  1.00  0.00     0.049 A 
ATOM     47  C   UNL A   1      45.581  29.213  27.162  1.00  0.00     0.074 A 
ATOM     48  C   UNL A   1      41.136  32.242  30.549  1.00  0.00     0.029 A 
ATOM     49  N   UNL A   1      42.267  30.756  29.342  1.00  0.00    -0.354 N 
ATOM     50  N   UNL A   1      44.624  29.740  27.886  1.00  0.00    -0.248 NA
ATOM     51  C   UNL A   1      46.725  30.106  26.934  1.00  0.00     0.031 C 
ATOM     52  C   UNL A   1      42.393  32.777  30.250  1.00  0.00     0.029 A 
ATOM     53  C   UNL A   1      43.102  31.848  29.504  1.00  0.00     0.049 A 
ATOM     54  H   UNL A   1      42.501  29.934  28.852  1.00  0.00     0.167 HD
ATOM     55  C   UNL A   1      45.063  31.011  28.233  1.00  0.00     0.074 A 
ATOM     56  C   UNL A   1      46.379  31.171  27.646  1.00  0.00     0.031 C 
ATOM     57  C   UNL A   1      44.432  31.964  28.961  1.00  0.00     0.034 A 
BRANCH  44  58
ATOM     58  C   UNL A   1      38.666  30.501  30.648  1.00  0.00     0.023 A 
ATOM     59  C   UNL A   1      38.420  30.134  31.986  1.00  0.00     0.012 A 
ATOM     60  C   UNL A   1      37.734  31.313  29.972  1.00  0.00     0.148 A 
ATOM     61  C   UNL A   1      37.252  30.543  32.630  1.00  0.00     0.002 A 
ATOM     62  C   UNL A   1      36.592  31.748  30.632  1.00  0.00     0.091 A 
ATOM     63  F   UNL A   1      37.974  31.632  28.691  1.00  0.00    -0.205 F 
ATOM     64  C   UNL A   1      36.345  31.357  31.958  1.00  0.00     0.022 A 
BRANCH  62  65
ATOM     65  S   UNL A   1      35.403  32.857  29.867  1.00  0.00     0.127 S 
ATOM     66  O   UNL A   1      34.631  31.935  29.036  1.00  0.00    -0.237 OA
ATOM     67  O   UNL A   1      34.679  33.385  31.025  1.00  0.00    -0.237 OA
ATOM     68  O   UNL A   1      36.190  33.848  29.147  1.00  0.00    -0.744 OA
ENDBRANCH  62  65
ENDBRANCH  44  58
BRANCH  45  69
ATOM     69  C   UNL A   1      46.877  27.381  25.831  1.00  0.00     0.023 A 
ATOM     70  C   UNL A   1      46.987  27.651  24.453  1.00  0.00     0.012 A 
ATOM     71  C   UNL A   1      47.939  26.731  26.490  1.00  0.00     0.148 A 
ATOM     72  C   UNL A   1      48.124  27.267  23.742  1.00  0.00     0.002 A 
ATOM     73  C   UNL A   1      49.091  26.397  25.787  1.00  0.00     0.091 A 
ATOM     74  F   UNL A   1      47.808  26.466  27.798  1.00  0.00    -0.205 F 
ATOM     75  C   UNL A   1      49.180  26.652  24.410  1.00  0.00     0.022 A 
BRANCH  73  76
ATOM     76  S   UNL A   1      50.549  25.720  26.590  1.00  0.00     0.127 S 
ATOM     77  O   UNL A   1      50.909  26.795  27.511  1.00  0.00    -0.237 OA
ATOM     78  O   UNL A   1      50.013  24.517  27.228  1.00  0.00    -0.237 OA
ATOM     79  O   UNL A   1      51.501  25.458  25.519  1.00  0.00    -0.744 OA
ENDBRANCH  73  76
ENDBRANCH  45  69
BRANCH  57  80
ATOM     80  C   UNL A   1      45.165  33.256  29.206  1.00  0.00     0.023 A 
ATOM     81  C   UNL A   1      45.959  33.401  30.359  1.00  0.00     0.012 A 
ATOM     82  C   UNL A   1      45.142  34.286  28.244  1.00  0.00     0.148 A 
ATOM     83  C   UNL A   1      46.703  34.563  30.564  1.00  0.00     0.002 A 
ATOM     84  C   UNL A   1      45.922  35.420  28.432  1.00  0.00     0.091 A 
ATOM     85  F   UNL A   1      44.365  34.133  27.162  1.00  0.00    -0.205 F 
ATOM     86  C   UNL A   1      46.695  35.565  29.596  1.00  0.00     0.022 A 
BRANCH  84  87
ATOM     87  S   UNL A   1      46.049  36.717  27.196  1.00  0.00     0.127 S 
ATOM     88  O   UNL A   1      46.437  35.960  26.007  1.00  0.00    -0.237 OA
ATOM     89  O   UNL A   1      44.686  37.250  27.163  1.00  0.00    -0.237 OA
ATOM     90  O   UNL A   1      47.050  37.651  27.695  1.00  0.00    -0.744 OA
ENDBRANCH  84  87
ENDBRANCH  57  80
ENDBRANCH  31  32
ENDBRANCH  24  26
ENDBRANCH  23  24
ENDBRANCH  22  23
ENDBRANCH  21  22
ENDBRANCH   1  21
TORSDOF 21
ENDMDL
