MODEL 1
REMARK VINA RESULT:     -11.6      0.000      0.000
REMARK SMILES O=C(OCCOC(=O)c1ccc(-c2cccc(O)c2)cc1Cl)c1ccc(-c2c3nc(c(-c4cccc(S(=O)(=O)[O-])c4F)c4ccc([nH]4)c(-c4cccc(S(=O)(=O)[O-])c4F)c4nc(c(-c5cccc(S(=O)(=O)[O-])c5F)c5ccc2[nH]5)C=C4)C=C3)cc1
REMARK SMILES IDX 4 1 3 2 2 3 1 4 23 5 24 6 85 7 25 8 84 9 26 10 27 11 28 12
REMARK SMILES IDX 78 13 29 14 83 15 77 16 79 17 30 18 82 19 76 20 75 21 31 23
REMARK SMILES IDX 63 24 43 25 62 26 44 27 47 28 61 29 80 30 45 31 46 32 60 34
REMARK SMILES IDX 81 35 48 36 32 37 33 38 41 39 34 40 36 41 42 42 35 43 37 44
REMARK SMILES IDX 38 45 39 46 40 47 64 48 65 49 73 50 66 51 68 52 74 53 67 54
REMARK SMILES IDX 69 55 70 56 71 57 72 58 49 59 50 60 58 61 51 62 53 63 59 64
REMARK SMILES IDX 52 65 54 66 55 67 56 68 57 69 5 70 6 71 7 72 8 73 9 74 10 75
REMARK SMILES IDX 21 76 11 77 20 78 22 79 12 80 13 81 14 82 19 83 15 84 17 85
REMARK SMILES IDX 16 86 18 87
REMARK H PARENT 79 22 47 33 18 88
REMARK Flexibility Score: inf
ROOT
ATOM      1  C   UNL A   1      37.480  20.032  24.935  1.00  0.00     0.275 C 
ENDROOT
BRANCH   1   2
ATOM      2  O   UNL A   1      37.977  21.251  25.513  1.00  0.00    -0.458 OA
BRANCH   2   3
ATOM      3  C   UNL A   1      39.123  21.487  26.194  1.00  0.00     0.338 C 
ATOM      4  O   UNL A   1      39.760  20.523  26.618  1.00  0.00    -0.246 OA
BRANCH   3   5
ATOM      5  C   UNL A   1      39.601  22.854  26.575  1.00  0.00     0.060 A 
ATOM      6  C   UNL A   1      39.165  24.063  26.028  1.00  0.00     0.016 A 
ATOM      7  C   UNL A   1      40.599  22.906  27.566  1.00  0.00     0.016 A 
ATOM      8  C   UNL A   1      39.642  25.287  26.508  1.00  0.00     0.010 A 
ATOM      9  C   UNL A   1      41.076  24.125  28.053  1.00  0.00     0.010 A 
ATOM     10  C   UNL A   1      40.597  25.326  27.523  1.00  0.00    -0.014 A 
BRANCH  10  11
ATOM     11  C   UNL A   1      41.188  26.620  27.928  1.00  0.00     0.031 A 
ATOM     12  C   UNL A   1      42.645  26.853  27.669  1.00  0.00     0.074 A 
ATOM     13  C   UNL A   1      40.431  27.576  28.495  1.00  0.00     0.049 A 
ATOM     14  N   UNL A   1      43.354  27.929  27.878  1.00  0.00    -0.248 NA
ATOM     15  C   UNL A   1      43.397  25.740  27.064  1.00  0.00     0.031 C 
ATOM     16  C   UNL A   1      38.996  27.474  28.742  1.00  0.00     0.029 A 
ATOM     17  N   UNL A   1      40.764  28.809  28.994  1.00  0.00    -0.354 N 
ATOM     18  C   UNL A   1      44.627  27.631  27.415  1.00  0.00     0.074 A 
ATOM     19  C   UNL A   1      44.610  26.259  26.959  1.00  0.00     0.031 C 
ATOM     20  C   UNL A   1      38.584  28.556  29.425  1.00  0.00     0.029 A 
ATOM     21  C   UNL A   1      39.724  29.439  29.639  1.00  0.00     0.049 A 
ATOM     22  H   UNL A   1      41.659  29.207  28.898  1.00  0.00     0.167 HD
ATOM     23  C   UNL A   1      45.702  28.446  27.336  1.00  0.00     0.034 A 
ATOM     24  C   UNL A   1      39.701  30.598  30.324  1.00  0.00     0.034 A 
ATOM     25  C   UNL A   1      45.709  29.800  27.810  1.00  0.00     0.049 A 
ATOM     26  C   UNL A   1      40.942  31.451  30.316  1.00  0.00     0.074 A 
ATOM     27  C   UNL A   1      46.735  30.725  27.763  1.00  0.00     0.029 A 
ATOM     28  N   UNL A   1      44.638  30.415  28.443  1.00  0.00    -0.354 N 
ATOM     29  N   UNL A   1      42.097  31.215  29.742  1.00  0.00    -0.248 NA
ATOM     30  C   UNL A   1      40.859  32.757  30.983  1.00  0.00     0.031 C 
ATOM     31  C   UNL A   1      46.292  31.891  28.399  1.00  0.00     0.029 A 
ATOM     32  C   UNL A   1      44.982  31.701  28.814  1.00  0.00     0.049 A 
ATOM     33  H   UNL A   1      43.762  29.995  28.606  1.00  0.00     0.167 HD
ATOM     34  C   UNL A   1      42.856  32.363  29.922  1.00  0.00     0.074 A 
ATOM     35  C   UNL A   1      42.030  33.294  30.664  1.00  0.00     0.031 C 
ATOM     36  C   UNL A   1      44.120  32.627  29.505  1.00  0.00     0.034 A 
BRANCH  23  37
ATOM     37  C   UNL A   1      46.934  27.882  26.687  1.00  0.00     0.023 A 
ATOM     38  C   UNL A   1      47.935  27.297  27.491  1.00  0.00     0.012 A 
ATOM     39  C   UNL A   1      47.113  27.943  25.293  1.00  0.00     0.148 A 
ATOM     40  C   UNL A   1      49.113  26.817  26.922  1.00  0.00     0.002 A 
ATOM     41  C   UNL A   1      48.274  27.429  24.729  1.00  0.00     0.091 A 
ATOM     42  F   UNL A   1      46.161  28.527  24.552  1.00  0.00    -0.205 F 
ATOM     43  C   UNL A   1      49.280  26.878  25.541  1.00  0.00     0.022 A 
BRANCH  41  44
ATOM     44  S   UNL A   1      48.563  27.412  22.958  1.00  0.00     0.127 S 
ATOM     45  O   UNL A   1      49.922  27.946  22.875  1.00  0.00    -0.237 OA
ATOM     46  O   UNL A   1      48.448  25.987  22.642  1.00  0.00    -0.237 OA
ATOM     47  O   UNL A   1      47.527  28.251  22.372  1.00  0.00    -0.744 OA
ENDBRANCH  41  44
ENDBRANCH  23  37
BRANCH  24  48
ATOM     48  C   UNL A   1      38.454  31.046  31.006  1.00  0.00     0.023 A 
ATOM     49  C   UNL A   1      38.307  30.859  32.394  1.00  0.00     0.012 A 
ATOM     50  C   UNL A   1      37.415  31.667  30.285  1.00  0.00     0.148 A 
ATOM     51  C   UNL A   1      37.134  31.250  33.044  1.00  0.00     0.002 A 
ATOM     52  C   UNL A   1      36.266  32.090  30.945  1.00  0.00     0.091 A 
ATOM     53  F   UNL A   1      37.567  31.829  28.962  1.00  0.00    -0.205 F 
ATOM     54  C   UNL A   1      36.118  31.870  32.323  1.00  0.00     0.022 A 
BRANCH  52  55
ATOM     55  S   UNL A   1      34.947  32.980  30.110  1.00  0.00     0.127 S 
ATOM     56  O   UNL A   1      34.477  31.987  29.148  1.00  0.00    -0.237 OA
ATOM     57  O   UNL A   1      34.024  33.259  31.210  1.00  0.00    -0.237 OA
ATOM     58  O   UNL A   1      35.572  34.167  29.539  1.00  0.00    -0.744 OA
ENDBRANCH  52  55
ENDBRANCH  24  48
BRANCH  36  59
ATOM     59  C   UNL A   1      44.678  33.992  29.798  1.00  0.00     0.023 A 
ATOM     60  C   UNL A   1      45.418  34.211  30.976  1.00  0.00     0.012 A 
ATOM     61  C   UNL A   1      44.551  35.029  28.853  1.00  0.00     0.148 A 
ATOM     62  C   UNL A   1      46.003  35.452  31.221  1.00  0.00     0.002 A 
ATOM     63  C   UNL A   1      45.181  36.245  29.079  1.00  0.00     0.091 A 
ATOM     64  F   UNL A   1      43.823  34.803  27.750  1.00  0.00    -0.205 F 
ATOM     65  C   UNL A   1      45.897  36.463  30.267  1.00  0.00     0.022 A 
BRANCH  63  66
ATOM     66  S   UNL A   1      45.188  37.562  27.859  1.00  0.00     0.127 S 
ATOM     67  O   UNL A   1      43.774  37.926  27.804  1.00  0.00    -0.237 OA
ATOM     68  O   UNL A   1      46.053  38.562  28.486  1.00  0.00    -0.237 OA
ATOM     69  O   UNL A   1      45.732  36.976  26.641  1.00  0.00    -0.744 OA
ENDBRANCH  63  66
ENDBRANCH  36  59
ENDBRANCH  10  11
ENDBRANCH   3   5
ENDBRANCH   2   3
ENDBRANCH   1   2
BRANCH   1  70
ATOM     70  C   UNL A   1      35.961  19.869  24.987  1.00  0.00     0.275 C 
BRANCH  70  71
ATOM     71  O   UNL A   1      35.286  21.010  25.530  1.00  0.00    -0.458 OA
BRANCH  71  72
ATOM     72  C   UNL A   1      34.177  21.412  24.855  1.00  0.00     0.339 C 
ATOM     73  O   UNL A   1      33.427  20.707  24.199  1.00  0.00    -0.246 OA
BRANCH  72  74
ATOM     74  C   UNL A   1      33.905  22.827  25.152  1.00  0.00     0.078 A 
ATOM     75  C   UNL A   1      32.741  23.119  25.872  1.00  0.00     0.018 A 
ATOM     76  C   UNL A   1      34.749  23.861  24.751  1.00  0.00     0.056 A 
ATOM     77  C   UNL A   1      32.474  24.433  26.268  1.00  0.00     0.010 A 
ATOM     78  C   UNL A   1      34.457  25.179  25.130  1.00  0.00     0.030 A 
ATOM     79  Cl  UNL A   1      36.152  23.582  23.780  1.00  0.00    -0.083 Cl
ATOM     80  C   UNL A   1      33.337  25.486  25.925  1.00  0.00    -0.017 A 
BRANCH  80  81
ATOM     81  C   UNL A   1      33.086  26.867  26.390  1.00  0.00    -0.015 A 
ATOM     82  C   UNL A   1      31.825  27.255  26.871  1.00  0.00     0.009 A 
ATOM     83  C   UNL A   1      34.092  27.849  26.344  1.00  0.00     0.054 A 
ATOM     84  C   UNL A   1      31.577  28.566  27.292  1.00  0.00     0.004 A 
ATOM     85  C   UNL A   1      33.835  29.155  26.759  1.00  0.00     0.116 A 
ATOM     86  C   UNL A   1      32.586  29.522  27.240  1.00  0.00     0.046 A 
BRANCH  85  87
ATOM     87  O   UNL A   1      34.850  30.064  26.669  1.00  0.00    -0.508 OA
ATOM     88  H   UNL A   1      35.066  30.599  27.406  1.00  0.00     0.293 HD
ENDBRANCH  85  87
ENDBRANCH  80  81
ENDBRANCH  72  74
ENDBRANCH  71  72
ENDBRANCH  70  71
ENDBRANCH   1  70
TORSDOF 16
ENDMDL
MODEL 2
REMARK VINA RESULT:     -11.5      3.251      6.830
REMARK SMILES O=C(OCCOC(=O)c1ccc(-c2cccc(O)c2)cc1Cl)c1ccc(-c2c3nc(c(-c4cccc(S(=O)(=O)[O-])c4F)c4ccc([nH]4)c(-c4cccc(S(=O)(=O)[O-])c4F)c4nc(c(-c5cccc(S(=O)(=O)[O-])c5F)c5ccc2[nH]5)C=C4)C=C3)cc1
REMARK SMILES IDX 4 1 3 2 2 3 1 4 23 5 24 6 85 7 25 8 84 9 26 10 27 11 28 12
REMARK SMILES IDX 78 13 29 14 83 15 77 16 79 17 30 18 82 19 76 20 75 21 31 23
REMARK SMILES IDX 63 24 43 25 62 26 44 27 47 28 61 29 80 30 45 31 46 32 60 34
REMARK SMILES IDX 81 35 48 36 32 37 33 38 41 39 34 40 36 41 42 42 35 43 37 44
REMARK SMILES IDX 38 45 39 46 40 47 64 48 65 49 73 50 66 51 68 52 74 53 67 54
REMARK SMILES IDX 69 55 70 56 71 57 72 58 49 59 50 60 58 61 51 62 53 63 59 64
REMARK SMILES IDX 52 65 54 66 55 67 56 68 57 69 5 70 6 71 7 72 8 73 9 74 10 75
REMARK SMILES IDX 21 76 11 77 20 78 22 79 12 80 13 81 14 82 19 83 15 84 17 85
REMARK SMILES IDX 16 86 18 87
REMARK H PARENT 79 22 47 33 18 88
REMARK Flexibility Score: inf
ROOT
ATOM      1  C   UNL A   1      40.932  21.365  26.165  1.00  0.00     0.275 C 
ENDROOT
BRANCH   1   2
ATOM      2  O   UNL A   1      39.554  21.667  26.446  1.00  0.00    -0.458 OA
BRANCH   2   3
ATOM      3  C   UNL A   1      38.871  22.828  26.304  1.00  0.00     0.338 C 
ATOM      4  O   UNL A   1      37.897  22.844  25.551  1.00  0.00    -0.246 OA
BRANCH   3   5
ATOM      5  C   UNL A   1      39.301  24.129  26.907  1.00  0.00     0.060 A 
ATOM      6  C   UNL A   1      39.079  24.542  28.223  1.00  0.00     0.016 A 
ATOM      7  C   UNL A   1      39.975  25.016  26.047  1.00  0.00     0.016 A 
ATOM      8  C   UNL A   1      39.581  25.759  28.693  1.00  0.00     0.010 A 
ATOM      9  C   UNL A   1      40.484  26.231  26.512  1.00  0.00     0.010 A 
ATOM     10  C   UNL A   1      40.289  26.609  27.843  1.00  0.00    -0.014 A 
BRANCH  10  11
ATOM     11  C   UNL A   1      40.699  27.949  28.316  1.00  0.00     0.031 A 
ATOM     12  C   UNL A   1      42.162  28.260  28.403  1.00  0.00     0.074 A 
ATOM     13  C   UNL A   1      39.780  28.876  28.641  1.00  0.00     0.049 A 
ATOM     14  N   UNL A   1      42.744  29.382  28.725  1.00  0.00    -0.248 NA
ATOM     15  C   UNL A   1      43.092  27.174  28.048  1.00  0.00     0.031 C 
ATOM     16  C   UNL A   1      38.335  28.696  28.542  1.00  0.00     0.029 A 
ATOM     17  N   UNL A   1      39.921  30.143  29.146  1.00  0.00    -0.354 N 
ATOM     18  C   UNL A   1      44.105  29.147  28.593  1.00  0.00     0.074 A 
ATOM     19  C   UNL A   1      44.267  27.762  28.211  1.00  0.00     0.031 C 
ATOM     20  C   UNL A   1      37.717  29.774  29.055  1.00  0.00     0.029 A 
ATOM     21  C   UNL A   1      38.725  30.731  29.494  1.00  0.00     0.049 A 
ATOM     22  H   UNL A   1      40.792  30.590  29.249  1.00  0.00     0.167 HD
ATOM     23  C   UNL A   1      45.125  30.021  28.735  1.00  0.00     0.034 A 
ATOM     24  C   UNL A   1      38.480  31.908  30.099  1.00  0.00     0.034 A 
ATOM     25  C   UNL A   1      44.949  31.389  29.133  1.00  0.00     0.049 A 
ATOM     26  C   UNL A   1      39.641  32.833  30.347  1.00  0.00     0.074 A 
ATOM     27  C   UNL A   1      45.908  32.372  29.290  1.00  0.00     0.029 A 
ATOM     28  N   UNL A   1      43.728  31.959  29.463  1.00  0.00    -0.354 N 
ATOM     29  N   UNL A   1      40.911  32.648  30.077  1.00  0.00    -0.248 NA
ATOM     30  C   UNL A   1      39.334  34.154  30.913  1.00  0.00     0.031 C 
ATOM     31  C   UNL A   1      45.267  33.529  29.747  1.00  0.00     0.029 A 
ATOM     32  C   UNL A   1      43.907  33.275  29.844  1.00  0.00     0.049 A 
ATOM     33  H   UNL A   1      42.861  31.493  29.431  1.00  0.00     0.167 HD
ATOM     34  C   UNL A   1      41.546  33.845  30.380  1.00  0.00     0.074 A 
ATOM     35  C   UNL A   1      40.519  34.749  30.859  1.00  0.00     0.031 C 
ATOM     36  C   UNL A   1      42.858  34.170  30.265  1.00  0.00     0.034 A 
BRANCH  23  37
ATOM     37  C   UNL A   1      46.504  29.511  28.427  1.00  0.00     0.023 A 
ATOM     38  C   UNL A   1      47.062  29.747  27.153  1.00  0.00     0.012 A 
ATOM     39  C   UNL A   1      47.240  28.786  29.383  1.00  0.00     0.148 A 
ATOM     40  C   UNL A   1      48.316  29.237  26.821  1.00  0.00     0.002 A 
ATOM     41  C   UNL A   1      48.504  28.312  29.056  1.00  0.00     0.091 A 
ATOM     42  F   UNL A   1      46.678  28.551  30.577  1.00  0.00    -0.205 F 
ATOM     43  C   UNL A   1      49.039  28.525  27.774  1.00  0.00     0.022 A 
BRANCH  41  44
ATOM     44  S   UNL A   1      49.537  27.428  30.228  1.00  0.00     0.127 S 
ATOM     45  O   UNL A   1      48.776  26.195  30.423  1.00  0.00    -0.237 OA
ATOM     46  O   UNL A   1      50.782  27.264  29.476  1.00  0.00    -0.237 OA
ATOM     47  O   UNL A   1      49.643  28.286  31.400  1.00  0.00    -0.744 OA
ENDBRANCH  41  44
ENDBRANCH  23  37
BRANCH  24  48
ATOM     48  C   UNL A   1      37.084  32.303  30.441  1.00  0.00     0.023 A 
ATOM     49  C   UNL A   1      36.579  32.049  31.731  1.00  0.00     0.012 A 
ATOM     50  C   UNL A   1      36.257  32.940  29.494  1.00  0.00     0.148 A 
ATOM     51  C   UNL A   1      35.265  32.389  32.060  1.00  0.00     0.002 A 
ATOM     52  C   UNL A   1      34.963  33.312  29.841  1.00  0.00     0.091 A 
ATOM     53  F   UNL A   1      36.750  33.166  28.268  1.00  0.00    -0.205 F 
ATOM     54  C   UNL A   1      34.460  33.025  31.119  1.00  0.00     0.022 A 
BRANCH  52  55
ATOM     55  S   UNL A   1      33.888  34.218  28.721  1.00  0.00     0.127 S 
ATOM     56  O   UNL A   1      33.483  33.174  27.784  1.00  0.00    -0.237 OA
ATOM     57  O   UNL A   1      32.832  34.683  29.621  1.00  0.00    -0.237 OA
ATOM     58  O   UNL A   1      34.709  35.286  28.163  1.00  0.00    -0.744 OA
ENDBRANCH  52  55
ENDBRANCH  24  48
BRANCH  36  59
ATOM     59  C   UNL A   1      43.260  35.575  30.619  1.00  0.00     0.023 A 
ATOM     60  C   UNL A   1      43.688  35.876  31.926  1.00  0.00     0.012 A 
ATOM     61  C   UNL A   1      43.306  36.572  29.625  1.00  0.00     0.148 A 
ATOM     62  C   UNL A   1      44.133  37.157  32.245  1.00  0.00     0.002 A 
ATOM     63  C   UNL A   1      43.801  37.831  29.937  1.00  0.00     0.091 A 
ATOM     64  F   UNL A   1      42.872  36.267  28.393  1.00  0.00    -0.205 F 
ATOM     65  C   UNL A   1      44.204  38.130  31.249  1.00  0.00     0.022 A 
BRANCH  63  66
ATOM     66  S   UNL A   1      44.028  39.107  28.694  1.00  0.00     0.127 S 
ATOM     67  O   UNL A   1      44.591  40.197  29.485  1.00  0.00    -0.237 OA
ATOM     68  O   UNL A   1      44.968  38.474  27.768  1.00  0.00    -0.237 OA
ATOM     69  O   UNL A   1      42.707  39.357  28.131  1.00  0.00    -0.744 OA
ENDBRANCH  63  66
ENDBRANCH  36  59
ENDBRANCH  10  11
ENDBRANCH   3   5
ENDBRANCH   2   3
ENDBRANCH   1   2
BRANCH   1  70
ATOM     70  C   UNL A   1      41.853  21.380  27.385  1.00  0.00     0.275 C 
BRANCH  70  71
ATOM     71  O   UNL A   1      43.097  22.052  27.149  1.00  0.00    -0.458 OA
BRANCH  71  72
ATOM     72  C   UNL A   1      43.212  23.284  27.711  1.00  0.00     0.339 C 
ATOM     73  O   UNL A   1      42.474  23.777  28.549  1.00  0.00    -0.246 OA
BRANCH  72  74
ATOM     74  C   UNL A   1      44.472  23.907  27.276  1.00  0.00     0.078 A 
ATOM     75  C   UNL A   1      45.534  23.912  28.187  1.00  0.00     0.018 A 
ATOM     76  C   UNL A   1      44.639  24.478  26.015  1.00  0.00     0.056 A 
ATOM     77  C   UNL A   1      46.785  24.403  27.802  1.00  0.00     0.010 A 
ATOM     78  C   UNL A   1      45.891  24.994  25.649  1.00  0.00     0.030 A 
ATOM     79  Cl  UNL A   1      43.344  24.592  24.876  1.00  0.00    -0.083 Cl
ATOM     80  C   UNL A   1      46.996  24.933  26.519  1.00  0.00    -0.017 A 
BRANCH  80  81
ATOM     81  C   UNL A   1      48.331  25.401  26.092  1.00  0.00    -0.015 A 
ATOM     82  C   UNL A   1      48.508  26.092  24.883  1.00  0.00     0.009 A 
ATOM     83  C   UNL A   1      49.478  25.148  26.866  1.00  0.00     0.054 A 
ATOM     84  C   UNL A   1      49.773  26.519  24.463  1.00  0.00     0.004 A 
ATOM     85  C   UNL A   1      50.737  25.569  26.438  1.00  0.00     0.116 A 
ATOM     86  C   UNL A   1      50.894  26.260  25.244  1.00  0.00     0.046 A 
BRANCH  85  87
ATOM     87  O   UNL A   1      51.810  25.273  27.228  1.00  0.00    -0.508 OA
ATOM     88  H   UNL A   1      52.621  25.014  26.838  1.00  0.00     0.293 HD
ENDBRANCH  85  87
ENDBRANCH  80  81
ENDBRANCH  72  74
ENDBRANCH  71  72
ENDBRANCH  70  71
ENDBRANCH   1  70
TORSDOF 16
ENDMDL
MODEL 3
REMARK VINA RESULT:     -11.5      5.438     11.423
REMARK SMILES O=C(OCCOC(=O)c1ccc(-c2cccc(O)c2)cc1Cl)c1ccc(-c2c3nc(c(-c4cccc(S(=O)(=O)[O-])c4F)c4ccc([nH]4)c(-c4cccc(S(=O)(=O)[O-])c4F)c4nc(c(-c5cccc(S(=O)(=O)[O-])c5F)c5ccc2[nH]5)C=C4)C=C3)cc1
REMARK SMILES IDX 4 1 3 2 2 3 1 4 23 5 24 6 85 7 25 8 84 9 26 10 27 11 28 12
REMARK SMILES IDX 78 13 29 14 83 15 77 16 79 17 30 18 82 19 76 20 75 21 31 23
REMARK SMILES IDX 63 24 43 25 62 26 44 27 47 28 61 29 80 30 45 31 46 32 60 34
REMARK SMILES IDX 81 35 48 36 32 37 33 38 41 39 34 40 36 41 42 42 35 43 37 44
REMARK SMILES IDX 38 45 39 46 40 47 64 48 65 49 73 50 66 51 68 52 74 53 67 54
REMARK SMILES IDX 69 55 70 56 71 57 72 58 49 59 50 60 58 61 51 62 53 63 59 64
REMARK SMILES IDX 52 65 54 66 55 67 56 68 57 69 5 70 6 71 7 72 8 73 9 74 10 75
REMARK SMILES IDX 21 76 11 77 20 78 22 79 12 80 13 81 14 82 19 83 15 84 17 85
REMARK SMILES IDX 16 86 18 87
REMARK H PARENT 79 22 47 33 18 88
REMARK Flexibility Score: inf
ROOT
ATOM      1  C   UNL A   1      34.167  33.430  28.365  1.00  0.00     0.275 C 
ENDROOT
BRANCH   1   2
ATOM      2  O   UNL A   1      34.539  32.384  27.452  1.00  0.00    -0.458 OA
BRANCH   2   3
ATOM      3  C   UNL A   1      34.650  31.050  27.656  1.00  0.00     0.338 C 
ATOM      4  O   UNL A   1      33.662  30.344  27.452  1.00  0.00    -0.246 OA
BRANCH   3   5
ATOM      5  C   UNL A   1      35.862  30.392  28.237  1.00  0.00     0.060 A 
ATOM      6  C   UNL A   1      35.935  29.734  29.468  1.00  0.00     0.016 A 
ATOM      7  C   UNL A   1      37.038  30.471  27.467  1.00  0.00     0.016 A 
ATOM      8  C   UNL A   1      37.111  29.103  29.882  1.00  0.00     0.010 A 
ATOM      9  C   UNL A   1      38.216  29.837  27.873  1.00  0.00     0.010 A 
ATOM     10  C   UNL A   1      38.256  29.148  29.088  1.00  0.00    -0.014 A 
BRANCH  10  11
ATOM     11  C   UNL A   1      39.528  28.590  29.598  1.00  0.00     0.031 A 
ATOM     12  C   UNL A   1      40.187  29.260  30.764  1.00  0.00     0.074 A 
ATOM     13  C   UNL A   1      40.071  27.492  29.041  1.00  0.00     0.049 A 
ATOM     14  N   UNL A   1      41.263  28.907  31.413  1.00  0.00    -0.248 NA
ATOM     15  C   UNL A   1      39.530  30.469  31.291  1.00  0.00     0.031 C 
ATOM     16  C   UNL A   1      39.486  26.732  27.940  1.00  0.00     0.029 A 
ATOM     17  N   UNL A   1      41.247  26.839  29.303  1.00  0.00    -0.354 N 
ATOM     18  C   UNL A   1      41.402  29.835  32.434  1.00  0.00     0.074 A 
ATOM     19  C   UNL A   1      40.332  30.797  32.292  1.00  0.00     0.031 C 
ATOM     20  C   UNL A   1      40.344  25.771  27.558  1.00  0.00     0.029 A 
ATOM     21  C   UNL A   1      41.527  25.832  28.408  1.00  0.00     0.049 A 
ATOM     22  H   UNL A   1      41.835  27.067  30.059  1.00  0.00     0.167 HD
ATOM     23  C   UNL A   1      42.317  29.856  33.429  1.00  0.00     0.034 A 
ATOM     24  C   UNL A   1      42.618  25.050  28.292  1.00  0.00     0.034 A 
ATOM     25  C   UNL A   1      43.384  28.905  33.546  1.00  0.00     0.049 A 
ATOM     26  C   UNL A   1      43.681  25.156  29.352  1.00  0.00     0.074 A 
ATOM     27  C   UNL A   1      44.358  28.817  34.524  1.00  0.00     0.029 A 
ATOM     28  N   UNL A   1      43.633  27.889  32.635  1.00  0.00    -0.354 N 
ATOM     29  N   UNL A   1      43.722  25.945  30.399  1.00  0.00    -0.248 NA
ATOM     30  C   UNL A   1      44.811  24.221  29.261  1.00  0.00     0.031 C 
ATOM     31  C   UNL A   1      45.214  27.764  34.184  1.00  0.00     0.029 A 
ATOM     32  C   UNL A   1      44.756  27.178  33.012  1.00  0.00     0.049 A 
ATOM     33  H   UNL A   1      43.088  27.701  31.836  1.00  0.00     0.167 HD
ATOM     34  C   UNL A   1      44.842  25.562  31.124  1.00  0.00     0.074 A 
ATOM     35  C   UNL A   1      45.456  24.472  30.392  1.00  0.00     0.031 C 
ATOM     36  C   UNL A   1      45.316  26.061  32.293  1.00  0.00     0.034 A 
BRANCH  23  37
ATOM     37  C   UNL A   1      42.164  30.931  34.468  1.00  0.00     0.023 A 
ATOM     38  C   UNL A   1      41.409  30.669  35.631  1.00  0.00     0.012 A 
ATOM     39  C   UNL A   1      42.748  32.199  34.292  1.00  0.00     0.148 A 
ATOM     40  C   UNL A   1      41.204  31.664  36.584  1.00  0.00     0.002 A 
ATOM     41  C   UNL A   1      42.569  33.175  35.264  1.00  0.00     0.091 A 
ATOM     42  F   UNL A   1      43.438  32.433  33.167  1.00  0.00    -0.205 F 
ATOM     43  C   UNL A   1      41.788  32.915  36.404  1.00  0.00     0.022 A 
BRANCH  41  44
ATOM     44  S   UNL A   1      43.322  34.800  35.152  1.00  0.00     0.127 S 
ATOM     45  O   UNL A   1      44.742  34.463  35.056  1.00  0.00    -0.237 OA
ATOM     46  O   UNL A   1      42.735  35.325  33.919  1.00  0.00    -0.237 OA
ATOM     47  O   UNL A   1      42.931  35.510  36.362  1.00  0.00    -0.744 OA
ENDBRANCH  41  44
ENDBRANCH  23  37
BRANCH  24  48
ATOM     48  C   UNL A   1      42.722  24.062  27.182  1.00  0.00     0.023 A 
ATOM     49  C   UNL A   1      43.386  24.412  25.991  1.00  0.00     0.012 A 
ATOM     50  C   UNL A   1      42.172  22.770  27.305  1.00  0.00     0.148 A 
ATOM     51  C   UNL A   1      43.471  23.507  24.930  1.00  0.00     0.002 A 
ATOM     52  C   UNL A   1      42.294  21.860  26.261  1.00  0.00     0.091 A 
ATOM     53  F   UNL A   1      41.535  22.456  28.442  1.00  0.00    -0.205 F 
ATOM     54  C   UNL A   1      42.931  22.230  25.067  1.00  0.00     0.022 A 
BRANCH  52  55
ATOM     55  S   UNL A   1      41.710  20.164  26.387  1.00  0.00     0.127 S 
ATOM     56  O   UNL A   1      42.213  19.771  27.700  1.00  0.00    -0.237 OA
ATOM     57  O   UNL A   1      40.260  20.335  26.307  1.00  0.00    -0.237 OA
ATOM     58  O   UNL A   1      42.292  19.462  25.250  1.00  0.00    -0.744 OA
ENDBRANCH  52  55
ENDBRANCH  24  48
BRANCH  36  59
ATOM     59  C   UNL A   1      46.534  25.408  32.884  1.00  0.00     0.023 A 
ATOM     60  C   UNL A   1      47.814  25.925  32.606  1.00  0.00     0.012 A 
ATOM     61  C   UNL A   1      46.398  24.344  33.797  1.00  0.00     0.148 A 
ATOM     62  C   UNL A   1      48.944  25.374  33.208  1.00  0.00     0.002 A 
ATOM     63  C   UNL A   1      47.521  23.835  34.434  1.00  0.00     0.091 A 
ATOM     64  F   UNL A   1      45.170  23.855  34.030  1.00  0.00    -0.205 F 
ATOM     65  C   UNL A   1      48.797  24.341  34.132  1.00  0.00     0.022 A 
BRANCH  63  66
ATOM     66  S   UNL A   1      47.413  22.581  35.714  1.00  0.00     0.127 S 
ATOM     67  O   UNL A   1      46.486  23.200  36.659  1.00  0.00    -0.237 OA
ATOM     68  O   UNL A   1      46.867  21.437  34.983  1.00  0.00    -0.237 OA
ATOM     69  O   UNL A   1      48.772  22.390  36.203  1.00  0.00    -0.744 OA
ENDBRANCH  63  66
ENDBRANCH  36  59
ENDBRANCH  10  11
ENDBRANCH   3   5
ENDBRANCH   2   3
ENDBRANCH   1   2
BRANCH   1  70
ATOM     70  C   UNL A   1      35.341  34.169  29.008  1.00  0.00     0.275 C 
BRANCH  70  71
ATOM     71  O   UNL A   1      35.720  33.632  30.282  1.00  0.00    -0.458 OA
BRANCH  71  72
ATOM     72  C   UNL A   1      37.028  33.287  30.406  1.00  0.00     0.339 C 
ATOM     73  O   UNL A   1      37.796  32.999  29.502  1.00  0.00    -0.246 OA
BRANCH  72  74
ATOM     74  C   UNL A   1      37.452  33.459  31.805  1.00  0.00     0.078 A 
ATOM     75  C   UNL A   1      38.343  34.503  32.081  1.00  0.00     0.018 A 
ATOM     76  C   UNL A   1      37.006  32.638  32.839  1.00  0.00     0.056 A 
ATOM     77  C   UNL A   1      38.710  34.778  33.402  1.00  0.00     0.010 A 
ATOM     78  C   UNL A   1      37.403  32.906  34.156  1.00  0.00     0.030 A 
ATOM     79  Cl  UNL A   1      35.981  31.275  32.556  1.00  0.00    -0.083 Cl
ATOM     80  C   UNL A   1      38.230  34.001  34.468  1.00  0.00    -0.017 A 
BRANCH  80  81
ATOM     81  C   UNL A   1      38.572  34.325  35.869  1.00  0.00    -0.015 A 
ATOM     82  C   UNL A   1      38.082  33.555  36.936  1.00  0.00     0.009 A 
ATOM     83  C   UNL A   1      39.379  35.432  36.189  1.00  0.00     0.054 A 
ATOM     84  C   UNL A   1      38.385  33.870  38.265  1.00  0.00     0.004 A 
ATOM     85  C   UNL A   1      39.671  35.745  37.516  1.00  0.00     0.116 A 
ATOM     86  C   UNL A   1      39.186  34.969  38.559  1.00  0.00     0.046 A 
BRANCH  85  87
ATOM     87  O   UNL A   1      40.444  36.845  37.756  1.00  0.00    -0.508 OA
ATOM     88  H   UNL A   1      40.053  37.628  38.090  1.00  0.00     0.293 HD
ENDBRANCH  85  87
ENDBRANCH  80  81
ENDBRANCH  72  74
ENDBRANCH  71  72
ENDBRANCH  70  71
ENDBRANCH   1  70
TORSDOF 16
ENDMDL
