MODEL 1
REMARK VINA RESULT:     -12.8      0.000      0.000
REMARK SMILES N#Cc1ccccc1C[C@@H](NC(=O)OCC1c2ccccc2-c2ccccc21)C(=O)OCCOC(=O)c1ccc(-c2c3nc(c(-c4cccc(S(=O)(=O)[O-])c4F)c4ccc([nH]4)c(-c4cccc(S(=O)(=O)[O-])c4F)c4nc(c(-c5cccc(S(=O)(=O)[O-])c5F)c5ccc2[nH]5)C=C4)C=C3)cc1
REMARK SMILES IDX 32 1 31 2 29 3 30 4 10 5 9 6 8 7 3 8 4 9 5 10 7 11 6 12 2 13
REMARK SMILES IDX 1 14 11 15 12 16 13 18 14 19 15 20 16 21 17 22 28 23 18 24
REMARK SMILES IDX 22 25 23 26 27 27 19 28 21 29 24 30 26 31 20 32 25 33 33 34
REMARK SMILES IDX 34 35 35 36 36 37 37 38 38 39 99 40 39 41 98 42 40 43 41 44
REMARK SMILES IDX 42 45 92 46 43 47 97 48 91 49 93 50 44 51 96 52 90 53 89 54
REMARK SMILES IDX 45 56 77 57 57 58 76 59 58 60 61 61 75 62 94 63 59 64 60 65
REMARK SMILES IDX 74 67 95 68 62 69 46 70 47 71 55 72 48 73 50 74 56 75 49 76
REMARK SMILES IDX 51 77 52 78 53 79 54 80 78 81 79 82 87 83 80 84 82 85 88 86
REMARK SMILES IDX 81 87 83 88 84 89 85 90 86 91 63 92 64 93 72 94 65 95 67 96
REMARK SMILES IDX 73 97 66 98 68 99 69 100 70 101 71 102
REMARK H PARENT 11 17 93 55 61 66
REMARK Flexibility Score: inf
ROOT
ATOM      1  C   UNL A   1      31.771  28.821  27.050  1.00  0.00     0.274 C 
ENDROOT
BRANCH   1   2
ATOM      2  O   UNL A   1      32.785  27.800  27.001  1.00  0.00    -0.461 OA
BRANCH   2   3
ATOM      3  C   UNL A   1      32.669  26.908  25.973  1.00  0.00     0.329 C 
ATOM      4  O   UNL A   1      33.553  26.664  25.157  1.00  0.00    -0.250 OA
BRANCH   3   5
ATOM      5  C   UNL A   1      31.229  26.387  25.825  1.00  0.00     0.199 C 
BRANCH   5   6
ATOM      6  C   UNL A   1      30.805  26.048  24.377  1.00  0.00     0.074 C 
BRANCH   6   7
ATOM      7  C   UNL A   1      29.786  27.038  23.809  1.00  0.00    -0.028 A 
ATOM      8  C   UNL A   1      30.146  28.258  23.197  1.00  0.00     0.055 A 
ATOM      9  C   UNL A   1      29.148  29.166  22.794  1.00  0.00     0.020 A 
ATOM     10  C   UNL A   1      27.799  28.878  22.988  1.00  0.00     0.001 A 
ATOM     11  C   UNL A   1      28.413  26.741  23.921  1.00  0.00     0.005 A 
ATOM     12  C   UNL A   1      27.433  27.659  23.542  1.00  0.00     0.000 A 
BRANCH   8  13
ATOM     13  C   UNL A   1      31.510  28.626  22.916  1.00  0.00     0.099 C 
ATOM     14  N   UNL A   1      32.602  28.882  22.639  1.00  0.00    -0.192 NA
ENDBRANCH   8  13
ENDBRANCH   6   7
ENDBRANCH   5   6
BRANCH   5  15
ATOM     15  N   UNL A   1      30.909  25.324  26.785  1.00  0.00    -0.308 N 
ATOM     16  C   UNL A   1      30.705  24.003  26.515  1.00  0.00     0.407 C 
ATOM     17  H   UNL A   1      30.832  25.594  27.728  1.00  0.00     0.168 HD
ATOM     18  O   UNL A   1      30.024  23.295  27.242  1.00  0.00    -0.225 OA
BRANCH  16  19
ATOM     19  O   UNL A   1      31.466  23.583  25.485  1.00  0.00    -0.449 OA
BRANCH  19  20
ATOM     20  C   UNL A   1      32.681  22.891  25.790  1.00  0.00     0.248 C 
BRANCH  20  21
ATOM     21  C   UNL A   1      33.509  22.550  24.525  1.00  0.00     0.088 C 
ATOM     22  C   UNL A   1      35.007  22.700  24.768  1.00  0.00    -0.029 A 
ATOM     23  C   UNL A   1      33.400  21.044  24.318  1.00  0.00    -0.029 A 
ATOM     24  C   UNL A   1      35.765  23.860  24.795  1.00  0.00     0.005 A 
ATOM     25  C   UNL A   1      35.579  21.440  25.032  1.00  0.00    -0.014 A 
ATOM     26  C   UNL A   1      34.602  20.417  24.717  1.00  0.00    -0.014 A 
ATOM     27  C   UNL A   1      32.305  20.316  23.876  1.00  0.00     0.005 A 
ATOM     28  C   UNL A   1      37.078  23.774  25.255  1.00  0.00     0.000 A 
ATOM     29  C   UNL A   1      36.882  21.353  25.488  1.00  0.00     0.009 A 
ATOM     30  C   UNL A   1      34.703  19.037  24.705  1.00  0.00     0.009 A 
ATOM     31  C   UNL A   1      32.414  18.926  23.859  1.00  0.00     0.000 A 
ATOM     32  C   UNL A   1      37.621  22.533  25.629  1.00  0.00     0.001 A 
ATOM     33  C   UNL A   1      33.597  18.294  24.278  1.00  0.00     0.001 A 
ENDBRANCH  20  21
ENDBRANCH  19  20
ENDBRANCH  16  19
ENDBRANCH   5  15
ENDBRANCH   3   5
ENDBRANCH   2   3
ENDBRANCH   1   2
BRANCH   1  34
ATOM     34  C   UNL A   1      32.102  30.002  26.135  1.00  0.00     0.275 C 
BRANCH  34  35
ATOM     35  O   UNL A   1      33.470  30.423  26.266  1.00  0.00    -0.458 OA
BRANCH  35  36
ATOM     36  C   UNL A   1      33.682  31.382  27.200  1.00  0.00     0.338 C 
ATOM     37  O   UNL A   1      32.915  32.271  27.524  1.00  0.00    -0.246 OA
BRANCH  36  38
ATOM     38  C   UNL A   1      34.923  31.087  27.927  1.00  0.00     0.060 A 
ATOM     39  C   UNL A   1      35.923  32.064  27.964  1.00  0.00     0.016 A 
ATOM     40  C   UNL A   1      35.117  29.845  28.525  1.00  0.00     0.016 A 
ATOM     41  C   UNL A   1      37.120  31.820  28.619  1.00  0.00     0.010 A 
ATOM     42  C   UNL A   1      36.323  29.595  29.177  1.00  0.00     0.010 A 
ATOM     43  C   UNL A   1      37.326  30.580  29.227  1.00  0.00    -0.014 A 
BRANCH  43  44
ATOM     44  C   UNL A   1      38.615  30.288  29.884  1.00  0.00     0.031 A 
ATOM     45  C   UNL A   1      39.571  29.344  29.224  1.00  0.00     0.074 A 
ATOM     46  C   UNL A   1      38.891  30.840  31.078  1.00  0.00     0.049 A 
ATOM     47  N   UNL A   1      40.670  28.822  29.696  1.00  0.00    -0.248 NA
ATOM     48  C   UNL A   1      39.239  28.928  27.852  1.00  0.00     0.031 C 
ATOM     49  C   UNL A   1      38.044  31.807  31.780  1.00  0.00     0.029 A 
ATOM     50  N   UNL A   1      39.947  30.639  31.927  1.00  0.00    -0.354 N 
ATOM     51  C   UNL A   1      41.138  27.974  28.701  1.00  0.00     0.074 A 
ATOM     52  C   UNL A   1      40.201  28.051  27.600  1.00  0.00     0.031 C 
ATOM     53  C   UNL A   1      38.600  32.094  32.967  1.00  0.00     0.029 A 
ATOM     54  C   UNL A   1      39.806  31.289  33.131  1.00  0.00     0.049 A 
ATOM     55  H   UNL A   1      40.729  30.086  31.699  1.00  0.00     0.167 HD
ATOM     56  C   UNL A   1      42.250  27.203  28.710  1.00  0.00     0.034 A 
ATOM     57  C   UNL A   1      40.542  31.202  34.255  1.00  0.00     0.034 A 
ATOM     58  C   UNL A   1      43.170  27.149  29.816  1.00  0.00     0.049 A 
ATOM     59  C   UNL A   1      41.732  30.281  34.267  1.00  0.00     0.074 A 
ATOM     60  C   UNL A   1      44.345  26.428  29.923  1.00  0.00     0.029 A 
ATOM     61  N   UNL A   1      43.005  27.829  31.013  1.00  0.00    -0.354 N 
ATOM     62  N   UNL A   1      42.213  29.540  33.297  1.00  0.00    -0.248 NA
ATOM     63  C   UNL A   1      42.491  30.194  35.522  1.00  0.00     0.031 C 
ATOM     64  C   UNL A   1      44.868  26.641  31.202  1.00  0.00     0.029 A 
ATOM     65  C   UNL A   1      44.045  27.528  31.877  1.00  0.00     0.049 A 
ATOM     66  H   UNL A   1      42.258  28.438  31.220  1.00  0.00     0.167 HD
ATOM     67  C   UNL A   1      43.348  28.926  33.811  1.00  0.00     0.074 A 
ATOM     68  C   UNL A   1      43.492  29.396  35.175  1.00  0.00     0.031 C 
ATOM     69  C   UNL A   1      44.190  28.043  33.216  1.00  0.00     0.034 A 
BRANCH  56  70
ATOM     70  C   UNL A   1      42.521  26.359  27.493  1.00  0.00     0.023 A 
ATOM     71  C   UNL A   1      43.139  26.931  26.362  1.00  0.00     0.012 A 
ATOM     72  C   UNL A   1      42.178  24.992  27.474  1.00  0.00     0.148 A 
ATOM     73  C   UNL A   1      43.368  26.170  25.217  1.00  0.00     0.002 A 
ATOM     74  C   UNL A   1      42.455  24.228  26.347  1.00  0.00     0.091 A 
ATOM     75  F   UNL A   1      41.572  24.470  28.549  1.00  0.00    -0.205 F 
ATOM     76  C   UNL A   1      43.035  24.818  25.211  1.00  0.00     0.022 A 
BRANCH  74  77
ATOM     77  S   UNL A   1      42.137  22.463  26.272  1.00  0.00     0.127 S 
ATOM     78  O   UNL A   1      42.760  22.104  24.997  1.00  0.00    -0.237 OA
ATOM     79  O   UNL A   1      42.846  21.973  27.454  1.00  0.00    -0.237 OA
ATOM     80  O   UNL A   1      40.691  22.310  26.323  1.00  0.00    -0.744 OA
ENDBRANCH  74  77
ENDBRANCH  56  70
BRANCH  57  81
ATOM     81  C   UNL A   1      40.184  32.017  35.449  1.00  0.00     0.023 A 
ATOM     82  C   UNL A   1      40.902  33.197  35.715  1.00  0.00     0.012 A 
ATOM     83  C   UNL A   1      39.124  31.649  36.303  1.00  0.00     0.148 A 
ATOM     84  C   UNL A   1      40.593  33.983  36.825  1.00  0.00     0.002 A 
ATOM     85  C   UNL A   1      38.786  32.465  37.376  1.00  0.00     0.091 A 
ATOM     86  F   UNL A   1      38.459  30.516  36.038  1.00  0.00    -0.205 F 
ATOM     87  C   UNL A   1      39.530  33.623  37.649  1.00  0.00     0.022 A 
BRANCH  85  88
ATOM     88  S   UNL A   1      37.364  32.146  38.427  1.00  0.00     0.127 S 
ATOM     89  O   UNL A   1      36.340  32.980  37.804  1.00  0.00    -0.237 OA
ATOM     90  O   UNL A   1      37.179  30.705  38.249  1.00  0.00    -0.237 OA
ATOM     91  O   UNL A   1      37.765  32.542  39.770  1.00  0.00    -0.744 OA
ENDBRANCH  85  88
ENDBRANCH  57  81
BRANCH  69  92
ATOM     92  C   UNL A   1      45.365  27.552  34.020  1.00  0.00     0.023 A 
ATOM     93  C   UNL A   1      46.596  28.233  33.953  1.00  0.00     0.012 A 
ATOM     94  C   UNL A   1      45.219  26.468  34.907  1.00  0.00     0.148 A 
ATOM     95  C   UNL A   1      47.673  27.827  34.741  1.00  0.00     0.002 A 
ATOM     96  C   UNL A   1      46.279  26.102  35.728  1.00  0.00     0.091 A 
ATOM     97  F   UNL A   1      44.043  25.825  34.942  1.00  0.00    -0.205 F 
ATOM     98  C   UNL A   1      47.510  26.772  35.637  1.00  0.00     0.022 A 
BRANCH  96  99
ATOM     99  S   UNL A   1      46.136  24.824  36.982  1.00  0.00     0.127 S 
ATOM    100  O   UNL A   1      45.896  23.634  36.168  1.00  0.00    -0.237 OA
ATOM    101  O   UNL A   1      47.452  24.873  37.620  1.00  0.00    -0.237 OA
ATOM    102  O   UNL A   1      45.027  25.220  37.840  1.00  0.00    -0.744 OA
ENDBRANCH  96  99
ENDBRANCH  69  92
ENDBRANCH  43  44
ENDBRANCH  36  38
ENDBRANCH  35  36
ENDBRANCH  34  35
ENDBRANCH   1  34
TORSDOF 21
ENDMDL
MODEL 2
REMARK VINA RESULT:     -12.7      4.877      9.818
REMARK SMILES N#Cc1ccccc1C[C@@H](NC(=O)OCC1c2ccccc2-c2ccccc21)C(=O)OCCOC(=O)c1ccc(-c2c3nc(c(-c4cccc(S(=O)(=O)[O-])c4F)c4ccc([nH]4)c(-c4cccc(S(=O)(=O)[O-])c4F)c4nc(c(-c5cccc(S(=O)(=O)[O-])c5F)c5ccc2[nH]5)C=C4)C=C3)cc1
REMARK SMILES IDX 32 1 31 2 29 3 30 4 10 5 9 6 8 7 3 8 4 9 5 10 7 11 6 12 2 13
REMARK SMILES IDX 1 14 11 15 12 16 13 18 14 19 15 20 16 21 17 22 28 23 18 24
REMARK SMILES IDX 22 25 23 26 27 27 19 28 21 29 24 30 26 31 20 32 25 33 33 34
REMARK SMILES IDX 34 35 35 36 36 37 37 38 38 39 99 40 39 41 98 42 40 43 41 44
REMARK SMILES IDX 42 45 92 46 43 47 97 48 91 49 93 50 44 51 96 52 90 53 89 54
REMARK SMILES IDX 45 56 77 57 57 58 76 59 58 60 61 61 75 62 94 63 59 64 60 65
REMARK SMILES IDX 74 67 95 68 62 69 46 70 47 71 55 72 48 73 50 74 56 75 49 76
REMARK SMILES IDX 51 77 52 78 53 79 54 80 78 81 79 82 87 83 80 84 82 85 88 86
REMARK SMILES IDX 81 87 83 88 84 89 85 90 86 91 63 92 64 93 72 94 65 95 67 96
REMARK SMILES IDX 73 97 66 98 68 99 69 100 70 101 71 102
REMARK H PARENT 11 17 93 55 61 66
REMARK Flexibility Score: inf
ROOT
ATOM      1  C   UNL A   1      35.803  23.088  26.312  1.00  0.00     0.274 C 
ENDROOT
BRANCH   1   2
ATOM      2  O   UNL A   1      34.407  23.332  26.058  1.00  0.00    -0.461 OA
BRANCH   2   3
ATOM      3  C   UNL A   1      33.538  22.631  26.843  1.00  0.00     0.329 C 
ATOM      4  O   UNL A   1      33.653  22.486  28.057  1.00  0.00    -0.250 OA
BRANCH   3   5
ATOM      5  C   UNL A   1      32.499  21.864  26.007  1.00  0.00     0.199 C 
BRANCH   5   6
ATOM      6  C   UNL A   1      32.873  20.397  25.688  1.00  0.00     0.074 C 
BRANCH   6   7
ATOM      7  C   UNL A   1      32.526  19.993  24.253  1.00  0.00    -0.028 A 
ATOM      8  C   UNL A   1      32.511  18.654  23.806  1.00  0.00     0.055 A 
ATOM      9  C   UNL A   1      32.285  18.369  22.446  1.00  0.00     0.020 A 
ATOM     10  C   UNL A   1      32.073  19.394  21.526  1.00  0.00     0.001 A 
ATOM     11  C   UNL A   1      32.232  21.002  23.315  1.00  0.00     0.005 A 
ATOM     12  C   UNL A   1      32.036  20.710  21.965  1.00  0.00     0.000 A 
BRANCH   8  13
ATOM     13  C   UNL A   1      32.677  17.528  24.687  1.00  0.00     0.099 C 
ATOM     14  N   UNL A   1      32.750  16.607  25.381  1.00  0.00    -0.192 NA
ENDBRANCH   8  13
ENDBRANCH   6   7
ENDBRANCH   5   6
BRANCH   5  15
ATOM     15  N   UNL A   1      31.133  22.012  26.523  1.00  0.00    -0.308 N 
ATOM     16  C   UNL A   1      30.433  23.171  26.683  1.00  0.00     0.407 C 
ATOM     17  H   UNL A   1      30.671  21.182  26.783  1.00  0.00     0.168 HD
ATOM     18  O   UNL A   1      29.532  23.271  27.501  1.00  0.00    -0.225 OA
BRANCH  16  19
ATOM     19  O   UNL A   1      30.749  24.077  25.736  1.00  0.00    -0.449 OA
BRANCH  19  20
ATOM     20  C   UNL A   1      30.893  25.442  26.138  1.00  0.00     0.248 C 
BRANCH  20  21
ATOM     21  C   UNL A   1      32.305  26.008  25.842  1.00  0.00     0.088 C 
ATOM     22  C   UNL A   1      32.640  25.951  24.356  1.00  0.00    -0.029 A 
ATOM     23  C   UNL A   1      32.233  27.514  26.064  1.00  0.00    -0.029 A 
ATOM     24  C   UNL A   1      33.060  24.864  23.606  1.00  0.00     0.005 A 
ATOM     25  C   UNL A   1      32.415  27.210  23.765  1.00  0.00    -0.014 A 
ATOM     26  C   UNL A   1      32.202  28.182  24.819  1.00  0.00    -0.014 A 
ATOM     27  C   UNL A   1      32.139  28.200  27.266  1.00  0.00     0.005 A 
ATOM     28  C   UNL A   1      33.094  24.998  22.219  1.00  0.00     0.000 A 
ATOM     29  C   UNL A   1      32.449  27.345  22.388  1.00  0.00     0.009 A 
ATOM     30  C   UNL A   1      32.046  29.555  24.770  1.00  0.00     0.009 A 
ATOM     31  C   UNL A   1      31.988  29.585  27.212  1.00  0.00     0.000 A 
ATOM     32  C   UNL A   1      32.759  26.221  21.614  1.00  0.00     0.001 A 
ATOM     33  C   UNL A   1      31.932  30.254  25.977  1.00  0.00     0.001 A 
ENDBRANCH  20  21
ENDBRANCH  19  20
ENDBRANCH  16  19
ENDBRANCH   5  15
ENDBRANCH   3   5
ENDBRANCH   2   3
ENDBRANCH   1   2
BRANCH   1  34
ATOM     34  C   UNL A   1      36.273  21.762  25.708  1.00  0.00     0.275 C 
BRANCH  34  35
ATOM     35  O   UNL A   1      37.553  21.883  25.063  1.00  0.00    -0.458 OA
BRANCH  35  36
ATOM     36  C   UNL A   1      38.601  21.434  25.795  1.00  0.00     0.338 C 
ATOM     37  O   UNL A   1      39.012  20.289  25.860  1.00  0.00    -0.246 OA
BRANCH  36  38
ATOM     38  C   UNL A   1      39.319  22.579  26.370  1.00  0.00     0.060 A 
ATOM     39  C   UNL A   1      39.056  23.855  25.861  1.00  0.00     0.016 A 
ATOM     40  C   UNL A   1      40.273  22.391  27.365  1.00  0.00     0.016 A 
ATOM     41  C   UNL A   1      39.727  24.962  26.357  1.00  0.00     0.010 A 
ATOM     42  C   UNL A   1      40.955  23.501  27.860  1.00  0.00     0.010 A 
ATOM     43  C   UNL A   1      40.684  24.788  27.359  1.00  0.00    -0.014 A 
BRANCH  43  44
ATOM     44  C   UNL A   1      41.443  25.949  27.861  1.00  0.00     0.031 A 
ATOM     45  C   UNL A   1      40.727  27.001  28.650  1.00  0.00     0.074 A 
ATOM     46  C   UNL A   1      42.750  26.063  27.570  1.00  0.00     0.049 A 
ATOM     47  N   UNL A   1      41.155  28.171  29.040  1.00  0.00    -0.248 NA
ATOM     48  C   UNL A   1      39.343  26.696  29.045  1.00  0.00     0.031 C 
ATOM     49  C   UNL A   1      43.546  25.068  26.848  1.00  0.00     0.029 A 
ATOM     50  N   UNL A   1      43.631  27.083  27.818  1.00  0.00    -0.354 N 
ATOM     51  C   UNL A   1      40.078  28.767  29.682  1.00  0.00     0.074 A 
ATOM     52  C   UNL A   1      38.977  27.829  29.628  1.00  0.00     0.031 C 
ATOM     53  C   UNL A   1      44.792  25.540  26.686  1.00  0.00     0.029 A 
ATOM     54  C   UNL A   1      44.862  26.889  27.239  1.00  0.00     0.049 A 
ATOM     55  H   UNL A   1      43.404  27.875  28.358  1.00  0.00     0.167 HD
ATOM     56  C   UNL A   1      40.019  29.987  30.264  1.00  0.00     0.034 A 
ATOM     57  C   UNL A   1      45.910  27.728  27.126  1.00  0.00     0.034 A 
ATOM     58  C   UNL A   1      41.131  30.900  30.311  1.00  0.00     0.049 A 
ATOM     59  C   UNL A   1      45.794  29.108  27.716  1.00  0.00     0.074 A 
ATOM     60  C   UNL A   1      41.195  32.149  30.901  1.00  0.00     0.029 A 
ATOM     61  N   UNL A   1      42.368  30.667  29.727  1.00  0.00    -0.354 N 
ATOM     62  N   UNL A   1      44.800  29.637  28.389  1.00  0.00    -0.248 NA
ATOM     63  C   UNL A   1      46.948  30.000  27.545  1.00  0.00     0.031 C 
ATOM     64  C   UNL A   1      42.459  32.688  30.637  1.00  0.00     0.029 A 
ATOM     65  C   UNL A   1      43.197  31.759  29.921  1.00  0.00     0.049 A 
ATOM     66  H   UNL A   1      42.620  29.846  29.245  1.00  0.00     0.167 HD
ATOM     67  C   UNL A   1      45.220  30.911  28.752  1.00  0.00     0.074 A 
ATOM     68  C   UNL A   1      46.567  31.066  28.237  1.00  0.00     0.031 C 
ATOM     69  C   UNL A   1      44.551  31.872  29.437  1.00  0.00     0.034 A 
BRANCH  56  70
ATOM     70  C   UNL A   1      38.710  30.399  30.886  1.00  0.00     0.023 A 
ATOM     71  C   UNL A   1      38.444  30.090  32.235  1.00  0.00     0.012 A 
ATOM     72  C   UNL A   1      37.749  31.107  30.137  1.00  0.00     0.148 A 
ATOM     73  C   UNL A   1      37.224  30.437  32.816  1.00  0.00     0.002 A 
ATOM     74  C   UNL A   1      36.556  31.493  30.737  1.00  0.00     0.091 A 
ATOM     75  F   UNL A   1      38.010  31.373  28.850  1.00  0.00    -0.205 F 
ATOM     76  C   UNL A   1      36.285  31.145  32.071  1.00  0.00     0.022 A 
BRANCH  74  77
ATOM     77  S   UNL A   1      35.319  32.477  29.886  1.00  0.00     0.127 S 
ATOM     78  O   UNL A   1      34.872  31.553  28.844  1.00  0.00    -0.237 OA
ATOM     79  O   UNL A   1      34.338  32.719  30.945  1.00  0.00    -0.237 OA
ATOM     80  O   UNL A   1      36.007  33.668  29.412  1.00  0.00    -0.744 OA
ENDBRANCH  74  77
ENDBRANCH  56  70
BRANCH  57  81
ATOM     81  C   UNL A   1      47.155  27.282  26.442  1.00  0.00     0.023 A 
ATOM     82  C   UNL A   1      47.367  27.642  25.098  1.00  0.00     0.012 A 
ATOM     83  C   UNL A   1      48.140  26.532  27.117  1.00  0.00     0.148 A 
ATOM     84  C   UNL A   1      48.522  27.240  24.428  1.00  0.00     0.002 A 
ATOM     85  C   UNL A   1      49.313  26.181  26.459  1.00  0.00     0.091 A 
ATOM     86  F   UNL A   1      47.915  26.191  28.393  1.00  0.00    -0.205 F 
ATOM     87  C   UNL A   1      49.499  26.519  25.110  1.00  0.00     0.022 A 
BRANCH  85  88
ATOM     88  S   UNL A   1      50.677  25.352  27.284  1.00  0.00     0.127 S 
ATOM     89  O   UNL A   1      51.117  26.372  28.232  1.00  0.00    -0.237 OA
ATOM     90  O   UNL A   1      50.005  24.200  27.886  1.00  0.00    -0.237 OA
ATOM     91  O   UNL A   1      51.630  25.016  26.236  1.00  0.00    -0.744 OA
ENDBRANCH  85  88
ENDBRANCH  57  81
BRANCH  69  92
ATOM     92  C   UNL A   1      45.272  33.167  29.706  1.00  0.00     0.023 A 
ATOM     93  C   UNL A   1      46.144  33.270  30.807  1.00  0.00     0.012 A 
ATOM     94  C   UNL A   1      45.152  34.249  28.812  1.00  0.00     0.148 A 
ATOM     95  C   UNL A   1      46.867  34.442  31.029  1.00  0.00     0.002 A 
ATOM     96  C   UNL A   1      45.915  35.393  29.009  1.00  0.00     0.091 A 
ATOM     97  F   UNL A   1      44.306  34.133  27.778  1.00  0.00    -0.205 F 
ATOM     98  C   UNL A   1      46.763  35.496  30.124  1.00  0.00     0.022 A 
BRANCH  96  99
ATOM     99  S   UNL A   1      45.927  36.762  27.846  1.00  0.00     0.127 S 
ATOM    100  O   UNL A   1      44.500  37.053  27.715  1.00  0.00    -0.237 OA
ATOM    101  O   UNL A   1      46.692  37.775  28.573  1.00  0.00    -0.237 OA
ATOM    102  O   UNL A   1      46.570  36.262  26.638  1.00  0.00    -0.744 OA
ENDBRANCH  96  99
ENDBRANCH  69  92
ENDBRANCH  43  44
ENDBRANCH  36  38
ENDBRANCH  35  36
ENDBRANCH  34  35
ENDBRANCH   1  34
TORSDOF 21
ENDMDL
MODEL 3
REMARK VINA RESULT:     -12.6      1.677      2.249
REMARK SMILES N#Cc1ccccc1C[C@@H](NC(=O)OCC1c2ccccc2-c2ccccc21)C(=O)OCCOC(=O)c1ccc(-c2c3nc(c(-c4cccc(S(=O)(=O)[O-])c4F)c4ccc([nH]4)c(-c4cccc(S(=O)(=O)[O-])c4F)c4nc(c(-c5cccc(S(=O)(=O)[O-])c5F)c5ccc2[nH]5)C=C4)C=C3)cc1
REMARK SMILES IDX 32 1 31 2 29 3 30 4 10 5 9 6 8 7 3 8 4 9 5 10 7 11 6 12 2 13
REMARK SMILES IDX 1 14 11 15 12 16 13 18 14 19 15 20 16 21 17 22 28 23 18 24
REMARK SMILES IDX 22 25 23 26 27 27 19 28 21 29 24 30 26 31 20 32 25 33 33 34
REMARK SMILES IDX 34 35 35 36 36 37 37 38 38 39 99 40 39 41 98 42 40 43 41 44
REMARK SMILES IDX 42 45 92 46 43 47 97 48 91 49 93 50 44 51 96 52 90 53 89 54
REMARK SMILES IDX 45 56 77 57 57 58 76 59 58 60 61 61 75 62 94 63 59 64 60 65
REMARK SMILES IDX 74 67 95 68 62 69 46 70 47 71 55 72 48 73 50 74 56 75 49 76
REMARK SMILES IDX 51 77 52 78 53 79 54 80 78 81 79 82 87 83 80 84 82 85 88 86
REMARK SMILES IDX 81 87 83 88 84 89 85 90 86 91 63 92 64 93 72 94 65 95 67 96
REMARK SMILES IDX 73 97 66 98 68 99 69 100 70 101 71 102
REMARK H PARENT 11 17 93 55 61 66
REMARK Flexibility Score: inf
ROOT
ATOM      1  C   UNL A   1      31.443  28.365  26.453  1.00  0.00     0.274 C 
ENDROOT
BRANCH   1   2
ATOM      2  O   UNL A   1      32.252  27.290  25.938  1.00  0.00    -0.461 OA
BRANCH   2   3
ATOM      3  C   UNL A   1      31.597  26.110  25.732  1.00  0.00     0.329 C 
ATOM      4  O   UNL A   1      30.393  25.941  25.899  1.00  0.00    -0.250 OA
BRANCH   3   5
ATOM      5  C   UNL A   1      32.573  24.952  25.460  1.00  0.00     0.199 C 
BRANCH   5   6
ATOM      6  C   UNL A   1      33.771  25.310  24.549  1.00  0.00     0.074 C 
BRANCH   6   7
ATOM      7  C   UNL A   1      33.458  25.139  23.061  1.00  0.00    -0.028 A 
ATOM      8  C   UNL A   1      33.271  26.224  22.177  1.00  0.00     0.055 A 
ATOM      9  C   UNL A   1      32.882  25.988  20.845  1.00  0.00     0.020 A 
ATOM     10  C   UNL A   1      32.678  24.691  20.378  1.00  0.00     0.001 A 
ATOM     11  C   UNL A   1      33.321  23.837  22.540  1.00  0.00     0.005 A 
ATOM     12  C   UNL A   1      32.909  23.616  21.225  1.00  0.00     0.000 A 
BRANCH   8  13
ATOM     13  C   UNL A   1      33.498  27.595  22.555  1.00  0.00     0.099 C 
ATOM     14  N   UNL A   1      33.619  28.708  22.840  1.00  0.00    -0.192 NA
ENDBRANCH   8  13
ENDBRANCH   6   7
ENDBRANCH   5   6
BRANCH   5  15
ATOM     15  N   UNL A   1      32.968  24.244  26.683  1.00  0.00    -0.308 N 
ATOM     16  C   UNL A   1      32.515  23.033  27.117  1.00  0.00     0.407 C 
ATOM     17  H   UNL A   1      33.633  24.692  27.253  1.00  0.00     0.168 HD
ATOM     18  O   UNL A   1      32.529  22.728  28.300  1.00  0.00    -0.225 OA
BRANCH  16  19
ATOM     19  O   UNL A   1      32.233  22.209  26.088  1.00  0.00    -0.449 OA
BRANCH  19  20
ATOM     20  C   UNL A   1      32.930  20.962  26.021  1.00  0.00     0.248 C 
BRANCH  20  21
ATOM     21  C   UNL A   1      33.568  20.707  24.631  1.00  0.00     0.088 C 
ATOM     22  C   UNL A   1      35.060  21.020  24.625  1.00  0.00    -0.029 A 
ATOM     23  C   UNL A   1      33.589  19.197  24.425  1.00  0.00    -0.029 A 
ATOM     24  C   UNL A   1      35.683  22.255  24.541  1.00  0.00     0.005 A 
ATOM     25  C   UNL A   1      35.800  19.830  24.772  1.00  0.00    -0.014 A 
ATOM     26  C   UNL A   1      34.901  18.706  24.611  1.00  0.00    -0.014 A 
ATOM     27  C   UNL A   1      32.521  18.353  24.161  1.00  0.00     0.005 A 
ATOM     28  C   UNL A   1      37.055  22.314  24.775  1.00  0.00     0.000 A 
ATOM     29  C   UNL A   1      37.163  19.888  25.005  1.00  0.00     0.009 A 
ATOM     30  C   UNL A   1      35.147  17.346  24.563  1.00  0.00     0.009 A 
ATOM     31  C   UNL A   1      32.774  16.983  24.107  1.00  0.00     0.000 A 
ATOM     32  C   UNL A   1      37.784  21.142  25.037  1.00  0.00     0.001 A 
ATOM     33  C   UNL A   1      34.072  16.484  24.316  1.00  0.00     0.001 A 
ENDBRANCH  20  21
ENDBRANCH  19  20
ENDBRANCH  16  19
ENDBRANCH   5  15
ENDBRANCH   3   5
ENDBRANCH   2   3
ENDBRANCH   1   2
BRANCH   1  34
ATOM     34  C   UNL A   1      31.731  29.690  25.745  1.00  0.00     0.275 C 
BRANCH  34  35
ATOM     35  O   UNL A   1      33.094  30.112  25.917  1.00  0.00    -0.458 OA
BRANCH  35  36
ATOM     36  C   UNL A   1      33.276  31.078  26.850  1.00  0.00     0.338 C 
ATOM     37  O   UNL A   1      32.464  31.913  27.209  1.00  0.00    -0.246 OA
BRANCH  36  38
ATOM     38  C   UNL A   1      34.558  30.861  27.532  1.00  0.00     0.060 A 
ATOM     39  C   UNL A   1      34.853  29.578  28.005  1.00  0.00     0.016 A 
ATOM     40  C   UNL A   1      35.436  31.918  27.745  1.00  0.00     0.016 A 
ATOM     41  C   UNL A   1      36.041  29.331  28.675  1.00  0.00     0.010 A 
ATOM     42  C   UNL A   1      36.628  31.675  28.425  1.00  0.00     0.010 A 
ATOM     43  C   UNL A   1      36.934  30.382  28.891  1.00  0.00    -0.014 A 
BRANCH  43  44
ATOM     44  C   UNL A   1      38.179  30.147  29.648  1.00  0.00     0.031 A 
ATOM     45  C   UNL A   1      39.219  29.236  29.074  1.00  0.00     0.074 A 
ATOM     46  C   UNL A   1      38.341  30.720  30.852  1.00  0.00     0.049 A 
ATOM     47  N   UNL A   1      40.298  28.762  29.634  1.00  0.00    -0.248 NA
ATOM     48  C   UNL A   1      39.010  28.795  27.685  1.00  0.00     0.031 C 
ATOM     49  C   UNL A   1      37.406  31.659  31.476  1.00  0.00     0.029 A 
ATOM     50  N   UNL A   1      39.336  30.570  31.782  1.00  0.00    -0.354 N 
ATOM     51  C   UNL A   1      40.874  27.925  28.688  1.00  0.00     0.074 A 
ATOM     52  C   UNL A   1      40.022  27.955  27.518  1.00  0.00     0.031 C 
ATOM     53  C   UNL A   1      37.858  31.979  32.698  1.00  0.00     0.029 A 
ATOM     54  C   UNL A   1      39.078  31.225  32.963  1.00  0.00     0.049 A 
ATOM     55  H   UNL A   1      40.155  30.046  31.620  1.00  0.00     0.167 HD
ATOM     56  C   UNL A   1      42.011  27.200  28.791  1.00  0.00     0.034 A 
ATOM     57  C   UNL A   1      39.729  31.177  34.141  1.00  0.00     0.034 A 
ATOM     58  C   UNL A   1      42.845  27.191  29.963  1.00  0.00     0.049 A 
ATOM     59  C   UNL A   1      40.950  30.304  34.254  1.00  0.00     0.074 A 
ATOM     60  C   UNL A   1      44.035  26.519  30.169  1.00  0.00     0.029 A 
ATOM     61  N   UNL A   1      42.563  27.876  31.137  1.00  0.00    -0.354 N 
ATOM     62  N   UNL A   1      41.532  29.574  33.333  1.00  0.00    -0.248 NA
ATOM     63  C   UNL A   1      41.613  30.259  35.565  1.00  0.00     0.031 C 
ATOM     64  C   UNL A   1      44.451  26.765  31.482  1.00  0.00     0.029 A 
ATOM     65  C   UNL A   1      43.544  27.624  32.081  1.00  0.00     0.049 A 
ATOM     66  H   UNL A   1      41.779  28.456  31.279  1.00  0.00     0.167 HD
ATOM     67  C   UNL A   1      42.647  29.010  33.939  1.00  0.00     0.074 A 
ATOM     68  C   UNL A   1      42.668  29.498  35.304  1.00  0.00     0.031 C 
ATOM     69  C   UNL A   1      43.566  28.156  33.421  1.00  0.00     0.034 A 
BRANCH  56  70
ATOM     70  C   UNL A   1      42.407  26.356  27.607  1.00  0.00     0.023 A 
ATOM     71  C   UNL A   1      43.178  26.916  26.569  1.00  0.00     0.012 A 
ATOM     72  C   UNL A   1      42.028  25.001  27.531  1.00  0.00     0.148 A 
ATOM     73  C   UNL A   1      43.526  26.157  25.453  1.00  0.00     0.002 A 
ATOM     74  C   UNL A   1      42.421  24.236  26.439  1.00  0.00     0.091 A 
ATOM     75  F   UNL A   1      41.278  24.490  28.516  1.00  0.00    -0.205 F 
ATOM     76  C   UNL A   1      43.156  24.816  25.392  1.00  0.00     0.022 A 
BRANCH  74  77
ATOM     77  S   UNL A   1      42.064  22.482  26.306  1.00  0.00     0.127 S 
ATOM     78  O   UNL A   1      42.805  22.120  25.098  1.00  0.00    -0.237 OA
ATOM     79  O   UNL A   1      42.632  21.957  27.549  1.00  0.00    -0.237 OA
ATOM     80  O   UNL A   1      40.616  22.371  26.206  1.00  0.00    -0.744 OA
ENDBRANCH  74  77
ENDBRANCH  56  70
BRANCH  57  81
ATOM     81  C   UNL A   1      39.249  31.987  35.295  1.00  0.00     0.023 A 
ATOM     82  C   UNL A   1      38.250  31.462  36.134  1.00  0.00     0.012 A 
ATOM     83  C   UNL A   1      39.792  33.256  35.582  1.00  0.00     0.148 A 
ATOM     84  C   UNL A   1      37.777  32.195  37.223  1.00  0.00     0.002 A 
ATOM     85  C   UNL A   1      39.354  33.958  36.699  1.00  0.00     0.091 A 
ATOM     86  F   UNL A   1      40.735  33.743  34.764  1.00  0.00    -0.205 F 
ATOM     87  C   UNL A   1      38.335  33.437  37.511  1.00  0.00     0.022 A 
BRANCH  85  88
ATOM     88  S   UNL A   1      40.091  35.513  37.218  1.00  0.00     0.127 S 
ATOM     89  O   UNL A   1      39.642  36.421  36.166  1.00  0.00    -0.237 OA
ATOM     90  O   UNL A   1      39.462  35.720  38.522  1.00  0.00    -0.237 OA
ATOM     91  O   UNL A   1      41.527  35.274  37.270  1.00  0.00    -0.744 OA
ENDBRANCH  85  88
ENDBRANCH  57  81
BRANCH  69  92
ATOM     92  C   UNL A   1      44.695  27.719  34.317  1.00  0.00     0.023 A 
ATOM     93  C   UNL A   1      45.823  28.547  34.481  1.00  0.00     0.012 A 
ATOM     94  C   UNL A   1      44.592  26.530  35.065  1.00  0.00     0.148 A 
ATOM     95  C   UNL A   1      46.845  28.183  35.358  1.00  0.00     0.002 A 
ATOM     96  C   UNL A   1      45.588  26.201  35.976  1.00  0.00     0.091 A 
ATOM     97  F   UNL A   1      43.516  25.751  34.881  1.00  0.00    -0.205 F 
ATOM     98  C   UNL A   1      46.721  27.019  36.114  1.00  0.00     0.022 A 
BRANCH  96  99
ATOM     99  S   UNL A   1      45.472  24.778  37.065  1.00  0.00     0.127 S 
ATOM    100  O   UNL A   1      46.875  24.390  37.199  1.00  0.00    -0.237 OA
ATOM    101  O   UNL A   1      44.883  25.362  38.271  1.00  0.00    -0.237 OA
ATOM    102  O   UNL A   1      44.625  23.810  36.380  1.00  0.00    -0.744 OA
ENDBRANCH  96  99
ENDBRANCH  69  92
ENDBRANCH  43  44
ENDBRANCH  36  38
ENDBRANCH  35  36
ENDBRANCH  34  35
ENDBRANCH   1  34
TORSDOF 21
ENDMDL
