MODEL 1
REMARK VINA RESULT:      -9.6      0.000      0.000
REMARK SMILES CC[C@@H](O)CC[C@H]([NH3+])C(=O)OCCOC(=O)c1ccc(-c2c3nc(c(-c4cccc(S(=O)(=O)[O-])c4F)c4ccc([nH]4)c(-c4cccc(S(=O)(=O)[O-])c4F)c4nc(c(-c5cccc(S(=O)(=O)[O-])c5F)c5ccc2[nH]5)C=C4)C=C3)cc1
REMARK SMILES IDX 12 1 11 2 9 3 10 4 7 5 6 6 5 7 3 8 2 9 1 10 4 11 8 13 13 17
REMARK SMILES IDX 14 18 15 19 16 20 17 21 18 22 79 23 19 24 78 25 20 26 21 27
REMARK SMILES IDX 22 28 72 29 23 30 77 31 71 32 73 33 24 34 76 35 70 36 69 37
REMARK SMILES IDX 25 39 57 40 37 41 56 42 38 43 41 44 55 45 74 46 39 47 40 48
REMARK SMILES IDX 54 50 75 51 42 52 26 53 27 54 35 55 28 56 30 57 36 58 29 59
REMARK SMILES IDX 31 60 32 61 33 62 34 63 58 64 59 65 67 66 60 67 62 68 68 69
REMARK SMILES IDX 61 70 63 71 64 72 65 73 66 74 43 75 44 76 52 77 45 78 47 79
REMARK SMILES IDX 53 80 46 81 48 82 49 83 50 84 51 85
REMARK H PARENT 4 12 8 14 8 15 8 16 73 38 41 49
REMARK Flexibility Score: inf
ROOT
ATOM      1  C   UNL A   1      42.597  19.913  26.358  1.00  0.00     0.274 C 
ENDROOT
BRANCH   1   2
ATOM      2  O   UNL A   1      43.081  19.774  25.010  1.00  0.00    -0.458 OA
BRANCH   2   3
ATOM      3  C   UNL A   1      44.384  19.408  24.857  1.00  0.00     0.364 C 
ATOM      4  O   UNL A   1      44.774  18.255  24.722  1.00  0.00    -0.245 OA
BRANCH   3   5
ATOM      5  C   UNL A   1      45.328  20.629  24.781  1.00  0.00     0.291 C 
BRANCH   5   6
ATOM      6  C   UNL A   1      44.675  21.771  23.994  1.00  0.00     0.080 C 
BRANCH   6   7
ATOM      7  C   UNL A   1      44.651  23.119  24.729  1.00  0.00     0.038 C 
BRANCH   7   8
ATOM      8  C   UNL A   1      45.921  23.971  24.666  1.00  0.00     0.114 C 
BRANCH   8   9
ATOM      9  C   UNL A   1      46.760  23.903  25.945  1.00  0.00     0.028 C 
ATOM     10  C   UNL A   1      45.961  23.378  27.130  1.00  0.00     0.006 C 
ENDBRANCH   8   9
BRANCH   8  11
ATOM     11  O   UNL A   1      46.700  23.478  23.571  1.00  0.00    -0.393 OA
ATOM     12  H   UNL A   1      46.306  23.776  22.736  1.00  0.00     0.210 HD
ENDBRANCH   8  11
ENDBRANCH   7   8
ENDBRANCH   6   7
ENDBRANCH   5   6
BRANCH   5  13
ATOM     13  N   UNL A   1      46.669  20.266  24.263  1.00  0.00    -0.346 N 
ATOM     14  H   UNL A   1      46.665  20.315  23.244  1.00  0.00     0.345 HD
ATOM     15  H   UNL A   1      46.901  19.318  24.557  1.00  0.00     0.345 HD
ATOM     16  H   UNL A   1      47.364  20.916  24.631  1.00  0.00     0.345 HD
ENDBRANCH   5  13
ENDBRANCH   3   5
ENDBRANCH   2   3
ENDBRANCH   1   2
BRANCH   1  17
ATOM     17  C   UNL A   1      41.096  19.610  26.408  1.00  0.00     0.275 C 
BRANCH  17  18
ATOM     18  O   UNL A   1      40.381  20.570  27.208  1.00  0.00    -0.458 OA
BRANCH  18  19
ATOM     19  C   UNL A   1      39.594  21.435  26.525  1.00  0.00     0.338 C 
ATOM     20  O   UNL A   1      38.599  21.173  25.870  1.00  0.00    -0.246 OA
BRANCH  19  21
ATOM     21  C   UNL A   1      40.027  22.812  26.806  1.00  0.00     0.060 A 
ATOM     22  C   UNL A   1      41.052  23.000  27.735  1.00  0.00     0.016 A 
ATOM     23  C   UNL A   1      39.409  23.909  26.208  1.00  0.00     0.016 A 
ATOM     24  C   UNL A   1      41.460  24.280  28.086  1.00  0.00     0.010 A 
ATOM     25  C   UNL A   1      39.842  25.199  26.536  1.00  0.00     0.010 A 
ATOM     26  C   UNL A   1      40.870  25.391  27.476  1.00  0.00    -0.014 A 
BRANCH  26  27
ATOM     27  C   UNL A   1      41.374  26.750  27.785  1.00  0.00     0.031 A 
ATOM     28  C   UNL A   1      42.798  27.116  27.499  1.00  0.00     0.074 A 
ATOM     29  C   UNL A   1      40.538  27.641  28.351  1.00  0.00     0.049 A 
ATOM     30  N   UNL A   1      43.441  28.214  27.802  1.00  0.00    -0.248 NA
ATOM     31  C   UNL A   1      43.611  26.121  26.779  1.00  0.00     0.031 C 
ATOM     32  C   UNL A   1      39.129  27.393  28.662  1.00  0.00     0.029 A 
ATOM     33  N   UNL A   1      40.757  28.923  28.789  1.00  0.00    -0.354 N 
ATOM     34  C   UNL A   1      44.742  28.027  27.355  1.00  0.00     0.074 A 
ATOM     35  C   UNL A   1      44.798  26.713  26.751  1.00  0.00     0.031 C 
ATOM     36  C   UNL A   1      38.614  28.480  29.258  1.00  0.00     0.029 A 
ATOM     37  C   UNL A   1      39.667  29.476  29.420  1.00  0.00     0.049 A 
ATOM     38  H   UNL A   1      41.609  29.400  28.663  1.00  0.00     0.167 HD
ATOM     39  C   UNL A   1      45.790  28.881  27.436  1.00  0.00     0.034 A 
ATOM     40  C   UNL A   1      39.541  30.634  30.093  1.00  0.00     0.034 A 
ATOM     41  C   UNL A   1      45.714  30.200  28.004  1.00  0.00     0.049 A 
ATOM     42  C   UNL A   1      40.730  31.548  30.195  1.00  0.00     0.074 A 
ATOM     43  C   UNL A   1      46.702  31.166  28.073  1.00  0.00     0.029 A 
ATOM     44  N   UNL A   1      44.588  30.737  28.610  1.00  0.00    -0.354 N 
ATOM     45  N   UNL A   1      41.925  31.403  29.677  1.00  0.00    -0.248 NA
ATOM     46  C   UNL A   1      40.552  32.787  30.964  1.00  0.00     0.031 C 
ATOM     47  C   UNL A   1      46.181  32.278  28.742  1.00  0.00     0.029 A 
ATOM     48  C   UNL A   1      44.863  32.011  29.077  1.00  0.00     0.049 A 
ATOM     49  H   UNL A   1      43.720  30.280  28.695  1.00  0.00     0.167 HD
ATOM     50  C   UNL A   1      42.639  32.536  30.044  1.00  0.00     0.074 A 
ATOM     51  C   UNL A   1      41.732  33.373  30.804  1.00  0.00     0.031 C 
ATOM     52  C   UNL A   1      43.936  32.846  29.797  1.00  0.00     0.034 A 
BRANCH  39  53
ATOM     53  C   UNL A   1      47.110  28.426  26.875  1.00  0.00     0.023 A 
ATOM     54  C   UNL A   1      48.177  28.141  27.749  1.00  0.00     0.012 A 
ATOM     55  C   UNL A   1      47.272  28.219  25.491  1.00  0.00     0.148 A 
ATOM     56  C   UNL A   1      49.395  27.675  27.253  1.00  0.00     0.002 A 
ATOM     57  C   UNL A   1      48.478  27.723  25.007  1.00  0.00     0.091 A 
ATOM     58  F   UNL A   1      46.254  28.522  24.674  1.00  0.00    -0.205 F 
ATOM     59  C   UNL A   1      49.541  27.457  25.886  1.00  0.00     0.022 A 
BRANCH  57  60
ATOM     60  S   UNL A   1      48.741  27.351  23.270  1.00  0.00     0.127 S 
ATOM     61  O   UNL A   1      47.893  28.350  22.623  1.00  0.00    -0.237 OA
ATOM     62  O   UNL A   1      50.178  27.581  23.118  1.00  0.00    -0.237 OA
ATOM     63  O   UNL A   1      48.328  25.966  23.091  1.00  0.00    -0.744 OA
ENDBRANCH  57  60
ENDBRANCH  39  53
BRANCH  40  64
ATOM     64  C   UNL A   1      38.236  30.989  30.716  1.00  0.00     0.023 A 
ATOM     65  C   UNL A   1      37.999  30.660  32.064  1.00  0.00     0.012 A 
ATOM     66  C   UNL A   1      37.250  31.696  29.997  1.00  0.00     0.148 A 
ATOM     67  C   UNL A   1      36.798  31.015  32.680  1.00  0.00     0.002 A 
ATOM     68  C   UNL A   1      36.081  32.095  30.633  1.00  0.00     0.091 A 
ATOM     69  F   UNL A   1      37.483  31.978  28.708  1.00  0.00    -0.205 F 
ATOM     70  C   UNL A   1      35.845  31.742  31.970  1.00  0.00     0.022 A 
BRANCH  68  71
ATOM     71  S   UNL A   1      34.872  33.153  29.829  1.00  0.00     0.127 S 
ATOM     72  O   UNL A   1      34.015  33.535  30.948  1.00  0.00    -0.237 OA
ATOM     73  O   UNL A   1      35.710  34.229  29.298  1.00  0.00    -0.237 OA
ATOM     74  O   UNL A   1      34.251  32.323  28.805  1.00  0.00    -0.744 OA
ENDBRANCH  68  71
ENDBRANCH  40  64
BRANCH  52  75
ATOM     75  C   UNL A   1      44.456  34.144  30.355  1.00  0.00     0.023 A 
ATOM     76  C   UNL A   1      45.104  34.145  31.607  1.00  0.00     0.012 A 
ATOM     77  C   UNL A   1      44.374  35.338  29.615  1.00  0.00     0.148 A 
ATOM     78  C   UNL A   1      45.642  35.321  32.124  1.00  0.00     0.002 A 
ATOM     79  C   UNL A   1      44.950  36.499  30.117  1.00  0.00     0.091 A 
ATOM     80  F   UNL A   1      43.736  35.317  28.436  1.00  0.00    -0.205 F 
ATOM     81  C   UNL A   1      45.576  36.494  31.375  1.00  0.00     0.022 A 
BRANCH  79  82
ATOM     82  S   UNL A   1      44.991  38.035  29.188  1.00  0.00     0.127 S 
ATOM     83  O   UNL A   1      44.965  39.032  30.257  1.00  0.00    -0.237 OA
ATOM     84  O   UNL A   1      46.267  37.935  28.477  1.00  0.00    -0.237 OA
ATOM     85  O   UNL A   1      43.817  38.013  28.325  1.00  0.00    -0.744 OA
ENDBRANCH  79  82
ENDBRANCH  52  75
ENDBRANCH  26  27
ENDBRANCH  19  21
ENDBRANCH  18  19
ENDBRANCH  17  18
ENDBRANCH   1  17
TORSDOF 20
ENDMDL
MODEL 2
REMARK VINA RESULT:      -9.3      6.464     10.088
REMARK SMILES CC[C@@H](O)CC[C@H]([NH3+])C(=O)OCCOC(=O)c1ccc(-c2c3nc(c(-c4cccc(S(=O)(=O)[O-])c4F)c4ccc([nH]4)c(-c4cccc(S(=O)(=O)[O-])c4F)c4nc(c(-c5cccc(S(=O)(=O)[O-])c5F)c5ccc2[nH]5)C=C4)C=C3)cc1
REMARK SMILES IDX 12 1 11 2 9 3 10 4 7 5 6 6 5 7 3 8 2 9 1 10 4 11 8 13 13 17
REMARK SMILES IDX 14 18 15 19 16 20 17 21 18 22 79 23 19 24 78 25 20 26 21 27
REMARK SMILES IDX 22 28 72 29 23 30 77 31 71 32 73 33 24 34 76 35 70 36 69 37
REMARK SMILES IDX 25 39 57 40 37 41 56 42 38 43 41 44 55 45 74 46 39 47 40 48
REMARK SMILES IDX 54 50 75 51 42 52 26 53 27 54 35 55 28 56 30 57 36 58 29 59
REMARK SMILES IDX 31 60 32 61 33 62 34 63 58 64 59 65 67 66 60 67 62 68 68 69
REMARK SMILES IDX 61 70 63 71 64 72 65 73 66 74 43 75 44 76 52 77 45 78 47 79
REMARK SMILES IDX 53 80 46 81 48 82 49 83 50 84 51 85
REMARK H PARENT 4 12 8 14 8 15 8 16 73 38 41 49
REMARK Flexibility Score: inf
ROOT
ATOM      1  C   UNL A   1      32.038  28.192  26.040  1.00  0.00     0.274 C 
ENDROOT
BRANCH   1   2
ATOM      2  O   UNL A   1      30.889  27.675  25.347  1.00  0.00    -0.458 OA
BRANCH   2   3
ATOM      3  C   UNL A   1      30.934  27.684  23.985  1.00  0.00     0.364 C 
ATOM      4  O   UNL A   1      31.905  28.026  23.321  1.00  0.00    -0.245 OA
BRANCH   3   5
ATOM      5  C   UNL A   1      29.640  27.121  23.354  1.00  0.00     0.291 C 
BRANCH   5   6
ATOM      6  C   UNL A   1      28.550  28.198  23.304  1.00  0.00     0.080 C 
BRANCH   6   7
ATOM      7  C   UNL A   1      29.075  29.627  23.103  1.00  0.00     0.038 C 
BRANCH   7   8
ATOM      8  C   UNL A   1      29.191  30.132  21.662  1.00  0.00     0.114 C 
BRANCH   8   9
ATOM      9  C   UNL A   1      28.638  31.546  21.469  1.00  0.00     0.028 C 
ATOM     10  C   UNL A   1      28.665  32.355  22.759  1.00  0.00     0.006 C 
ENDBRANCH   8   9
BRANCH   8  11
ATOM     11  O   UNL A   1      30.583  30.127  21.329  1.00  0.00    -0.393 OA
ATOM     12  H   UNL A   1      30.697  29.795  20.424  1.00  0.00     0.210 HD
ENDBRANCH   8  11
ENDBRANCH   7   8
ENDBRANCH   6   7
ENDBRANCH   5   6
BRANCH   5  13
ATOM     13  N   UNL A   1      29.191  25.876  24.021  1.00  0.00    -0.346 N 
ATOM     14  H   UNL A   1      28.212  25.969  24.292  1.00  0.00     0.345 HD
ATOM     15  H   UNL A   1      29.759  25.711  24.851  1.00  0.00     0.345 HD
ATOM     16  H   UNL A   1      29.292  25.090  23.378  1.00  0.00     0.345 HD
ENDBRANCH   5  13
ENDBRANCH   3   5
ENDBRANCH   2   3
ENDBRANCH   1   2
BRANCH   1  17
ATOM     17  C   UNL A   1      31.809  29.661  26.410  1.00  0.00     0.275 C 
BRANCH  17  18
ATOM     18  O   UNL A   1      32.943  30.482  26.075  1.00  0.00    -0.458 OA
BRANCH  18  19
ATOM     19  C   UNL A   1      33.256  31.448  26.971  1.00  0.00     0.338 C 
ATOM     20  O   UNL A   1      32.579  32.412  27.289  1.00  0.00    -0.246 OA
BRANCH  19  21
ATOM     21  C   UNL A   1      34.509  31.091  27.652  1.00  0.00     0.060 A 
ATOM     22  C   UNL A   1      35.431  32.108  27.904  1.00  0.00     0.016 A 
ATOM     23  C   UNL A   1      34.804  29.772  27.997  1.00  0.00     0.016 A 
ATOM     24  C   UNL A   1      36.657  31.820  28.488  1.00  0.00     0.010 A 
ATOM     25  C   UNL A   1      36.025  29.485  28.617  1.00  0.00     0.010 A 
ATOM     26  C   UNL A   1      36.958  30.508  28.866  1.00  0.00    -0.014 A 
BRANCH  26  27
ATOM     27  C   UNL A   1      38.229  30.222  29.574  1.00  0.00     0.031 A 
ATOM     28  C   UNL A   1      39.241  29.294  28.976  1.00  0.00     0.074 A 
ATOM     29  C   UNL A   1      38.447  30.791  30.775  1.00  0.00     0.049 A 
ATOM     30  N   UNL A   1      40.351  28.843  29.497  1.00  0.00    -0.248 NA
ATOM     31  C   UNL A   1      38.972  28.805  27.613  1.00  0.00     0.031 C 
ATOM     32  C   UNL A   1      37.534  31.720  31.445  1.00  0.00     0.029 A 
ATOM     33  N   UNL A   1      39.489  30.653  31.656  1.00  0.00    -0.354 N 
ATOM     34  C   UNL A   1      40.892  27.982  28.552  1.00  0.00     0.074 A 
ATOM     35  C   UNL A   1      39.993  27.979  27.418  1.00  0.00     0.031 C 
ATOM     36  C   UNL A   1      38.045  32.052  32.640  1.00  0.00     0.029 A 
ATOM     37  C   UNL A   1      39.291  31.321  32.842  1.00  0.00     0.049 A 
ATOM     38  H   UNL A   1      40.298  30.128  31.460  1.00  0.00     0.167 HD
ATOM     39  C   UNL A   1      42.040  27.268  28.624  1.00  0.00     0.034 A 
ATOM     40  C   UNL A   1      40.007  31.311  33.982  1.00  0.00     0.034 A 
ATOM     41  C   UNL A   1      42.947  27.308  29.740  1.00  0.00     0.049 A 
ATOM     42  C   UNL A   1      41.260  30.483  34.045  1.00  0.00     0.074 A 
ATOM     43  C   UNL A   1      44.168  26.672  29.881  1.00  0.00     0.029 A 
ATOM     44  N   UNL A   1      42.727  28.015  30.913  1.00  0.00    -0.354 N 
ATOM     45  N   UNL A   1      41.814  29.755  33.105  1.00  0.00    -0.248 NA
ATOM     46  C   UNL A   1      41.992  30.480  35.319  1.00  0.00     0.031 C 
ATOM     47  C   UNL A   1      44.676  26.977  31.148  1.00  0.00     0.029 A 
ATOM     48  C   UNL A   1      43.779  27.813  31.791  1.00  0.00     0.049 A 
ATOM     49  H   UNL A   1      41.941  28.578  31.094  1.00  0.00     0.167 HD
ATOM     50  C   UNL A   1      42.965  29.219  33.667  1.00  0.00     0.074 A 
ATOM     51  C   UNL A   1      43.045  29.731  35.021  1.00  0.00     0.031 C 
ATOM     52  C   UNL A   1      43.862  28.362  33.122  1.00  0.00     0.034 A 
BRANCH  39  53
ATOM     53  C   UNL A   1      42.398  26.395  27.452  1.00  0.00     0.023 A 
ATOM     54  C   UNL A   1      43.143  26.933  26.385  1.00  0.00     0.012 A 
ATOM     55  C   UNL A   1      42.052  25.030  27.437  1.00  0.00     0.148 A 
ATOM     56  C   UNL A   1      43.523  26.131  25.309  1.00  0.00     0.002 A 
ATOM     57  C   UNL A   1      42.463  24.228  26.378  1.00  0.00     0.091 A 
ATOM     58  F   UNL A   1      41.320  24.544  28.449  1.00  0.00    -0.205 F 
ATOM     59  C   UNL A   1      43.192  24.778  25.311  1.00  0.00     0.022 A 
BRANCH  57  60
ATOM     60  S   UNL A   1      42.138  22.462  26.321  1.00  0.00     0.127 S 
ATOM     61  O   UNL A   1      42.763  22.007  27.562  1.00  0.00    -0.237 OA
ATOM     62  O   UNL A   1      40.675  22.415  26.324  1.00  0.00    -0.237 OA
ATOM     63  O   UNL A   1      42.757  21.982  25.094  1.00  0.00    -0.744 OA
ENDBRANCH  57  60
ENDBRANCH  39  53
BRANCH  40  64
ATOM     64  C   UNL A   1      39.551  32.116  35.149  1.00  0.00     0.023 A 
ATOM     65  C   UNL A   1      38.689  31.536  36.097  1.00  0.00     0.012 A 
ATOM     66  C   UNL A   1      40.009  33.434  35.351  1.00  0.00     0.148 A 
ATOM     67  C   UNL A   1      38.277  32.258  37.218  1.00  0.00     0.002 A 
ATOM     68  C   UNL A   1      39.640  34.127  36.498  1.00  0.00     0.091 A 
ATOM     69  F   UNL A   1      40.810  33.979  34.424  1.00  0.00    -0.205 F 
ATOM     70  C   UNL A   1      38.762  33.547  37.425  1.00  0.00     0.022 A 
BRANCH  68  71
ATOM     71  S   UNL A   1      40.334  35.734  36.904  1.00  0.00     0.127 S 
ATOM     72  O   UNL A   1      41.754  35.524  36.638  1.00  0.00    -0.237 OA
ATOM     73  O   UNL A   1      39.651  36.613  35.953  1.00  0.00    -0.237 OA
ATOM     74  O   UNL A   1      39.974  35.971  38.296  1.00  0.00    -0.744 OA
ENDBRANCH  68  71
ENDBRANCH  40  64
BRANCH  52  75
ATOM     75  C   UNL A   1      45.009  27.916  33.988  1.00  0.00     0.023 A 
ATOM     76  C   UNL A   1      46.178  28.701  34.040  1.00  0.00     0.012 A 
ATOM     77  C   UNL A   1      44.903  26.774  34.804  1.00  0.00     0.148 A 
ATOM     78  C   UNL A   1      47.235  28.343  34.873  1.00  0.00     0.002 A 
ATOM     79  C   UNL A   1      45.944  26.446  35.664  1.00  0.00     0.091 A 
ATOM     80  F   UNL A   1      43.790  26.032  34.724  1.00  0.00    -0.205 F 
ATOM     81  C   UNL A   1      47.114  27.223  35.693  1.00  0.00     0.022 A 
BRANCH  79  82
ATOM     82  S   UNL A   1      45.844  25.074  36.819  1.00  0.00     0.127 S 
ATOM     83  O   UNL A   1      44.725  25.480  37.669  1.00  0.00    -0.237 OA
ATOM     84  O   UNL A   1      45.560  23.942  35.935  1.00  0.00    -0.237 OA
ATOM     85  O   UNL A   1      47.141  25.011  37.480  1.00  0.00    -0.744 OA
ENDBRANCH  79  82
ENDBRANCH  52  75
ENDBRANCH  26  27
ENDBRANCH  19  21
ENDBRANCH  18  19
ENDBRANCH  17  18
ENDBRANCH   1  17
TORSDOF 20
ENDMDL
MODEL 3
REMARK VINA RESULT:      -9.1      5.617     10.931
REMARK SMILES CC[C@@H](O)CC[C@H]([NH3+])C(=O)OCCOC(=O)c1ccc(-c2c3nc(c(-c4cccc(S(=O)(=O)[O-])c4F)c4ccc([nH]4)c(-c4cccc(S(=O)(=O)[O-])c4F)c4nc(c(-c5cccc(S(=O)(=O)[O-])c5F)c5ccc2[nH]5)C=C4)C=C3)cc1
REMARK SMILES IDX 12 1 11 2 9 3 10 4 7 5 6 6 5 7 3 8 2 9 1 10 4 11 8 13 13 17
REMARK SMILES IDX 14 18 15 19 16 20 17 21 18 22 79 23 19 24 78 25 20 26 21 27
REMARK SMILES IDX 22 28 72 29 23 30 77 31 71 32 73 33 24 34 76 35 70 36 69 37
REMARK SMILES IDX 25 39 57 40 37 41 56 42 38 43 41 44 55 45 74 46 39 47 40 48
REMARK SMILES IDX 54 50 75 51 42 52 26 53 27 54 35 55 28 56 30 57 36 58 29 59
REMARK SMILES IDX 31 60 32 61 33 62 34 63 58 64 59 65 67 66 60 67 62 68 68 69
REMARK SMILES IDX 61 70 63 71 64 72 65 73 66 74 43 75 44 76 52 77 45 78 47 79
REMARK SMILES IDX 53 80 46 81 48 82 49 83 50 84 51 85
REMARK H PARENT 4 12 8 14 8 15 8 16 73 38 41 49
REMARK Flexibility Score: inf
ROOT
ATOM      1  C   UNL A   1      33.695  33.935  29.626  1.00  0.00     0.274 C 
ENDROOT
BRANCH   1   2
ATOM      2  O   UNL A   1      34.025  35.259  30.081  1.00  0.00    -0.458 OA
BRANCH   2   3
ATOM      3  C   UNL A   1      32.988  36.118  30.285  1.00  0.00     0.364 C 
ATOM      4  O   UNL A   1      32.253  36.548  29.404  1.00  0.00    -0.245 OA
BRANCH   3   5
ATOM      5  C   UNL A   1      32.774  36.430  31.784  1.00  0.00     0.291 C 
BRANCH   5   6
ATOM      6  C   UNL A   1      34.112  36.725  32.471  1.00  0.00     0.080 C 
BRANCH   6   7
ATOM      7  C   UNL A   1      34.512  35.707  33.550  1.00  0.00     0.038 C 
BRANCH   7   8
ATOM      8  C   UNL A   1      35.819  34.939  33.334  1.00  0.00     0.114 C 
BRANCH   8   9
ATOM      9  C   UNL A   1      35.675  33.430  33.546  1.00  0.00     0.028 C 
ATOM     10  C   UNL A   1      34.333  32.904  33.055  1.00  0.00     0.006 C 
ENDBRANCH   8   9
BRANCH   8  11
ATOM     11  O   UNL A   1      36.227  35.182  31.984  1.00  0.00    -0.393 OA
ATOM     12  H   UNL A   1      36.146  34.363  31.470  1.00  0.00     0.210 HD
ENDBRANCH   8  11
ENDBRANCH   7   8
ENDBRANCH   6   7
ENDBRANCH   5   6
BRANCH   5  13
ATOM     13  N   UNL A   1      31.995  35.371  32.468  1.00  0.00    -0.346 N 
ATOM     14  H   UNL A   1      31.014  35.645  32.511  1.00  0.00     0.345 HD
ATOM     15  H   UNL A   1      32.354  35.242  33.413  1.00  0.00     0.345 HD
ATOM     16  H   UNL A   1      32.081  34.496  31.949  1.00  0.00     0.345 HD
ENDBRANCH   5  13
ENDBRANCH   3   5
ENDBRANCH   2   3
ENDBRANCH   1   2
BRANCH   1  17
ATOM     17  C   UNL A   1      33.274  33.978  28.153  1.00  0.00     0.275 C 
BRANCH  17  18
ATOM     18  O   UNL A   1      34.172  33.225  27.316  1.00  0.00    -0.458 OA
BRANCH  18  19
ATOM     19  C   UNL A   1      34.187  31.887  27.524  1.00  0.00     0.338 C 
ATOM     20  O   UNL A   1      33.365  31.068  27.147  1.00  0.00    -0.246 OA
BRANCH  19  21
ATOM     21  C   UNL A   1      35.455  31.509  28.168  1.00  0.00     0.060 A 
ATOM     22  C   UNL A   1      35.521  30.271  28.808  1.00  0.00     0.016 A 
ATOM     23  C   UNL A   1      36.549  32.373  28.189  1.00  0.00     0.016 A 
ATOM     24  C   UNL A   1      36.671  29.888  29.485  1.00  0.00     0.010 A 
ATOM     25  C   UNL A   1      37.721  31.974  28.842  1.00  0.00     0.010 A 
ATOM     26  C   UNL A   1      37.788  30.729  29.493  1.00  0.00    -0.014 A 
BRANCH  26  27
ATOM     27  C   UNL A   1      39.043  30.275  30.137  1.00  0.00     0.031 A 
ATOM     28  C   UNL A   1      39.910  29.248  29.474  1.00  0.00     0.074 A 
ATOM     29  C   UNL A   1      39.378  30.780  31.340  1.00  0.00     0.049 A 
ATOM     30  N   UNL A   1      40.979  28.654  29.935  1.00  0.00    -0.248 NA
ATOM     31  C   UNL A   1      39.528  28.832  28.114  1.00  0.00     0.031 C 
ATOM     32  C   UNL A   1      38.612  31.793  32.070  1.00  0.00     0.029 A 
ATOM     33  N   UNL A   1      40.431  30.494  32.170  1.00  0.00    -0.354 N 
ATOM     34  C   UNL A   1      41.371  27.760  28.948  1.00  0.00     0.074 A 
ATOM     35  C   UNL A   1      40.432  27.896  27.856  1.00  0.00     0.031 C 
ATOM     36  C   UNL A   1      39.210  32.029  33.248  1.00  0.00     0.029 A 
ATOM     37  C   UNL A   1      40.365  31.149  33.379  1.00  0.00     0.049 A 
ATOM     38  H   UNL A   1      41.162  29.882  31.926  1.00  0.00     0.167 HD
ATOM     39  C   UNL A   1      42.427  26.912  28.954  1.00  0.00     0.034 A 
ATOM     40  C   UNL A   1      41.121  31.021  34.485  1.00  0.00     0.034 A 
ATOM     41  C   UNL A   1      43.377  26.813  30.029  1.00  0.00     0.049 A 
ATOM     42  C   UNL A   1      42.266  30.048  34.474  1.00  0.00     0.074 A 
ATOM     43  C   UNL A   1      44.517  26.032  30.100  1.00  0.00     0.029 A 
ATOM     44  N   UNL A   1      43.294  27.509  31.225  1.00  0.00    -0.354 N 
ATOM     45  N   UNL A   1      42.689  29.285  33.494  1.00  0.00    -0.248 NA
ATOM     46  C   UNL A   1      43.045  29.923  35.713  1.00  0.00     0.031 C 
ATOM     47  C   UNL A   1      45.111  26.238  31.350  1.00  0.00     0.029 A 
ATOM     48  C   UNL A   1      44.349  27.159  32.051  1.00  0.00     0.049 A 
ATOM     49  H   UNL A   1      42.589  28.157  31.453  1.00  0.00     0.167 HD
ATOM     50  C   UNL A   1      43.789  28.600  33.992  1.00  0.00     0.074 A 
ATOM     51  C   UNL A   1      43.987  29.061  35.352  1.00  0.00     0.031 C 
ATOM     52  C   UNL A   1      44.552  27.656  33.389  1.00  0.00     0.034 A 
BRANCH  39  53
ATOM     53  C   UNL A   1      42.628  26.035  27.747  1.00  0.00     0.023 A 
ATOM     54  C   UNL A   1      43.403  26.502  26.668  1.00  0.00     0.012 A 
ATOM     55  C   UNL A   1      42.104  24.728  27.710  1.00  0.00     0.148 A 
ATOM     56  C   UNL A   1      43.638  25.689  25.559  1.00  0.00     0.002 A 
ATOM     57  C   UNL A   1      42.370  23.911  26.617  1.00  0.00     0.091 A 
ATOM     58  F   UNL A   1      41.346  24.313  28.735  1.00  0.00    -0.205 F 
ATOM     59  C   UNL A   1      43.131  24.392  25.539  1.00  0.00     0.022 A 
BRANCH  57  60
ATOM     60  S   UNL A   1      41.812  22.206  26.527  1.00  0.00     0.127 S 
ATOM     61  O   UNL A   1      42.350  21.654  27.770  1.00  0.00    -0.237 OA
ATOM     62  O   UNL A   1      40.356  22.357  26.508  1.00  0.00    -0.237 OA
ATOM     63  O   UNL A   1      42.380  21.664  25.302  1.00  0.00    -0.744 OA
ENDBRANCH  57  60
ENDBRANCH  39  53
BRANCH  40  64
ATOM     64  C   UNL A   1      40.815  31.843  35.688  1.00  0.00     0.023 A 
ATOM     65  C   UNL A   1      41.707  32.857  36.081  1.00  0.00     0.012 A 
ATOM     66  C   UNL A   1      39.620  31.659  36.414  1.00  0.00     0.148 A 
ATOM     67  C   UNL A   1      41.423  33.664  37.184  1.00  0.00     0.002 A 
ATOM     68  C   UNL A   1      39.318  32.502  37.476  1.00  0.00     0.091 A 
ATOM     69  F   UNL A   1      38.794  30.671  36.040  1.00  0.00    -0.205 F 
ATOM     70  C   UNL A   1      40.225  33.496  37.873  1.00  0.00     0.022 A 
BRANCH  68  71
ATOM     71  S   UNL A   1      37.733  32.439  38.322  1.00  0.00     0.127 S 
ATOM     72  O   UNL A   1      36.825  32.945  37.296  1.00  0.00    -0.237 OA
ATOM     73  O   UNL A   1      37.598  31.012  38.615  1.00  0.00    -0.237 OA
ATOM     74  O   UNL A   1      37.891  33.277  39.503  1.00  0.00    -0.744 OA
ENDBRANCH  68  71
ENDBRANCH  40  64
BRANCH  52  75
ATOM     75  C   UNL A   1      45.672  27.053  34.193  1.00  0.00     0.023 A 
ATOM     76  C   UNL A   1      46.948  27.649  34.152  1.00  0.00     0.012 A 
ATOM     77  C   UNL A   1      45.447  25.954  35.043  1.00  0.00     0.148 A 
ATOM     78  C   UNL A   1      47.991  27.146  34.927  1.00  0.00     0.002 A 
ATOM     79  C   UNL A   1      46.479  25.483  35.845  1.00  0.00     0.091 A 
ATOM     80  F   UNL A   1      44.230  25.391  35.051  1.00  0.00    -0.205 F 
ATOM     81  C   UNL A   1      47.753  26.071  35.781  1.00  0.00     0.022 A 
BRANCH  79  82
ATOM     82  S   UNL A   1      46.246  24.161  37.038  1.00  0.00     0.127 S 
ATOM     83  O   UNL A   1      44.791  24.136  37.176  1.00  0.00    -0.237 OA
ATOM     84  O   UNL A   1      46.814  23.007  36.339  1.00  0.00    -0.237 OA
ATOM     85  O   UNL A   1      46.980  24.564  38.231  1.00  0.00    -0.744 OA
ENDBRANCH  79  82
ENDBRANCH  52  75
ENDBRANCH  26  27
ENDBRANCH  19  21
ENDBRANCH  18  19
ENDBRANCH  17  18
ENDBRANCH   1  17
TORSDOF 20
ENDMDL
