MODEL 1
REMARK VINA RESULT:     -11.1      0.000      0.000
REMARK SMILES Cc1nn([C@H]2CCS(=O)(=O)C2)c(C)c1[C@@H]([NH3+])C(=O)OCCOC(=O)c1ccc(-c2c3nc(c(-c4cccc(S(=O)(=O)[O-])c4F)c4ccc([nH]4)c(-c4cccc(S(=O)(=O)[O-])c4F)c4nc(c(-c5cccc(S(=O)(=O)[O-])c5F)c5ccc2[nH]5)C=C4)C=C3)cc1
REMARK SMILES IDX 21 1 20 2 19 3 17 4 18 5 15 6 14 7 1 8 2 9 3 10 4 11 12 12
REMARK SMILES IDX 13 13 5 14 6 15 11 16 7 17 8 18 9 19 10 20 16 21 22 25 23 26
REMARK SMILES IDX 24 27 25 28 26 29 87 30 27 31 86 32 28 33 29 34 30 35 80 36
REMARK SMILES IDX 31 37 85 38 79 39 81 40 32 41 84 42 78 43 77 44 33 46 65 47
REMARK SMILES IDX 45 48 64 49 46 50 49 51 63 52 82 53 47 54 48 55 62 57 83 58
REMARK SMILES IDX 50 59 34 60 35 61 43 62 36 63 38 64 44 65 37 66 39 67 40 68
REMARK SMILES IDX 41 69 42 70 66 71 67 72 75 73 68 74 70 75 76 76 69 77 71 78
REMARK SMILES IDX 72 79 73 80 74 81 51 82 52 83 60 84 53 85 55 86 61 87 54 88
REMARK SMILES IDX 56 89 57 90 58 91 59 92
REMARK H PARENT 16 22 16 23 16 24 81 45 49 56
REMARK Flexibility Score: inf
ROOT
ATOM      1  C   UNL A   1      34.836  33.272  27.980  1.00  0.00     0.275 C 
ENDROOT
BRANCH   1   2
ATOM      2  C   UNL A   1      34.866  34.735  28.393  1.00  0.00     0.274 C 
BRANCH   2   3
ATOM      3  O   UNL A   1      33.525  35.244  28.503  1.00  0.00    -0.457 OA
BRANCH   3   4
ATOM      4  C   UNL A   1      33.214  35.991  29.594  1.00  0.00     0.370 C 
ATOM      5  O   UNL A   1      33.217  37.222  29.600  1.00  0.00    -0.245 OA
BRANCH   4   6
ATOM      6  C   UNL A   1      32.916  35.177  30.874  1.00  0.00     0.326 C 
BRANCH   6   7
ATOM      7  C   UNL A   1      34.013  35.000  31.893  1.00  0.00     0.065 A 
ATOM      8  C   UNL A   1      34.129  37.438  32.901  1.00  0.00     0.069 C 
ATOM      9  C   UNL A   1      34.517  36.008  32.773  1.00  0.00     0.069 A 
ATOM     10  N   UNL A   1      35.502  35.545  33.544  1.00  0.00    -0.177 NA
ATOM     11  N   UNL A   1      35.593  34.236  33.247  1.00  0.00    -0.265 N 
ATOM     12  C   UNL A   1      34.785  33.878  32.193  1.00  0.00     0.046 A 
ATOM     13  C   UNL A   1      34.736  32.535  31.560  1.00  0.00     0.067 C 
BRANCH  11  14
ATOM     14  C   UNL A   1      36.586  33.502  34.012  1.00  0.00     0.123 C 
ATOM     15  C   UNL A   1      38.039  33.835  33.606  1.00  0.00     0.044 C 
ATOM     16  C   UNL A   1      36.573  33.646  35.524  1.00  0.00     0.164 C 
ATOM     17  C   UNL A   1      38.938  32.990  34.506  1.00  0.00     0.139 C 
ATOM     18  S   UNL A   1      38.052  32.821  36.046  1.00  0.00     0.152 S 
ATOM     19  O   UNL A   1      37.734  31.424  36.259  1.00  0.00    -0.229 OA
ATOM     20  O   UNL A   1      38.689  33.626  37.069  1.00  0.00    -0.229 OA
ENDBRANCH  11  14
ENDBRANCH   6   7
BRANCH   6  21
ATOM     21  N   UNL A   1      31.730  35.742  31.559  1.00  0.00    -0.342 N 
ATOM     22  H   UNL A   1      31.603  35.277  32.457  1.00  0.00     0.345 HD
ATOM     23  H   UNL A   1      30.903  35.598  30.980  1.00  0.00     0.345 HD
ATOM     24  H   UNL A   1      31.870  36.741  31.710  1.00  0.00     0.345 HD
ENDBRANCH   6  21
ENDBRANCH   4   6
ENDBRANCH   3   4
ENDBRANCH   2   3
ENDBRANCH   1   2
BRANCH   1  25
ATOM     25  O   UNL A   1      36.100  32.663  28.235  1.00  0.00    -0.458 OA
BRANCH  25  26
ATOM     26  C   UNL A   1      36.083  31.315  28.193  1.00  0.00     0.338 C 
ATOM     27  O   UNL A   1      35.253  30.604  27.659  1.00  0.00    -0.246 OA
BRANCH  26  28
ATOM     28  C   UNL A   1      37.116  30.770  29.060  1.00  0.00     0.060 A 
ATOM     29  C   UNL A   1      38.162  31.631  29.414  1.00  0.00     0.016 A 
ATOM     30  C   UNL A   1      37.195  29.382  29.205  1.00  0.00     0.016 A 
ATOM     31  C   UNL A   1      39.373  31.084  29.756  1.00  0.00     0.010 A 
ATOM     32  C   UNL A   1      38.410  28.838  29.517  1.00  0.00     0.010 A 
ATOM     33  C   UNL A   1      39.493  29.696  29.719  1.00  0.00    -0.014 A 
BRANCH  33  34
ATOM     34  C   UNL A   1      40.790  29.114  29.959  1.00  0.00     0.031 A 
ATOM     35  C   UNL A   1      41.162  29.105  31.390  1.00  0.00     0.074 A 
ATOM     36  C   UNL A   1      41.437  28.480  28.965  1.00  0.00     0.049 A 
ATOM     37  N   UNL A   1      42.178  29.663  31.960  1.00  0.00    -0.248 NA
ATOM     38  C   UNL A   1      40.174  28.548  32.332  1.00  0.00     0.031 C 
ATOM     39  C   UNL A   1      40.924  28.208  27.615  1.00  0.00     0.029 A 
ATOM     40  N   UNL A   1      42.598  27.776  29.008  1.00  0.00    -0.354 N 
ATOM     41  C   UNL A   1      42.078  29.288  33.298  1.00  0.00     0.074 A 
ATOM     42  C   UNL A   1      40.729  28.846  33.504  1.00  0.00     0.031 C 
ATOM     43  C   UNL A   1      41.629  27.190  27.077  1.00  0.00     0.029 A 
ATOM     44  C   UNL A   1      42.700  26.835  27.990  1.00  0.00     0.049 A 
ATOM     45  H   UNL A   1      43.294  27.918  29.690  1.00  0.00     0.167 HD
ATOM     46  C   UNL A   1      43.191  29.030  34.032  1.00  0.00     0.034 A 
ATOM     47  C   UNL A   1      43.534  25.770  27.968  1.00  0.00     0.034 A 
ATOM     48  C   UNL A   1      44.360  29.629  33.441  1.00  0.00     0.049 A 
ATOM     49  C   UNL A   1      44.607  26.028  28.956  1.00  0.00     0.074 A 
ATOM     50  C   UNL A   1      44.759  30.910  33.119  1.00  0.00     0.029 A 
ATOM     51  N   UNL A   1      45.187  28.776  32.755  1.00  0.00    -0.354 N 
ATOM     52  N   UNL A   1      45.486  26.983  28.840  1.00  0.00    -0.248 NA
ATOM     53  C   UNL A   1      44.492  25.448  30.285  1.00  0.00     0.031 C 
ATOM     54  C   UNL A   1      45.579  30.771  31.962  1.00  0.00     0.029 A 
ATOM     55  C   UNL A   1      45.663  29.412  31.643  1.00  0.00     0.049 A 
ATOM     56  H   UNL A   1      45.402  27.852  33.020  1.00  0.00     0.167 HD
ATOM     57  C   UNL A   1      45.704  27.417  30.140  1.00  0.00     0.074 A 
ATOM     58  C   UNL A   1      45.206  26.334  30.982  1.00  0.00     0.031 C 
ATOM     59  C   UNL A   1      45.978  28.729  30.403  1.00  0.00     0.034 A 
BRANCH  46  60
ATOM     60  C   UNL A   1      43.309  27.866  35.005  1.00  0.00     0.023 A 
ATOM     61  C   UNL A   1      43.663  28.188  36.334  1.00  0.00     0.012 A 
ATOM     62  C   UNL A   1      43.399  26.501  34.637  1.00  0.00     0.148 A 
ATOM     63  C   UNL A   1      44.159  27.222  37.217  1.00  0.00     0.002 A 
ATOM     64  C   UNL A   1      43.820  25.533  35.542  1.00  0.00     0.091 A 
ATOM     65  F   UNL A   1      43.214  26.119  33.373  1.00  0.00    -0.205 F 
ATOM     66  C   UNL A   1      44.237  25.893  36.821  1.00  0.00     0.022 A 
BRANCH  64  67
ATOM     67  S   UNL A   1      43.903  23.798  35.077  1.00  0.00     0.127 S 
ATOM     68  O   UNL A   1      44.809  23.848  33.936  1.00  0.00    -0.237 OA
ATOM     69  O   UNL A   1      44.458  23.190  36.287  1.00  0.00    -0.237 OA
ATOM     70  O   UNL A   1      42.527  23.405  34.795  1.00  0.00    -0.744 OA
ENDBRANCH  64  67
ENDBRANCH  46  60
BRANCH  47  71
ATOM     71  C   UNL A   1      43.329  24.442  27.348  1.00  0.00     0.023 A 
ATOM     72  C   UNL A   1      42.069  23.822  27.439  1.00  0.00     0.012 A 
ATOM     73  C   UNL A   1      44.282  23.887  26.462  1.00  0.00     0.148 A 
ATOM     74  C   UNL A   1      41.756  22.706  26.655  1.00  0.00     0.002 A 
ATOM     75  C   UNL A   1      43.975  22.767  25.698  1.00  0.00     0.091 A 
ATOM     76  F   UNL A   1      45.458  24.511  26.302  1.00  0.00    -0.205 F 
ATOM     77  C   UNL A   1      42.706  22.181  25.782  1.00  0.00     0.022 A 
BRANCH  75  78
ATOM     78  S   UNL A   1      45.152  22.033  24.553  1.00  0.00     0.127 S 
ATOM     79  O   UNL A   1      44.430  20.845  24.096  1.00  0.00    -0.237 OA
ATOM     80  O   UNL A   1      45.295  23.084  23.549  1.00  0.00    -0.237 OA
ATOM     81  O   UNL A   1      46.343  21.740  25.340  1.00  0.00    -0.744 OA
ENDBRANCH  75  78
ENDBRANCH  47  71
BRANCH  59  82
ATOM     82  C   UNL A   1      46.378  29.608  29.243  1.00  0.00     0.023 A 
ATOM     83  C   UNL A   1      47.676  29.573  28.693  1.00  0.00     0.012 A 
ATOM     84  C   UNL A   1      45.384  30.356  28.591  1.00  0.00     0.148 A 
ATOM     85  C   UNL A   1      47.983  30.287  27.533  1.00  0.00     0.002 A 
ATOM     86  C   UNL A   1      45.681  31.029  27.411  1.00  0.00     0.091 A 
ATOM     87  F   UNL A   1      44.151  30.369  29.120  1.00  0.00    -0.205 F 
ATOM     88  C   UNL A   1      46.982  31.006  26.885  1.00  0.00     0.022 A 
BRANCH  86  89
ATOM     89  S   UNL A   1      44.414  31.865  26.454  1.00  0.00     0.127 S 
ATOM     90  O   UNL A   1      43.456  30.789  26.209  1.00  0.00    -0.237 OA
ATOM     91  O   UNL A   1      43.950  32.897  27.384  1.00  0.00    -0.237 OA
ATOM     92  O   UNL A   1      45.085  32.389  25.271  1.00  0.00    -0.744 OA
ENDBRANCH  86  89
ENDBRANCH  59  82
ENDBRANCH  33  34
ENDBRANCH  26  28
ENDBRANCH  25  26
ENDBRANCH   1  25
TORSDOF 17
ENDMDL
MODEL 2
REMARK VINA RESULT:     -11.0      4.875     10.075
REMARK SMILES Cc1nn([C@H]2CCS(=O)(=O)C2)c(C)c1[C@@H]([NH3+])C(=O)OCCOC(=O)c1ccc(-c2c3nc(c(-c4cccc(S(=O)(=O)[O-])c4F)c4ccc([nH]4)c(-c4cccc(S(=O)(=O)[O-])c4F)c4nc(c(-c5cccc(S(=O)(=O)[O-])c5F)c5ccc2[nH]5)C=C4)C=C3)cc1
REMARK SMILES IDX 21 1 20 2 19 3 17 4 18 5 15 6 14 7 1 8 2 9 3 10 4 11 12 12
REMARK SMILES IDX 13 13 5 14 6 15 11 16 7 17 8 18 9 19 10 20 16 21 22 25 23 26
REMARK SMILES IDX 24 27 25 28 26 29 87 30 27 31 86 32 28 33 29 34 30 35 80 36
REMARK SMILES IDX 31 37 85 38 79 39 81 40 32 41 84 42 78 43 77 44 33 46 65 47
REMARK SMILES IDX 45 48 64 49 46 50 49 51 63 52 82 53 47 54 48 55 62 57 83 58
REMARK SMILES IDX 50 59 34 60 35 61 43 62 36 63 38 64 44 65 37 66 39 67 40 68
REMARK SMILES IDX 41 69 42 70 66 71 67 72 75 73 68 74 70 75 76 76 69 77 71 78
REMARK SMILES IDX 72 79 73 80 74 81 51 82 52 83 60 84 53 85 55 86 61 87 54 88
REMARK SMILES IDX 56 89 57 90 58 91 59 92
REMARK H PARENT 16 22 16 23 16 24 81 45 49 56
REMARK Flexibility Score: inf
ROOT
ATOM      1  C   UNL A   1      38.160  19.688  25.021  1.00  0.00     0.275 C 
ENDROOT
BRANCH   1   2
ATOM      2  C   UNL A   1      36.871  20.456  24.770  1.00  0.00     0.274 C 
BRANCH   2   3
ATOM      3  O   UNL A   1      35.751  19.555  24.772  1.00  0.00    -0.457 OA
BRANCH   3   4
ATOM      4  C   UNL A   1      34.517  20.073  25.008  1.00  0.00     0.370 C 
ATOM      5  O   UNL A   1      33.495  19.683  24.443  1.00  0.00    -0.245 OA
BRANCH   4   6
ATOM      6  C   UNL A   1      34.490  21.253  26.005  1.00  0.00     0.326 C 
BRANCH   6   7
ATOM      7  C   UNL A   1      34.035  22.606  25.516  1.00  0.00     0.065 A 
ATOM      8  C   UNL A   1      36.279  23.978  25.744  1.00  0.00     0.069 C 
ATOM      9  C   UNL A   1      34.846  23.778  25.404  1.00  0.00     0.069 A 
ATOM     10  N   UNL A   1      34.147  24.822  24.956  1.00  0.00    -0.177 NA
ATOM     11  N   UNL A   1      32.921  24.335  24.692  1.00  0.00    -0.265 N 
ATOM     12  C   UNL A   1      32.774  23.029  25.099  1.00  0.00     0.046 A 
ATOM     13  C   UNL A   1      31.514  22.245  25.043  1.00  0.00     0.067 C 
BRANCH  11  14
ATOM     14  C   UNL A   1      31.986  25.299  24.139  1.00  0.00     0.123 C 
ATOM     15  C   UNL A   1      30.788  25.592  25.070  1.00  0.00     0.044 C 
ATOM     16  C   UNL A   1      32.514  26.671  23.759  1.00  0.00     0.164 C 
ATOM     17  C   UNL A   1      29.923  26.619  24.343  1.00  0.00     0.139 C 
ATOM     18  S   UNL A   1      31.056  27.603  23.376  1.00  0.00     0.152 S 
ATOM     19  O   UNL A   1      30.763  27.418  21.970  1.00  0.00    -0.229 OA
ATOM     20  O   UNL A   1      31.186  28.921  23.965  1.00  0.00    -0.229 OA
ENDBRANCH  11  14
ENDBRANCH   6   7
BRANCH   6  21
ATOM     21  N   UNL A   1      33.676  20.888  27.188  1.00  0.00    -0.342 N 
ATOM     22  H   UNL A   1      33.934  21.483  27.975  1.00  0.00     0.345 HD
ATOM     23  H   UNL A   1      33.846  19.912  27.429  1.00  0.00     0.345 HD
ATOM     24  H   UNL A   1      32.687  21.019  26.973  1.00  0.00     0.345 HD
ENDBRANCH   6  21
ENDBRANCH   4   6
ENDBRANCH   3   4
ENDBRANCH   2   3
ENDBRANCH   1   2
BRANCH   1  25
ATOM     25  O   UNL A   1      39.061  20.477  25.794  1.00  0.00    -0.458 OA
BRANCH  25  26
ATOM     26  C   UNL A   1      40.292  19.941  25.926  1.00  0.00     0.338 C 
ATOM     27  O   UNL A   1      40.630  18.798  25.680  1.00  0.00    -0.246 OA
BRANCH  26  28
ATOM     28  C   UNL A   1      41.178  20.873  26.606  1.00  0.00     0.060 A 
ATOM     29  C   UNL A   1      41.025  20.992  27.993  1.00  0.00     0.016 A 
ATOM     30  C   UNL A   1      41.865  21.816  25.836  1.00  0.00     0.016 A 
ATOM     31  C   UNL A   1      41.416  22.160  28.597  1.00  0.00     0.010 A 
ATOM     32  C   UNL A   1      42.227  22.991  26.433  1.00  0.00     0.010 A 
ATOM     33  C   UNL A   1      41.932  23.169  27.787  1.00  0.00    -0.014 A 
BRANCH  33  34
ATOM     34  C   UNL A   1      42.235  24.444  28.389  1.00  0.00     0.031 A 
ATOM     35  C   UNL A   1      41.212  25.473  28.107  1.00  0.00     0.074 A 
ATOM     36  C   UNL A   1      43.246  24.548  29.270  1.00  0.00     0.049 A 
ATOM     37  N   UNL A   1      41.358  26.608  27.508  1.00  0.00    -0.248 NA
ATOM     38  C   UNL A   1      39.808  25.109  28.373  1.00  0.00     0.031 C 
ATOM     39  C   UNL A   1      44.069  23.451  29.798  1.00  0.00     0.029 A 
ATOM     40  N   UNL A   1      43.621  25.613  30.025  1.00  0.00    -0.354 N 
ATOM     41  C   UNL A   1      40.098  27.200  27.569  1.00  0.00     0.074 A 
ATOM     42  C   UNL A   1      39.162  26.153  27.861  1.00  0.00     0.031 C 
ATOM     43  C   UNL A   1      44.637  23.850  30.956  1.00  0.00     0.029 A 
ATOM     44  C   UNL A   1      44.314  25.248  31.173  1.00  0.00     0.049 A 
ATOM     45  H   UNL A   1      43.421  26.547  29.784  1.00  0.00     0.167 HD
ATOM     46  C   UNL A   1      39.968  28.542  27.734  1.00  0.00     0.034 A 
ATOM     47  C   UNL A   1      44.501  26.016  32.272  1.00  0.00     0.034 A 
ATOM     48  C   UNL A   1      41.175  29.235  27.362  1.00  0.00     0.049 A 
ATOM     49  C   UNL A   1      44.256  27.422  31.875  1.00  0.00     0.074 A 
ATOM     50  C   UNL A   1      41.932  29.358  26.215  1.00  0.00     0.029 A 
ATOM     51  N   UNL A   1      41.966  29.659  28.401  1.00  0.00    -0.354 N 
ATOM     52  N   UNL A   1      45.001  28.080  31.032  1.00  0.00    -0.248 NA
ATOM     53  C   UNL A   1      42.949  28.006  32.138  1.00  0.00     0.031 C 
ATOM     54  C   UNL A   1      43.277  29.506  26.663  1.00  0.00     0.029 A 
ATOM     55  C   UNL A   1      43.279  29.491  28.061  1.00  0.00     0.049 A 
ATOM     56  H   UNL A   1      41.639  30.024  29.256  1.00  0.00     0.167 HD
ATOM     57  C   UNL A   1      44.112  28.888  30.338  1.00  0.00     0.074 A 
ATOM     58  C   UNL A   1      42.915  28.925  31.170  1.00  0.00     0.031 C 
ATOM     59  C   UNL A   1      44.322  29.189  29.021  1.00  0.00     0.034 A 
BRANCH  46  60
ATOM     60  C   UNL A   1      38.945  29.184  28.659  1.00  0.00     0.023 A 
ATOM     61  C   UNL A   1      38.211  30.269  28.131  1.00  0.00     0.012 A 
ATOM     62  C   UNL A   1      38.883  28.999  30.062  1.00  0.00     0.148 A 
ATOM     63  C   UNL A   1      37.527  31.166  28.960  1.00  0.00     0.002 A 
ATOM     64  C   UNL A   1      38.140  29.848  30.873  1.00  0.00     0.091 A 
ATOM     65  F   UNL A   1      39.646  28.086  30.666  1.00  0.00    -0.205 F 
ATOM     66  C   UNL A   1      37.491  30.955  30.332  1.00  0.00     0.022 A 
BRANCH  64  67
ATOM     67  S   UNL A   1      38.042  29.589  32.650  1.00  0.00     0.127 S 
ATOM     68  O   UNL A   1      39.418  29.849  33.056  1.00  0.00    -0.237 OA
ATOM     69  O   UNL A   1      37.071  30.609  33.049  1.00  0.00    -0.237 OA
ATOM     70  O   UNL A   1      37.566  28.221  32.817  1.00  0.00    -0.744 OA
ENDBRANCH  64  67
ENDBRANCH  46  60
BRANCH  47  71
ATOM     71  C   UNL A   1      44.622  25.599  33.687  1.00  0.00     0.023 A 
ATOM     72  C   UNL A   1      45.861  25.139  34.170  1.00  0.00     0.012 A 
ATOM     73  C   UNL A   1      43.601  25.877  34.626  1.00  0.00     0.148 A 
ATOM     74  C   UNL A   1      46.088  24.988  35.543  1.00  0.00     0.002 A 
ATOM     75  C   UNL A   1      43.823  25.707  35.988  1.00  0.00     0.091 A 
ATOM     76  F   UNL A   1      42.443  26.392  34.190  1.00  0.00    -0.205 F 
ATOM     77  C   UNL A   1      45.072  25.275  36.451  1.00  0.00     0.022 A 
BRANCH  75  78
ATOM     78  S   UNL A   1      42.558  26.056  37.218  1.00  0.00     0.127 S 
ATOM     79  O   UNL A   1      42.124  27.400  36.834  1.00  0.00    -0.237 OA
ATOM     80  O   UNL A   1      41.582  25.001  36.957  1.00  0.00    -0.237 OA
ATOM     81  O   UNL A   1      43.231  25.993  38.509  1.00  0.00    -0.744 OA
ENDBRANCH  75  78
ENDBRANCH  47  71
BRANCH  59  82
ATOM     82  C   UNL A   1      45.693  28.919  28.450  1.00  0.00     0.023 A 
ATOM     83  C   UNL A   1      46.766  29.816  28.630  1.00  0.00     0.012 A 
ATOM     84  C   UNL A   1      45.946  27.665  27.871  1.00  0.00     0.148 A 
ATOM     85  C   UNL A   1      48.058  29.482  28.218  1.00  0.00     0.002 A 
ATOM     86  C   UNL A   1      47.242  27.317  27.504  1.00  0.00     0.091 A 
ATOM     87  F   UNL A   1      44.918  26.817  27.720  1.00  0.00    -0.205 F 
ATOM     88  C   UNL A   1      48.298  28.227  27.666  1.00  0.00     0.022 A 
BRANCH  86  89
ATOM     89  S   UNL A   1      47.647  25.673  26.910  1.00  0.00     0.127 S 
ATOM     90  O   UNL A   1      46.934  25.624  25.635  1.00  0.00    -0.237 OA
ATOM     91  O   UNL A   1      49.106  25.732  26.794  1.00  0.00    -0.237 OA
ATOM     92  O   UNL A   1      47.170  24.748  27.931  1.00  0.00    -0.744 OA
ENDBRANCH  86  89
ENDBRANCH  59  82
ENDBRANCH  33  34
ENDBRANCH  26  28
ENDBRANCH  25  26
ENDBRANCH   1  25
TORSDOF 17
ENDMDL
MODEL 3
REMARK VINA RESULT:     -10.8      4.890      9.634
REMARK SMILES Cc1nn([C@H]2CCS(=O)(=O)C2)c(C)c1[C@@H]([NH3+])C(=O)OCCOC(=O)c1ccc(-c2c3nc(c(-c4cccc(S(=O)(=O)[O-])c4F)c4ccc([nH]4)c(-c4cccc(S(=O)(=O)[O-])c4F)c4nc(c(-c5cccc(S(=O)(=O)[O-])c5F)c5ccc2[nH]5)C=C4)C=C3)cc1
REMARK SMILES IDX 21 1 20 2 19 3 17 4 18 5 15 6 14 7 1 8 2 9 3 10 4 11 12 12
REMARK SMILES IDX 13 13 5 14 6 15 11 16 7 17 8 18 9 19 10 20 16 21 22 25 23 26
REMARK SMILES IDX 24 27 25 28 26 29 87 30 27 31 86 32 28 33 29 34 30 35 80 36
REMARK SMILES IDX 31 37 85 38 79 39 81 40 32 41 84 42 78 43 77 44 33 46 65 47
REMARK SMILES IDX 45 48 64 49 46 50 49 51 63 52 82 53 47 54 48 55 62 57 83 58
REMARK SMILES IDX 50 59 34 60 35 61 43 62 36 63 38 64 44 65 37 66 39 67 40 68
REMARK SMILES IDX 41 69 42 70 66 71 67 72 75 73 68 74 70 75 76 76 69 77 71 78
REMARK SMILES IDX 72 79 73 80 74 81 51 82 52 83 60 84 53 85 55 86 61 87 54 88
REMARK SMILES IDX 56 89 57 90 58 91 59 92
REMARK H PARENT 16 22 16 23 16 24 81 45 49 56
REMARK Flexibility Score: inf
ROOT
ATOM      1  C   UNL A   1      37.739  20.086  24.698  1.00  0.00     0.275 C 
ENDROOT
BRANCH   1   2
ATOM      2  C   UNL A   1      36.330  20.469  25.123  1.00  0.00     0.274 C 
BRANCH   2   3
ATOM      3  O   UNL A   1      36.037  21.814  24.704  1.00  0.00    -0.457 OA
BRANCH   3   4
ATOM      4  C   UNL A   1      34.757  22.253  24.823  1.00  0.00     0.370 C 
ATOM      5  O   UNL A   1      33.799  21.719  24.263  1.00  0.00    -0.245 OA
BRANCH   4   6
ATOM      6  C   UNL A   1      34.587  23.534  25.670  1.00  0.00     0.326 C 
BRANCH   6   7
ATOM      7  C   UNL A   1      33.320  24.339  25.522  1.00  0.00     0.065 A 
ATOM      8  C   UNL A   1      31.688  22.954  27.068  1.00  0.00     0.069 C 
ATOM      9  C   UNL A   1      32.068  24.064  26.155  1.00  0.00     0.069 A 
ATOM     10  N   UNL A   1      31.133  24.950  25.807  1.00  0.00    -0.177 NA
ATOM     11  N   UNL A   1      31.770  25.845  25.031  1.00  0.00    -0.265 N 
ATOM     12  C   UNL A   1      33.064  25.473  24.751  1.00  0.00     0.046 A 
ATOM     13  C   UNL A   1      33.992  26.192  23.841  1.00  0.00     0.067 C 
BRANCH  11  14
ATOM     14  C   UNL A   1      30.947  26.947  24.566  1.00  0.00     0.123 C 
ATOM     15  C   UNL A   1      31.574  28.334  24.831  1.00  0.00     0.044 C 
ATOM     16  C   UNL A   1      30.560  26.981  23.097  1.00  0.00     0.164 C 
ATOM     17  C   UNL A   1      30.590  29.361  24.276  1.00  0.00     0.139 C 
ATOM     18  S   UNL A   1      29.796  28.566  22.890  1.00  0.00     0.152 S 
ATOM     19  O   UNL A   1      28.383  28.421  23.172  1.00  0.00    -0.229 OA
ATOM     20  O   UNL A   1      30.274  29.147  21.652  1.00  0.00    -0.229 OA
ENDBRANCH  11  14
ENDBRANCH   6   7
BRANCH   6  21
ATOM     21  N   UNL A   1      34.768  23.211  27.104  1.00  0.00    -0.342 N 
ATOM     22  H   UNL A   1      35.593  22.621  27.218  1.00  0.00     0.345 HD
ATOM     23  H   UNL A   1      33.946  22.716  27.447  1.00  0.00     0.345 HD
ATOM     24  H   UNL A   1      34.892  24.074  27.633  1.00  0.00     0.345 HD
ENDBRANCH   6  21
ENDBRANCH   4   6
ENDBRANCH   3   4
ENDBRANCH   2   3
ENDBRANCH   1   2
BRANCH   1  25
ATOM     25  O   UNL A   1      38.698  20.758  25.510  1.00  0.00    -0.458 OA
BRANCH  25  26
ATOM     26  C   UNL A   1      39.834  20.060  25.718  1.00  0.00     0.338 C 
ATOM     27  O   UNL A   1      40.008  18.867  25.550  1.00  0.00    -0.246 OA
BRANCH  26  28
ATOM     28  C   UNL A   1      40.826  20.895  26.376  1.00  0.00     0.060 A 
ATOM     29  C   UNL A   1      40.844  20.870  27.777  1.00  0.00     0.016 A 
ATOM     30  C   UNL A   1      41.449  21.898  25.629  1.00  0.00     0.016 A 
ATOM     31  C   UNL A   1      41.344  21.958  28.445  1.00  0.00     0.010 A 
ATOM     32  C   UNL A   1      41.920  22.995  26.295  1.00  0.00     0.010 A 
ATOM     33  C   UNL A   1      41.796  23.035  27.686  1.00  0.00    -0.014 A 
BRANCH  33  34
ATOM     34  C   UNL A   1      42.212  24.232  28.374  1.00  0.00     0.031 A 
ATOM     35  C   UNL A   1      41.287  25.367  28.169  1.00  0.00     0.074 A 
ATOM     36  C   UNL A   1      43.227  24.182  29.255  1.00  0.00     0.049 A 
ATOM     37  N   UNL A   1      41.536  26.523  27.650  1.00  0.00    -0.248 NA
ATOM     38  C   UNL A   1      39.856  25.114  28.416  1.00  0.00     0.031 C 
ATOM     39  C   UNL A   1      43.946  22.981  29.701  1.00  0.00     0.029 A 
ATOM     40  N   UNL A   1      43.696  25.154  30.081  1.00  0.00    -0.354 N 
ATOM     41  C   UNL A   1      40.335  27.221  27.760  1.00  0.00     0.074 A 
ATOM     42  C   UNL A   1      39.308  26.245  27.982  1.00  0.00     0.031 C 
ATOM     43  C   UNL A   1      44.547  23.244  30.881  1.00  0.00     0.029 A 
ATOM     44  C   UNL A   1      44.352  24.647  31.197  1.00  0.00     0.049 A 
ATOM     45  H   UNL A   1      43.582  26.116  29.907  1.00  0.00     0.167 HD
ATOM     46  C   UNL A   1      40.328  28.555  28.019  1.00  0.00     0.034 A 
ATOM     47  C   UNL A   1      44.607  25.316  32.345  1.00  0.00     0.034 A 
ATOM     48  C   UNL A   1      41.593  29.160  27.690  1.00  0.00     0.049 A 
ATOM     49  C   UNL A   1      44.490  26.763  32.049  1.00  0.00     0.074 A 
ATOM     50  C   UNL A   1      42.359  29.293  26.550  1.00  0.00     0.029 A 
ATOM     51  N   UNL A   1      42.418  29.436  28.752  1.00  0.00    -0.354 N 
ATOM     52  N   UNL A   1      45.293  27.408  31.250  1.00  0.00    -0.248 NA
ATOM     53  C   UNL A   1      43.242  27.444  32.358  1.00  0.00     0.031 C 
ATOM     54  C   UNL A   1      43.711  29.287  27.000  1.00  0.00     0.029 A 
ATOM     55  C   UNL A   1      43.710  29.174  28.394  1.00  0.00     0.049 A 
ATOM     56  H   UNL A   1      42.125  29.768  29.631  1.00  0.00     0.167 HD
ATOM     57  C   UNL A   1      44.482  28.340  30.619  1.00  0.00     0.074 A 
ATOM     58  C   UNL A   1      43.292  28.428  31.457  1.00  0.00     0.031 C 
ATOM     59  C   UNL A   1      44.720  28.712  29.326  1.00  0.00     0.034 A 
BRANCH  46  60
ATOM     60  C   UNL A   1      39.366  29.220  28.991  1.00  0.00     0.023 A 
ATOM     61  C   UNL A   1      38.773  30.428  28.564  1.00  0.00     0.012 A 
ATOM     62  C   UNL A   1      39.254  28.911  30.369  1.00  0.00     0.148 A 
ATOM     63  C   UNL A   1      38.179  31.316  29.469  1.00  0.00     0.002 A 
ATOM     64  C   UNL A   1      38.596  29.760  31.251  1.00  0.00     0.091 A 
ATOM     65  F   UNL A   1      39.893  27.862  30.889  1.00  0.00    -0.205 F 
ATOM     66  C   UNL A   1      38.090  30.981  30.814  1.00  0.00     0.022 A 
BRANCH  64  67
ATOM     67  S   UNL A   1      38.431  29.345  32.993  1.00  0.00     0.127 S 
ATOM     68  O   UNL A   1      37.832  30.565  33.524  1.00  0.00    -0.237 OA
ATOM     69  O   UNL A   1      37.541  28.185  32.943  1.00  0.00    -0.237 OA
ATOM     70  O   UNL A   1      39.782  29.036  33.449  1.00  0.00    -0.744 OA
ENDBRANCH  64  67
ENDBRANCH  46  60
BRANCH  47  71
ATOM     71  C   UNL A   1      44.687  24.792  33.727  1.00  0.00     0.023 A 
ATOM     72  C   UNL A   1      43.593  24.090  34.267  1.00  0.00     0.012 A 
ATOM     73  C   UNL A   1      45.913  24.762  34.433  1.00  0.00     0.148 A 
ATOM     74  C   UNL A   1      43.721  23.359  35.453  1.00  0.00     0.002 A 
ATOM     75  C   UNL A   1      46.031  24.051  35.622  1.00  0.00     0.091 A 
ATOM     76  F   UNL A   1      46.986  25.358  33.894  1.00  0.00    -0.205 F 
ATOM     77  C   UNL A   1      44.939  23.336  36.128  1.00  0.00     0.022 A 
BRANCH  75  78
ATOM     78  S   UNL A   1      47.571  23.978  36.549  1.00  0.00     0.127 S 
ATOM     79  O   UNL A   1      47.801  25.388  36.866  1.00  0.00    -0.237 OA
ATOM     80  O   UNL A   1      47.198  23.148  37.691  1.00  0.00    -0.237 OA
ATOM     81  O   UNL A   1      48.555  23.403  35.641  1.00  0.00    -0.744 OA
ENDBRANCH  75  78
ENDBRANCH  47  71
BRANCH  59  82
ATOM     82  C   UNL A   1      46.062  28.360  28.730  1.00  0.00     0.023 A 
ATOM     83  C   UNL A   1      47.210  29.146  28.959  1.00  0.00     0.012 A 
ATOM     84  C   UNL A   1      46.204  27.127  28.071  1.00  0.00     0.148 A 
ATOM     85  C   UNL A   1      48.467  28.727  28.519  1.00  0.00     0.002 A 
ATOM     86  C   UNL A   1      47.463  26.691  27.675  1.00  0.00     0.091 A 
ATOM     87  F   UNL A   1      45.104  26.384  27.873  1.00  0.00    -0.205 F 
ATOM     88  C   UNL A   1      48.596  27.493  27.887  1.00  0.00     0.022 A 
BRANCH  86  89
ATOM     89  S   UNL A   1      47.722  25.059  26.975  1.00  0.00     0.127 S 
ATOM     90  O   UNL A   1      49.144  24.839  27.228  1.00  0.00    -0.237 OA
ATOM     91  O   UNL A   1      46.822  24.228  27.778  1.00  0.00    -0.237 OA
ATOM     92  O   UNL A   1      47.342  25.159  25.571  1.00  0.00    -0.744 OA
ENDBRANCH  86  89
ENDBRANCH  59  82
ENDBRANCH  33  34
ENDBRANCH  26  28
ENDBRANCH  25  26
ENDBRANCH   1  25
TORSDOF 17
ENDMDL
