MODEL 1
REMARK VINA RESULT:     -12.8      0.000      0.000
REMARK SMILES CC(=O)Nc1ccc(/C(=C\c2ccc(S(C)(=O)=O)cc2)C(=O)OCCOC(=O)c2ccc(-c3c4nc(c(-c5cccc(S(=O)(=O)[O-])c5F)c5ccc([nH]5)c(-c5cccc(S(=O)(=O)[O-])c5F)c5nc(c(-c6cccc(S(=O)(=O)[O-])c6F)c6ccc3[nH]6)C=C5)C=C4)cc2)cc1
REMARK SMILES IDX 25 1 24 2 23 3 21 4 22 5 9 6 10 7 8 8 5 9 6 10 93 11 7 12
REMARK SMILES IDX 92 13 4 14 1 15 2 16 3 17 11 19 12 20 20 21 13 22 19 23
REMARK SMILES IDX 14 24 15 25 16 26 17 27 18 28 26 29 27 30 28 31 29 32 30 33
REMARK SMILES IDX 91 34 31 35 90 36 32 37 33 38 34 39 84 40 35 41 89 42 83 43
REMARK SMILES IDX 85 44 36 45 88 46 82 47 81 48 37 50 69 51 49 52 68 53 50 54
REMARK SMILES IDX 53 55 67 56 86 57 51 58 52 59 66 61 87 62 54 63 38 64 39 65
REMARK SMILES IDX 47 66 40 67 42 68 48 69 41 70 43 71 44 72 45 73 46 74 70 75
REMARK SMILES IDX 71 76 79 77 72 78 74 79 80 80 73 81 75 82 76 83 77 84 78 85
REMARK SMILES IDX 55 86 56 87 64 88 57 89 59 90 65 91 58 92 60 93 61 94 62 95
REMARK SMILES IDX 63 96
REMARK H PARENT 4 18 85 49 53 60
REMARK Flexibility Score: inf
ROOT
ATOM      1  C   UNL A   1      32.510  28.735  25.036  1.00  0.00     0.275 C 
ENDROOT
BRANCH   1   2
ATOM      2  C   UNL A   1      33.477  27.808  24.299  1.00  0.00     0.275 C 
BRANCH   2   3
ATOM      3  O   UNL A   1      32.735  26.741  23.668  1.00  0.00    -0.458 OA
BRANCH   3   4
ATOM      4  C   UNL A   1      33.380  25.985  22.734  1.00  0.00     0.338 C 
ATOM      5  O   UNL A   1      33.801  26.391  21.662  1.00  0.00    -0.246 OA
BRANCH   4   6
ATOM      6  C   UNL A   1      33.521  24.558  23.205  1.00  0.00     0.067 C 
ATOM      7  C   UNL A   1      32.386  23.831  23.038  1.00  0.00     0.024 C 
BRANCH   6   8
ATOM      8  C   UNL A   1      34.810  24.075  23.823  1.00  0.00    -0.011 A 
ATOM      9  C   UNL A   1      36.895  22.731  25.245  1.00  0.00     0.041 A 
ATOM     10  C   UNL A   1      36.759  22.576  23.871  1.00  0.00     0.027 A 
ATOM     11  C   UNL A   1      36.135  23.711  25.860  1.00  0.00     0.027 A 
ATOM     12  C   UNL A   1      35.744  23.254  23.177  1.00  0.00     0.011 A 
ATOM     13  C   UNL A   1      35.123  24.383  25.150  1.00  0.00     0.011 A 
BRANCH   9  14
ATOM     14  N   UNL A   1      37.829  21.924  25.905  1.00  0.00    -0.326 N 
ATOM     15  C   UNL A   1      39.532  23.635  26.537  1.00  0.00     0.114 C 
ATOM     16  C   UNL A   1      39.058  22.211  26.431  1.00  0.00     0.221 C 
ATOM     17  O   UNL A   1      39.712  21.284  26.914  1.00  0.00    -0.275 OA
ATOM     18  H   UNL A   1      37.552  20.985  26.010  1.00  0.00     0.169 HD
ENDBRANCH   9  14
ENDBRANCH   6   8
BRANCH   7  19
ATOM     19  C   UNL A   1      32.196  22.416  23.362  1.00  0.00    -0.025 A 
ATOM     20  C   UNL A   1      32.006  21.524  22.299  1.00  0.00     0.009 A 
ATOM     21  C   UNL A   1      32.396  21.935  24.663  1.00  0.00     0.009 A 
ATOM     22  C   UNL A   1      32.153  20.155  22.508  1.00  0.00     0.021 A 
ATOM     23  C   UNL A   1      32.543  20.563  24.877  1.00  0.00     0.021 A 
ATOM     24  C   UNL A   1      32.457  19.688  23.791  1.00  0.00     0.067 A 
BRANCH  24  25
ATOM     25  S   UNL A   1      32.934  17.986  23.981  1.00  0.00     0.175 S 
ATOM     26  C   UNL A   1      34.625  18.082  24.492  1.00  0.00     0.163 C 
ATOM     27  O   UNL A   1      32.162  17.448  25.085  1.00  0.00    -0.224 OA
ATOM     28  O   UNL A   1      32.897  17.363  22.673  1.00  0.00    -0.224 OA
ENDBRANCH  24  25
ENDBRANCH   7  19
ENDBRANCH   4   6
ENDBRANCH   3   4
ENDBRANCH   2   3
ENDBRANCH   1   2
BRANCH   1  29
ATOM     29  O   UNL A   1      33.222  29.949  25.320  1.00  0.00    -0.458 OA
BRANCH  29  30
ATOM     30  C   UNL A   1      33.114  30.472  26.558  1.00  0.00     0.338 C 
ATOM     31  O   UNL A   1      32.097  30.878  27.111  1.00  0.00    -0.246 OA
BRANCH  30  32
ATOM     32  C   UNL A   1      34.442  30.388  27.193  1.00  0.00     0.060 A 
ATOM     33  C   UNL A   1      34.980  29.125  27.418  1.00  0.00     0.016 A 
ATOM     34  C   UNL A   1      35.135  31.515  27.630  1.00  0.00     0.016 A 
ATOM     35  C   UNL A   1      36.160  28.980  28.141  1.00  0.00     0.010 A 
ATOM     36  C   UNL A   1      36.376  31.362  28.276  1.00  0.00     0.010 A 
ATOM     37  C   UNL A   1      36.891  30.088  28.584  1.00  0.00    -0.014 A 
BRANCH  37  38
ATOM     38  C   UNL A   1      38.119  29.887  29.426  1.00  0.00     0.031 A 
ATOM     39  C   UNL A   1      39.301  29.118  28.878  1.00  0.00     0.074 A 
ATOM     40  C   UNL A   1      38.254  30.463  30.643  1.00  0.00     0.049 A 
ATOM     41  N   UNL A   1      40.389  28.726  29.495  1.00  0.00    -0.248 NA
ATOM     42  C   UNL A   1      39.266  28.757  27.452  1.00  0.00     0.031 C 
ATOM     43  C   UNL A   1      37.257  31.307  31.304  1.00  0.00     0.029 A 
ATOM     44  N   UNL A   1      39.303  30.443  31.538  1.00  0.00    -0.354 N 
ATOM     45  C   UNL A   1      41.128  28.015  28.557  1.00  0.00     0.074 A 
ATOM     46  C   UNL A   1      40.372  28.035  27.323  1.00  0.00     0.031 C 
ATOM     47  C   UNL A   1      37.760  31.771  32.457  1.00  0.00     0.029 A 
ATOM     48  C   UNL A   1      39.063  31.157  32.692  1.00  0.00     0.049 A 
ATOM     49  H   UNL A   1      40.146  29.964  31.368  1.00  0.00     0.167 HD
ATOM     50  C   UNL A   1      42.333  27.415  28.691  1.00  0.00     0.034 A 
ATOM     51  C   UNL A   1      39.764  31.265  33.841  1.00  0.00     0.034 A 
ATOM     52  C   UNL A   1      43.147  27.452  29.874  1.00  0.00     0.049 A 
ATOM     53  C   UNL A   1      41.050  30.502  34.005  1.00  0.00     0.074 A 
ATOM     54  C   UNL A   1      44.384  26.864  30.082  1.00  0.00     0.029 A 
ATOM     55  N   UNL A   1      42.828  28.127  31.038  1.00  0.00    -0.354 N 
ATOM     56  N   UNL A   1      41.715  29.808  33.116  1.00  0.00    -0.248 NA
ATOM     57  C   UNL A   1      41.670  30.521  35.338  1.00  0.00     0.031 C 
ATOM     58  C   UNL A   1      44.805  27.172  31.380  1.00  0.00     0.029 A 
ATOM     59  C   UNL A   1      43.832  27.956  31.976  1.00  0.00     0.049 A 
ATOM     60  H   UNL A   1      42.006  28.651  31.179  1.00  0.00     0.167 HD
ATOM     61  C   UNL A   1      42.832  29.311  33.781  1.00  0.00     0.074 A 
ATOM     62  C   UNL A   1      42.774  29.813  35.136  1.00  0.00     0.031 C 
ATOM     63  C   UNL A   1      43.799  28.486  33.313  1.00  0.00     0.034 A 
BRANCH  50  64
ATOM     64  C   UNL A   1      42.870  26.666  27.503  1.00  0.00     0.023 A 
ATOM     65  C   UNL A   1      43.536  27.366  26.478  1.00  0.00     0.012 A 
ATOM     66  C   UNL A   1      42.774  25.262  27.439  1.00  0.00     0.148 A 
ATOM     67  C   UNL A   1      44.084  26.679  25.397  1.00  0.00     0.002 A 
ATOM     68  C   UNL A   1      43.353  24.582  26.375  1.00  0.00     0.091 A 
ATOM     69  F   UNL A   1      42.112  24.621  28.413  1.00  0.00    -0.205 F 
ATOM     70  C   UNL A   1      44.002  25.288  25.350  1.00  0.00     0.022 A 
BRANCH  68  71
ATOM     71  S   UNL A   1      43.348  22.789  26.268  1.00  0.00     0.127 S 
ATOM     72  O   UNL A   1      42.754  22.418  27.552  1.00  0.00    -0.237 OA
ATOM     73  O   UNL A   1      42.489  22.547  25.108  1.00  0.00    -0.237 OA
ATOM     74  O   UNL A   1      44.738  22.398  26.082  1.00  0.00    -0.744 OA
ENDBRANCH  68  71
ENDBRANCH  50  64
BRANCH  51  75
ATOM     75  C   UNL A   1      39.233  32.097  34.964  1.00  0.00     0.023 A 
ATOM     76  C   UNL A   1      38.263  31.564  35.833  1.00  0.00     0.012 A 
ATOM     77  C   UNL A   1      39.708  33.405  35.188  1.00  0.00     0.148 A 
ATOM     78  C   UNL A   1      37.773  32.321  36.900  1.00  0.00     0.002 A 
ATOM     79  C   UNL A   1      39.274  34.122  36.297  1.00  0.00     0.091 A 
ATOM     80  F   UNL A   1      40.590  33.922  34.322  1.00  0.00    -0.205 F 
ATOM     81  C   UNL A   1      38.293  33.590  37.145  1.00  0.00     0.022 A 
BRANCH  79  82
ATOM     82  S   UNL A   1      40.041  35.678  36.760  1.00  0.00     0.127 S 
ATOM     83  O   UNL A   1      41.460  35.346  36.707  1.00  0.00    -0.237 OA
ATOM     84  O   UNL A   1      39.578  36.579  35.703  1.00  0.00    -0.237 OA
ATOM     85  O   UNL A   1      39.501  35.989  38.079  1.00  0.00    -0.744 OA
ENDBRANCH  79  82
ENDBRANCH  51  75
BRANCH  63  86
ATOM     86  C   UNL A   1      44.877  28.050  34.270  1.00  0.00     0.023 A 
ATOM     87  C   UNL A   1      45.965  28.912  34.514  1.00  0.00     0.012 A 
ATOM     88  C   UNL A   1      44.778  26.842  34.987  1.00  0.00     0.148 A 
ATOM     89  C   UNL A   1      46.949  28.569  35.441  1.00  0.00     0.002 A 
ATOM     90  C   UNL A   1      45.743  26.524  35.938  1.00  0.00     0.091 A 
ATOM     91  F   UNL A   1      43.745  26.027  34.729  1.00  0.00    -0.205 F 
ATOM     92  C   UNL A   1      46.832  27.382  36.159  1.00  0.00     0.022 A 
BRANCH  90  93
ATOM     93  S   UNL A   1      45.636  25.058  36.972  1.00  0.00     0.127 S 
ATOM     94  O   UNL A   1      44.218  25.044  37.326  1.00  0.00    -0.237 OA
ATOM     95  O   UNL A   1      46.044  23.997  36.050  1.00  0.00    -0.237 OA
ATOM     96  O   UNL A   1      46.556  25.280  38.080  1.00  0.00    -0.744 OA
ENDBRANCH  90  93
ENDBRANCH  63  86
ENDBRANCH  37  38
ENDBRANCH  30  32
ENDBRANCH  29  30
ENDBRANCH   1  29
TORSDOF 18
ENDMDL
MODEL 2
REMARK VINA RESULT:     -12.6      4.759     10.073
REMARK SMILES CC(=O)Nc1ccc(/C(=C\c2ccc(S(C)(=O)=O)cc2)C(=O)OCCOC(=O)c2ccc(-c3c4nc(c(-c5cccc(S(=O)(=O)[O-])c5F)c5ccc([nH]5)c(-c5cccc(S(=O)(=O)[O-])c5F)c5nc(c(-c6cccc(S(=O)(=O)[O-])c6F)c6ccc3[nH]6)C=C5)C=C4)cc2)cc1
REMARK SMILES IDX 25 1 24 2 23 3 21 4 22 5 9 6 10 7 8 8 5 9 6 10 93 11 7 12
REMARK SMILES IDX 92 13 4 14 1 15 2 16 3 17 11 19 12 20 20 21 13 22 19 23
REMARK SMILES IDX 14 24 15 25 16 26 17 27 18 28 26 29 27 30 28 31 29 32 30 33
REMARK SMILES IDX 91 34 31 35 90 36 32 37 33 38 34 39 84 40 35 41 89 42 83 43
REMARK SMILES IDX 85 44 36 45 88 46 82 47 81 48 37 50 69 51 49 52 68 53 50 54
REMARK SMILES IDX 53 55 67 56 86 57 51 58 52 59 66 61 87 62 54 63 38 64 39 65
REMARK SMILES IDX 47 66 40 67 42 68 48 69 41 70 43 71 44 72 45 73 46 74 70 75
REMARK SMILES IDX 71 76 79 77 72 78 74 79 80 80 73 81 75 82 76 83 77 84 78 85
REMARK SMILES IDX 55 86 56 87 64 88 57 89 59 90 65 91 58 92 60 93 61 94 62 95
REMARK SMILES IDX 63 96
REMARK H PARENT 4 18 85 49 53 60
REMARK Flexibility Score: inf
ROOT
ATOM      1  C   UNL A   1      35.666  22.026  24.441  1.00  0.00     0.275 C 
ENDROOT
BRANCH   1   2
ATOM      2  C   UNL A   1      34.176  22.038  24.780  1.00  0.00     0.275 C 
BRANCH   2   3
ATOM      3  O   UNL A   1      33.686  23.397  24.748  1.00  0.00    -0.458 OA
BRANCH   3   4
ATOM      4  C   UNL A   1      32.637  23.713  25.561  1.00  0.00     0.338 C 
ATOM      5  O   UNL A   1      32.223  23.025  26.481  1.00  0.00    -0.246 OA
BRANCH   4   6
ATOM      6  C   UNL A   1      32.047  25.048  25.180  1.00  0.00     0.067 C 
ATOM      7  C   UNL A   1      31.181  24.967  24.137  1.00  0.00     0.024 C 
BRANCH   6   8
ATOM      8  C   UNL A   1      32.457  26.307  25.905  1.00  0.00    -0.011 A 
ATOM      9  C   UNL A   1      33.097  28.962  26.750  1.00  0.00     0.041 A 
ATOM     10  C   UNL A   1      31.925  28.348  27.169  1.00  0.00     0.027 A 
ATOM     11  C   UNL A   1      34.035  28.180  26.096  1.00  0.00     0.027 A 
ATOM     12  C   UNL A   1      31.626  27.037  26.765  1.00  0.00     0.011 A 
ATOM     13  C   UNL A   1      33.721  26.867  25.700  1.00  0.00     0.011 A 
BRANCH   9  14
ATOM     14  N   UNL A   1      33.276  30.315  27.062  1.00  0.00    -0.326 N 
ATOM     15  C   UNL A   1      35.596  30.259  27.979  1.00  0.00     0.114 C 
ATOM     16  C   UNL A   1      34.303  30.969  27.684  1.00  0.00     0.221 C 
ATOM     17  O   UNL A   1      34.178  32.178  27.891  1.00  0.00    -0.275 OA
ATOM     18  H   UNL A   1      32.533  30.897  26.785  1.00  0.00     0.169 HD
ENDBRANCH   9  14
ENDBRANCH   6   8
BRANCH   7  19
ATOM     19  C   UNL A   1      30.419  26.066  23.542  1.00  0.00    -0.025 A 
ATOM     20  C   UNL A   1      29.067  26.184  23.890  1.00  0.00     0.009 A 
ATOM     21  C   UNL A   1      31.055  27.080  22.815  1.00  0.00     0.009 A 
ATOM     22  C   UNL A   1      28.387  27.372  23.632  1.00  0.00     0.021 A 
ATOM     23  C   UNL A   1      30.376  28.273  22.554  1.00  0.00     0.021 A 
ATOM     24  C   UNL A   1      29.059  28.422  22.999  1.00  0.00     0.067 A 
BRANCH  24  25
ATOM     25  S   UNL A   1      28.281  30.019  22.949  1.00  0.00     0.175 S 
ATOM     26  C   UNL A   1      28.281  30.429  21.228  1.00  0.00     0.163 C 
ATOM     27  O   UNL A   1      26.903  29.834  23.365  1.00  0.00    -0.224 OA
ATOM     28  O   UNL A   1      29.146  30.959  23.633  1.00  0.00    -0.224 OA
ENDBRANCH  24  25
ENDBRANCH   7  19
ENDBRANCH   4   6
ENDBRANCH   3   4
ENDBRANCH   2   3
ENDBRANCH   1   2
BRANCH   1  29
ATOM     29  O   UNL A   1      36.383  22.066  25.685  1.00  0.00    -0.458 OA
BRANCH  29  30
ATOM     30  C   UNL A   1      37.670  21.664  25.688  1.00  0.00     0.338 C 
ATOM     31  O   UNL A   1      38.131  20.630  25.217  1.00  0.00    -0.246 OA
BRANCH  30  32
ATOM     32  C   UNL A   1      38.472  22.749  26.285  1.00  0.00     0.060 A 
ATOM     33  C   UNL A   1      37.965  24.043  26.228  1.00  0.00     0.016 A 
ATOM     34  C   UNL A   1      39.733  22.531  26.836  1.00  0.00     0.016 A 
ATOM     35  C   UNL A   1      38.740  25.121  26.644  1.00  0.00     0.010 A 
ATOM     36  C   UNL A   1      40.469  23.618  27.342  1.00  0.00     0.010 A 
ATOM     37  C   UNL A   1      40.005  24.941  27.215  1.00  0.00    -0.014 A 
BRANCH  37  38
ATOM     38  C   UNL A   1      40.839  26.136  27.581  1.00  0.00     0.031 A 
ATOM     39  C   UNL A   1      40.286  27.195  28.510  1.00  0.00     0.074 A 
ATOM     40  C   UNL A   1      42.127  26.257  27.187  1.00  0.00     0.049 A 
ATOM     41  N   UNL A   1      40.797  28.357  28.834  1.00  0.00    -0.248 NA
ATOM     42  C   UNL A   1      39.004  26.907  29.172  1.00  0.00     0.031 C 
ATOM     43  C   UNL A   1      42.860  25.299  26.358  1.00  0.00     0.029 A 
ATOM     44  N   UNL A   1      43.063  27.235  27.452  1.00  0.00    -0.354 N 
ATOM     45  C   UNL A   1      39.871  28.964  29.674  1.00  0.00     0.074 A 
ATOM     46  C   UNL A   1      38.768  28.039  29.821  1.00  0.00     0.031 C 
ATOM     47  C   UNL A   1      44.134  25.699  26.235  1.00  0.00     0.029 A 
ATOM     48  C   UNL A   1      44.287  27.008  26.861  1.00  0.00     0.049 A 
ATOM     49  H   UNL A   1      42.874  28.022  28.012  1.00  0.00     0.167 HD
ATOM     50  C   UNL A   1      39.931  30.168  30.289  1.00  0.00     0.034 A 
ATOM     51  C   UNL A   1      45.392  27.778  26.766  1.00  0.00     0.034 A 
ATOM     52  C   UNL A   1      41.049  31.069  30.235  1.00  0.00     0.049 A 
ATOM     53  C   UNL A   1      45.395  29.156  27.368  1.00  0.00     0.074 A 
ATOM     54  C   UNL A   1      41.180  32.310  30.835  1.00  0.00     0.029 A 
ATOM     55  N   UNL A   1      42.235  30.825  29.565  1.00  0.00    -0.354 N 
ATOM     56  N   UNL A   1      44.496  29.724  28.131  1.00  0.00    -0.248 NA
ATOM     57  C   UNL A   1      46.559  30.008  27.077  1.00  0.00     0.031 C 
ATOM     58  C   UNL A   1      42.441  32.823  30.515  1.00  0.00     0.029 A 
ATOM     59  C   UNL A   1      43.096  31.898  29.721  1.00  0.00     0.049 A 
ATOM     60  H   UNL A   1      42.436  30.008  29.054  1.00  0.00     0.167 HD
ATOM     61  C   UNL A   1      44.986  30.996  28.413  1.00  0.00     0.074 A 
ATOM     62  C   UNL A   1      46.278  31.103  27.771  1.00  0.00     0.031 C 
ATOM     63  C   UNL A   1      44.398  31.994  29.116  1.00  0.00     0.034 A 
BRANCH  50  64
ATOM     64  C   UNL A   1      38.743  30.588  31.109  1.00  0.00     0.023 A 
ATOM     65  C   UNL A   1      38.536  30.021  32.381  1.00  0.00     0.012 A 
ATOM     66  C   UNL A   1      37.872  31.592  30.644  1.00  0.00     0.148 A 
ATOM     67  C   UNL A   1      37.467  30.437  33.173  1.00  0.00     0.002 A 
ATOM     68  C   UNL A   1      36.830  32.026  31.453  1.00  0.00     0.091 A 
ATOM     69  F   UNL A   1      38.073  32.097  29.418  1.00  0.00    -0.205 F 
ATOM     70  C   UNL A   1      36.622  31.446  32.714  1.00  0.00     0.022 A 
BRANCH  68  71
ATOM     71  S   UNL A   1      35.732  33.362  30.967  1.00  0.00     0.127 S 
ATOM     72  O   UNL A   1      34.436  32.687  30.947  1.00  0.00    -0.237 OA
ATOM     73  O   UNL A   1      35.902  34.320  32.061  1.00  0.00    -0.237 OA
ATOM     74  O   UNL A   1      36.219  33.828  29.677  1.00  0.00    -0.744 OA
ENDBRANCH  68  71
ENDBRANCH  50  64
BRANCH  51  75
ATOM     75  C   UNL A   1      46.586  27.280  26.017  1.00  0.00     0.023 A 
ATOM     76  C   UNL A   1      46.673  27.475  24.626  1.00  0.00     0.012 A 
ATOM     77  C   UNL A   1      47.648  26.637  26.684  1.00  0.00     0.148 A 
ATOM     78  C   UNL A   1      47.792  27.035  23.915  1.00  0.00     0.002 A 
ATOM     79  C   UNL A   1      48.792  26.273  25.984  1.00  0.00     0.091 A 
ATOM     80  F   UNL A   1      47.530  26.406  27.999  1.00  0.00    -0.205 F 
ATOM     81  C   UNL A   1      48.860  26.454  24.596  1.00  0.00     0.022 A 
BRANCH  79  82
ATOM     82  S   UNL A   1      50.262  25.691  26.835  1.00  0.00     0.127 S 
ATOM     83  O   UNL A   1      49.787  24.458  27.453  1.00  0.00    -0.237 OA
ATOM     84  O   UNL A   1      51.206  25.505  25.731  1.00  0.00    -0.237 OA
ATOM     85  O   UNL A   1      50.625  26.769  27.747  1.00  0.00    -0.744 OA
ENDBRANCH  79  82
ENDBRANCH  51  75
BRANCH  63  86
ATOM     86  C   UNL A   1      45.130  33.305  29.224  1.00  0.00     0.023 A 
ATOM     87  C   UNL A   1      46.035  33.499  30.286  1.00  0.00     0.012 A 
ATOM     88  C   UNL A   1      44.993  34.305  28.242  1.00  0.00     0.148 A 
ATOM     89  C   UNL A   1      46.777  34.676  30.383  1.00  0.00     0.002 A 
ATOM     90  C   UNL A   1      45.765  35.461  28.323  1.00  0.00     0.091 A 
ATOM     91  F   UNL A   1      44.115  34.111  27.247  1.00  0.00    -0.205 F 
ATOM     92  C   UNL A   1      46.649  35.651  29.396  1.00  0.00     0.022 A 
BRANCH  90  93
ATOM     93  S   UNL A   1      45.732  36.736  27.057  1.00  0.00     0.127 S 
ATOM     94  O   UNL A   1      46.577  37.770  27.652  1.00  0.00    -0.237 OA
ATOM     95  O   UNL A   1      46.326  36.051  25.909  1.00  0.00    -0.237 OA
ATOM     96  O   UNL A   1      44.330  37.096  26.886  1.00  0.00    -0.744 OA
ENDBRANCH  90  93
ENDBRANCH  63  86
ENDBRANCH  37  38
ENDBRANCH  30  32
ENDBRANCH  29  30
ENDBRANCH   1  29
TORSDOF 18
ENDMDL
MODEL 3
REMARK VINA RESULT:     -11.8      5.188      7.981
REMARK SMILES CC(=O)Nc1ccc(/C(=C\c2ccc(S(C)(=O)=O)cc2)C(=O)OCCOC(=O)c2ccc(-c3c4nc(c(-c5cccc(S(=O)(=O)[O-])c5F)c5ccc([nH]5)c(-c5cccc(S(=O)(=O)[O-])c5F)c5nc(c(-c6cccc(S(=O)(=O)[O-])c6F)c6ccc3[nH]6)C=C5)C=C4)cc2)cc1
REMARK SMILES IDX 25 1 24 2 23 3 21 4 22 5 9 6 10 7 8 8 5 9 6 10 93 11 7 12
REMARK SMILES IDX 92 13 4 14 1 15 2 16 3 17 11 19 12 20 20 21 13 22 19 23
REMARK SMILES IDX 14 24 15 25 16 26 17 27 18 28 26 29 27 30 28 31 29 32 30 33
REMARK SMILES IDX 91 34 31 35 90 36 32 37 33 38 34 39 84 40 35 41 89 42 83 43
REMARK SMILES IDX 85 44 36 45 88 46 82 47 81 48 37 50 69 51 49 52 68 53 50 54
REMARK SMILES IDX 53 55 67 56 86 57 51 58 52 59 66 61 87 62 54 63 38 64 39 65
REMARK SMILES IDX 47 66 40 67 42 68 48 69 41 70 43 71 44 72 45 73 46 74 70 75
REMARK SMILES IDX 71 76 79 77 72 78 74 79 80 80 73 81 75 82 76 83 77 84 78 85
REMARK SMILES IDX 55 86 56 87 64 88 57 89 59 90 65 91 58 92 60 93 61 94 62 95
REMARK SMILES IDX 63 96
REMARK H PARENT 4 18 85 49 53 60
REMARK Flexibility Score: inf
ROOT
ATOM      1  C   UNL A   1      38.730  19.704  24.939  1.00  0.00     0.275 C 
ENDROOT
BRANCH   1   2
ATOM      2  C   UNL A   1      37.412  20.384  25.305  1.00  0.00     0.275 C 
BRANCH   2   3
ATOM      3  O   UNL A   1      37.237  21.565  24.490  1.00  0.00    -0.458 OA
BRANCH   3   4
ATOM      4  C   UNL A   1      36.827  22.709  25.110  1.00  0.00     0.338 C 
ATOM      5  O   UNL A   1      37.543  23.460  25.755  1.00  0.00    -0.246 OA
BRANCH   4   6
ATOM      6  C   UNL A   1      35.353  22.941  24.887  1.00  0.00     0.067 C 
ATOM      7  C   UNL A   1      35.068  24.218  24.523  1.00  0.00     0.024 C 
BRANCH   6   8
ATOM      8  C   UNL A   1      34.357  21.830  25.107  1.00  0.00    -0.011 A 
ATOM      9  C   UNL A   1      32.939  19.361  25.378  1.00  0.00     0.041 A 
ATOM     10  C   UNL A   1      33.349  20.070  26.499  1.00  0.00     0.027 A 
ATOM     11  C   UNL A   1      33.047  19.986  24.147  1.00  0.00     0.027 A 
ATOM     12  C   UNL A   1      34.029  21.291  26.359  1.00  0.00     0.011 A 
ATOM     13  C   UNL A   1      33.728  21.211  24.023  1.00  0.00     0.011 A 
BRANCH   9  14
ATOM     14  N   UNL A   1      32.396  18.086  25.572  1.00  0.00    -0.326 N 
ATOM     15  C   UNL A   1      34.370  16.669  25.006  1.00  0.00     0.114 C 
ATOM     16  C   UNL A   1      32.917  16.841  25.351  1.00  0.00     0.221 C 
ATOM     17  O   UNL A   1      32.190  15.866  25.553  1.00  0.00    -0.275 OA
ATOM     18  H   UNL A   1      31.479  18.085  25.929  1.00  0.00     0.169 HD
ENDBRANCH   9  14
ENDBRANCH   6   8
BRANCH   7  19
ATOM     19  C   UNL A   1      33.747  24.764  24.205  1.00  0.00    -0.025 A 
ATOM     20  C   UNL A   1      32.984  25.280  25.261  1.00  0.00     0.009 A 
ATOM     21  C   UNL A   1      33.339  24.953  22.879  1.00  0.00     0.009 A 
ATOM     22  C   UNL A   1      31.892  26.100  24.990  1.00  0.00     0.021 A 
ATOM     23  C   UNL A   1      32.243  25.774  22.603  1.00  0.00     0.021 A 
ATOM     24  C   UNL A   1      31.552  26.371  23.661  1.00  0.00     0.067 A 
BRANCH  24  25
ATOM     25  S   UNL A   1      30.356  27.645  23.335  1.00  0.00     0.175 S 
ATOM     26  C   UNL A   1      28.817  26.897  23.785  1.00  0.00     0.163 C 
ATOM     27  O   UNL A   1      30.620  28.725  24.267  1.00  0.00    -0.224 OA
ATOM     28  O   UNL A   1      30.338  27.883  21.905  1.00  0.00    -0.224 OA
ENDBRANCH  24  25
ENDBRANCH   7  19
ENDBRANCH   4   6
ENDBRANCH   3   4
ENDBRANCH   2   3
ENDBRANCH   1   2
BRANCH   1  29
ATOM     29  O   UNL A   1      39.441  19.473  26.165  1.00  0.00    -0.458 OA
BRANCH  29  30
ATOM     30  C   UNL A   1      40.779  19.641  26.164  1.00  0.00     0.338 C 
ATOM     31  O   UNL A   1      41.631  18.849  25.775  1.00  0.00    -0.246 OA
BRANCH  30  32
ATOM     32  C   UNL A   1      41.054  21.012  26.632  1.00  0.00     0.060 A 
ATOM     33  C   UNL A   1      40.563  22.072  25.877  1.00  0.00     0.016 A 
ATOM     34  C   UNL A   1      41.837  21.276  27.754  1.00  0.00     0.016 A 
ATOM     35  C   UNL A   1      40.912  23.382  26.190  1.00  0.00     0.010 A 
ATOM     36  C   UNL A   1      42.105  22.609  28.118  1.00  0.00     0.010 A 
ATOM     37  C   UNL A   1      41.685  23.688  27.316  1.00  0.00    -0.014 A 
BRANCH  37  38
ATOM     38  C   UNL A   1      42.103  25.107  27.575  1.00  0.00     0.031 A 
ATOM     39  C   UNL A   1      43.465  25.593  27.132  1.00  0.00     0.074 A 
ATOM     40  C   UNL A   1      41.255  26.016  28.110  1.00  0.00     0.049 A 
ATOM     41  N   UNL A   1      44.056  26.736  27.382  1.00  0.00    -0.248 NA
ATOM     42  C   UNL A   1      44.260  24.690  26.285  1.00  0.00     0.031 C 
ATOM     43  C   UNL A   1      39.876  25.756  28.525  1.00  0.00     0.029 A 
ATOM     44  N   UNL A   1      41.425  27.358  28.379  1.00  0.00    -0.354 N 
ATOM     45  C   UNL A   1      45.311  26.659  26.790  1.00  0.00     0.074 A 
ATOM     46  C   UNL A   1      45.397  25.361  26.156  1.00  0.00     0.031 C 
ATOM     47  C   UNL A   1      39.309  26.901  28.932  1.00  0.00     0.029 A 
ATOM     48  C   UNL A   1      40.316  27.957  28.937  1.00  0.00     0.049 A 
ATOM     49  H   UNL A   1      42.260  27.843  28.189  1.00  0.00     0.167 HD
ATOM     50  C   UNL A   1      46.299  27.583  26.751  1.00  0.00     0.034 A 
ATOM     51  C   UNL A   1      40.132  29.189  29.459  1.00  0.00     0.034 A 
ATOM     52  C   UNL A   1      46.211  28.910  27.293  1.00  0.00     0.049 A 
ATOM     53  C   UNL A   1      41.278  30.161  29.500  1.00  0.00     0.074 A 
ATOM     54  C   UNL A   1      47.176  29.903  27.290  1.00  0.00     0.029 A 
ATOM     55  N   UNL A   1      45.095  29.444  27.911  1.00  0.00    -0.354 N 
ATOM     56  N   UNL A   1      42.468  30.056  28.963  1.00  0.00    -0.248 NA
ATOM     57  C   UNL A   1      41.063  31.415  30.239  1.00  0.00     0.031 C 
ATOM     58  C   UNL A   1      46.648  31.033  27.921  1.00  0.00     0.029 A 
ATOM     59  C   UNL A   1      45.351  30.745  28.311  1.00  0.00     0.049 A 
ATOM     60  H   UNL A   1      44.243  28.968  28.046  1.00  0.00     0.167 HD
ATOM     61  C   UNL A   1      43.140  31.229  29.295  1.00  0.00     0.074 A 
ATOM     62  C   UNL A   1      42.214  32.047  30.048  1.00  0.00     0.031 C 
ATOM     63  C   UNL A   1      44.421  31.577  29.026  1.00  0.00     0.034 A 
BRANCH  50  64
ATOM     64  C   UNL A   1      47.583  27.195  26.072  1.00  0.00     0.023 A 
ATOM     65  C   UNL A   1      48.570  26.495  26.791  1.00  0.00     0.012 A 
ATOM     66  C   UNL A   1      47.779  27.466  24.703  1.00  0.00     0.148 A 
ATOM     67  C   UNL A   1      49.743  26.084  26.161  1.00  0.00     0.002 A 
ATOM     68  C   UNL A   1      48.936  27.024  24.075  1.00  0.00     0.091 A 
ATOM     69  F   UNL A   1      46.837  28.159  24.047  1.00  0.00    -0.205 F 
ATOM     70  C   UNL A   1      49.921  26.339  24.802  1.00  0.00     0.022 A 
BRANCH  68  71
ATOM     71  S   UNL A   1      49.217  27.254  22.315  1.00  0.00     0.127 S 
ATOM     72  O   UNL A   1      50.675  27.174  22.237  1.00  0.00    -0.237 OA
ATOM     73  O   UNL A   1      48.513  26.111  21.733  1.00  0.00    -0.237 OA
ATOM     74  O   UNL A   1      48.640  28.550  21.987  1.00  0.00    -0.744 OA
ENDBRANCH  68  71
ENDBRANCH  50  64
BRANCH  51  75
ATOM     75  C   UNL A   1      38.807  29.561  30.042  1.00  0.00     0.023 A 
ATOM     76  C   UNL A   1      38.501  29.209  31.369  1.00  0.00     0.012 A 
ATOM     77  C   UNL A   1      37.860  30.288  29.292  1.00  0.00     0.148 A 
ATOM     78  C   UNL A   1      37.276  29.568  31.936  1.00  0.00     0.002 A 
ATOM     79  C   UNL A   1      36.677  30.710  29.887  1.00  0.00     0.091 A 
ATOM     80  F   UNL A   1      38.138  30.570  28.012  1.00  0.00    -0.205 F 
ATOM     81  C   UNL A   1      36.373  30.336  31.204  1.00  0.00     0.022 A 
BRANCH  79  82
ATOM     82  S   UNL A   1      35.567  31.849  29.053  1.00  0.00     0.127 S 
ATOM     83  O   UNL A   1      34.670  32.244  30.134  1.00  0.00    -0.237 OA
ATOM     84  O   UNL A   1      36.483  32.897  28.597  1.00  0.00    -0.237 OA
ATOM     85  O   UNL A   1      34.971  31.074  27.972  1.00  0.00    -0.744 OA
ENDBRANCH  79  82
ENDBRANCH  51  75
BRANCH  63  86
ATOM     86  C   UNL A   1      44.919  32.896  29.556  1.00  0.00     0.023 A 
ATOM     87  C   UNL A   1      45.596  32.924  30.792  1.00  0.00     0.012 A 
ATOM     88  C   UNL A   1      44.797  34.082  28.807  1.00  0.00     0.148 A 
ATOM     89  C   UNL A   1      46.126  34.117  31.284  1.00  0.00     0.002 A 
ATOM     90  C   UNL A   1      45.362  35.260  29.286  1.00  0.00     0.091 A 
ATOM     91  F   UNL A   1      44.136  34.039  27.642  1.00  0.00    -0.205 F 
ATOM     92  C   UNL A   1      46.018  35.280  30.527  1.00  0.00     0.022 A 
BRANCH  90  93
ATOM     93  S   UNL A   1      45.347  36.792  28.346  1.00  0.00     0.127 S 
ATOM     94  O   UNL A   1      43.945  37.191  28.448  1.00  0.00    -0.237 OA
ATOM     95  O   UNL A   1      46.276  37.631  29.104  1.00  0.00    -0.237 OA
ATOM     96  O   UNL A   1      45.804  36.445  27.007  1.00  0.00    -0.744 OA
ENDBRANCH  90  93
ENDBRANCH  63  86
ENDBRANCH  37  38
ENDBRANCH  30  32
ENDBRANCH  29  30
ENDBRANCH   1  29
TORSDOF 18
ENDMDL
