MODEL 1
REMARK VINA RESULT:     -10.6      0.000      0.000
REMARK SMILES CCC[C@](C)(C(=O)OCCOC(=O)c1ccc(-c2c3nc(c(-c4cccc(S(=O)(=O)[O-])c4F)c4ccc([nH]4)c(-c4cccc(S(=O)(=O)[O-])c4F)c4nc(c(-c5cccc(S(=O)(=O)[O-])c5F)c5ccc2[nH]5)C=C4)C=C3)cc1)[NH+]1CC(C(C)(C)C)C1
REMARK SMILES IDX 10 1 9 2 8 3 6 4 7 5 4 6 5 7 3 8 2 9 1 10 77 11 78 12 84 13
REMARK SMILES IDX 79 15 80 16 81 17 82 18 83 19 11 20 12 21 13 22 14 23 15 24
REMARK SMILES IDX 76 25 16 26 75 27 17 28 18 29 19 30 69 31 20 32 74 33 68 34
REMARK SMILES IDX 70 35 21 36 73 37 67 38 66 39 22 41 54 42 34 43 53 44 35 45
REMARK SMILES IDX 38 46 52 47 71 48 36 49 37 50 51 52 72 53 39 54 23 55 24 56
REMARK SMILES IDX 32 57 25 58 27 59 33 60 26 61 28 62 29 63 30 64 31 65 55 66
REMARK SMILES IDX 56 67 64 68 57 69 59 70 65 71 58 72 60 73 61 74 62 75 63 76
REMARK SMILES IDX 40 77 41 78 49 79 42 80 44 81 50 82 43 83 45 84 46 85 47 86
REMARK SMILES IDX 48 87
REMARK H PARENT 77 14 70 40 38 51
REMARK Flexibility Score: inf
ROOT
ATOM      1  C   UNL A   1      31.401  30.068  25.377  1.00  0.00     0.275 C 
ENDROOT
BRANCH   1   2
ATOM      2  C   UNL A   1      31.208  29.197  24.135  1.00  0.00     0.274 C 
BRANCH   2   3
ATOM      3  O   UNL A   1      30.589  27.933  24.455  1.00  0.00    -0.457 OA
BRANCH   3   4
ATOM      4  C   UNL A   1      31.168  26.850  23.859  1.00  0.00     0.367 C 
ATOM      5  O   UNL A   1      31.132  26.672  22.645  1.00  0.00    -0.245 OA
BRANCH   4   6
ATOM      6  C   UNL A   1      31.818  25.846  24.874  1.00  0.00     0.193 C 
ATOM      7  C   UNL A   1      31.714  26.384  26.323  1.00  0.00     0.092 C 
BRANCH   6   8
ATOM      8  C   UNL A   1      30.973  24.527  24.806  1.00  0.00     0.080 C 
BRANCH   8   9
ATOM      9  C   UNL A   1      30.793  23.654  26.063  1.00  0.00     0.004 C 
ATOM     10  C   UNL A   1      31.599  22.368  26.123  1.00  0.00     0.004 C 
ENDBRANCH   8   9
ENDBRANCH   6   8
BRANCH   6  11
ATOM     11  N   UNL A   1      33.205  25.608  24.404  1.00  0.00    -0.320 N 
ATOM     12  C   UNL A   1      34.168  25.101  25.425  1.00  0.00     0.273 C 
ATOM     13  C   UNL A   1      33.468  24.349  23.644  1.00  0.00     0.273 C 
ATOM     14  H   UNL A   1      33.305  26.521  23.963  1.00  0.00     0.349 HD
ATOM     15  C   UNL A   1      34.922  24.452  24.219  1.00  0.00     0.105 C 
BRANCH  15  16
ATOM     16  C   UNL A   1      35.856  23.249  24.436  1.00  0.00    -0.025 C 
ATOM     17  C   UNL A   1      36.600  22.953  23.127  1.00  0.00     0.011 C 
ATOM     18  C   UNL A   1      36.882  23.635  25.517  1.00  0.00     0.011 C 
ATOM     19  C   UNL A   1      35.102  21.997  24.891  1.00  0.00     0.011 C 
ENDBRANCH  15  16
ENDBRANCH   6  11
ENDBRANCH   4   6
ENDBRANCH   3   4
ENDBRANCH   2   3
ENDBRANCH   1   2
BRANCH   1  20
ATOM     20  O   UNL A   1      32.793  30.167  25.721  1.00  0.00    -0.458 OA
BRANCH  20  21
ATOM     21  C   UNL A   1      33.084  30.968  26.772  1.00  0.00     0.338 C 
ATOM     22  O   UNL A   1      32.366  31.834  27.246  1.00  0.00    -0.246 OA
BRANCH  21  23
ATOM     23  C   UNL A   1      34.426  30.667  27.317  1.00  0.00     0.060 A 
ATOM     24  C   UNL A   1      34.801  29.361  27.628  1.00  0.00     0.016 A 
ATOM     25  C   UNL A   1      35.257  31.729  27.680  1.00  0.00     0.016 A 
ATOM     26  C   UNL A   1      35.934  29.126  28.406  1.00  0.00     0.010 A 
ATOM     27  C   UNL A   1      36.457  31.478  28.354  1.00  0.00     0.010 A 
ATOM     28  C   UNL A   1      36.792  30.178  28.765  1.00  0.00    -0.014 A 
BRANCH  28  29
ATOM     29  C   UNL A   1      38.033  29.919  29.551  1.00  0.00     0.031 A 
ATOM     30  C   UNL A   1      39.113  29.006  29.022  1.00  0.00     0.074 A 
ATOM     31  C   UNL A   1      38.193  30.499  30.757  1.00  0.00     0.049 A 
ATOM     32  N   UNL A   1      40.194  28.573  29.622  1.00  0.00    -0.248 NA
ATOM     33  C   UNL A   1      38.967  28.520  27.640  1.00  0.00     0.031 C 
ATOM     34  C   UNL A   1      37.247  31.426  31.381  1.00  0.00     0.029 A 
ATOM     35  N   UNL A   1      39.203  30.390  31.683  1.00  0.00    -0.354 N 
ATOM     36  C   UNL A   1      40.836  27.747  28.708  1.00  0.00     0.074 A 
ATOM     37  C   UNL A   1      40.026  27.734  27.509  1.00  0.00     0.031 C 
ATOM     38  C   UNL A   1      37.727  31.817  32.568  1.00  0.00     0.029 A 
ATOM     39  C   UNL A   1      38.967  31.100  32.837  1.00  0.00     0.049 A 
ATOM     40  H   UNL A   1      40.016  29.855  31.534  1.00  0.00     0.167 HD
ATOM     41  C   UNL A   1      42.003  27.071  28.843  1.00  0.00     0.034 A 
ATOM     42  C   UNL A   1      39.634  31.134  34.007  1.00  0.00     0.034 A 
ATOM     43  C   UNL A   1      42.826  27.098  30.023  1.00  0.00     0.049 A 
ATOM     44  C   UNL A   1      40.860  30.285  34.175  1.00  0.00     0.074 A 
ATOM     45  C   UNL A   1      44.035  26.463  30.245  1.00  0.00     0.029 A 
ATOM     46  N   UNL A   1      42.519  27.790  31.184  1.00  0.00    -0.354 N 
ATOM     47  N   UNL A   1      41.479  29.551  33.284  1.00  0.00    -0.248 NA
ATOM     48  C   UNL A   1      41.473  30.262  35.510  1.00  0.00     0.031 C 
ATOM     49  C   UNL A   1      44.452  26.757  31.548  1.00  0.00     0.029 A 
ATOM     50  C   UNL A   1      43.503  27.577  32.136  1.00  0.00     0.049 A 
ATOM     51  H   UNL A   1      41.720  28.349  31.313  1.00  0.00     0.167 HD
ATOM     52  C   UNL A   1      42.556  28.977  33.948  1.00  0.00     0.074 A 
ATOM     53  C   UNL A   1      42.522  29.475  35.309  1.00  0.00     0.031 C 
ATOM     54  C   UNL A   1      43.474  28.100  33.477  1.00  0.00     0.034 A 
BRANCH  41  55
ATOM     55  C   UNL A   1      42.484  26.269  27.665  1.00  0.00     0.023 A 
ATOM     56  C   UNL A   1      43.353  26.870  26.733  1.00  0.00     0.012 A 
ATOM     57  C   UNL A   1      42.124  24.917  27.506  1.00  0.00     0.148 A 
ATOM     58  C   UNL A   1      43.846  26.141  25.651  1.00  0.00     0.002 A 
ATOM     59  C   UNL A   1      42.638  24.190  26.438  1.00  0.00     0.091 A 
ATOM     60  F   UNL A   1      41.272  24.373  28.386  1.00  0.00    -0.205 F 
ATOM     61  C   UNL A   1      43.497  24.800  25.508  1.00  0.00     0.022 A 
BRANCH  59  62
ATOM     62  S   UNL A   1      42.275  22.446  26.206  1.00  0.00     0.127 S 
ATOM     63  O   UNL A   1      43.011  22.152  24.977  1.00  0.00    -0.237 OA
ATOM     64  O   UNL A   1      42.843  21.841  27.412  1.00  0.00    -0.237 OA
ATOM     65  O   UNL A   1      40.825  22.354  26.114  1.00  0.00    -0.744 OA
ENDBRANCH  59  62
ENDBRANCH  41  55
BRANCH  42  66
ATOM     66  C   UNL A   1      39.132  32.004  35.109  1.00  0.00     0.023 A 
ATOM     67  C   UNL A   1      38.186  31.493  36.016  1.00  0.00     0.012 A 
ATOM     68  C   UNL A   1      39.653  33.297  35.316  1.00  0.00     0.148 A 
ATOM     69  C   UNL A   1      37.772  32.252  37.111  1.00  0.00     0.002 A 
ATOM     70  C   UNL A   1      39.288  34.020  36.445  1.00  0.00     0.091 A 
ATOM     71  F   UNL A   1      40.525  33.786  34.422  1.00  0.00    -0.205 F 
ATOM     72  C   UNL A   1      38.337  33.506  37.338  1.00  0.00     0.022 A 
BRANCH  70  73
ATOM     73  S   UNL A   1      40.112  35.558  36.878  1.00  0.00     0.127 S 
ATOM     74  O   UNL A   1      39.657  36.453  35.819  1.00  0.00    -0.237 OA
ATOM     75  O   UNL A   1      39.567  35.845  38.205  1.00  0.00    -0.237 OA
ATOM     76  O   UNL A   1      41.534  35.234  36.880  1.00  0.00    -0.744 OA
ENDBRANCH  70  73
ENDBRANCH  42  66
BRANCH  54  77
ATOM     77  C   UNL A   1      44.512  27.601  34.444  1.00  0.00     0.023 A 
ATOM     78  C   UNL A   1      45.686  28.356  34.637  1.00  0.00     0.012 A 
ATOM     79  C   UNL A   1      44.305  26.435  35.203  1.00  0.00     0.148 A 
ATOM     80  C   UNL A   1      46.647  27.948  35.559  1.00  0.00     0.002 A 
ATOM     81  C   UNL A   1      45.251  26.052  36.147  1.00  0.00     0.091 A 
ATOM     82  F   UNL A   1      43.192  25.717  34.986  1.00  0.00    -0.205 F 
ATOM     83  C   UNL A   1      46.426  26.803  36.321  1.00  0.00     0.022 A 
BRANCH  81  84
ATOM     84  S   UNL A   1      45.004  24.635  37.224  1.00  0.00     0.127 S 
ATOM     85  O   UNL A   1      43.776  25.002  37.925  1.00  0.00    -0.237 OA
ATOM     86  O   UNL A   1      44.855  23.534  36.269  1.00  0.00    -0.237 OA
ATOM     87  O   UNL A   1      46.202  24.553  38.049  1.00  0.00    -0.744 OA
ENDBRANCH  81  84
ENDBRANCH  54  77
ENDBRANCH  28  29
ENDBRANCH  21  23
ENDBRANCH  20  21
ENDBRANCH   1  20
TORSDOF 18
ENDMDL
MODEL 2
REMARK VINA RESULT:     -10.5      5.207     10.145
REMARK SMILES CCC[C@](C)(C(=O)OCCOC(=O)c1ccc(-c2c3nc(c(-c4cccc(S(=O)(=O)[O-])c4F)c4ccc([nH]4)c(-c4cccc(S(=O)(=O)[O-])c4F)c4nc(c(-c5cccc(S(=O)(=O)[O-])c5F)c5ccc2[nH]5)C=C4)C=C3)cc1)[NH+]1CC(C(C)(C)C)C1
REMARK SMILES IDX 10 1 9 2 8 3 6 4 7 5 4 6 5 7 3 8 2 9 1 10 77 11 78 12 84 13
REMARK SMILES IDX 79 15 80 16 81 17 82 18 83 19 11 20 12 21 13 22 14 23 15 24
REMARK SMILES IDX 76 25 16 26 75 27 17 28 18 29 19 30 69 31 20 32 74 33 68 34
REMARK SMILES IDX 70 35 21 36 73 37 67 38 66 39 22 41 54 42 34 43 53 44 35 45
REMARK SMILES IDX 38 46 52 47 71 48 36 49 37 50 51 52 72 53 39 54 23 55 24 56
REMARK SMILES IDX 32 57 25 58 27 59 33 60 26 61 28 62 29 63 30 64 31 65 55 66
REMARK SMILES IDX 56 67 64 68 57 69 59 70 65 71 58 72 60 73 61 74 62 75 63 76
REMARK SMILES IDX 40 77 41 78 49 79 42 80 44 81 50 82 43 83 45 84 46 85 47 86
REMARK SMILES IDX 48 87
REMARK H PARENT 77 14 70 40 38 51
REMARK Flexibility Score: inf
ROOT
ATOM      1  C   UNL A   1      37.546  20.294  24.995  1.00  0.00     0.275 C 
ENDROOT
BRANCH   1   2
ATOM      2  C   UNL A   1      36.020  20.381  24.975  1.00  0.00     0.274 C 
BRANCH   2   3
ATOM      3  O   UNL A   1      35.559  21.652  24.470  1.00  0.00    -0.457 OA
BRANCH   3   4
ATOM      4  C   UNL A   1      34.464  22.155  25.112  1.00  0.00     0.367 C 
ATOM      5  O   UNL A   1      34.045  21.680  26.163  1.00  0.00    -0.245 OA
BRANCH   4   6
ATOM      6  C   UNL A   1      33.778  23.341  24.348  1.00  0.00     0.193 C 
ATOM      7  C   UNL A   1      34.140  23.310  22.843  1.00  0.00     0.092 C 
BRANCH   6   8
ATOM      8  C   UNL A   1      32.230  23.111  24.459  1.00  0.00     0.080 C 
BRANCH   8   9
ATOM      9  C   UNL A   1      31.294  23.567  23.324  1.00  0.00     0.004 C 
ATOM     10  C   UNL A   1      30.409  24.768  23.609  1.00  0.00     0.004 C 
ENDBRANCH   8   9
ENDBRANCH   6   8
BRANCH   6  11
ATOM     11  N   UNL A   1      34.176  24.584  25.051  1.00  0.00    -0.320 N 
ATOM     12  C   UNL A   1      33.952  25.861  24.311  1.00  0.00     0.273 C 
ATOM     13  C   UNL A   1      33.247  25.116  26.093  1.00  0.00     0.273 C 
ATOM     14  H   UNL A   1      35.108  24.251  25.296  1.00  0.00     0.349 HD
ATOM     15  C   UNL A   1      33.833  26.522  25.723  1.00  0.00     0.105 C 
BRANCH  15  16
ATOM     16  C   UNL A   1      33.080  27.850  25.905  1.00  0.00    -0.025 C 
ATOM     17  C   UNL A   1      31.593  27.552  26.138  1.00  0.00     0.011 C 
ATOM     18  C   UNL A   1      33.651  28.551  27.150  1.00  0.00     0.011 C 
ATOM     19  C   UNL A   1      33.233  28.780  24.698  1.00  0.00     0.011 C 
ENDBRANCH  15  16
ENDBRANCH   6  11
ENDBRANCH   4   6
ENDBRANCH   3   4
ENDBRANCH   2   3
ENDBRANCH   1   2
BRANCH   1  20
ATOM     20  O   UNL A   1      38.121  21.510  25.504  1.00  0.00    -0.458 OA
BRANCH  20  21
ATOM     21  C   UNL A   1      39.314  21.381  26.128  1.00  0.00     0.338 C 
ATOM     22  O   UNL A   1      39.988  20.366  26.203  1.00  0.00    -0.246 OA
BRANCH  21  23
ATOM     23  C   UNL A   1      39.740  22.660  26.736  1.00  0.00     0.060 A 
ATOM     24  C   UNL A   1      39.252  23.878  26.266  1.00  0.00     0.016 A 
ATOM     25  C   UNL A   1      40.771  22.647  27.677  1.00  0.00     0.016 A 
ATOM     26  C   UNL A   1      39.875  25.070  26.637  1.00  0.00     0.010 A 
ATOM     27  C   UNL A   1      41.311  23.852  28.140  1.00  0.00     0.010 A 
ATOM     28  C   UNL A   1      40.900  25.078  27.595  1.00  0.00    -0.014 A 
BRANCH  28  29
ATOM     29  C   UNL A   1      41.528  26.359  28.032  1.00  0.00     0.031 A 
ATOM     30  C   UNL A   1      40.723  27.416  28.748  1.00  0.00     0.074 A 
ATOM     31  C   UNL A   1      42.833  26.584  27.778  1.00  0.00     0.049 A 
ATOM     32  N   UNL A   1      41.074  28.632  29.087  1.00  0.00    -0.248 NA
ATOM     33  C   UNL A   1      39.348  27.066  29.140  1.00  0.00     0.031 C 
ATOM     34  C   UNL A   1      43.741  25.642  27.121  1.00  0.00     0.029 A 
ATOM     35  N   UNL A   1      43.625  27.680  28.030  1.00  0.00    -0.354 N 
ATOM     36  C   UNL A   1      39.962  29.197  29.701  1.00  0.00     0.074 A 
ATOM     37  C   UNL A   1      38.920  28.193  29.690  1.00  0.00     0.031 C 
ATOM     38  C   UNL A   1      44.962  26.184  27.043  1.00  0.00     0.029 A 
ATOM     39  C   UNL A   1      44.909  27.548  27.554  1.00  0.00     0.049 A 
ATOM     40  H   UNL A   1      43.303  28.480  28.504  1.00  0.00     0.167 HD
ATOM     41  C   UNL A   1      39.823  30.431  30.243  1.00  0.00     0.034 A 
ATOM     42  C   UNL A   1      45.920  28.435  27.481  1.00  0.00     0.034 A 
ATOM     43  C   UNL A   1      40.863  31.425  30.278  1.00  0.00     0.049 A 
ATOM     44  C   UNL A   1      45.704  29.833  27.979  1.00  0.00     0.074 A 
ATOM     45  C   UNL A   1      40.820  32.695  30.824  1.00  0.00     0.029 A 
ATOM     46  N   UNL A   1      42.128  31.263  29.739  1.00  0.00    -0.354 N 
ATOM     47  N   UNL A   1      44.665  30.332  28.602  1.00  0.00    -0.248 NA
ATOM     48  C   UNL A   1      46.795  30.793  27.757  1.00  0.00     0.031 C 
ATOM     49  C   UNL A   1      42.057  33.311  30.599  1.00  0.00     0.029 A 
ATOM     50  C   UNL A   1      42.869  32.421  29.915  1.00  0.00     0.049 A 
ATOM     51  H   UNL A   1      42.453  30.447  29.295  1.00  0.00     0.167 HD
ATOM     52  C   UNL A   1      44.974  31.664  28.848  1.00  0.00     0.074 A 
ATOM     53  C   UNL A   1      46.311  31.885  28.335  1.00  0.00     0.031 C 
ATOM     54  C   UNL A   1      44.209  32.621  29.426  1.00  0.00     0.034 A 
BRANCH  41  55
ATOM     55  C   UNL A   1      38.501  30.767  30.878  1.00  0.00     0.023 A 
ATOM     56  C   UNL A   1      38.268  30.394  32.216  1.00  0.00     0.012 A 
ATOM     57  C   UNL A   1      37.518  31.492  30.178  1.00  0.00     0.148 A 
ATOM     58  C   UNL A   1      37.068  30.725  32.846  1.00  0.00     0.002 A 
ATOM     59  C   UNL A   1      36.333  31.838  30.820  1.00  0.00     0.091 A 
ATOM     60  F   UNL A   1      37.747  31.811  28.896  1.00  0.00    -0.205 F 
ATOM     61  C   UNL A   1      36.106  31.453  32.151  1.00  0.00     0.022 A 
BRANCH  59  62
ATOM     62  S   UNL A   1      35.060  32.816  30.013  1.00  0.00     0.127 S 
ATOM     63  O   UNL A   1      34.573  31.884  28.997  1.00  0.00    -0.237 OA
ATOM     64  O   UNL A   1      34.118  33.072  31.103  1.00  0.00    -0.237 OA
ATOM     65  O   UNL A   1      35.735  34.004  29.511  1.00  0.00    -0.744 OA
ENDBRANCH  59  62
ENDBRANCH  41  55
BRANCH  42  66
ATOM     66  C   UNL A   1      47.224  28.009  26.895  1.00  0.00     0.023 A 
ATOM     67  C   UNL A   1      48.252  27.569  27.747  1.00  0.00     0.012 A 
ATOM     68  C   UNL A   1      47.417  27.954  25.500  1.00  0.00     0.148 A 
ATOM     69  C   UNL A   1      49.447  27.076  27.220  1.00  0.00     0.002 A 
ATOM     70  C   UNL A   1      48.580  27.400  24.982  1.00  0.00     0.091 A 
ATOM     71  F   UNL A   1      46.443  28.415  24.701  1.00  0.00    -0.205 F 
ATOM     72  C   UNL A   1      49.603  26.971  25.839  1.00  0.00     0.022 A 
BRANCH  70  73
ATOM     73  S   UNL A   1      48.760  27.080  23.222  1.00  0.00     0.127 S 
ATOM     74  O   UNL A   1      48.069  28.224  22.635  1.00  0.00    -0.237 OA
ATOM     75  O   UNL A   1      50.213  27.081  23.048  1.00  0.00    -0.237 OA
ATOM     76  O   UNL A   1      48.141  25.777  23.012  1.00  0.00    -0.744 OA
ENDBRANCH  70  73
ENDBRANCH  42  66
BRANCH  54  77
ATOM     77  C   UNL A   1      44.788  34.005  29.519  1.00  0.00     0.023 A 
ATOM     78  C   UNL A   1      45.464  34.386  30.695  1.00  0.00     0.012 A 
ATOM     79  C   UNL A   1      44.723  34.900  28.435  1.00  0.00     0.148 A 
ATOM     80  C   UNL A   1      46.053  35.644  30.797  1.00  0.00     0.002 A 
ATOM     81  C   UNL A   1      45.343  36.141  28.531  1.00  0.00     0.091 A 
ATOM     82  F   UNL A   1      44.052  34.527  27.334  1.00  0.00    -0.205 F 
ATOM     83  C   UNL A   1      46.002  36.518  29.712  1.00  0.00     0.022 A 
BRANCH  81  84
ATOM     84  S   UNL A   1      45.390  37.291  27.151  1.00  0.00     0.127 S 
ATOM     85  O   UNL A   1      46.067  36.500  26.125  1.00  0.00    -0.237 OA
ATOM     86  O   UNL A   1      43.969  37.536  26.894  1.00  0.00    -0.237 OA
ATOM     87  O   UNL A   1      46.120  38.456  27.634  1.00  0.00    -0.744 OA
ENDBRANCH  81  84
ENDBRANCH  54  77
ENDBRANCH  28  29
ENDBRANCH  21  23
ENDBRANCH  20  21
ENDBRANCH   1  20
TORSDOF 18
ENDMDL
MODEL 3
REMARK VINA RESULT:     -10.4      1.509      1.963
REMARK SMILES CCC[C@](C)(C(=O)OCCOC(=O)c1ccc(-c2c3nc(c(-c4cccc(S(=O)(=O)[O-])c4F)c4ccc([nH]4)c(-c4cccc(S(=O)(=O)[O-])c4F)c4nc(c(-c5cccc(S(=O)(=O)[O-])c5F)c5ccc2[nH]5)C=C4)C=C3)cc1)[NH+]1CC(C(C)(C)C)C1
REMARK SMILES IDX 10 1 9 2 8 3 6 4 7 5 4 6 5 7 3 8 2 9 1 10 77 11 78 12 84 13
REMARK SMILES IDX 79 15 80 16 81 17 82 18 83 19 11 20 12 21 13 22 14 23 15 24
REMARK SMILES IDX 76 25 16 26 75 27 17 28 18 29 19 30 69 31 20 32 74 33 68 34
REMARK SMILES IDX 70 35 21 36 73 37 67 38 66 39 22 41 54 42 34 43 53 44 35 45
REMARK SMILES IDX 38 46 52 47 71 48 36 49 37 50 51 52 72 53 39 54 23 55 24 56
REMARK SMILES IDX 32 57 25 58 27 59 33 60 26 61 28 62 29 63 30 64 31 65 55 66
REMARK SMILES IDX 56 67 64 68 57 69 59 70 65 71 58 72 60 73 61 74 62 75 63 76
REMARK SMILES IDX 40 77 41 78 49 79 42 80 44 81 50 82 43 83 45 84 46 85 47 86
REMARK SMILES IDX 48 87
REMARK H PARENT 77 14 70 40 38 51
REMARK Flexibility Score: inf
ROOT
ATOM      1  C   UNL A   1      31.814  30.952  26.578  1.00  0.00     0.275 C 
ENDROOT
BRANCH   1   2
ATOM      2  C   UNL A   1      31.304  30.161  25.373  1.00  0.00     0.274 C 
BRANCH   2   3
ATOM      3  O   UNL A   1      31.481  28.740  25.548  1.00  0.00    -0.457 OA
BRANCH   3   4
ATOM      4  C   UNL A   1      32.297  28.151  24.625  1.00  0.00     0.367 C 
ATOM      5  O   UNL A   1      33.181  28.771  24.041  1.00  0.00    -0.245 OA
BRANCH   4   6
ATOM      6  C   UNL A   1      31.954  26.645  24.353  1.00  0.00     0.193 C 
ATOM      7  C   UNL A   1      31.076  26.066  25.490  1.00  0.00     0.092 C 
BRANCH   6   8
ATOM      8  C   UNL A   1      31.097  26.610  23.039  1.00  0.00     0.080 C 
BRANCH   8   9
ATOM      9  C   UNL A   1      30.339  27.868  22.573  1.00  0.00     0.004 C 
ATOM     10  C   UNL A   1      28.938  28.064  23.126  1.00  0.00     0.004 C 
ENDBRANCH   8   9
ENDBRANCH   6   8
BRANCH   6  11
ATOM     11  N   UNL A   1      33.246  25.945  24.157  1.00  0.00    -0.320 N 
ATOM     12  C   UNL A   1      34.053  25.693  25.386  1.00  0.00     0.273 C 
ATOM     13  C   UNL A   1      33.207  24.463  23.974  1.00  0.00     0.273 C 
ATOM     14  H   UNL A   1      33.566  26.560  23.409  1.00  0.00     0.349 HD
ATOM     15  C   UNL A   1      34.639  24.470  24.610  1.00  0.00     0.105 C 
BRANCH  15  16
ATOM     16  C   UNL A   1      35.257  23.283  25.369  1.00  0.00    -0.025 C 
ATOM     17  C   UNL A   1      35.261  22.052  24.452  1.00  0.00     0.011 C 
ATOM     18  C   UNL A   1      36.710  23.651  25.719  1.00  0.00     0.011 C 
ATOM     19  C   UNL A   1      34.502  22.958  26.661  1.00  0.00     0.011 C 
ENDBRANCH  15  16
ENDBRANCH   6  11
ENDBRANCH   4   6
ENDBRANCH   3   4
ENDBRANCH   2   3
ENDBRANCH   1   2
BRANCH   1  20
ATOM     20  O   UNL A   1      33.251  30.938  26.628  1.00  0.00    -0.458 OA
BRANCH  20  21
ATOM     21  C   UNL A   1      33.817  31.784  27.520  1.00  0.00     0.338 C 
ATOM     22  O   UNL A   1      33.341  32.829  27.933  1.00  0.00    -0.246 OA
BRANCH  21  23
ATOM     23  C   UNL A   1      35.134  31.283  27.968  1.00  0.00     0.060 A 
ATOM     24  C   UNL A   1      35.303  29.959  28.368  1.00  0.00     0.016 A 
ATOM     25  C   UNL A   1      36.174  32.197  28.151  1.00  0.00     0.016 A 
ATOM     26  C   UNL A   1      36.454  29.580  29.060  1.00  0.00     0.010 A 
ATOM     27  C   UNL A   1      37.375  31.782  28.735  1.00  0.00     0.010 A 
ATOM     28  C   UNL A   1      37.516  30.479  29.237  1.00  0.00    -0.014 A 
BRANCH  28  29
ATOM     29  C   UNL A   1      38.769  30.056  29.929  1.00  0.00     0.031 A 
ATOM     30  C   UNL A   1      39.696  29.041  29.309  1.00  0.00     0.074 A 
ATOM     31  C   UNL A   1      39.076  30.581  31.133  1.00  0.00     0.049 A 
ATOM     32  N   UNL A   1      40.757  28.469  29.823  1.00  0.00    -0.248 NA
ATOM     33  C   UNL A   1      39.403  28.613  27.931  1.00  0.00     0.031 C 
ATOM     34  C   UNL A   1      38.288  31.592  31.840  1.00  0.00     0.029 A 
ATOM     35  N   UNL A   1      40.126  30.329  31.984  1.00  0.00    -0.354 N 
ATOM     36  C   UNL A   1      41.236  27.599  28.850  1.00  0.00     0.074 A 
ATOM     37  C   UNL A   1      40.351  27.714  27.710  1.00  0.00     0.031 C 
ATOM     38  C   UNL A   1      38.890  31.892  32.998  1.00  0.00     0.029 A 
ATOM     39  C   UNL A   1      40.053  31.030  33.166  1.00  0.00     0.049 A 
ATOM     40  H   UNL A   1      40.859  29.709  31.768  1.00  0.00     0.167 HD
ATOM     41  C   UNL A   1      42.322  26.791  28.890  1.00  0.00     0.034 A 
ATOM     42  C   UNL A   1      40.796  30.954  34.287  1.00  0.00     0.034 A 
ATOM     43  C   UNL A   1      43.219  26.690  30.010  1.00  0.00     0.049 A 
ATOM     44  C   UNL A   1      41.922  29.965  34.352  1.00  0.00     0.074 A 
ATOM     45  C   UNL A   1      44.358  25.913  30.134  1.00  0.00     0.029 A 
ATOM     46  N   UNL A   1      43.074  27.379  31.203  1.00  0.00    -0.354 N 
ATOM     47  N   UNL A   1      42.390  29.189  33.405  1.00  0.00    -0.248 NA
ATOM     48  C   UNL A   1      42.616  29.834  35.640  1.00  0.00     0.031 C 
ATOM     49  C   UNL A   1      44.892  26.120  31.411  1.00  0.00     0.029 A 
ATOM     50  C   UNL A   1      44.088  27.028  32.080  1.00  0.00     0.049 A 
ATOM     51  H   UNL A   1      42.356  28.023  31.399  1.00  0.00     0.167 HD
ATOM     52  C   UNL A   1      43.434  28.477  33.981  1.00  0.00     0.074 A 
ATOM     53  C   UNL A   1      43.551  28.937  35.350  1.00  0.00     0.031 C 
ATOM     54  C   UNL A   1      44.210  27.513  33.430  1.00  0.00     0.034 A 
BRANCH  41  55
ATOM     55  C   UNL A   1      42.625  25.971  27.665  1.00  0.00     0.023 A 
ATOM     56  C   UNL A   1      43.429  26.525  26.650  1.00  0.00     0.012 A 
ATOM     57  C   UNL A   1      42.166  24.646  27.541  1.00  0.00     0.148 A 
ATOM     58  C   UNL A   1      43.760  25.778  25.520  1.00  0.00     0.002 A 
ATOM     59  C   UNL A   1      42.519  23.899  26.422  1.00  0.00     0.091 A 
ATOM     60  F   UNL A   1      41.377  24.148  28.503  1.00  0.00    -0.205 F 
ATOM     61  C   UNL A   1      43.313  24.463  25.410  1.00  0.00     0.022 A 
BRANCH  59  62
ATOM     62  S   UNL A   1      42.024  22.183  26.224  1.00  0.00     0.127 S 
ATOM     63  O   UNL A   1      42.735  21.810  25.002  1.00  0.00    -0.237 OA
ATOM     64  O   UNL A   1      42.544  21.561  27.443  1.00  0.00    -0.237 OA
ATOM     65  O   UNL A   1      40.571  22.201  26.131  1.00  0.00    -0.744 OA
ENDBRANCH  59  62
ENDBRANCH  41  55
BRANCH  42  66
ATOM     66  C   UNL A   1      40.474  31.845  35.438  1.00  0.00     0.023 A 
ATOM     67  C   UNL A   1      41.223  33.019  35.632  1.00  0.00     0.012 A 
ATOM     68  C   UNL A   1      39.378  31.581  36.284  1.00  0.00     0.148 A 
ATOM     69  C   UNL A   1      40.881  33.918  36.645  1.00  0.00     0.002 A 
ATOM     70  C   UNL A   1      39.003  32.511  37.245  1.00  0.00     0.091 A 
ATOM     71  F   UNL A   1      38.699  30.437  36.113  1.00  0.00    -0.205 F 
ATOM     72  C   UNL A   1      39.760  33.676  37.436  1.00  0.00     0.022 A 
BRANCH  70  73
ATOM     73  S   UNL A   1      37.472  32.335  38.170  1.00  0.00     0.127 S 
ATOM     74  O   UNL A   1      37.307  30.885  38.207  1.00  0.00    -0.237 OA
ATOM     75  O   UNL A   1      37.808  32.950  39.455  1.00  0.00    -0.237 OA
ATOM     76  O   UNL A   1      36.481  33.078  37.401  1.00  0.00    -0.744 OA
ENDBRANCH  70  73
ENDBRANCH  42  66
BRANCH  54  77
ATOM     77  C   UNL A   1      45.245  26.871  34.312  1.00  0.00     0.023 A 
ATOM     78  C   UNL A   1      46.534  27.437  34.377  1.00  0.00     0.012 A 
ATOM     79  C   UNL A   1      44.933  25.760  35.117  1.00  0.00     0.148 A 
ATOM     80  C   UNL A   1      47.503  26.895  35.220  1.00  0.00     0.002 A 
ATOM     81  C   UNL A   1      45.893  25.247  35.981  1.00  0.00     0.091 A 
ATOM     82  F   UNL A   1      43.708  25.221  35.020  1.00  0.00    -0.205 F 
ATOM     83  C   UNL A   1      47.180  25.808  36.029  1.00  0.00     0.022 A 
BRANCH  81  84
ATOM     84  S   UNL A   1      45.534  23.898  37.113  1.00  0.00     0.127 S 
ATOM     85  O   UNL A   1      44.525  24.499  37.984  1.00  0.00    -0.237 OA
ATOM     86  O   UNL A   1      45.023  22.860  36.216  1.00  0.00    -0.237 OA
ATOM     87  O   UNL A   1      46.802  23.568  37.749  1.00  0.00    -0.744 OA
ENDBRANCH  81  84
ENDBRANCH  54  77
ENDBRANCH  28  29
ENDBRANCH  21  23
ENDBRANCH  20  21
ENDBRANCH   1  20
TORSDOF 18
ENDMDL
