MODEL 1
REMARK VINA RESULT:     -11.5      0.000      0.000
REMARK SMILES NS(=O)(=O)c1ccc(-n2nc(C(F)(F)F)cc2-c2ccc(CC(=O)OCCOC(=O)c3ccc(-c4c5nc(c(-c6cccc(S(=O)(=O)[O-])c6F)c6ccc([nH]6)c(-c6cccc(S(=O)(=O)[O-])c6F)c6nc(c(-c7cccc(S(=O)(=O)[O-])c7F)c7ccc4[nH]7)C=C6)C=C5)cc3)cc2)cc1
REMARK SMILES IDX 26 1 25 2 23 3 24 4 22 5 21 6 18 7 19 8 95 9 20 10 94 11
REMARK SMILES IDX 17 12 9 13 10 14 11 15 16 16 8 17 5 18 6 19 97 20 7 21 96 22
REMARK SMILES IDX 2 23 3 24 4 25 1 26 12 29 13 30 14 31 15 32 27 33 28 34
REMARK SMILES IDX 29 35 30 36 31 37 32 38 93 39 33 40 92 41 34 42 35 43 36 44
REMARK SMILES IDX 86 45 37 46 91 47 85 48 87 49 38 50 90 51 84 52 83 53 39 55
REMARK SMILES IDX 71 56 51 57 70 58 52 59 55 60 69 61 88 62 53 63 54 64 68 66
REMARK SMILES IDX 89 67 56 68 40 69 41 70 49 71 42 72 44 73 50 74 43 75 45 76
REMARK SMILES IDX 46 77 47 78 48 79 72 80 73 81 81 82 74 83 76 84 82 85 75 86
REMARK SMILES IDX 77 87 78 88 79 89 80 90 57 91 58 92 66 93 59 94 61 95 67 96
REMARK SMILES IDX 60 97 62 98 63 99 64 100 65 101
REMARK H PARENT 1 27 1 28 87 54 55 65
REMARK Flexibility Score: inf
ROOT
ATOM      1  C   UNL A   1      33.449  28.487  27.268  1.00  0.00     0.274 C 
ENDROOT
BRANCH   1   2
ATOM      2  O   UNL A   1      33.050  27.840  26.039  1.00  0.00    -0.462 OA
BRANCH   2   3
ATOM      3  C   UNL A   1      32.058  26.916  26.152  1.00  0.00     0.310 C 
ATOM      4  O   UNL A   1      31.148  26.987  26.977  1.00  0.00    -0.252 OA
BRANCH   3   5
ATOM      5  C   UNL A   1      32.210  25.703  25.258  1.00  0.00     0.158 C 
BRANCH   5   6
ATOM      6  C   UNL A   1      33.466  24.868  25.361  1.00  0.00    -0.037 A 
ATOM      7  C   UNL A   1      35.832  23.336  25.513  1.00  0.00     0.000 A 
ATOM      8  C   UNL A   1      35.534  24.058  24.357  1.00  0.00     0.010 A 
ATOM      9  C   UNL A   1      34.920  23.343  26.574  1.00  0.00     0.010 A 
ATOM     10  C   UNL A   1      34.349  24.787  24.279  1.00  0.00     0.005 A 
ATOM     11  C   UNL A   1      33.756  24.121  26.506  1.00  0.00     0.005 A 
BRANCH   7  12
ATOM     12  C   UNL A   1      37.077  22.579  25.595  1.00  0.00     0.075 A 
ATOM     13  N   UNL A   1      37.186  21.194  25.508  1.00  0.00    -0.233 N 
ATOM     14  N   UNL A   1      38.424  20.764  25.876  1.00  0.00    -0.163 NA
ATOM     15  C   UNL A   1      39.144  21.885  26.075  1.00  0.00     0.167 A 
ATOM     16  C   UNL A   1      38.333  23.035  25.939  1.00  0.00     0.064 A 
BRANCH  13  17
ATOM     17  C   UNL A   1      36.208  20.259  25.074  1.00  0.00     0.065 A 
ATOM     18  C   UNL A   1      34.289  18.384  24.315  1.00  0.00     0.082 A 
ATOM     19  C   UNL A   1      33.913  19.716  24.502  1.00  0.00     0.024 A 
ATOM     20  C   UNL A   1      35.622  17.989  24.468  1.00  0.00     0.024 A 
ATOM     21  C   UNL A   1      34.873  20.650  24.898  1.00  0.00     0.030 A 
ATOM     22  C   UNL A   1      36.589  18.933  24.826  1.00  0.00     0.030 A 
BRANCH  18  23
ATOM     23  S   UNL A   1      33.086  17.189  23.804  1.00  0.00     0.238 S 
ATOM     24  O   UNL A   1      33.583  15.868  24.130  1.00  0.00    -0.207 OA
ATOM     25  O   UNL A   1      32.623  17.525  22.480  1.00  0.00    -0.207 OA
BRANCH  23  26
ATOM     26  N   UNL A   1      31.809  17.496  24.841  1.00  0.00    -0.225 NA
ATOM     27  H   UNL A   1      30.935  17.212  24.398  1.00  0.00     0.137 HD
ATOM     28  H   UNL A   1      31.776  18.492  25.054  1.00  0.00     0.137 HD
ENDBRANCH  23  26
ENDBRANCH  18  23
ENDBRANCH  13  17
BRANCH  15  29
ATOM     29  C   UNL A   1      40.612  21.874  26.404  1.00  0.00     0.435 C 
ATOM     30  F   UNL A   1      40.885  22.176  27.699  1.00  0.00    -0.164 F 
ATOM     31  F   UNL A   1      41.181  20.662  26.148  1.00  0.00    -0.164 F 
ATOM     32  F   UNL A   1      41.302  22.773  25.645  1.00  0.00    -0.164 F 
ENDBRANCH  15  29
ENDBRANCH   7  12
ENDBRANCH   5   6
ENDBRANCH   3   5
ENDBRANCH   2   3
ENDBRANCH   1   2
BRANCH   1  33
ATOM     33  C   UNL A   1      34.887  29.004  27.252  1.00  0.00     0.275 C 
BRANCH  33  34
ATOM     34  O   UNL A   1      35.360  29.359  28.551  1.00  0.00    -0.458 OA
BRANCH  34  35
ATOM     35  C   UNL A   1      36.503  30.075  28.498  1.00  0.00     0.338 C 
ATOM     36  O   UNL A   1      36.596  31.279  28.325  1.00  0.00    -0.246 OA
BRANCH  35  37
ATOM     37  C   UNL A   1      37.676  29.216  28.407  1.00  0.00     0.060 A 
ATOM     38  C   UNL A   1      37.979  28.434  29.528  1.00  0.00     0.016 A 
ATOM     39  C   UNL A   1      38.624  29.515  27.427  1.00  0.00     0.016 A 
ATOM     40  C   UNL A   1      39.293  28.110  29.769  1.00  0.00     0.010 A 
ATOM     41  C   UNL A   1      39.938  29.194  27.670  1.00  0.00     0.010 A 
ATOM     42  C   UNL A   1      40.263  28.560  28.871  1.00  0.00    -0.014 A 
BRANCH  42  43
ATOM     43  C   UNL A   1      41.633  28.154  29.103  1.00  0.00     0.031 A 
ATOM     44  C   UNL A   1      41.984  26.984  28.259  1.00  0.00     0.074 A 
ATOM     45  C   UNL A   1      42.476  28.869  29.874  1.00  0.00     0.049 A 
ATOM     46  N   UNL A   1      42.282  25.788  28.646  1.00  0.00    -0.248 NA
ATOM     47  C   UNL A   1      41.747  27.099  26.806  1.00  0.00     0.031 C 
ATOM     48  C   UNL A   1      42.218  30.169  30.503  1.00  0.00     0.029 A 
ATOM     49  N   UNL A   1      43.797  28.665  30.133  1.00  0.00    -0.354 N 
ATOM     50  C   UNL A   1      42.562  25.100  27.467  1.00  0.00     0.074 A 
ATOM     51  C   UNL A   1      41.962  25.849  26.400  1.00  0.00     0.031 C 
ATOM     52  C   UNL A   1      43.397  30.748  30.821  1.00  0.00     0.029 A 
ATOM     53  C   UNL A   1      44.476  29.819  30.532  1.00  0.00     0.049 A 
ATOM     54  H   UNL A   1      44.233  27.788  30.046  1.00  0.00     0.167 HD
ATOM     55  C   UNL A   1      43.581  24.202  27.427  1.00  0.00     0.034 A 
ATOM     56  C   UNL A   1      45.820  30.012  30.528  1.00  0.00     0.034 A 
ATOM     57  C   UNL A   1      43.909  23.724  28.746  1.00  0.00     0.049 A 
ATOM     58  C   UNL A   1      46.457  28.679  30.445  1.00  0.00     0.074 A 
ATOM     59  C   UNL A   1      43.203  23.127  29.772  1.00  0.00     0.029 A 
ATOM     60  N   UNL A   1      45.054  24.225  29.312  1.00  0.00    -0.354 N 
ATOM     61  N   UNL A   1      46.410  27.798  31.402  1.00  0.00    -0.248 NA
ATOM     62  C   UNL A   1      46.769  28.160  29.124  1.00  0.00     0.031 C 
ATOM     63  C   UNL A   1      43.732  23.700  30.966  1.00  0.00     0.029 A 
ATOM     64  C   UNL A   1      44.785  24.547  30.613  1.00  0.00     0.049 A 
ATOM     65  H   UNL A   1      45.920  24.334  28.858  1.00  0.00     0.167 HD
ATOM     66  C   UNL A   1      46.193  26.597  30.741  1.00  0.00     0.074 A 
ATOM     67  C   UNL A   1      46.541  26.863  29.345  1.00  0.00     0.031 C 
ATOM     68  C   UNL A   1      45.467  25.602  31.329  1.00  0.00     0.034 A 
BRANCH  55  69
ATOM     69  C   UNL A   1      44.561  24.117  26.274  1.00  0.00     0.023 A 
ATOM     70  C   UNL A   1      44.804  22.841  25.727  1.00  0.00     0.012 A 
ATOM     71  C   UNL A   1      45.448  25.153  25.889  1.00  0.00     0.148 A 
ATOM     72  C   UNL A   1      45.894  22.603  24.881  1.00  0.00     0.002 A 
ATOM     73  C   UNL A   1      46.468  24.935  24.973  1.00  0.00     0.091 A 
ATOM     74  F   UNL A   1      45.421  26.334  26.510  1.00  0.00    -0.205 F 
ATOM     75  C   UNL A   1      46.719  23.652  24.492  1.00  0.00     0.022 A 
BRANCH  73  76
ATOM     76  S   UNL A   1      47.518  26.278  24.399  1.00  0.00     0.127 S 
ATOM     77  O   UNL A   1      46.529  27.301  24.072  1.00  0.00    -0.237 OA
ATOM     78  O   UNL A   1      48.327  26.548  25.587  1.00  0.00    -0.237 OA
ATOM     79  O   UNL A   1      48.272  25.734  23.276  1.00  0.00    -0.744 OA
ENDBRANCH  73  76
ENDBRANCH  55  69
BRANCH  56  80
ATOM     80  C   UNL A   1      46.627  31.240  30.302  1.00  0.00     0.023 A 
ATOM     81  C   UNL A   1      47.701  31.531  31.172  1.00  0.00     0.012 A 
ATOM     82  C   UNL A   1      46.556  31.943  29.081  1.00  0.00     0.148 A 
ATOM     83  C   UNL A   1      48.693  32.455  30.818  1.00  0.00     0.002 A 
ATOM     84  C   UNL A   1      47.543  32.863  28.734  1.00  0.00     0.091 A 
ATOM     85  F   UNL A   1      45.577  31.639  28.219  1.00  0.00    -0.205 F 
ATOM     86  C   UNL A   1      48.621  33.112  29.594  1.00  0.00     0.022 A 
BRANCH  84  87
ATOM     87  S   UNL A   1      47.535  33.726  27.156  1.00  0.00     0.127 S 
ATOM     88  O   UNL A   1      48.726  34.567  27.266  1.00  0.00    -0.237 OA
ATOM     89  O   UNL A   1      47.651  32.621  26.208  1.00  0.00    -0.237 OA
ATOM     90  O   UNL A   1      46.280  34.466  27.114  1.00  0.00    -0.744 OA
ENDBRANCH  84  87
ENDBRANCH  56  80
BRANCH  68  91
ATOM     91  C   UNL A   1      45.182  25.717  32.806  1.00  0.00     0.023 A 
ATOM     92  C   UNL A   1      46.072  25.273  33.808  1.00  0.00     0.012 A 
ATOM     93  C   UNL A   1      44.022  26.405  33.191  1.00  0.00     0.148 A 
ATOM     94  C   UNL A   1      45.788  25.481  35.161  1.00  0.00     0.002 A 
ATOM     95  C   UNL A   1      43.766  26.653  34.532  1.00  0.00     0.091 A 
ATOM     96  F   UNL A   1      43.184  26.822  32.229  1.00  0.00    -0.205 F 
ATOM     97  C   UNL A   1      44.639  26.182  35.523  1.00  0.00     0.022 A 
BRANCH  95  98
ATOM     98  S   UNL A   1      42.359  27.642  35.036  1.00  0.00     0.127 S 
ATOM     99  O   UNL A   1      41.239  26.755  34.736  1.00  0.00    -0.237 OA
ATOM    100  O   UNL A   1      42.613  27.849  36.464  1.00  0.00    -0.237 OA
ATOM    101  O   UNL A   1      42.428  28.864  34.242  1.00  0.00    -0.744 OA
ENDBRANCH  95  98
ENDBRANCH  68  91
ENDBRANCH  42  43
ENDBRANCH  35  37
ENDBRANCH  34  35
ENDBRANCH  33  34
ENDBRANCH   1  33
TORSDOF 20
ENDMDL
MODEL 2
REMARK VINA RESULT:     -11.5      4.233      8.625
REMARK SMILES NS(=O)(=O)c1ccc(-n2nc(C(F)(F)F)cc2-c2ccc(CC(=O)OCCOC(=O)c3ccc(-c4c5nc(c(-c6cccc(S(=O)(=O)[O-])c6F)c6ccc([nH]6)c(-c6cccc(S(=O)(=O)[O-])c6F)c6nc(c(-c7cccc(S(=O)(=O)[O-])c7F)c7ccc4[nH]7)C=C6)C=C5)cc3)cc2)cc1
REMARK SMILES IDX 26 1 25 2 23 3 24 4 22 5 21 6 18 7 19 8 95 9 20 10 94 11
REMARK SMILES IDX 17 12 9 13 10 14 11 15 16 16 8 17 5 18 6 19 97 20 7 21 96 22
REMARK SMILES IDX 2 23 3 24 4 25 1 26 12 29 13 30 14 31 15 32 27 33 28 34
REMARK SMILES IDX 29 35 30 36 31 37 32 38 93 39 33 40 92 41 34 42 35 43 36 44
REMARK SMILES IDX 86 45 37 46 91 47 85 48 87 49 38 50 90 51 84 52 83 53 39 55
REMARK SMILES IDX 71 56 51 57 70 58 52 59 55 60 69 61 88 62 53 63 54 64 68 66
REMARK SMILES IDX 89 67 56 68 40 69 41 70 49 71 42 72 44 73 50 74 43 75 45 76
REMARK SMILES IDX 46 77 47 78 48 79 72 80 73 81 81 82 74 83 76 84 82 85 75 86
REMARK SMILES IDX 77 87 78 88 79 89 80 90 57 91 58 92 66 93 59 94 61 95 67 96
REMARK SMILES IDX 60 97 62 98 63 99 64 100 65 101
REMARK H PARENT 1 27 1 28 87 54 55 65
REMARK Flexibility Score: inf
ROOT
ATOM      1  C   UNL A   1      34.845  32.978  28.552  1.00  0.00     0.274 C 
ENDROOT
BRANCH   1   2
ATOM      2  O   UNL A   1      35.567  32.251  27.533  1.00  0.00    -0.462 OA
BRANCH   2   3
ATOM      3  C   UNL A   1      35.581  30.897  27.670  1.00  0.00     0.310 C 
ATOM      4  O   UNL A   1      36.565  30.197  27.440  1.00  0.00    -0.252 OA
BRANCH   3   5
ATOM      5  C   UNL A   1      34.243  30.277  28.018  1.00  0.00     0.158 C 
BRANCH   5   6
ATOM      6  C   UNL A   1      33.733  29.120  27.190  1.00  0.00    -0.037 A 
ATOM      7  C   UNL A   1      32.829  26.955  25.620  1.00  0.00     0.000 A 
ATOM      8  C   UNL A   1      33.952  27.686  25.232  1.00  0.00     0.010 A 
ATOM      9  C   UNL A   1      32.130  27.341  26.770  1.00  0.00     0.010 A 
ATOM     10  C   UNL A   1      34.374  28.772  25.996  1.00  0.00     0.005 A 
ATOM     11  C   UNL A   1      32.593  28.402  27.560  1.00  0.00     0.005 A 
BRANCH   7  12
ATOM     12  C   UNL A   1      32.393  25.814  24.822  1.00  0.00     0.075 A 
ATOM     13  N   UNL A   1      31.311  25.807  23.948  1.00  0.00    -0.233 N 
ATOM     14  N   UNL A   1      30.995  24.545  23.548  1.00  0.00    -0.163 NA
ATOM     15  C   UNL A   1      31.956  23.758  24.069  1.00  0.00     0.167 A 
ATOM     16  C   UNL A   1      32.829  24.507  24.892  1.00  0.00     0.064 A 
BRANCH  13  17
ATOM     17  C   UNL A   1      30.577  26.916  23.444  1.00  0.00     0.065 A 
ATOM     18  C   UNL A   1      29.138  29.130  22.551  1.00  0.00     0.082 A 
ATOM     19  C   UNL A   1      30.499  29.031  22.257  1.00  0.00     0.024 A 
ATOM     20  C   UNL A   1      28.483  28.114  23.256  1.00  0.00     0.024 A 
ATOM     21  C   UNL A   1      31.222  27.929  22.719  1.00  0.00     0.030 A 
ATOM     22  C   UNL A   1      29.199  26.993  23.684  1.00  0.00     0.030 A 
BRANCH  18  23
ATOM     23  S   UNL A   1      28.204  30.516  21.964  1.00  0.00     0.238 S 
ATOM     24  O   UNL A   1      27.244  30.888  22.982  1.00  0.00    -0.207 OA
ATOM     25  O   UNL A   1      27.812  30.273  20.597  1.00  0.00    -0.207 OA
BRANCH  23  26
ATOM     26  N   UNL A   1      29.355  31.731  21.915  1.00  0.00    -0.225 NA
ATOM     27  H   UNL A   1      29.882  31.735  22.788  1.00  0.00     0.137 HD
ATOM     28  H   UNL A   1      28.893  32.632  21.791  1.00  0.00     0.137 HD
ENDBRANCH  23  26
ENDBRANCH  18  23
ENDBRANCH  13  17
BRANCH  15  29
ATOM     29  C   UNL A   1      32.053  22.282  23.792  1.00  0.00     0.435 C 
ATOM     30  F   UNL A   1      31.609  21.926  22.560  1.00  0.00    -0.164 F 
ATOM     31  F   UNL A   1      33.333  21.828  23.902  1.00  0.00    -0.164 F 
ATOM     32  F   UNL A   1      31.325  21.556  24.689  1.00  0.00    -0.164 F 
ENDBRANCH  15  29
ENDBRANCH   7  12
ENDBRANCH   5   6
ENDBRANCH   3   5
ENDBRANCH   2   3
ENDBRANCH   1   2
BRANCH   1  33
ATOM     33  C   UNL A   1      35.749  33.671  29.570  1.00  0.00     0.275 C 
BRANCH  33  34
ATOM     34  O   UNL A   1      36.841  32.851  29.987  1.00  0.00    -0.458 OA
BRANCH  34  35
ATOM     35  C   UNL A   1      36.470  31.944  30.915  1.00  0.00     0.338 C 
ATOM     36  O   UNL A   1      35.434  31.948  31.558  1.00  0.00    -0.246 OA
BRANCH  35  37
ATOM     37  C   UNL A   1      37.571  31.063  31.280  1.00  0.00     0.060 A 
ATOM     38  C   UNL A   1      38.791  31.669  31.599  1.00  0.00     0.016 A 
ATOM     39  C   UNL A   1      37.478  29.721  30.904  1.00  0.00     0.016 A 
ATOM     40  C   UNL A   1      39.954  30.978  31.351  1.00  0.00     0.010 A 
ATOM     41  C   UNL A   1      38.641  29.033  30.653  1.00  0.00     0.010 A 
ATOM     42  C   UNL A   1      39.861  29.694  30.811  1.00  0.00    -0.014 A 
BRANCH  42  43
ATOM     43  C   UNL A   1      41.091  28.955  30.618  1.00  0.00     0.031 A 
ATOM     44  C   UNL A   1      41.704  28.608  31.924  1.00  0.00     0.074 A 
ATOM     45  C   UNL A   1      41.496  28.535  29.404  1.00  0.00     0.049 A 
ATOM     46  N   UNL A   1      42.829  29.022  32.408  1.00  0.00    -0.248 NA
ATOM     47  C   UNL A   1      40.858  27.901  32.906  1.00  0.00     0.031 C 
ATOM     48  C   UNL A   1      40.765  28.644  28.137  1.00  0.00     0.029 A 
ATOM     49  N   UNL A   1      42.575  27.778  29.065  1.00  0.00    -0.354 N 
ATOM     50  C   UNL A   1      42.944  28.367  33.632  1.00  0.00     0.074 A 
ATOM     51  C   UNL A   1      41.625  27.934  33.995  1.00  0.00     0.031 C 
ATOM     52  C   UNL A   1      41.277  27.759  27.252  1.00  0.00     0.029 A 
ATOM     53  C   UNL A   1      42.435  27.113  27.845  1.00  0.00     0.049 A 
ATOM     54  H   UNL A   1      43.380  27.706  29.627  1.00  0.00     0.167 HD
ATOM     55  C   UNL A   1      44.151  27.898  34.044  1.00  0.00     0.034 A 
ATOM     56  C   UNL A   1      43.162  26.050  27.411  1.00  0.00     0.034 A 
ATOM     57  C   UNL A   1      45.231  28.585  33.383  1.00  0.00     0.049 A 
ATOM     58  C   UNL A   1      44.388  25.989  28.238  1.00  0.00     0.074 A 
ATOM     59  C   UNL A   1      45.607  29.906  33.240  1.00  0.00     0.029 A 
ATOM     60  N   UNL A   1      45.878  27.895  32.389  1.00  0.00    -0.354 N 
ATOM     61  N   UNL A   1      45.335  26.881  28.188  1.00  0.00    -0.248 NA
ATOM     62  C   UNL A   1      44.355  25.170  29.437  1.00  0.00     0.031 C 
ATOM     63  C   UNL A   1      46.086  30.011  31.901  1.00  0.00     0.029 A 
ATOM     64  C   UNL A   1      46.058  28.739  31.328  1.00  0.00     0.049 A 
ATOM     65  H   UNL A   1      46.163  26.954  32.433  1.00  0.00     0.167 HD
ATOM     66  C   UNL A   1      45.688  27.069  29.517  1.00  0.00     0.074 A 
ATOM     67  C   UNL A   1      45.138  25.911  30.223  1.00  0.00     0.031 C 
ATOM     68  C   UNL A   1      46.119  28.287  29.955  1.00  0.00     0.034 A 
BRANCH  55  69
ATOM     69  C   UNL A   1      44.333  26.535  34.679  1.00  0.00     0.023 A 
ATOM     70  C   UNL A   1      43.709  25.440  34.048  1.00  0.00     0.012 A 
ATOM     71  C   UNL A   1      44.837  26.312  35.986  1.00  0.00     0.148 A 
ATOM     72  C   UNL A   1      43.557  24.209  34.697  1.00  0.00     0.002 A 
ATOM     73  C   UNL A   1      44.772  25.063  36.588  1.00  0.00     0.091 A 
ATOM     74  F   UNL A   1      45.255  27.335  36.735  1.00  0.00    -0.205 F 
ATOM     75  C   UNL A   1      44.100  24.015  35.962  1.00  0.00     0.022 A 
BRANCH  73  76
ATOM     76  S   UNL A   1      45.515  24.756  38.196  1.00  0.00     0.127 S 
ATOM     77  O   UNL A   1      44.608  25.482  39.080  1.00  0.00    -0.237 OA
ATOM     78  O   UNL A   1      45.436  23.298  38.284  1.00  0.00    -0.237 OA
ATOM     79  O   UNL A   1      46.874  25.274  38.107  1.00  0.00    -0.744 OA
ENDBRANCH  73  76
ENDBRANCH  55  69
BRANCH  56  80
ATOM     80  C   UNL A   1      42.787  24.902  26.545  1.00  0.00     0.023 A 
ATOM     81  C   UNL A   1      43.641  24.530  25.483  1.00  0.00     0.012 A 
ATOM     82  C   UNL A   1      41.785  23.990  26.938  1.00  0.00     0.148 A 
ATOM     83  C   UNL A   1      43.530  23.277  24.866  1.00  0.00     0.002 A 
ATOM     84  C   UNL A   1      41.676  22.747  26.320  1.00  0.00     0.091 A 
ATOM     85  F   UNL A   1      41.004  24.302  27.980  1.00  0.00    -0.205 F 
ATOM     86  C   UNL A   1      42.556  22.380  25.293  1.00  0.00     0.022 A 
BRANCH  84  87
ATOM     87  S   UNL A   1      40.465  21.523  26.839  1.00  0.00     0.127 S 
ATOM     88  O   UNL A   1      39.204  22.211  26.567  1.00  0.00    -0.237 OA
ATOM     89  O   UNL A   1      40.760  20.407  25.943  1.00  0.00    -0.237 OA
ATOM     90  O   UNL A   1      40.724  21.283  28.254  1.00  0.00    -0.744 OA
ENDBRANCH  84  87
ENDBRANCH  56  80
BRANCH  68  91
ATOM     91  C   UNL A   1      46.496  29.315  28.917  1.00  0.00     0.023 A 
ATOM     92  C   UNL A   1      47.793  29.430  28.372  1.00  0.00     0.012 A 
ATOM     93  C   UNL A   1      45.470  30.116  28.393  1.00  0.00     0.148 A 
ATOM     94  C   UNL A   1      48.061  30.350  27.353  1.00  0.00     0.002 A 
ATOM     95  C   UNL A   1      45.729  30.993  27.350  1.00  0.00     0.091 A 
ATOM     96  F   UNL A   1      44.242  29.997  28.922  1.00  0.00    -0.205 F 
ATOM     97  C   UNL A   1      47.026  31.125  26.834  1.00  0.00     0.022 A 
BRANCH  95  98
ATOM     98  S   UNL A   1      44.407  31.927  26.580  1.00  0.00     0.127 S 
ATOM     99  O   UNL A   1      45.072  32.488  25.408  1.00  0.00    -0.237 OA
ATOM    100  O   UNL A   1      43.416  30.890  26.286  1.00  0.00    -0.237 OA
ATOM    101  O   UNL A   1      43.970  32.894  27.581  1.00  0.00    -0.744 OA
ENDBRANCH  95  98
ENDBRANCH  68  91
ENDBRANCH  42  43
ENDBRANCH  35  37
ENDBRANCH  34  35
ENDBRANCH  33  34
ENDBRANCH   1  33
TORSDOF 20
ENDMDL
MODEL 3
REMARK VINA RESULT:     -11.5      2.285      7.329
REMARK SMILES NS(=O)(=O)c1ccc(-n2nc(C(F)(F)F)cc2-c2ccc(CC(=O)OCCOC(=O)c3ccc(-c4c5nc(c(-c6cccc(S(=O)(=O)[O-])c6F)c6ccc([nH]6)c(-c6cccc(S(=O)(=O)[O-])c6F)c6nc(c(-c7cccc(S(=O)(=O)[O-])c7F)c7ccc4[nH]7)C=C6)C=C5)cc3)cc2)cc1
REMARK SMILES IDX 26 1 25 2 23 3 24 4 22 5 21 6 18 7 19 8 95 9 20 10 94 11
REMARK SMILES IDX 17 12 9 13 10 14 11 15 16 16 8 17 5 18 6 19 97 20 7 21 96 22
REMARK SMILES IDX 2 23 3 24 4 25 1 26 12 29 13 30 14 31 15 32 27 33 28 34
REMARK SMILES IDX 29 35 30 36 31 37 32 38 93 39 33 40 92 41 34 42 35 43 36 44
REMARK SMILES IDX 86 45 37 46 91 47 85 48 87 49 38 50 90 51 84 52 83 53 39 55
REMARK SMILES IDX 71 56 51 57 70 58 52 59 55 60 69 61 88 62 53 63 54 64 68 66
REMARK SMILES IDX 89 67 56 68 40 69 41 70 49 71 42 72 44 73 50 74 43 75 45 76
REMARK SMILES IDX 46 77 47 78 48 79 72 80 73 81 81 82 74 83 76 84 82 85 75 86
REMARK SMILES IDX 77 87 78 88 79 89 80 90 57 91 58 92 66 93 59 94 61 95 67 96
REMARK SMILES IDX 60 97 62 98 63 99 64 100 65 101
REMARK H PARENT 1 27 1 28 87 54 55 65
REMARK Flexibility Score: inf
ROOT
ATOM      1  C   UNL A   1      31.899  27.917  26.197  1.00  0.00     0.274 C 
ENDROOT
BRANCH   1   2
ATOM      2  O   UNL A   1      30.927  27.067  26.847  1.00  0.00    -0.462 OA
BRANCH   2   3
ATOM      3  C   UNL A   1      30.579  25.940  26.167  1.00  0.00     0.310 C 
ATOM      4  O   UNL A   1      29.712  25.154  26.546  1.00  0.00    -0.252 OA
BRANCH   3   5
ATOM      5  C   UNL A   1      31.426  25.643  24.948  1.00  0.00     0.158 C 
BRANCH   5   6
ATOM      6  C   UNL A   1      32.744  24.924  25.127  1.00  0.00    -0.037 A 
ATOM      7  C   UNL A   1      35.223  23.606  25.417  1.00  0.00     0.000 A 
ATOM      8  C   UNL A   1      34.871  24.183  24.197  1.00  0.00     0.010 A 
ATOM      9  C   UNL A   1      34.310  23.647  26.477  1.00  0.00     0.010 A 
ATOM     10  C   UNL A   1      33.632  24.805  24.053  1.00  0.00     0.005 A 
ATOM     11  C   UNL A   1      33.089  24.320  26.339  1.00  0.00     0.005 A 
BRANCH   7  12
ATOM     12  C   UNL A   1      36.523  22.961  25.567  1.00  0.00     0.075 A 
ATOM     13  N   UNL A   1      36.754  21.590  25.519  1.00  0.00    -0.233 N 
ATOM     14  N   UNL A   1      38.008  21.276  25.946  1.00  0.00    -0.163 NA
ATOM     15  C   UNL A   1      38.620  22.459  26.146  1.00  0.00     0.167 A 
ATOM     16  C   UNL A   1      37.720  23.531  25.949  1.00  0.00     0.064 A 
BRANCH  13  17
ATOM     17  C   UNL A   1      35.879  20.564  25.070  1.00  0.00     0.065 A 
ATOM     18  C   UNL A   1      34.158  18.516  24.283  1.00  0.00     0.082 A 
ATOM     19  C   UNL A   1      33.668  19.817  24.404  1.00  0.00     0.024 A 
ATOM     20  C   UNL A   1      35.509  18.237  24.516  1.00  0.00     0.024 A 
ATOM     21  C   UNL A   1      34.527  20.839  24.814  1.00  0.00     0.030 A 
ATOM     22  C   UNL A   1      36.378  19.267  24.889  1.00  0.00     0.030 A 
BRANCH  18  23
ATOM     23  S   UNL A   1      33.084  17.210  23.755  1.00  0.00     0.238 S 
ATOM     24  O   UNL A   1      32.200  16.871  24.850  1.00  0.00    -0.207 OA
ATOM     25  O   UNL A   1      33.863  16.212  23.064  1.00  0.00    -0.207 OA
BRANCH  23  26
ATOM     26  N   UNL A   1      32.146  17.965  22.591  1.00  0.00    -0.225 NA
ATOM     27  H   UNL A   1      32.155  17.410  21.735  1.00  0.00     0.137 HD
ATOM     28  H   UNL A   1      32.523  18.893  22.400  1.00  0.00     0.137 HD
ENDBRANCH  23  26
ENDBRANCH  18  23
ENDBRANCH  13  17
BRANCH  15  29
ATOM     29  C   UNL A   1      40.069  22.582  26.532  1.00  0.00     0.435 C 
ATOM     30  F   UNL A   1      40.371  21.995  27.718  1.00  0.00    -0.164 F 
ATOM     31  F   UNL A   1      40.893  22.035  25.594  1.00  0.00    -0.164 F 
ATOM     32  F   UNL A   1      40.449  23.887  26.641  1.00  0.00    -0.164 F 
ENDBRANCH  15  29
ENDBRANCH   7  12
ENDBRANCH   5   6
ENDBRANCH   3   5
ENDBRANCH   2   3
ENDBRANCH   1   2
BRANCH   1  33
ATOM     33  C   UNL A   1      32.202  29.202  26.965  1.00  0.00     0.275 C 
BRANCH  33  34
ATOM     34  O   UNL A   1      33.496  29.192  27.569  1.00  0.00    -0.458 OA
BRANCH  34  35
ATOM     35  C   UNL A   1      34.015  30.434  27.679  1.00  0.00     0.338 C 
ATOM     36  O   UNL A   1      33.395  31.483  27.653  1.00  0.00    -0.246 OA
BRANCH  35  37
ATOM     37  C   UNL A   1      35.468  30.423  27.573  1.00  0.00     0.060 A 
ATOM     38  C   UNL A   1      36.100  29.175  27.623  1.00  0.00     0.016 A 
ATOM     39  C   UNL A   1      36.145  31.614  27.840  1.00  0.00     0.016 A 
ATOM     40  C   UNL A   1      37.375  29.102  28.133  1.00  0.00     0.010 A 
ATOM     41  C   UNL A   1      37.417  31.540  28.354  1.00  0.00     0.010 A 
ATOM     42  C   UNL A   1      37.986  30.282  28.562  1.00  0.00    -0.014 A 
BRANCH  42  43
ATOM     43  C   UNL A   1      39.352  30.197  29.034  1.00  0.00     0.031 A 
ATOM     44  C   UNL A   1      39.484  30.824  30.373  1.00  0.00     0.074 A 
ATOM     45  C   UNL A   1      40.299  29.498  28.378  1.00  0.00     0.049 A 
ATOM     46  N   UNL A   1      40.160  31.879  30.691  1.00  0.00    -0.248 NA
ATOM     47  C   UNL A   1      38.570  30.360  31.435  1.00  0.00     0.031 C 
ATOM     48  C   UNL A   1      40.118  28.655  27.192  1.00  0.00     0.029 A 
ATOM     49  N   UNL A   1      41.595  29.262  28.721  1.00  0.00    -0.354 N 
ATOM     50  C   UNL A   1      39.979  32.007  32.066  1.00  0.00     0.074 A 
ATOM     51  C   UNL A   1      38.810  31.245  32.402  1.00  0.00     0.031 C 
ATOM     52  C   UNL A   1      41.166  27.807  27.087  1.00  0.00     0.029 A 
ATOM     53  C   UNL A   1      42.139  28.126  28.118  1.00  0.00     0.049 A 
ATOM     54  H   UNL A   1      42.103  29.839  29.336  1.00  0.00     0.167 HD
ATOM     55  C   UNL A   1      41.011  32.398  32.858  1.00  0.00     0.034 A 
ATOM     56  C   UNL A   1      43.252  27.452  28.510  1.00  0.00     0.034 A 
ATOM     57  C   UNL A   1      42.012  33.104  32.099  1.00  0.00     0.049 A 
ATOM     58  C   UNL A   1      44.023  28.354  29.395  1.00  0.00     0.074 A 
ATOM     59  C   UNL A   1      42.011  34.210  31.271  1.00  0.00     0.029 A 
ATOM     60  N   UNL A   1      43.164  32.415  31.814  1.00  0.00    -0.354 N 
ATOM     61  N   UNL A   1      44.610  29.439  28.982  1.00  0.00    -0.248 NA
ATOM     62  C   UNL A   1      43.768  28.278  30.823  1.00  0.00     0.031 C 
ATOM     63  C   UNL A   1      42.918  33.884  30.220  1.00  0.00     0.029 A 
ATOM     64  C   UNL A   1      43.486  32.641  30.504  1.00  0.00     0.049 A 
ATOM     65  H   UNL A   1      43.671  31.855  32.445  1.00  0.00     0.167 HD
ATOM     66  C   UNL A   1      44.349  30.363  29.984  1.00  0.00     0.074 A 
ATOM     67  C   UNL A   1      43.933  29.565  31.137  1.00  0.00     0.031 C 
ATOM     68  C   UNL A   1      44.202  31.687  29.686  1.00  0.00     0.034 A 
BRANCH  55  69
ATOM     69  C   UNL A   1      41.323  31.747  34.190  1.00  0.00     0.023 A 
ATOM     70  C   UNL A   1      41.584  32.602  35.281  1.00  0.00     0.012 A 
ATOM     71  C   UNL A   1      41.642  30.377  34.366  1.00  0.00     0.148 A 
ATOM     72  C   UNL A   1      42.170  32.125  36.459  1.00  0.00     0.002 A 
ATOM     73  C   UNL A   1      42.131  29.892  35.571  1.00  0.00     0.091 A 
ATOM     74  F   UNL A   1      41.623  29.538  33.328  1.00  0.00    -0.205 F 
ATOM     75  C   UNL A   1      42.431  30.768  36.612  1.00  0.00     0.022 A 
BRANCH  73  76
ATOM     76  S   UNL A   1      42.425  28.137  35.827  1.00  0.00     0.127 S 
ATOM     77  O   UNL A   1      41.074  27.595  35.711  1.00  0.00    -0.237 OA
ATOM     78  O   UNL A   1      43.321  27.822  34.714  1.00  0.00    -0.237 OA
ATOM     79  O   UNL A   1      43.048  28.030  37.141  1.00  0.00    -0.744 OA
ENDBRANCH  73  76
ENDBRANCH  55  69
BRANCH  56  80
ATOM     80  C   UNL A   1      43.594  26.008  28.434  1.00  0.00     0.023 A 
ATOM     81  C   UNL A   1      42.798  25.072  29.132  1.00  0.00     0.012 A 
ATOM     82  C   UNL A   1      44.479  25.520  27.450  1.00  0.00     0.148 A 
ATOM     83  C   UNL A   1      42.849  23.705  28.827  1.00  0.00     0.002 A 
ATOM     84  C   UNL A   1      44.529  24.160  27.154  1.00  0.00     0.091 A 
ATOM     85  F   UNL A   1      45.199  26.398  26.740  1.00  0.00    -0.205 F 
ATOM     86  C   UNL A   1      43.706  23.251  27.830  1.00  0.00     0.022 A 
BRANCH  84  87
ATOM     87  S   UNL A   1      45.586  23.502  25.855  1.00  0.00     0.127 S 
ATOM     88  O   UNL A   1      45.199  24.321  24.707  1.00  0.00    -0.237 OA
ATOM     89  O   UNL A   1      46.920  23.778  26.383  1.00  0.00    -0.237 OA
ATOM     90  O   UNL A   1      45.233  22.093  25.732  1.00  0.00    -0.744 OA
ENDBRANCH  84  87
ENDBRANCH  56  80
BRANCH  68  91
ATOM     91  C   UNL A   1      44.635  32.153  28.319  1.00  0.00     0.023 A 
ATOM     92  C   UNL A   1      43.773  32.194  27.201  1.00  0.00     0.012 A 
ATOM     93  C   UNL A   1      45.930  32.678  28.191  1.00  0.00     0.148 A 
ATOM     94  C   UNL A   1      44.211  32.714  25.979  1.00  0.00     0.002 A 
ATOM     95  C   UNL A   1      46.346  33.236  26.991  1.00  0.00     0.091 A 
ATOM     96  F   UNL A   1      46.739  32.632  29.261  1.00  0.00    -0.205 F 
ATOM     97  C   UNL A   1      45.495  33.245  25.876  1.00  0.00     0.022 A 
BRANCH  95  98
ATOM     98  S   UNL A   1      47.947  34.028  26.847  1.00  0.00     0.127 S 
ATOM     99  O   UNL A   1      47.859  35.080  27.856  1.00  0.00    -0.237 OA
ATOM    100  O   UNL A   1      48.869  32.938  27.174  1.00  0.00    -0.237 OA
ATOM    101  O   UNL A   1      48.040  34.485  25.465  1.00  0.00    -0.744 OA
ENDBRANCH  95  98
ENDBRANCH  68  91
ENDBRANCH  42  43
ENDBRANCH  35  37
ENDBRANCH  34  35
ENDBRANCH  33  34
ENDBRANCH   1  33
TORSDOF 20
ENDMDL
