MODEL 1
REMARK VINA RESULT:     -12.3      0.000      0.000
REMARK SMILES Cc1cc2nc(SCC(=O)OCCOC(=O)c3ccc(-c4c5nc(c(-c6cccc(S(=O)(=O)[O-])c6F)c6ccc([nH]6)c(-c6cccc(S(=O)(=O)[O-])c6F)c6nc(c(-c7cccc(S(=O)(=O)[O-])c7F)c7ccc4[nH]7)C=C6)C=C5)cc3)n(CC(C)C)c(=O)c2[nH]1
REMARK SMILES IDX 12 1 11 2 9 3 10 4 8 5 7 6 6 7 1 8 2 9 3 10 88 11 4 12 87 13
REMARK SMILES IDX 5 15 85 16 80 17 86 18 81 19 82 20 83 21 84 22 13 23 14 24
REMARK SMILES IDX 15 25 16 26 17 27 18 28 79 29 19 30 78 31 20 32 21 33 22 34
REMARK SMILES IDX 72 35 23 36 77 37 71 38 73 39 24 40 76 41 70 42 69 43 25 45
REMARK SMILES IDX 57 46 37 47 56 48 38 49 41 50 55 51 74 52 39 53 40 54 54 56
REMARK SMILES IDX 75 57 42 58 26 59 27 60 35 61 28 62 30 63 36 64 29 65 31 66
REMARK SMILES IDX 32 67 33 68 34 69 58 70 59 71 67 72 60 73 62 74 68 75 61 76
REMARK SMILES IDX 63 77 64 78 65 79 66 80 43 81 44 82 52 83 45 84 47 85 53 86
REMARK SMILES IDX 46 87 48 88 49 89 50 90 51 91
REMARK H PARENT 88 14 73 44 41 55
REMARK Flexibility Score: inf
ROOT
ATOM      1  C   UNL A   1      33.398  21.255  25.409  1.00  0.00     0.274 C 
ENDROOT
BRANCH   1   2
ATOM      2  O   UNL A   1      32.523  21.937  24.500  1.00  0.00    -0.461 OA
BRANCH   2   3
ATOM      3  C   UNL A   1      31.362  22.390  25.037  1.00  0.00     0.316 C 
ATOM      4  O   UNL A   1      30.733  21.737  25.860  1.00  0.00    -0.251 OA
BRANCH   3   5
ATOM      5  C   UNL A   1      30.957  23.770  24.491  1.00  0.00     0.200 C 
BRANCH   5   6
ATOM      6  S   UNL A   1      32.369  24.934  24.519  1.00  0.00    -0.076 SA
BRANCH   6   7
ATOM      7  C   UNL A   1      31.689  26.541  24.364  1.00  0.00     0.172 A 
ATOM      8  C   UNL A   1      28.845  30.583  21.430  1.00  0.00     0.064 C 
ATOM      9  C   UNL A   1      29.232  29.686  22.545  1.00  0.00     0.014 A 
ATOM     10  C   UNL A   1      28.924  28.374  22.917  1.00  0.00     0.052 A 
ATOM     11  N   UNL A   1      30.274  30.085  23.345  1.00  0.00    -0.353 N 
ATOM     12  C   UNL A   1      30.016  27.925  23.707  1.00  0.00     0.097 A 
ATOM     13  C   UNL A   1      30.920  28.933  23.643  1.00  0.00     0.131 A 
ATOM     14  H   UNL A   1      30.499  30.999  23.636  1.00  0.00     0.166 HD
ATOM     15  N   UNL A   1      30.419  26.622  24.047  1.00  0.00    -0.222 NA
ATOM     16  C   UNL A   1      32.303  28.694  23.617  1.00  0.00     0.278 A 
ATOM     17  N   UNL A   1      32.642  27.577  24.330  1.00  0.00    -0.286 N 
ATOM     18  O   UNL A   1      33.075  29.340  22.930  1.00  0.00    -0.267 OA
BRANCH  17  19
ATOM     19  C   UNL A   1      33.677  27.840  25.332  1.00  0.00     0.131 C 
BRANCH  19  20
ATOM     20  C   UNL A   1      33.509  28.861  26.503  1.00  0.00     0.003 C 
ATOM     21  C   UNL A   1      32.398  28.510  27.501  1.00  0.00     0.009 C 
ATOM     22  C   UNL A   1      34.741  28.950  27.434  1.00  0.00     0.009 C 
ENDBRANCH  19  20
ENDBRANCH  17  19
ENDBRANCH   6   7
ENDBRANCH   5   6
ENDBRANCH   3   5
ENDBRANCH   2   3
ENDBRANCH   1   2
BRANCH   1  23
ATOM     23  C   UNL A   1      34.818  21.160  24.847  1.00  0.00     0.275 C 
BRANCH  23  24
ATOM     24  O   UNL A   1      35.957  20.715  25.655  1.00  0.00    -0.458 OA
BRANCH  24  25
ATOM     25  C   UNL A   1      37.234  20.657  25.165  1.00  0.00     0.338 C 
ATOM     26  O   UNL A   1      37.596  19.779  24.396  1.00  0.00    -0.246 OA
BRANCH  25  27
ATOM     27  C   UNL A   1      38.228  21.703  25.638  1.00  0.00     0.060 A 
ATOM     28  C   UNL A   1      39.496  21.268  26.079  1.00  0.00     0.016 A 
ATOM     29  C   UNL A   1      37.929  23.056  25.807  1.00  0.00     0.016 A 
ATOM     30  C   UNL A   1      40.354  22.113  26.826  1.00  0.00     0.010 A 
ATOM     31  C   UNL A   1      38.773  23.891  26.584  1.00  0.00     0.010 A 
ATOM     32  C   UNL A   1      39.965  23.418  27.168  1.00  0.00    -0.014 A 
BRANCH  32  33
ATOM     33  C   UNL A   1      40.912  24.315  27.895  1.00  0.00     0.031 A 
ATOM     34  C   UNL A   1      40.339  25.664  28.069  1.00  0.00     0.074 A 
ATOM     35  C   UNL A   1      42.097  24.124  28.538  1.00  0.00     0.049 A 
ATOM     36  N   UNL A   1      40.532  26.700  27.324  1.00  0.00    -0.248 NA
ATOM     37  C   UNL A   1      39.308  25.815  29.102  1.00  0.00     0.031 C 
ATOM     38  C   UNL A   1      42.706  22.864  28.917  1.00  0.00     0.029 A 
ATOM     39  N   UNL A   1      42.983  25.037  29.085  1.00  0.00    -0.354 N 
ATOM     40  C   UNL A   1      39.787  27.695  27.932  1.00  0.00     0.074 A 
ATOM     41  C   UNL A   1      38.873  27.044  28.840  1.00  0.00     0.031 C 
ATOM     42  C   UNL A   1      43.754  23.058  29.750  1.00  0.00     0.029 A 
ATOM     43  C   UNL A   1      43.967  24.482  29.919  1.00  0.00     0.049 A 
ATOM     44  H   UNL A   1      42.926  26.002  28.904  1.00  0.00     0.167 HD
ATOM     45  C   UNL A   1      40.142  29.004  27.902  1.00  0.00     0.034 A 
ATOM     46  C   UNL A   1      44.857  25.128  30.726  1.00  0.00     0.034 A 
ATOM     47  C   UNL A   1      41.231  29.283  27.015  1.00  0.00     0.049 A 
ATOM     48  C   UNL A   1      44.951  26.520  30.234  1.00  0.00     0.074 A 
ATOM     49  C   UNL A   1      41.473  29.116  25.668  1.00  0.00     0.029 A 
ATOM     50  N   UNL A   1      42.452  29.489  27.609  1.00  0.00    -0.354 N 
ATOM     51  N   UNL A   1      45.508  26.872  29.111  1.00  0.00    -0.248 NA
ATOM     52  C   UNL A   1      44.157  27.543  30.893  1.00  0.00     0.031 C 
ATOM     53  C   UNL A   1      42.866  28.838  25.564  1.00  0.00     0.029 A 
ATOM     54  C   UNL A   1      43.410  28.872  26.849  1.00  0.00     0.049 A 
ATOM     55  H   UNL A   1      42.611  29.994  28.439  1.00  0.00     0.167 HD
ATOM     56  C   UNL A   1      44.792  27.989  28.714  1.00  0.00     0.074 A 
ATOM     57  C   UNL A   1      44.081  28.433  29.905  1.00  0.00     0.031 C 
ATOM     58  C   UNL A   1      44.606  28.264  27.393  1.00  0.00     0.034 A 
BRANCH  45  59
ATOM     59  C   UNL A   1      39.713  29.949  28.977  1.00  0.00     0.023 A 
ATOM     60  C   UNL A   1      40.491  30.066  30.137  1.00  0.00     0.012 A 
ATOM     61  C   UNL A   1      38.477  30.633  28.936  1.00  0.00     0.148 A 
ATOM     62  C   UNL A   1      40.082  30.891  31.190  1.00  0.00     0.002 A 
ATOM     63  C   UNL A   1      38.132  31.536  29.927  1.00  0.00     0.091 A 
ATOM     64  F   UNL A   1      37.594  30.338  27.971  1.00  0.00    -0.205 F 
ATOM     65  C   UNL A   1      38.925  31.658  31.068  1.00  0.00     0.022 A 
BRANCH  63  66
ATOM     66  S   UNL A   1      36.723  32.629  29.729  1.00  0.00     0.127 S 
ATOM     67  O   UNL A   1      35.610  31.688  29.773  1.00  0.00    -0.237 OA
ATOM     68  O   UNL A   1      36.849  33.501  30.897  1.00  0.00    -0.237 OA
ATOM     69  O   UNL A   1      36.951  33.307  28.458  1.00  0.00    -0.744 OA
ENDBRANCH  63  66
ENDBRANCH  45  59
BRANCH  46  70
ATOM     70  C   UNL A   1      45.557  24.744  31.997  1.00  0.00     0.023 A 
ATOM     71  C   UNL A   1      46.762  25.402  32.358  1.00  0.00     0.012 A 
ATOM     72  C   UNL A   1      44.931  23.971  32.996  1.00  0.00     0.148 A 
ATOM     73  C   UNL A   1      47.269  25.356  33.667  1.00  0.00     0.002 A 
ATOM     74  C   UNL A   1      45.451  23.913  34.293  1.00  0.00     0.091 A 
ATOM     75  F   UNL A   1      43.769  23.368  32.722  1.00  0.00    -0.205 F 
ATOM     76  C   UNL A   1      46.606  24.620  34.640  1.00  0.00     0.022 A 
BRANCH  74  77
ATOM     77  S   UNL A   1      44.620  22.966  35.579  1.00  0.00     0.127 S 
ATOM     78  O   UNL A   1      43.291  23.580  35.622  1.00  0.00    -0.237 OA
ATOM     79  O   UNL A   1      44.651  21.614  35.030  1.00  0.00    -0.237 OA
ATOM     80  O   UNL A   1      45.414  23.192  36.781  1.00  0.00    -0.744 OA
ENDBRANCH  74  77
ENDBRANCH  46  70
BRANCH  58  81
ATOM     81  C   UNL A   1      45.562  27.660  26.401  1.00  0.00     0.023 A 
ATOM     82  C   UNL A   1      46.769  28.281  26.025  1.00  0.00     0.012 A 
ATOM     83  C   UNL A   1      45.304  26.343  25.978  1.00  0.00     0.148 A 
ATOM     84  C   UNL A   1      47.704  27.595  25.243  1.00  0.00     0.002 A 
ATOM     85  C   UNL A   1      46.253  25.652  25.238  1.00  0.00     0.091 A 
ATOM     86  F   UNL A   1      44.143  25.779  26.344  1.00  0.00    -0.205 F 
ATOM     87  C   UNL A   1      47.453  26.276  24.864  1.00  0.00     0.022 A 
BRANCH  85  88
ATOM     88  S   UNL A   1      46.046  23.918  24.824  1.00  0.00     0.127 S 
ATOM     89  O   UNL A   1      47.089  23.718  23.821  1.00  0.00    -0.237 OA
ATOM     90  O   UNL A   1      46.295  23.262  26.108  1.00  0.00    -0.237 OA
ATOM     91  O   UNL A   1      44.679  23.779  24.336  1.00  0.00    -0.744 OA
ENDBRANCH  85  88
ENDBRANCH  58  81
ENDBRANCH  32  33
ENDBRANCH  25  27
ENDBRANCH  24  25
ENDBRANCH  23  24
ENDBRANCH   1  23
TORSDOF 18
ENDMDL
MODEL 2
REMARK VINA RESULT:     -12.2      0.994      2.132
REMARK SMILES Cc1cc2nc(SCC(=O)OCCOC(=O)c3ccc(-c4c5nc(c(-c6cccc(S(=O)(=O)[O-])c6F)c6ccc([nH]6)c(-c6cccc(S(=O)(=O)[O-])c6F)c6nc(c(-c7cccc(S(=O)(=O)[O-])c7F)c7ccc4[nH]7)C=C6)C=C5)cc3)n(CC(C)C)c(=O)c2[nH]1
REMARK SMILES IDX 12 1 11 2 9 3 10 4 8 5 7 6 6 7 1 8 2 9 3 10 88 11 4 12 87 13
REMARK SMILES IDX 5 15 85 16 80 17 86 18 81 19 82 20 83 21 84 22 13 23 14 24
REMARK SMILES IDX 15 25 16 26 17 27 18 28 79 29 19 30 78 31 20 32 21 33 22 34
REMARK SMILES IDX 72 35 23 36 77 37 71 38 73 39 24 40 76 41 70 42 69 43 25 45
REMARK SMILES IDX 57 46 37 47 56 48 38 49 41 50 55 51 74 52 39 53 40 54 54 56
REMARK SMILES IDX 75 57 42 58 26 59 27 60 35 61 28 62 30 63 36 64 29 65 31 66
REMARK SMILES IDX 32 67 33 68 34 69 58 70 59 71 67 72 60 73 62 74 68 75 61 76
REMARK SMILES IDX 63 77 64 78 65 79 66 80 43 81 44 82 52 83 45 84 47 85 53 86
REMARK SMILES IDX 46 87 48 88 49 89 50 90 51 91
REMARK H PARENT 88 14 73 44 41 55
REMARK Flexibility Score: inf
ROOT
ATOM      1  C   UNL A   1      33.238  20.064  25.584  1.00  0.00     0.274 C 
ENDROOT
BRANCH   1   2
ATOM      2  O   UNL A   1      32.409  21.085  25.012  1.00  0.00    -0.461 OA
BRANCH   2   3
ATOM      3  C   UNL A   1      32.492  22.304  25.604  1.00  0.00     0.316 C 
ATOM      4  O   UNL A   1      32.658  22.424  26.811  1.00  0.00    -0.251 OA
BRANCH   3   5
ATOM      5  C   UNL A   1      32.349  23.460  24.599  1.00  0.00     0.200 C 
BRANCH   5   6
ATOM      6  S   UNL A   1      31.154  24.711  25.195  1.00  0.00    -0.076 SA
BRANCH   6   7
ATOM      7  C   UNL A   1      31.983  26.253  25.140  1.00  0.00     0.172 A 
ATOM      8  C   UNL A   1      33.636  31.210  27.533  1.00  0.00     0.064 C 
ATOM      9  C   UNL A   1      33.716  29.924  26.801  1.00  0.00     0.014 A 
ATOM     10  C   UNL A   1      33.875  28.583  27.162  1.00  0.00     0.052 A 
ATOM     11  N   UNL A   1      33.380  29.933  25.468  1.00  0.00    -0.353 N 
ATOM     12  C   UNL A   1      33.305  27.823  26.106  1.00  0.00     0.097 A 
ATOM     13  C   UNL A   1      32.757  28.746  25.279  1.00  0.00     0.131 A 
ATOM     14  H   UNL A   1      33.555  30.639  24.804  1.00  0.00     0.166 HD
ATOM     15  N   UNL A   1      32.868  26.487  26.078  1.00  0.00    -0.222 NA
ATOM     16  C   UNL A   1      31.561  28.508  24.583  1.00  0.00     0.278 A 
ATOM     17  N   UNL A   1      31.416  27.188  24.252  1.00  0.00    -0.286 N 
ATOM     18  O   UNL A   1      30.708  29.363  24.419  1.00  0.00    -0.267 OA
BRANCH  17  19
ATOM     19  C   UNL A   1      31.165  26.990  22.824  1.00  0.00     0.131 C 
BRANCH  19  20
ATOM     20  C   UNL A   1      32.293  26.739  21.772  1.00  0.00     0.003 C 
ATOM     21  C   UNL A   1      33.669  27.290  22.167  1.00  0.00     0.009 C 
ATOM     22  C   UNL A   1      32.614  25.242  21.547  1.00  0.00     0.009 C 
ENDBRANCH  19  20
ENDBRANCH  17  19
ENDBRANCH   6   7
ENDBRANCH   5   6
ENDBRANCH   3   5
ENDBRANCH   2   3
ENDBRANCH   1   2
BRANCH   1  23
ATOM     23  C   UNL A   1      34.622  20.044  24.932  1.00  0.00     0.275 C 
BRANCH  23  24
ATOM     24  O   UNL A   1      35.687  20.976  25.316  1.00  0.00    -0.458 OA
BRANCH  24  25
ATOM     25  C   UNL A   1      37.015  20.693  25.141  1.00  0.00     0.338 C 
ATOM     26  O   UNL A   1      37.397  19.637  24.658  1.00  0.00    -0.246 OA
BRANCH  25  27
ATOM     27  C   UNL A   1      38.030  21.720  25.609  1.00  0.00     0.060 A 
ATOM     28  C   UNL A   1      39.278  21.258  26.082  1.00  0.00     0.016 A 
ATOM     29  C   UNL A   1      37.769  23.084  25.744  1.00  0.00     0.016 A 
ATOM     30  C   UNL A   1      40.147  22.094  26.825  1.00  0.00     0.010 A 
ATOM     31  C   UNL A   1      38.624  23.911  26.517  1.00  0.00     0.010 A 
ATOM     32  C   UNL A   1      39.792  23.417  27.131  1.00  0.00    -0.014 A 
BRANCH  32  33
ATOM     33  C   UNL A   1      40.752  24.303  27.856  1.00  0.00     0.031 A 
ATOM     34  C   UNL A   1      40.189  25.652  28.049  1.00  0.00     0.074 A 
ATOM     35  C   UNL A   1      41.944  24.098  28.483  1.00  0.00     0.049 A 
ATOM     36  N   UNL A   1      40.380  26.694  27.310  1.00  0.00    -0.248 NA
ATOM     37  C   UNL A   1      39.171  25.800  29.095  1.00  0.00     0.031 C 
ATOM     38  C   UNL A   1      42.549  22.832  28.844  1.00  0.00     0.029 A 
ATOM     39  N   UNL A   1      42.840  25.001  29.028  1.00  0.00    -0.354 N 
ATOM     40  C   UNL A   1      39.647  27.688  27.936  1.00  0.00     0.074 A 
ATOM     41  C   UNL A   1      38.740  27.034  28.849  1.00  0.00     0.031 C 
ATOM     42  C   UNL A   1      43.608  23.013  29.666  1.00  0.00     0.029 A 
ATOM     43  C   UNL A   1      43.832  24.433  29.846  1.00  0.00     0.049 A 
ATOM     44  H   UNL A   1      42.787  25.969  28.856  1.00  0.00     0.167 HD
ATOM     45  C   UNL A   1      40.010  28.995  27.914  1.00  0.00     0.034 A 
ATOM     46  C   UNL A   1      44.734  25.068  30.647  1.00  0.00     0.034 A 
ATOM     47  C   UNL A   1      41.090  29.276  27.016  1.00  0.00     0.049 A 
ATOM     48  C   UNL A   1      44.830  26.462  30.167  1.00  0.00     0.074 A 
ATOM     49  C   UNL A   1      41.315  29.120  25.665  1.00  0.00     0.029 A 
ATOM     50  N   UNL A   1      42.319  29.469  27.598  1.00  0.00    -0.354 N 
ATOM     51  N   UNL A   1      45.377  26.822  29.040  1.00  0.00    -0.248 NA
ATOM     52  C   UNL A   1      44.050  27.484  30.845  1.00  0.00     0.031 C 
ATOM     53  C   UNL A   1      42.705  28.835  25.543  1.00  0.00     0.029 A 
ATOM     54  C   UNL A   1      43.264  28.854  26.821  1.00  0.00     0.049 A 
ATOM     55  H   UNL A   1      42.490  29.966  28.431  1.00  0.00     0.167 HD
ATOM     56  C   UNL A   1      44.662  27.947  28.662  1.00  0.00     0.074 A 
ATOM     57  C   UNL A   1      43.968  28.383  29.865  1.00  0.00     0.031 C 
ATOM     58  C   UNL A   1      44.463  28.234  27.346  1.00  0.00     0.034 A 
BRANCH  45  59
ATOM     59  C   UNL A   1      39.598  29.933  29.002  1.00  0.00     0.023 A 
ATOM     60  C   UNL A   1      40.390  30.035  30.154  1.00  0.00     0.012 A 
ATOM     61  C   UNL A   1      38.366  30.624  28.981  1.00  0.00     0.148 A 
ATOM     62  C   UNL A   1      39.999  30.853  31.218  1.00  0.00     0.002 A 
ATOM     63  C   UNL A   1      38.037  31.519  29.984  1.00  0.00     0.091 A 
ATOM     64  F   UNL A   1      37.469  30.342  28.024  1.00  0.00    -0.205 F 
ATOM     65  C   UNL A   1      38.844  31.627  31.117  1.00  0.00     0.022 A 
BRANCH  63  66
ATOM     66  S   UNL A   1      36.632  32.622  29.813  1.00  0.00     0.127 S 
ATOM     67  O   UNL A   1      37.015  33.727  30.684  1.00  0.00    -0.237 OA
ATOM     68  O   UNL A   1      36.654  32.921  28.380  1.00  0.00    -0.237 OA
ATOM     69  O   UNL A   1      35.482  31.831  30.233  1.00  0.00    -0.744 OA
ENDBRANCH  63  66
ENDBRANCH  45  59
BRANCH  46  70
ATOM     70  C   UNL A   1      45.446  24.668  31.907  1.00  0.00     0.023 A 
ATOM     71  C   UNL A   1      46.638  25.342  32.280  1.00  0.00     0.012 A 
ATOM     72  C   UNL A   1      44.841  23.857  32.889  1.00  0.00     0.148 A 
ATOM     73  C   UNL A   1      47.151  25.276  33.586  1.00  0.00     0.002 A 
ATOM     74  C   UNL A   1      45.366  23.779  34.182  1.00  0.00     0.091 A 
ATOM     75  F   UNL A   1      43.691  23.236  32.604  1.00  0.00    -0.205 F 
ATOM     76  C   UNL A   1      46.507  24.503  34.543  1.00  0.00     0.022 A 
BRANCH  74  77
ATOM     77  S   UNL A   1      44.560  22.784  35.448  1.00  0.00     0.127 S 
ATOM     78  O   UNL A   1      45.388  23.035  36.629  1.00  0.00    -0.237 OA
ATOM     79  O   UNL A   1      43.228  23.378  35.499  1.00  0.00    -0.237 OA
ATOM     80  O   UNL A   1      44.637  21.415  34.952  1.00  0.00    -0.744 OA
ENDBRANCH  74  77
ENDBRANCH  46  70
BRANCH  58  81
ATOM     81  C   UNL A   1      45.403  27.634  26.337  1.00  0.00     0.023 A 
ATOM     82  C   UNL A   1      46.572  28.285  25.898  1.00  0.00     0.012 A 
ATOM     83  C   UNL A   1      45.179  26.296  25.964  1.00  0.00     0.148 A 
ATOM     84  C   UNL A   1      47.503  27.609  25.103  1.00  0.00     0.002 A 
ATOM     85  C   UNL A   1      46.126  25.616  25.211  1.00  0.00     0.091 A 
ATOM     86  F   UNL A   1      44.054  25.703  26.390  1.00  0.00    -0.205 F 
ATOM     87  C   UNL A   1      47.287  26.271  24.773  1.00  0.00     0.022 A 
BRANCH  85  88
ATOM     88  S   UNL A   1      45.967  23.864  24.856  1.00  0.00     0.127 S 
ATOM     89  O   UNL A   1      46.250  23.263  26.158  1.00  0.00    -0.237 OA
ATOM     90  O   UNL A   1      44.573  23.762  24.423  1.00  0.00    -0.237 OA
ATOM     91  O   UNL A   1      46.941  23.572  23.811  1.00  0.00    -0.744 OA
ENDBRANCH  85  88
ENDBRANCH  58  81
ENDBRANCH  32  33
ENDBRANCH  25  27
ENDBRANCH  24  25
ENDBRANCH  23  24
ENDBRANCH   1  23
TORSDOF 18
ENDMDL
MODEL 3
REMARK VINA RESULT:     -11.1      3.490      7.634
REMARK SMILES Cc1cc2nc(SCC(=O)OCCOC(=O)c3ccc(-c4c5nc(c(-c6cccc(S(=O)(=O)[O-])c6F)c6ccc([nH]6)c(-c6cccc(S(=O)(=O)[O-])c6F)c6nc(c(-c7cccc(S(=O)(=O)[O-])c7F)c7ccc4[nH]7)C=C6)C=C5)cc3)n(CC(C)C)c(=O)c2[nH]1
REMARK SMILES IDX 12 1 11 2 9 3 10 4 8 5 7 6 6 7 1 8 2 9 3 10 88 11 4 12 87 13
REMARK SMILES IDX 5 15 85 16 80 17 86 18 81 19 82 20 83 21 84 22 13 23 14 24
REMARK SMILES IDX 15 25 16 26 17 27 18 28 79 29 19 30 78 31 20 32 21 33 22 34
REMARK SMILES IDX 72 35 23 36 77 37 71 38 73 39 24 40 76 41 70 42 69 43 25 45
REMARK SMILES IDX 57 46 37 47 56 48 38 49 41 50 55 51 74 52 39 53 40 54 54 56
REMARK SMILES IDX 75 57 42 58 26 59 27 60 35 61 28 62 30 63 36 64 29 65 31 66
REMARK SMILES IDX 32 67 33 68 34 69 58 70 59 71 67 72 60 73 62 74 68 75 61 76
REMARK SMILES IDX 63 77 64 78 65 79 66 80 43 81 44 82 52 83 45 84 47 85 53 86
REMARK SMILES IDX 46 87 48 88 49 89 50 90 51 91
REMARK H PARENT 88 14 73 44 41 55
REMARK Flexibility Score: inf
ROOT
ATOM      1  C   UNL A   1      33.116  31.407  27.342  1.00  0.00     0.274 C 
ENDROOT
BRANCH   1   2
ATOM      2  O   UNL A   1      33.363  30.008  27.542  1.00  0.00    -0.461 OA
BRANCH   2   3
ATOM      3  C   UNL A   1      32.409  29.172  27.059  1.00  0.00     0.316 C 
ATOM      4  O   UNL A   1      32.011  28.209  27.702  1.00  0.00    -0.251 OA
BRANCH   3   5
ATOM      5  C   UNL A   1      31.925  29.576  25.656  1.00  0.00     0.200 C 
BRANCH   5   6
ATOM      6  S   UNL A   1      33.197  29.224  24.390  1.00  0.00    -0.076 SA
BRANCH   6   7
ATOM      7  C   UNL A   1      33.260  27.481  24.222  1.00  0.00     0.172 A 
ATOM      8  C   UNL A   1      36.142  22.552  23.564  1.00  0.00     0.064 C 
ATOM      9  C   UNL A   1      35.185  23.542  24.113  1.00  0.00     0.014 A 
ATOM     10  C   UNL A   1      35.254  24.577  25.051  1.00  0.00     0.052 A 
ATOM     11  N   UNL A   1      33.972  23.668  23.480  1.00  0.00    -0.353 N 
ATOM     12  C   UNL A   1      34.213  25.482  24.712  1.00  0.00     0.097 A 
ATOM     13  C   UNL A   1      33.697  24.991  23.557  1.00  0.00     0.131 A 
ATOM     14  H   UNL A   1      33.428  22.959  23.066  1.00  0.00     0.166 HD
ATOM     15  N   UNL A   1      34.028  26.830  25.062  1.00  0.00    -0.222 NA
ATOM     16  C   UNL A   1      33.225  25.830  22.536  1.00  0.00     0.278 A 
ATOM     17  N   UNL A   1      32.693  26.989  23.031  1.00  0.00    -0.286 N 
ATOM     18  O   UNL A   1      33.396  25.594  21.352  1.00  0.00    -0.267 OA
BRANCH  17  19
ATOM     19  C   UNL A   1      31.333  27.236  22.548  1.00  0.00     0.131 C 
BRANCH  19  20
ATOM     20  C   UNL A   1      30.134  27.597  23.483  1.00  0.00     0.003 C 
ATOM     21  C   UNL A   1      29.199  28.681  22.932  1.00  0.00     0.009 C 
ATOM     22  C   UNL A   1      29.147  26.428  23.713  1.00  0.00     0.009 C 
ENDBRANCH  19  20
ENDBRANCH  17  19
ENDBRANCH   6   7
ENDBRANCH   5   6
ENDBRANCH   3   5
ENDBRANCH   2   3
ENDBRANCH   1   2
BRANCH   1  23
ATOM     23  C   UNL A   1      34.200  32.261  28.002  1.00  0.00     0.275 C 
BRANCH  23  24
ATOM     24  O   UNL A   1      34.132  32.673  29.408  1.00  0.00    -0.458 OA
BRANCH  24  25
ATOM     25  C   UNL A   1      34.986  32.190  30.362  1.00  0.00     0.338 C 
ATOM     26  O   UNL A   1      34.765  32.317  31.558  1.00  0.00    -0.246 OA
BRANCH  25  27
ATOM     27  C   UNL A   1      36.265  31.516  29.899  1.00  0.00     0.060 A 
ATOM     28  C   UNL A   1      36.284  30.107  29.808  1.00  0.00     0.016 A 
ATOM     29  C   UNL A   1      37.476  32.179  29.694  1.00  0.00     0.016 A 
ATOM     30  C   UNL A   1      37.497  29.385  29.702  1.00  0.00     0.010 A 
ATOM     31  C   UNL A   1      38.694  31.454  29.622  1.00  0.00     0.010 A 
ATOM     32  C   UNL A   1      38.735  30.047  29.695  1.00  0.00    -0.014 A 
BRANCH  32  33
ATOM     33  C   UNL A   1      39.999  29.272  29.512  1.00  0.00     0.031 A 
ATOM     34  C   UNL A   1      40.672  29.042  30.804  1.00  0.00     0.074 A 
ATOM     35  C   UNL A   1      40.574  28.629  28.458  1.00  0.00     0.049 A 
ATOM     36  N   UNL A   1      41.627  29.738  31.326  1.00  0.00    -0.248 NA
ATOM     37  C   UNL A   1      40.096  28.012  31.675  1.00  0.00     0.031 C 
ATOM     38  C   UNL A   1      39.968  28.302  27.183  1.00  0.00     0.029 A 
ATOM     39  N   UNL A   1      41.818  28.034  28.337  1.00  0.00    -0.354 N 
ATOM     40  C   UNL A   1      41.901  29.091  32.519  1.00  0.00     0.074 A 
ATOM     41  C   UNL A   1      40.783  28.221  32.795  1.00  0.00     0.031 C 
ATOM     42  C   UNL A   1      40.748  27.453  26.474  1.00  0.00     0.029 A 
ATOM     43  C   UNL A   1      41.977  27.218  27.205  1.00  0.00     0.049 A 
ATOM     44  H   UNL A   1      42.536  28.172  28.995  1.00  0.00     0.167 HD
ATOM     45  C   UNL A   1      43.140  29.059  33.071  1.00  0.00     0.034 A 
ATOM     46  C   UNL A   1      43.008  26.376  26.906  1.00  0.00     0.034 A 
ATOM     47  C   UNL A   1      44.080  29.924  32.423  1.00  0.00     0.049 A 
ATOM     48  C   UNL A   1      44.163  26.803  27.723  1.00  0.00     0.074 A 
ATOM     49  C   UNL A   1      44.158  31.275  32.161  1.00  0.00     0.029 A 
ATOM     50  N   UNL A   1      44.987  29.311  31.594  1.00  0.00    -0.354 N 
ATOM     51  N   UNL A   1      44.834  27.905  27.540  1.00  0.00    -0.248 NA
ATOM     52  C   UNL A   1      44.426  26.104  28.970  1.00  0.00     0.031 C 
ATOM     53  C   UNL A   1      44.827  31.379  30.908  1.00  0.00     0.029 A 
ATOM     54  C   UNL A   1      45.146  30.090  30.479  1.00  0.00     0.049 A 
ATOM     55  H   UNL A   1      45.444  28.457  31.771  1.00  0.00     0.167 HD
ATOM     56  C   UNL A   1      45.261  28.256  28.809  1.00  0.00     0.074 A 
ATOM     57  C   UNL A   1      45.107  27.052  29.613  1.00  0.00     0.031 C 
ATOM     58  C   UNL A   1      45.410  29.565  29.156  1.00  0.00     0.034 A 
BRANCH  45  59
ATOM     59  C   UNL A   1      43.556  27.945  33.977  1.00  0.00     0.023 A 
ATOM     60  C   UNL A   1      43.892  28.234  35.307  1.00  0.00     0.012 A 
ATOM     61  C   UNL A   1      43.760  26.627  33.513  1.00  0.00     0.148 A 
ATOM     62  C   UNL A   1      44.349  27.226  36.162  1.00  0.00     0.002 A 
ATOM     63  C   UNL A   1      44.101  25.611  34.389  1.00  0.00     0.091 A 
ATOM     64  F   UNL A   1      43.707  26.377  32.196  1.00  0.00    -0.205 F 
ATOM     65  C   UNL A   1      44.414  25.907  35.715  1.00  0.00     0.022 A 
BRANCH  63  66
ATOM     66  S   UNL A   1      44.059  23.893  33.871  1.00  0.00     0.127 S 
ATOM     67  O   UNL A   1      44.210  24.017  32.425  1.00  0.00    -0.237 OA
ATOM     68  O   UNL A   1      45.216  23.336  34.573  1.00  0.00    -0.237 OA
ATOM     69  O   UNL A   1      42.778  23.389  34.350  1.00  0.00    -0.744 OA
ENDBRANCH  63  66
ENDBRANCH  45  59
BRANCH  46  70
ATOM     70  C   UNL A   1      43.101  25.117  26.093  1.00  0.00     0.023 A 
ATOM     71  C   UNL A   1      44.122  24.992  25.115  1.00  0.00     0.012 A 
ATOM     72  C   UNL A   1      42.412  23.940  26.447  1.00  0.00     0.148 A 
ATOM     73  C   UNL A   1      44.490  23.746  24.580  1.00  0.00     0.002 A 
ATOM     74  C   UNL A   1      42.768  22.704  25.897  1.00  0.00     0.091 A 
ATOM     75  F   UNL A   1      41.472  23.995  27.396  1.00  0.00    -0.205 F 
ATOM     76  C   UNL A   1      43.819  22.598  24.982  1.00  0.00     0.022 A 
BRANCH  74  77
ATOM     77  S   UNL A   1      41.919  21.195  26.391  1.00  0.00     0.127 S 
ATOM     78  O   UNL A   1      40.523  21.490  26.064  1.00  0.00    -0.237 OA
ATOM     79  O   UNL A   1      42.550  20.197  25.533  1.00  0.00    -0.237 OA
ATOM     80  O   UNL A   1      42.178  21.072  27.821  1.00  0.00    -0.744 OA
ENDBRANCH  74  77
ENDBRANCH  46  70
BRANCH  58  81
ATOM     81  C   UNL A   1      45.586  30.575  28.056  1.00  0.00     0.023 A 
ATOM     82  C   UNL A   1      44.502  31.186  27.397  1.00  0.00     0.012 A 
ATOM     83  C   UNL A   1      46.891  31.043  27.814  1.00  0.00     0.148 A 
ATOM     84  C   UNL A   1      44.719  32.249  26.514  1.00  0.00     0.002 A 
ATOM     85  C   UNL A   1      47.096  32.125  26.971  1.00  0.00     0.091 A 
ATOM     86  F   UNL A   1      47.905  30.438  28.450  1.00  0.00    -0.205 F 
ATOM     87  C   UNL A   1      46.013  32.728  26.313  1.00  0.00     0.022 A 
BRANCH  85  88
ATOM     88  S   UNL A   1      48.718  32.865  26.765  1.00  0.00     0.127 S 
ATOM     89  O   UNL A   1      48.459  33.892  25.759  1.00  0.00    -0.237 OA
ATOM     90  O   UNL A   1      48.995  33.378  28.108  1.00  0.00    -0.237 OA
ATOM     91  O   UNL A   1      49.605  31.788  26.341  1.00  0.00    -0.744 OA
ENDBRANCH  85  88
ENDBRANCH  58  81
ENDBRANCH  32  33
ENDBRANCH  25  27
ENDBRANCH  24  25
ENDBRANCH  23  24
ENDBRANCH   1  23
TORSDOF 18
ENDMDL
