MODEL 1
REMARK VINA RESULT:     -11.1      0.000      0.000
REMARK SMILES Cc1c(N[C@@H]2CC[C@@H]([NH3+])C2)cccc1C(=O)OCCOC(=O)c1ccc(-c2c3nc(c(-c4cccc(S(=O)(=O)[O-])c4F)c4ccc([nH]4)c(-c4cccc(S(=O)(=O)[O-])c4F)c4nc(c(-c5cccc(S(=O)(=O)[O-])c5F)c5ccc2[nH]5)C=C4)C=C3)cc1
REMARK SMILES IDX 18 1 17 2 15 3 16 4 14 5 1 6 2 7 3 8 11 9 13 10 12 11 4 12
REMARK SMILES IDX 5 14 6 15 10 16 7 17 8 18 9 19 19 23 20 24 21 25 22 26 23 27
REMARK SMILES IDX 24 28 85 29 25 30 84 31 26 32 27 33 28 34 78 35 29 36 83 37
REMARK SMILES IDX 77 38 79 39 30 40 82 41 76 42 75 43 31 45 63 46 43 47 62 48
REMARK SMILES IDX 44 49 47 50 61 51 80 52 45 53 46 54 60 56 81 57 48 58 32 59
REMARK SMILES IDX 33 60 41 61 34 62 36 63 42 64 35 65 37 66 38 67 39 68 40 69
REMARK SMILES IDX 64 70 65 71 73 72 66 73 68 74 74 75 67 76 69 77 70 78 71 79
REMARK SMILES IDX 72 80 49 81 50 82 58 83 51 84 53 85 59 86 52 87 54 88 55 89
REMARK SMILES IDX 56 90 57 91
REMARK H PARENT 4 13 9 20 9 21 9 22 79 44 47 55
REMARK Flexibility Score: inf
ROOT
ATOM      1  C   UNL A   1      42.925  18.899  25.742  1.00  0.00     0.275 C 
ENDROOT
BRANCH   1   2
ATOM      2  O   UNL A   1      42.039  20.012  25.816  1.00  0.00    -0.458 OA
BRANCH   2   3
ATOM      3  C   UNL A   1      41.307  20.154  26.935  1.00  0.00     0.338 C 
ATOM      4  O   UNL A   1      41.397  19.472  27.942  1.00  0.00    -0.246 OA
BRANCH   3   5
ATOM      5  C   UNL A   1      40.293  21.213  26.716  1.00  0.00     0.065 A 
ATOM      6  C   UNL A   1      38.871  19.701  25.256  1.00  0.00     0.047 C 
ATOM      7  C   UNL A   1      39.167  21.046  25.871  1.00  0.00    -0.013 A 
ATOM      8  C   UNL A   1      38.370  22.182  25.578  1.00  0.00     0.038 A 
ATOM      9  C   UNL A   1      38.592  23.356  26.316  1.00  0.00     0.026 A 
ATOM     10  C   UNL A   1      40.540  22.429  27.360  1.00  0.00     0.016 A 
ATOM     11  C   UNL A   1      39.646  23.477  27.218  1.00  0.00     0.003 A 
BRANCH   8  12
ATOM     12  N   UNL A   1      37.497  22.177  24.504  1.00  0.00    -0.382 N 
ATOM     13  H   UNL A   1      37.901  22.264  23.610  1.00  0.00     0.160 HD
BRANCH  12  14
ATOM     14  C   UNL A   1      36.045  22.057  24.549  1.00  0.00     0.085 C 
ATOM     15  C   UNL A   1      35.236  23.314  24.181  1.00  0.00     0.031 C 
ATOM     16  C   UNL A   1      35.517  21.581  25.902  1.00  0.00     0.089 C 
ATOM     17  C   UNL A   1      34.210  23.486  25.304  1.00  0.00     0.067 C 
ATOM     18  C   UNL A   1      34.080  22.108  25.952  1.00  0.00     0.182 C 
BRANCH  18  19
ATOM     19  N   UNL A   1      33.145  21.264  25.200  1.00  0.00    -0.355 N 
ATOM     20  H   UNL A   1      32.362  21.006  25.800  1.00  0.00     0.344 HD
ATOM     21  H   UNL A   1      33.625  20.420  24.887  1.00  0.00     0.344 HD
ATOM     22  H   UNL A   1      32.798  21.778  24.391  1.00  0.00     0.344 HD
ENDBRANCH  18  19
ENDBRANCH  12  14
ENDBRANCH   8  12
ENDBRANCH   3   5
ENDBRANCH   2   3
ENDBRANCH   1   2
BRANCH   1  23
ATOM     23  C   UNL A   1      44.314  19.093  25.094  1.00  0.00     0.275 C 
BRANCH  23  24
ATOM     24  O   UNL A   1      44.998  20.378  24.946  1.00  0.00    -0.458 OA
BRANCH  24  25
ATOM     25  C   UNL A   1      44.707  21.559  24.354  1.00  0.00     0.338 C 
ATOM     26  O   UNL A   1      44.505  21.652  23.149  1.00  0.00    -0.246 OA
BRANCH  25  27
ATOM     27  C   UNL A   1      44.625  22.734  25.212  1.00  0.00     0.060 A 
ATOM     28  C   UNL A   1      44.331  22.603  26.582  1.00  0.00     0.016 A 
ATOM     29  C   UNL A   1      44.933  23.959  24.646  1.00  0.00     0.016 A 
ATOM     30  C   UNL A   1      44.438  23.708  27.416  1.00  0.00     0.010 A 
ATOM     31  C   UNL A   1      45.222  25.000  25.484  1.00  0.00     0.010 A 
ATOM     32  C   UNL A   1      44.868  24.900  26.843  1.00  0.00    -0.014 A 
BRANCH  32  33
ATOM     33  C   UNL A   1      44.519  26.206  27.371  1.00  0.00     0.031 A 
ATOM     34  C   UNL A   1      43.174  26.762  27.290  1.00  0.00     0.074 A 
ATOM     35  C   UNL A   1      45.499  26.639  28.200  1.00  0.00     0.049 A 
ATOM     36  N   UNL A   1      42.899  27.966  27.636  1.00  0.00    -0.248 NA
ATOM     37  C   UNL A   1      42.020  26.027  26.787  1.00  0.00     0.031 C 
ATOM     38  C   UNL A   1      45.470  27.537  29.333  1.00  0.00     0.029 A 
ATOM     39  N   UNL A   1      46.855  26.287  28.090  1.00  0.00    -0.354 N 
ATOM     40  C   UNL A   1      41.526  28.077  27.704  1.00  0.00     0.074 A 
ATOM     41  C   UNL A   1      41.032  26.899  27.033  1.00  0.00     0.031 C 
ATOM     42  C   UNL A   1      46.742  27.881  29.627  1.00  0.00     0.029 A 
ATOM     43  C   UNL A   1      47.593  27.365  28.556  1.00  0.00     0.049 A 
ATOM     44  H   UNL A   1      47.214  25.437  27.748  1.00  0.00     0.167 HD
ATOM     45  C   UNL A   1      41.013  29.081  28.470  1.00  0.00     0.034 A 
ATOM     46  C   UNL A   1      48.345  28.091  27.674  1.00  0.00     0.034 A 
ATOM     47  C   UNL A   1      42.116  29.934  28.959  1.00  0.00     0.049 A 
ATOM     48  C   UNL A   1      47.778  29.492  27.551  1.00  0.00     0.074 A 
ATOM     49  C   UNL A   1      42.824  29.938  30.150  1.00  0.00     0.029 A 
ATOM     50  N   UNL A   1      42.871  30.677  28.052  1.00  0.00    -0.354 N 
ATOM     51  N   UNL A   1      46.578  29.832  27.939  1.00  0.00    -0.248 NA
ATOM     52  C   UNL A   1      48.518  30.612  26.987  1.00  0.00     0.031 C 
ATOM     53  C   UNL A   1      44.077  30.573  29.906  1.00  0.00     0.029 A 
ATOM     54  C   UNL A   1      44.114  30.994  28.585  1.00  0.00     0.049 A 
ATOM     55  H   UNL A   1      42.563  30.942  27.155  1.00  0.00     0.167 HD
ATOM     56  C   UNL A   1      46.337  31.135  27.626  1.00  0.00     0.074 A 
ATOM     57  C   UNL A   1      47.608  31.596  27.084  1.00  0.00     0.031 C 
ATOM     58  C   UNL A   1      45.105  31.712  27.782  1.00  0.00     0.034 A 
BRANCH  45  59
ATOM     59  C   UNL A   1      39.599  29.190  29.037  1.00  0.00     0.023 A 
ATOM     60  C   UNL A   1      38.551  29.287  28.090  1.00  0.00     0.012 A 
ATOM     61  C   UNL A   1      39.204  29.288  30.394  1.00  0.00     0.148 A 
ATOM     62  C   UNL A   1      37.217  29.519  28.448  1.00  0.00     0.002 A 
ATOM     63  C   UNL A   1      37.866  29.507  30.758  1.00  0.00     0.091 A 
ATOM     64  F   UNL A   1      40.108  29.184  31.366  1.00  0.00    -0.205 F 
ATOM     65  C   UNL A   1      36.873  29.635  29.785  1.00  0.00     0.022 A 
BRANCH  63  66
ATOM     66  S   UNL A   1      37.324  29.656  32.475  1.00  0.00     0.127 S 
ATOM     67  O   UNL A   1      38.294  30.606  33.021  1.00  0.00    -0.237 OA
ATOM     68  O   UNL A   1      35.969  30.185  32.331  1.00  0.00    -0.237 OA
ATOM     69  O   UNL A   1      37.396  28.317  33.049  1.00  0.00    -0.744 OA
ENDBRANCH  63  66
ENDBRANCH  45  59
BRANCH  46  70
ATOM     70  C   UNL A   1      48.911  27.287  26.523  1.00  0.00     0.023 A 
ATOM     71  C   UNL A   1      48.282  27.423  25.255  1.00  0.00     0.012 A 
ATOM     72  C   UNL A   1      50.198  26.718  26.556  1.00  0.00     0.148 A 
ATOM     73  C   UNL A   1      48.958  27.128  24.066  1.00  0.00     0.002 A 
ATOM     74  C   UNL A   1      50.867  26.422  25.361  1.00  0.00     0.091 A 
ATOM     75  F   UNL A   1      50.791  26.524  27.740  1.00  0.00    -0.205 F 
ATOM     76  C   UNL A   1      50.261  26.650  24.117  1.00  0.00     0.022 A 
BRANCH  74  77
ATOM     77  S   UNL A   1      52.588  25.893  25.390  1.00  0.00     0.127 S 
ATOM     78  O   UNL A   1      53.007  26.035  23.994  1.00  0.00    -0.237 OA
ATOM     79  O   UNL A   1      53.229  26.839  26.293  1.00  0.00    -0.237 OA
ATOM     80  O   UNL A   1      52.471  24.514  25.856  1.00  0.00    -0.744 OA
ENDBRANCH  74  77
ENDBRANCH  46  70
BRANCH  58  81
ATOM     81  C   UNL A   1      44.731  33.038  27.164  1.00  0.00     0.023 A 
ATOM     82  C   UNL A   1      44.680  33.218  25.769  1.00  0.00     0.012 A 
ATOM     83  C   UNL A   1      44.255  34.102  27.966  1.00  0.00     0.148 A 
ATOM     84  C   UNL A   1      44.274  34.424  25.195  1.00  0.00     0.002 A 
ATOM     85  C   UNL A   1      43.721  35.246  27.385  1.00  0.00     0.091 A 
ATOM     86  F   UNL A   1      44.324  34.019  29.303  1.00  0.00    -0.205 F 
ATOM     87  C   UNL A   1      43.772  35.432  26.002  1.00  0.00     0.022 A 
BRANCH  85  88
ATOM     88  S   UNL A   1      42.786  36.417  28.376  1.00  0.00     0.127 S 
ATOM     89  O   UNL A   1      43.841  37.103  29.117  1.00  0.00    -0.237 OA
ATOM     90  O   UNL A   1      42.124  37.235  27.357  1.00  0.00    -0.237 OA
ATOM     91  O   UNL A   1      41.874  35.595  29.160  1.00  0.00    -0.744 OA
ENDBRANCH  85  88
ENDBRANCH  58  81
ENDBRANCH  32  33
ENDBRANCH  25  27
ENDBRANCH  24  25
ENDBRANCH  23  24
ENDBRANCH   1  23
TORSDOF 17
ENDMDL
MODEL 2
REMARK VINA RESULT:     -11.1      3.784      5.803
REMARK SMILES Cc1c(N[C@@H]2CC[C@@H]([NH3+])C2)cccc1C(=O)OCCOC(=O)c1ccc(-c2c3nc(c(-c4cccc(S(=O)(=O)[O-])c4F)c4ccc([nH]4)c(-c4cccc(S(=O)(=O)[O-])c4F)c4nc(c(-c5cccc(S(=O)(=O)[O-])c5F)c5ccc2[nH]5)C=C4)C=C3)cc1
REMARK SMILES IDX 18 1 17 2 15 3 16 4 14 5 1 6 2 7 3 8 11 9 13 10 12 11 4 12
REMARK SMILES IDX 5 14 6 15 10 16 7 17 8 18 9 19 19 23 20 24 21 25 22 26 23 27
REMARK SMILES IDX 24 28 85 29 25 30 84 31 26 32 27 33 28 34 78 35 29 36 83 37
REMARK SMILES IDX 77 38 79 39 30 40 82 41 76 42 75 43 31 45 63 46 43 47 62 48
REMARK SMILES IDX 44 49 47 50 61 51 80 52 45 53 46 54 60 56 81 57 48 58 32 59
REMARK SMILES IDX 33 60 41 61 34 62 36 63 42 64 35 65 37 66 38 67 39 68 40 69
REMARK SMILES IDX 64 70 65 71 73 72 66 73 68 74 74 75 67 76 69 77 70 78 71 79
REMARK SMILES IDX 72 80 49 81 50 82 58 83 51 84 53 85 59 86 52 87 54 88 55 89
REMARK SMILES IDX 56 90 57 91
REMARK H PARENT 4 13 9 20 9 21 9 22 79 44 47 55
REMARK Flexibility Score: inf
ROOT
ATOM      1  C   UNL A   1      36.861  22.776  25.295  1.00  0.00     0.275 C 
ENDROOT
BRANCH   1   2
ATOM      2  O   UNL A   1      36.028  23.285  24.256  1.00  0.00    -0.458 OA
BRANCH   2   3
ATOM      3  C   UNL A   1      34.795  23.699  24.590  1.00  0.00     0.338 C 
ATOM      4  O   UNL A   1      34.526  24.670  25.280  1.00  0.00    -0.246 OA
BRANCH   3   5
ATOM      5  C   UNL A   1      33.803  22.727  24.074  1.00  0.00     0.065 A 
ATOM      6  C   UNL A   1      33.782  21.424  26.251  1.00  0.00     0.047 C 
ATOM      7  C   UNL A   1      33.358  21.603  24.815  1.00  0.00    -0.013 A 
ATOM      8  C   UNL A   1      32.562  20.633  24.155  1.00  0.00     0.038 A 
ATOM      9  C   UNL A   1      32.059  20.943  22.881  1.00  0.00     0.026 A 
ATOM     10  C   UNL A   1      33.357  22.954  22.768  1.00  0.00     0.016 A 
ATOM     11  C   UNL A   1      32.426  22.100  22.200  1.00  0.00     0.003 A 
BRANCH   8  12
ATOM     12  N   UNL A   1      32.401  19.366  24.690  1.00  0.00    -0.382 N 
ATOM     13  H   UNL A   1      31.506  19.149  25.039  1.00  0.00     0.160 HD
BRANCH  12  14
ATOM     14  C   UNL A   1      33.408  18.319  24.795  1.00  0.00     0.085 C 
ATOM     15  C   UNL A   1      33.972  17.768  23.473  1.00  0.00     0.031 C 
ATOM     16  C   UNL A   1      32.947  17.110  25.608  1.00  0.00     0.089 C 
ATOM     17  C   UNL A   1      33.885  16.244  23.591  1.00  0.00     0.067 C 
ATOM     18  C   UNL A   1      33.811  15.956  25.090  1.00  0.00     0.182 C 
BRANCH  18  19
ATOM     19  N   UNL A   1      35.151  15.946  25.687  1.00  0.00    -0.355 N 
ATOM     20  H   UNL A   1      35.445  16.903  25.879  1.00  0.00     0.344 HD
ATOM     21  H   UNL A   1      35.808  15.513  25.038  1.00  0.00     0.344 HD
ATOM     22  H   UNL A   1      35.132  15.415  26.557  1.00  0.00     0.344 HD
ENDBRANCH  18  19
ENDBRANCH  12  14
ENDBRANCH   8  12
ENDBRANCH   3   5
ENDBRANCH   2   3
ENDBRANCH   1   2
BRANCH   1  23
ATOM     23  C   UNL A   1      37.897  23.718  25.948  1.00  0.00     0.275 C 
BRANCH  23  24
ATOM     24  O   UNL A   1      39.106  23.279  26.645  1.00  0.00    -0.458 OA
BRANCH  24  25
ATOM     25  C   UNL A   1      40.284  23.853  26.979  1.00  0.00     0.338 C 
ATOM     26  O   UNL A   1      41.351  23.259  26.875  1.00  0.00    -0.246 OA
BRANCH  25  27
ATOM     27  C   UNL A   1      40.245  25.228  27.461  1.00  0.00     0.060 A 
ATOM     28  C   UNL A   1      40.691  26.285  26.648  1.00  0.00     0.016 A 
ATOM     29  C   UNL A   1      39.674  25.452  28.702  1.00  0.00     0.016 A 
ATOM     30  C   UNL A   1      40.477  27.598  27.049  1.00  0.00     0.010 A 
ATOM     31  C   UNL A   1      39.293  26.727  29.013  1.00  0.00     0.010 A 
ATOM     32  C   UNL A   1      39.791  27.795  28.243  1.00  0.00    -0.014 A 
BRANCH  32  33
ATOM     33  C   UNL A   1      39.958  28.978  29.068  1.00  0.00     0.031 A 
ATOM     34  C   UNL A   1      38.998  30.075  29.086  1.00  0.00     0.074 A 
ATOM     35  C   UNL A   1      40.906  28.748  30.008  1.00  0.00     0.049 A 
ATOM     36  N   UNL A   1      39.214  31.174  29.711  1.00  0.00    -0.248 NA
ATOM     37  C   UNL A   1      37.723  30.051  28.382  1.00  0.00     0.031 C 
ATOM     38  C   UNL A   1      41.105  29.307  31.327  1.00  0.00     0.029 A 
ATOM     39  N   UNL A   1      41.987  27.863  29.856  1.00  0.00    -0.354 N 
ATOM     40  C   UNL A   1      38.022  31.865  29.762  1.00  0.00     0.074 A 
ATOM     41  C   UNL A   1      37.173  31.197  28.806  1.00  0.00     0.031 C 
ATOM     42  C   UNL A   1      42.350  28.981  31.735  1.00  0.00     0.029 A 
ATOM     43  C   UNL A   1      43.040  28.378  30.596  1.00  0.00     0.049 A 
ATOM     44  H   UNL A   1      41.996  27.034  29.324  1.00  0.00     0.167 HD
ATOM     45  C   UNL A   1      37.882  32.807  30.738  1.00  0.00     0.034 A 
ATOM     46  C   UNL A   1      44.142  28.863  29.945  1.00  0.00     0.034 A 
ATOM     47  C   UNL A   1      39.164  32.960  31.456  1.00  0.00     0.049 A 
ATOM     48  C   UNL A   1      44.242  30.361  30.155  1.00  0.00     0.074 A 
ATOM     49  C   UNL A   1      39.638  32.401  32.632  1.00  0.00     0.029 A 
ATOM     50  N   UNL A   1      40.278  33.463  30.785  1.00  0.00    -0.354 N 
ATOM     51  N   UNL A   1      43.258  31.108  30.579  1.00  0.00    -0.248 NA
ATOM     52  C   UNL A   1      45.455  31.128  29.909  1.00  0.00     0.031 C 
ATOM     53  C   UNL A   1      41.062  32.451  32.591  1.00  0.00     0.029 A 
ATOM     54  C   UNL A   1      41.453  33.077  31.417  1.00  0.00     0.049 A 
ATOM     55  H   UNL A   1      40.236  34.018  29.972  1.00  0.00     0.167 HD
ATOM     56  C   UNL A   1      43.635  32.416  30.592  1.00  0.00     0.074 A 
ATOM     57  C   UNL A   1      45.043  32.368  30.219  1.00  0.00     0.031 C 
ATOM     58  C   UNL A   1      42.754  33.432  30.848  1.00  0.00     0.034 A 
BRANCH  45  59
ATOM     59  C   UNL A   1      36.584  33.411  31.270  1.00  0.00     0.023 A 
ATOM     60  C   UNL A   1      36.276  33.138  32.625  1.00  0.00     0.012 A 
ATOM     61  C   UNL A   1      35.602  34.145  30.559  1.00  0.00     0.148 A 
ATOM     62  C   UNL A   1      35.067  33.513  33.224  1.00  0.00     0.002 A 
ATOM     63  C   UNL A   1      34.395  34.533  31.159  1.00  0.00     0.091 A 
ATOM     64  F   UNL A   1      35.803  34.476  29.285  1.00  0.00    -0.205 F 
ATOM     65  C   UNL A   1      34.120  34.207  32.489  1.00  0.00     0.022 A 
BRANCH  63  66
ATOM     66  S   UNL A   1      33.111  35.454  30.282  1.00  0.00     0.127 S 
ATOM     67  O   UNL A   1      32.694  34.498  29.257  1.00  0.00    -0.237 OA
ATOM     68  O   UNL A   1      32.121  35.688  31.333  1.00  0.00    -0.237 OA
ATOM     69  O   UNL A   1      33.747  36.661  29.766  1.00  0.00    -0.744 OA
ENDBRANCH  63  66
ENDBRANCH  45  59
BRANCH  46  70
ATOM     70  C   UNL A   1      44.465  28.151  28.648  1.00  0.00     0.023 A 
ATOM     71  C   UNL A   1      44.215  28.851  27.436  1.00  0.00     0.012 A 
ATOM     72  C   UNL A   1      45.308  27.026  28.591  1.00  0.00     0.148 A 
ATOM     73  C   UNL A   1      44.879  28.520  26.248  1.00  0.00     0.002 A 
ATOM     74  C   UNL A   1      45.966  26.700  27.398  1.00  0.00     0.091 A 
ATOM     75  F   UNL A   1      45.517  26.314  29.705  1.00  0.00    -0.205 F 
ATOM     76  C   UNL A   1      45.774  27.459  26.235  1.00  0.00     0.022 A 
BRANCH  74  77
ATOM     77  S   UNL A   1      47.205  25.392  27.371  1.00  0.00     0.127 S 
ATOM     78  O   UNL A   1      47.692  25.419  25.990  1.00  0.00    -0.237 OA
ATOM     79  O   UNL A   1      48.192  25.826  28.349  1.00  0.00    -0.237 OA
ATOM     80  O   UNL A   1      46.410  24.218  27.716  1.00  0.00    -0.744 OA
ENDBRANCH  74  77
ENDBRANCH  46  70
BRANCH  58  81
ATOM     81  C   UNL A   1      43.064  34.883  30.567  1.00  0.00     0.023 A 
ATOM     82  C   UNL A   1      43.591  35.734  31.557  1.00  0.00     0.012 A 
ATOM     83  C   UNL A   1      42.993  35.397  29.250  1.00  0.00     0.148 A 
ATOM     84  C   UNL A   1      43.936  37.058  31.283  1.00  0.00     0.002 A 
ATOM     85  C   UNL A   1      43.469  36.669  28.957  1.00  0.00     0.091 A 
ATOM     86  F   UNL A   1      42.452  34.659  28.269  1.00  0.00    -0.205 F 
ATOM     87  C   UNL A   1      43.898  37.521  29.977  1.00  0.00     0.022 A 
BRANCH  85  88
ATOM     88  S   UNL A   1      43.725  37.173  27.251  1.00  0.00     0.127 S 
ATOM     89  O   UNL A   1      44.585  36.108  26.743  1.00  0.00    -0.237 OA
ATOM     90  O   UNL A   1      42.362  37.166  26.713  1.00  0.00    -0.237 OA
ATOM     91  O   UNL A   1      44.320  38.499  27.341  1.00  0.00    -0.744 OA
ENDBRANCH  85  88
ENDBRANCH  58  81
ENDBRANCH  32  33
ENDBRANCH  25  27
ENDBRANCH  24  25
ENDBRANCH  23  24
ENDBRANCH   1  23
TORSDOF 17
ENDMDL
MODEL 3
REMARK VINA RESULT:     -11.0      3.609      5.658
REMARK SMILES Cc1c(N[C@@H]2CC[C@@H]([NH3+])C2)cccc1C(=O)OCCOC(=O)c1ccc(-c2c3nc(c(-c4cccc(S(=O)(=O)[O-])c4F)c4ccc([nH]4)c(-c4cccc(S(=O)(=O)[O-])c4F)c4nc(c(-c5cccc(S(=O)(=O)[O-])c5F)c5ccc2[nH]5)C=C4)C=C3)cc1
REMARK SMILES IDX 18 1 17 2 15 3 16 4 14 5 1 6 2 7 3 8 11 9 13 10 12 11 4 12
REMARK SMILES IDX 5 14 6 15 10 16 7 17 8 18 9 19 19 23 20 24 21 25 22 26 23 27
REMARK SMILES IDX 24 28 85 29 25 30 84 31 26 32 27 33 28 34 78 35 29 36 83 37
REMARK SMILES IDX 77 38 79 39 30 40 82 41 76 42 75 43 31 45 63 46 43 47 62 48
REMARK SMILES IDX 44 49 47 50 61 51 80 52 45 53 46 54 60 56 81 57 48 58 32 59
REMARK SMILES IDX 33 60 41 61 34 62 36 63 42 64 35 65 37 66 38 67 39 68 40 69
REMARK SMILES IDX 64 70 65 71 73 72 66 73 68 74 74 75 67 76 69 77 70 78 71 79
REMARK SMILES IDX 72 80 49 81 50 82 58 83 51 84 53 85 59 86 52 87 54 88 55 89
REMARK SMILES IDX 56 90 57 91
REMARK H PARENT 4 13 9 20 9 21 9 22 79 44 47 55
REMARK Flexibility Score: inf
ROOT
ATOM      1  C   UNL A   1      36.643  23.471  25.666  1.00  0.00     0.275 C 
ENDROOT
BRANCH   1   2
ATOM      2  O   UNL A   1      35.380  23.046  26.170  1.00  0.00    -0.458 OA
BRANCH   2   3
ATOM      3  C   UNL A   1      34.479  22.580  25.288  1.00  0.00     0.338 C 
ATOM      4  O   UNL A   1      34.683  21.731  24.436  1.00  0.00    -0.246 OA
BRANCH   3   5
ATOM      5  C   UNL A   1      33.215  23.337  25.444  1.00  0.00     0.065 A 
ATOM      6  C   UNL A   1      33.868  25.011  23.652  1.00  0.00     0.047 C 
ATOM      7  C   UNL A   1      32.930  24.529  24.731  1.00  0.00    -0.013 A 
ATOM      8  C   UNL A   1      31.783  25.277  25.099  1.00  0.00     0.038 A 
ATOM      9  C   UNL A   1      30.864  24.689  25.982  1.00  0.00     0.026 A 
ATOM     10  C   UNL A   1      32.320  22.830  26.391  1.00  0.00     0.016 A 
ATOM     11  C   UNL A   1      31.109  23.468  26.604  1.00  0.00     0.003 A 
BRANCH   8  12
ATOM     12  N   UNL A   1      31.644  26.598  24.709  1.00  0.00    -0.382 N 
ATOM     13  H   UNL A   1      31.194  26.755  23.848  1.00  0.00     0.160 HD
BRANCH  12  14
ATOM     14  C   UNL A   1      32.091  27.781  25.433  1.00  0.00     0.085 C 
ATOM     15  C   UNL A   1      33.294  28.539  24.844  1.00  0.00     0.031 C 
ATOM     16  C   UNL A   1      32.426  27.507  26.899  1.00  0.00     0.089 C 
ATOM     17  C   UNL A   1      34.263  28.744  26.011  1.00  0.00     0.067 C 
ATOM     18  C   UNL A   1      33.412  28.616  27.274  1.00  0.00     0.182 C 
BRANCH  18  19
ATOM     19  N   UNL A   1      32.742  29.884  27.582  1.00  0.00    -0.355 N 
ATOM     20  H   UNL A   1      32.405  29.866  28.545  1.00  0.00     0.344 HD
ATOM     21  H   UNL A   1      31.953  30.014  26.949  1.00  0.00     0.344 HD
ATOM     22  H   UNL A   1      33.400  30.654  27.468  1.00  0.00     0.344 HD
ENDBRANCH  18  19
ENDBRANCH  12  14
ENDBRANCH   8  12
ENDBRANCH   3   5
ENDBRANCH   2   3
ENDBRANCH   1   2
BRANCH   1  23
ATOM     23  C   UNL A   1      37.816  22.466  25.650  1.00  0.00     0.275 C 
BRANCH  23  24
ATOM     24  O   UNL A   1      38.947  22.483  26.577  1.00  0.00    -0.458 OA
BRANCH  24  25
ATOM     25  C   UNL A   1      40.146  23.107  26.619  1.00  0.00     0.338 C 
ATOM     26  O   UNL A   1      41.185  22.544  26.293  1.00  0.00    -0.246 OA
BRANCH  25  27
ATOM     27  C   UNL A   1      40.162  24.496  27.057  1.00  0.00     0.060 A 
ATOM     28  C   UNL A   1      40.706  25.501  26.236  1.00  0.00     0.016 A 
ATOM     29  C   UNL A   1      39.543  24.792  28.260  1.00  0.00     0.016 A 
ATOM     30  C   UNL A   1      40.548  26.835  26.586  1.00  0.00     0.010 A 
ATOM     31  C   UNL A   1      39.220  26.096  28.512  1.00  0.00     0.010 A 
ATOM     32  C   UNL A   1      39.815  27.109  27.737  1.00  0.00    -0.014 A 
BRANCH  32  33
ATOM     33  C   UNL A   1      40.008  28.307  28.533  1.00  0.00     0.031 A 
ATOM     34  C   UNL A   1      39.052  29.408  28.557  1.00  0.00     0.074 A 
ATOM     35  C   UNL A   1      40.981  28.093  29.451  1.00  0.00     0.049 A 
ATOM     36  N   UNL A   1      39.287  30.518  29.154  1.00  0.00    -0.248 NA
ATOM     37  C   UNL A   1      37.758  29.374  27.888  1.00  0.00     0.031 C 
ATOM     38  C   UNL A   1      41.217  28.677  30.753  1.00  0.00     0.029 A 
ATOM     39  N   UNL A   1      42.055  27.202  29.287  1.00  0.00    -0.354 N 
ATOM     40  C   UNL A   1      38.099  31.214  29.224  1.00  0.00     0.074 A 
ATOM     41  C   UNL A   1      37.222  30.530  28.304  1.00  0.00     0.031 C 
ATOM     42  C   UNL A   1      42.472  28.356  31.134  1.00  0.00     0.029 A 
ATOM     43  C   UNL A   1      43.129  27.728  29.988  1.00  0.00     0.049 A 
ATOM     44  H   UNL A   1      42.047  26.363  28.772  1.00  0.00     0.167 HD
ATOM     45  C   UNL A   1      37.988  32.175  30.184  1.00  0.00     0.034 A 
ATOM     46  C   UNL A   1      44.214  28.196  29.298  1.00  0.00     0.034 A 
ATOM     47  C   UNL A   1      39.290  32.338  30.864  1.00  0.00     0.049 A 
ATOM     48  C   UNL A   1      44.323  29.698  29.476  1.00  0.00     0.074 A 
ATOM     49  C   UNL A   1      39.794  31.801  32.037  1.00  0.00     0.029 A 
ATOM     50  N   UNL A   1      40.386  32.824  30.152  1.00  0.00    -0.354 N 
ATOM     51  N   UNL A   1      43.354  30.456  29.911  1.00  0.00    -0.248 NA
ATOM     52  C   UNL A   1      45.532  30.456  29.182  1.00  0.00     0.031 C 
ATOM     53  C   UNL A   1      41.217  31.845  31.956  1.00  0.00     0.029 A 
ATOM     54  C   UNL A   1      41.578  32.447  30.760  1.00  0.00     0.049 A 
ATOM     55  H   UNL A   1      40.324  33.363  29.330  1.00  0.00     0.167 HD
ATOM     56  C   UNL A   1      43.734  31.763  29.888  1.00  0.00     0.074 A 
ATOM     57  C   UNL A   1      45.131  31.704  29.478  1.00  0.00     0.031 C 
ATOM     58  C   UNL A   1      42.863  32.787  30.148  1.00  0.00     0.034 A 
BRANCH  45  59
ATOM     59  C   UNL A   1      36.707  32.793  30.740  1.00  0.00     0.023 A 
ATOM     60  C   UNL A   1      36.353  32.421  32.060  1.00  0.00     0.012 A 
ATOM     61  C   UNL A   1      35.778  33.632  30.075  1.00  0.00     0.148 A 
ATOM     62  C   UNL A   1      35.148  32.801  32.663  1.00  0.00     0.002 A 
ATOM     63  C   UNL A   1      34.576  34.026  30.681  1.00  0.00     0.091 A 
ATOM     64  F   UNL A   1      36.026  34.061  28.838  1.00  0.00    -0.205 F 
ATOM     65  C   UNL A   1      34.253  33.600  31.972  1.00  0.00     0.022 A 
BRANCH  63  66
ATOM     66  S   UNL A   1      33.358  35.079  29.861  1.00  0.00     0.127 S 
ATOM     67  O   UNL A   1      32.718  34.144  28.935  1.00  0.00    -0.237 OA
ATOM     68  O   UNL A   1      32.512  35.505  30.975  1.00  0.00    -0.237 OA
ATOM     69  O   UNL A   1      34.106  36.154  29.219  1.00  0.00    -0.744 OA
ENDBRANCH  63  66
ENDBRANCH  45  59
BRANCH  46  70
ATOM     70  C   UNL A   1      44.500  27.459  28.007  1.00  0.00     0.023 A 
ATOM     71  C   UNL A   1      44.015  28.034  26.801  1.00  0.00     0.012 A 
ATOM     72  C   UNL A   1      45.494  26.468  27.904  1.00  0.00     0.148 A 
ATOM     73  C   UNL A   1      44.589  27.730  25.560  1.00  0.00     0.002 A 
ATOM     74  C   UNL A   1      46.061  26.167  26.659  1.00  0.00     0.091 A 
ATOM     75  F   UNL A   1      45.929  25.867  29.019  1.00  0.00    -0.205 F 
ATOM     76  C   UNL A   1      45.630  26.814  25.492  1.00  0.00     0.022 A 
BRANCH  74  77
ATOM     77  S   UNL A   1      47.475  25.057  26.549  1.00  0.00     0.127 S 
ATOM     78  O   UNL A   1      46.899  23.747  26.860  1.00  0.00    -0.237 OA
ATOM     79  O   UNL A   1      47.915  25.188  25.167  1.00  0.00    -0.237 OA
ATOM     80  O   UNL A   1      48.361  25.595  27.575  1.00  0.00    -0.744 OA
ENDBRANCH  74  77
ENDBRANCH  46  70
BRANCH  58  81
ATOM     81  C   UNL A   1      43.169  34.231  29.830  1.00  0.00     0.023 A 
ATOM     82  C   UNL A   1      42.752  34.829  28.626  1.00  0.00     0.012 A 
ATOM     83  C   UNL A   1      43.740  35.082  30.806  1.00  0.00     0.148 A 
ATOM     84  C   UNL A   1      42.978  36.180  28.357  1.00  0.00     0.002 A 
ATOM     85  C   UNL A   1      43.835  36.451  30.587  1.00  0.00     0.091 A 
ATOM     86  F   UNL A   1      44.208  34.570  31.954  1.00  0.00    -0.205 F 
ATOM     87  C   UNL A   1      43.499  36.998  29.347  1.00  0.00     0.022 A 
BRANCH  85  88
ATOM     88  S   UNL A   1      44.204  37.565  31.947  1.00  0.00     0.127 S 
ATOM     89  O   UNL A   1      43.890  38.869  31.369  1.00  0.00    -0.237 OA
ATOM     90  O   UNL A   1      43.272  37.117  32.984  1.00  0.00    -0.237 OA
ATOM     91  O   UNL A   1      45.605  37.317  32.262  1.00  0.00    -0.744 OA
ENDBRANCH  85  88
ENDBRANCH  58  81
ENDBRANCH  32  33
ENDBRANCH  25  27
ENDBRANCH  24  25
ENDBRANCH  23  24
ENDBRANCH   1  23
TORSDOF 17
ENDMDL
