MODEL 1
REMARK VINA RESULT:     -12.0      0.000      0.000
REMARK SMILES Cc1ccc2c(c1C)O[C@@H](C(=O)OCCOC(=O)c1ccc(-c3c4nc(c(-c5cccc(S(=O)(=O)[O-])c5F)c5ccc([nH]5)c(-c5cccc(S(=O)(=O)[O-])c5F)c5nc(c(-c6cccc(S(=O)(=O)[O-])c6F)c6ccc3[nH]6)C=C5)C=C4)cc1)CC2=O
REMARK SMILES IDX 16 1 15 2 14 3 13 4 11 5 12 6 10 7 1 8 2 9 3 10 7 11 4 12
REMARK SMILES IDX 6 13 8 14 5 15 9 16 83 17 82 18 84 19 17 20 18 21 19 22
REMARK SMILES IDX 20 23 81 24 21 25 80 26 22 27 23 28 24 29 74 30 25 31 79 32
REMARK SMILES IDX 73 33 75 34 26 35 78 36 72 37 71 38 27 40 59 41 39 42 58 43
REMARK SMILES IDX 40 44 43 45 57 46 76 47 41 48 42 49 56 51 77 52 44 53 28 54
REMARK SMILES IDX 29 55 37 56 30 57 32 58 38 59 31 60 33 61 34 62 35 63 36 64
REMARK SMILES IDX 60 65 61 66 69 67 62 68 64 69 70 70 63 71 65 72 66 73 67 74
REMARK SMILES IDX 68 75 45 76 46 77 54 78 47 79 49 80 55 81 48 82 50 83 51 84
REMARK SMILES IDX 52 85 53 86
REMARK H PARENT 75 39 43 50
REMARK Flexibility Score: inf
ROOT
ATOM      1  O   UNL A   1      37.211  21.524  24.943  1.00  0.00    -0.458 OA
ENDROOT
BRANCH   1   2
ATOM      2  C   UNL A   1      36.020  20.908  25.463  1.00  0.00     0.275 C 
BRANCH   2   3
ATOM      3  C   UNL A   1      34.943  21.956  25.743  1.00  0.00     0.274 C 
BRANCH   3   4
ATOM      4  O   UNL A   1      33.746  21.666  24.996  1.00  0.00    -0.459 OA
BRANCH   4   5
ATOM      5  C   UNL A   1      33.473  22.472  23.937  1.00  0.00     0.347 C 
ATOM      6  O   UNL A   1      34.307  22.859  23.125  1.00  0.00    -0.248 OA
BRANCH   5   7
ATOM      7  C   UNL A   1      32.000  22.912  23.889  1.00  0.00     0.290 C 
ATOM      8  C   UNL A   1      34.023  28.571  23.333  1.00  0.00     0.045 C 
ATOM      9  C   UNL A   1      33.390  27.383  24.003  1.00  0.00    -0.044 A 
ATOM     10  C   UNL A   1      33.320  27.363  25.409  1.00  0.00     0.005 A 
ATOM     11  C   UNL A   1      32.855  26.306  23.263  1.00  0.00    -0.005 A 
ATOM     12  C   UNL A   1      32.742  26.291  26.083  1.00  0.00     0.016 A 
ATOM     13  C   UNL A   1      32.308  25.215  23.958  1.00  0.00     0.134 A 
ATOM     14  C   UNL A   1      32.916  26.251  21.757  1.00  0.00     0.049 C 
ATOM     15  C   UNL A   1      32.237  25.219  25.354  1.00  0.00     0.060 A 
ATOM     16  O   UNL A   1      31.843  24.160  23.214  1.00  0.00    -0.477 OA
ATOM     17  C   UNL A   1      31.625  24.070  26.048  1.00  0.00     0.170 C 
ATOM     18  C   UNL A   1      31.234  22.893  25.200  1.00  0.00     0.138 C 
ATOM     19  O   UNL A   1      31.409  24.115  27.256  1.00  0.00    -0.294 OA
ENDBRANCH   5   7
ENDBRANCH   4   5
ENDBRANCH   3   4
ENDBRANCH   2   3
ENDBRANCH   1   2
BRANCH   1  20
ATOM     20  C   UNL A   1      38.358  21.160  25.560  1.00  0.00     0.338 C 
ATOM     21  O   UNL A   1      38.872  20.057  25.584  1.00  0.00    -0.246 OA
BRANCH  20  22
ATOM     22  C   UNL A   1      38.999  22.344  26.137  1.00  0.00     0.060 A 
ATOM     23  C   UNL A   1      38.525  23.608  25.776  1.00  0.00     0.016 A 
ATOM     24  C   UNL A   1      40.128  22.200  26.940  1.00  0.00     0.016 A 
ATOM     25  C   UNL A   1      39.202  24.746  26.201  1.00  0.00     0.010 A 
ATOM     26  C   UNL A   1      40.794  23.343  27.382  1.00  0.00     0.010 A 
ATOM     27  C   UNL A   1      40.346  24.619  26.998  1.00  0.00    -0.014 A 
BRANCH  27  28
ATOM     28  C   UNL A   1      41.095  25.824  27.412  1.00  0.00     0.031 A 
ATOM     29  C   UNL A   1      40.411  26.879  28.230  1.00  0.00     0.074 A 
ATOM     30  C   UNL A   1      42.377  25.966  27.031  1.00  0.00     0.049 A 
ATOM     31  N   UNL A   1      40.871  28.038  28.620  1.00  0.00    -0.248 NA
ATOM     32  C   UNL A   1      39.032  26.600  28.668  1.00  0.00     0.031 C 
ATOM     33  C   UNL A   1      43.135  24.996  26.239  1.00  0.00     0.029 A 
ATOM     34  N   UNL A   1      43.260  26.994  27.237  1.00  0.00    -0.354 N 
ATOM     35  C   UNL A   1      39.834  28.640  29.319  1.00  0.00     0.074 A 
ATOM     36  C   UNL A   1      38.718  27.719  29.307  1.00  0.00     0.031 C 
ATOM     37  C   UNL A   1      44.363  25.487  26.005  1.00  0.00     0.029 A 
ATOM     38  C   UNL A   1      44.467  26.814  26.604  1.00  0.00     0.049 A 
ATOM     39  H   UNL A   1      43.050  27.785  27.786  1.00  0.00     0.167 HD
ATOM     40  C   UNL A   1      39.823  29.848  29.926  1.00  0.00     0.034 A 
ATOM     41  C   UNL A   1      45.528  27.638  26.500  1.00  0.00     0.034 A 
ATOM     42  C   UNL A   1      40.949  30.738  29.966  1.00  0.00     0.049 A 
ATOM     43  C   UNL A   1      45.485  28.975  27.183  1.00  0.00     0.074 A 
ATOM     44  C   UNL A   1      41.044  31.969  30.592  1.00  0.00     0.029 A 
ATOM     45  N   UNL A   1      42.170  30.497  29.361  1.00  0.00    -0.354 N 
ATOM     46  N   UNL A   1      44.526  29.494  27.911  1.00  0.00    -0.248 NA
ATOM     47  C   UNL A   1      46.673  29.833  27.055  1.00  0.00     0.031 C 
ATOM     48  C   UNL A   1      42.326  32.473  30.363  1.00  0.00     0.029 A 
ATOM     49  C   UNL A   1      43.028  31.553  29.600  1.00  0.00     0.049 A 
ATOM     50  H   UNL A   1      42.394  29.693  28.839  1.00  0.00     0.167 HD
ATOM     51  C   UNL A   1      45.000  30.723  28.347  1.00  0.00     0.074 A 
ATOM     52  C   UNL A   1      46.339  30.870  27.812  1.00  0.00     0.031 C 
ATOM     53  C   UNL A   1      44.377  31.653  29.109  1.00  0.00     0.034 A 
BRANCH  40  54
ATOM     54  C   UNL A   1      38.578  30.273  30.650  1.00  0.00     0.023 A 
ATOM     55  C   UNL A   1      38.462  30.001  32.027  1.00  0.00     0.012 A 
ATOM     56  C   UNL A   1      37.599  31.052  30.006  1.00  0.00     0.148 A 
ATOM     57  C   UNL A   1      37.386  30.502  32.756  1.00  0.00     0.002 A 
ATOM     58  C   UNL A   1      36.542  31.569  30.745  1.00  0.00     0.091 A 
ATOM     59  F   UNL A   1      37.735  31.289  28.693  1.00  0.00    -0.205 F 
ATOM     60  C   UNL A   1      36.433  31.294  32.119  1.00  0.00     0.022 A 
BRANCH  58  61
ATOM     61  S   UNL A   1      35.288  32.643  30.036  1.00  0.00     0.127 S 
ATOM     62  O   UNL A   1      34.390  32.840  31.174  1.00  0.00    -0.237 OA
ATOM     63  O   UNL A   1      36.071  33.820  29.664  1.00  0.00    -0.237 OA
ATOM     64  O   UNL A   1      34.708  31.906  28.920  1.00  0.00    -0.744 OA
ENDBRANCH  58  61
ENDBRANCH  40  54
BRANCH  41  65
ATOM     65  C   UNL A   1      46.730  27.192  25.746  1.00  0.00     0.023 A 
ATOM     66  C   UNL A   1      47.600  26.252  26.328  1.00  0.00     0.012 A 
ATOM     67  C   UNL A   1      46.982  27.653  24.439  1.00  0.00     0.148 A 
ATOM     68  C   UNL A   1      48.711  25.786  25.625  1.00  0.00     0.002 A 
ATOM     69  C   UNL A   1      48.069  27.154  23.730  1.00  0.00     0.091 A 
ATOM     70  F   UNL A   1      46.145  28.557  23.912  1.00  0.00    -0.205 F 
ATOM     71  C   UNL A   1      48.940  26.228  24.324  1.00  0.00     0.022 A 
BRANCH  69  72
ATOM     72  S   UNL A   1      48.380  27.586  22.014  1.00  0.00     0.127 S 
ATOM     73  O   UNL A   1      49.535  28.471  22.135  1.00  0.00    -0.237 OA
ATOM     74  O   UNL A   1      48.667  26.279  21.421  1.00  0.00    -0.237 OA
ATOM     75  O   UNL A   1      47.154  28.206  21.535  1.00  0.00    -0.744 OA
ENDBRANCH  69  72
ENDBRANCH  41  65
BRANCH  53  76
ATOM     76  C   UNL A   1      45.123  32.911  29.446  1.00  0.00     0.023 A 
ATOM     77  C   UNL A   1      45.977  32.924  30.565  1.00  0.00     0.012 A 
ATOM     78  C   UNL A   1      45.101  34.013  28.569  1.00  0.00     0.148 A 
ATOM     79  C   UNL A   1      46.801  34.022  30.809  1.00  0.00     0.002 A 
ATOM     80  C   UNL A   1      45.949  35.089  28.800  1.00  0.00     0.091 A 
ATOM     81  F   UNL A   1      44.273  33.972  27.515  1.00  0.00    -0.205 F 
ATOM     82  C   UNL A   1      46.796  35.096  29.920  1.00  0.00     0.022 A 
BRANCH  80  83
ATOM     83  S   UNL A   1      46.076  36.481  27.672  1.00  0.00     0.127 S 
ATOM     84  O   UNL A   1      44.729  37.046  27.743  1.00  0.00    -0.237 OA
ATOM     85  O   UNL A   1      47.115  37.295  28.304  1.00  0.00    -0.237 OA
ATOM     86  O   UNL A   1      46.445  35.921  26.378  1.00  0.00    -0.744 OA
ENDBRANCH  80  83
ENDBRANCH  53  76
ENDBRANCH  27  28
ENDBRANCH  20  22
ENDBRANCH   1  20
TORSDOF 14
ENDMDL
MODEL 2
REMARK VINA RESULT:     -11.9      1.504      1.887
REMARK SMILES Cc1ccc2c(c1C)O[C@@H](C(=O)OCCOC(=O)c1ccc(-c3c4nc(c(-c5cccc(S(=O)(=O)[O-])c5F)c5ccc([nH]5)c(-c5cccc(S(=O)(=O)[O-])c5F)c5nc(c(-c6cccc(S(=O)(=O)[O-])c6F)c6ccc3[nH]6)C=C5)C=C4)cc1)CC2=O
REMARK SMILES IDX 16 1 15 2 14 3 13 4 11 5 12 6 10 7 1 8 2 9 3 10 7 11 4 12
REMARK SMILES IDX 6 13 8 14 5 15 9 16 83 17 82 18 84 19 17 20 18 21 19 22
REMARK SMILES IDX 20 23 81 24 21 25 80 26 22 27 23 28 24 29 74 30 25 31 79 32
REMARK SMILES IDX 73 33 75 34 26 35 78 36 72 37 71 38 27 40 59 41 39 42 58 43
REMARK SMILES IDX 40 44 43 45 57 46 76 47 41 48 42 49 56 51 77 52 44 53 28 54
REMARK SMILES IDX 29 55 37 56 30 57 32 58 38 59 31 60 33 61 34 62 35 63 36 64
REMARK SMILES IDX 60 65 61 66 69 67 62 68 64 69 70 70 63 71 65 72 66 73 67 74
REMARK SMILES IDX 68 75 45 76 46 77 54 78 47 79 49 80 55 81 48 82 50 83 51 84
REMARK SMILES IDX 52 85 53 86
REMARK H PARENT 75 39 43 50
REMARK Flexibility Score: inf
ROOT
ATOM      1  O   UNL A   1      37.235  21.444  25.703  1.00  0.00    -0.458 OA
ENDROOT
BRANCH   1   2
ATOM      2  C   UNL A   1      36.556  20.388  25.002  1.00  0.00     0.275 C 
BRANCH   2   3
ATOM      3  C   UNL A   1      35.045  20.618  25.000  1.00  0.00     0.274 C 
BRANCH   3   4
ATOM      4  O   UNL A   1      34.726  21.896  25.583  1.00  0.00    -0.459 OA
BRANCH   4   5
ATOM      5  C   UNL A   1      33.531  21.999  26.220  1.00  0.00     0.347 C 
ATOM      6  O   UNL A   1      33.387  21.965  27.438  1.00  0.00    -0.248 OA
BRANCH   5   7
ATOM      7  C   UNL A   1      32.344  22.103  25.247  1.00  0.00     0.290 C 
ATOM      8  C   UNL A   1      33.910  27.875  24.431  1.00  0.00     0.045 C 
ATOM      9  C   UNL A   1      33.086  26.716  24.923  1.00  0.00    -0.044 A 
ATOM     10  C   UNL A   1      32.202  26.928  25.997  1.00  0.00     0.005 A 
ATOM     11  C   UNL A   1      33.168  25.438  24.328  1.00  0.00    -0.005 A 
ATOM     12  C   UNL A   1      31.413  25.893  26.491  1.00  0.00     0.016 A 
ATOM     13  C   UNL A   1      32.392  24.395  24.861  1.00  0.00     0.134 A 
ATOM     14  C   UNL A   1      34.109  25.134  23.190  1.00  0.00     0.049 C 
ATOM     15  C   UNL A   1      31.511  24.628  25.920  1.00  0.00     0.060 A 
ATOM     16  O   UNL A   1      32.531  23.152  24.297  1.00  0.00    -0.477 OA
ATOM     17  C   UNL A   1      30.688  23.516  26.432  1.00  0.00     0.170 C 
ATOM     18  C   UNL A   1      30.956  22.153  25.860  1.00  0.00     0.138 C 
ATOM     19  O   UNL A   1      29.798  23.725  27.251  1.00  0.00    -0.294 OA
ENDBRANCH   5   7
ENDBRANCH   4   5
ENDBRANCH   3   4
ENDBRANCH   2   3
ENDBRANCH   1   2
BRANCH   1  20
ATOM     20  C   UNL A   1      38.538  21.205  25.970  1.00  0.00     0.338 C 
ATOM     21  O   UNL A   1      39.172  20.192  25.737  1.00  0.00    -0.246 OA
BRANCH  20  22
ATOM     22  C   UNL A   1      39.158  22.420  26.503  1.00  0.00     0.060 A 
ATOM     23  C   UNL A   1      38.642  23.662  26.120  1.00  0.00     0.016 A 
ATOM     24  C   UNL A   1      40.307  22.328  27.286  1.00  0.00     0.016 A 
ATOM     25  C   UNL A   1      39.295  24.828  26.502  1.00  0.00     0.010 A 
ATOM     26  C   UNL A   1      40.950  23.499  27.685  1.00  0.00     0.010 A 
ATOM     27  C   UNL A   1      40.459  24.752  27.278  1.00  0.00    -0.014 A 
BRANCH  27  28
ATOM     28  C   UNL A   1      41.182  25.987  27.646  1.00  0.00     0.031 A 
ATOM     29  C   UNL A   1      40.474  27.061  28.418  1.00  0.00     0.074 A 
ATOM     30  C   UNL A   1      42.463  26.139  27.264  1.00  0.00     0.049 A 
ATOM     31  N   UNL A   1      40.910  28.244  28.762  1.00  0.00    -0.248 NA
ATOM     32  C   UNL A   1      39.099  26.773  28.861  1.00  0.00     0.031 C 
ATOM     33  C   UNL A   1      43.243  25.153  26.515  1.00  0.00     0.029 A 
ATOM     34  N   UNL A   1      43.325  27.192  27.432  1.00  0.00    -0.354 N 
ATOM     35  C   UNL A   1      39.858  28.853  29.432  1.00  0.00     0.074 A 
ATOM     36  C   UNL A   1      38.760  27.911  29.453  1.00  0.00     0.031 C 
ATOM     37  C   UNL A   1      44.463  25.658  26.266  1.00  0.00     0.029 A 
ATOM     38  C   UNL A   1      44.538  27.009  26.811  1.00  0.00     0.049 A 
ATOM     39  H   UNL A   1      43.097  28.000  27.947  1.00  0.00     0.167 HD
ATOM     40  C   UNL A   1      39.821  30.084  29.990  1.00  0.00     0.034 A 
ATOM     41  C   UNL A   1      45.583  27.849  26.678  1.00  0.00     0.034 A 
ATOM     42  C   UNL A   1      40.929  30.998  29.998  1.00  0.00     0.049 A 
ATOM     43  C   UNL A   1      45.512  29.212  27.307  1.00  0.00     0.074 A 
ATOM     44  C   UNL A   1      40.998  32.254  30.574  1.00  0.00     0.029 A 
ATOM     45  N   UNL A   1      42.157  30.755  29.408  1.00  0.00    -0.354 N 
ATOM     46  N   UNL A   1      44.539  29.741  28.009  1.00  0.00    -0.248 NA
ATOM     47  C   UNL A   1      46.683  30.087  27.148  1.00  0.00     0.031 C 
ATOM     48  C   UNL A   1      42.270  32.773  30.330  1.00  0.00     0.029 A 
ATOM     49  C   UNL A   1      42.994  31.838  29.607  1.00  0.00     0.049 A 
ATOM     50  H   UNL A   1      42.400  29.936  28.920  1.00  0.00     0.167 HD
ATOM     51  C   UNL A   1      44.988  30.996  28.397  1.00  0.00     0.074 A 
ATOM     52  C   UNL A   1      46.326  31.147  27.862  1.00  0.00     0.031 C 
ATOM     53  C   UNL A   1      44.343  31.943  29.118  1.00  0.00     0.034 A 
BRANCH  40  54
ATOM     54  C   UNL A   1      38.565  30.514  30.691  1.00  0.00     0.023 A 
ATOM     55  C   UNL A   1      38.457  30.316  32.081  1.00  0.00     0.012 A 
ATOM     56  C   UNL A   1      37.564  31.227  30.006  1.00  0.00     0.148 A 
ATOM     57  C   UNL A   1      37.367  30.827  32.783  1.00  0.00     0.002 A 
ATOM     58  C   UNL A   1      36.493  31.755  30.717  1.00  0.00     0.091 A 
ATOM     59  F   UNL A   1      37.692  31.394  28.682  1.00  0.00    -0.205 F 
ATOM     60  C   UNL A   1      36.392  31.555  32.104  1.00  0.00     0.022 A 
BRANCH  58  61
ATOM     61  S   UNL A   1      35.209  32.752  29.951  1.00  0.00     0.127 S 
ATOM     62  O   UNL A   1      35.983  33.874  29.420  1.00  0.00    -0.237 OA
ATOM     63  O   UNL A   1      34.680  31.841  28.938  1.00  0.00    -0.237 OA
ATOM     64  O   UNL A   1      34.278  33.101  31.017  1.00  0.00    -0.744 OA
ENDBRANCH  58  61
ENDBRANCH  40  54
BRANCH  41  65
ATOM     65  C   UNL A   1      46.798  27.397  25.948  1.00  0.00     0.023 A 
ATOM     66  C   UNL A   1      46.919  27.672  24.574  1.00  0.00     0.012 A 
ATOM     67  C   UNL A   1      47.852  26.749  26.621  1.00  0.00     0.148 A 
ATOM     68  C   UNL A   1      48.067  27.297  23.875  1.00  0.00     0.002 A 
ATOM     69  C   UNL A   1      49.010  26.414  25.927  1.00  0.00     0.091 A 
ATOM     70  F   UNL A   1      47.708  26.488  27.927  1.00  0.00    -0.205 F 
ATOM     71  C   UNL A   1      49.115  26.678  24.553  1.00  0.00     0.022 A 
BRANCH  69  72
ATOM     72  S   UNL A   1      50.451  25.710  26.738  1.00  0.00     0.127 S 
ATOM     73  O   UNL A   1      49.917  24.454  27.256  1.00  0.00    -0.237 OA
ATOM     74  O   UNL A   1      51.386  25.568  25.621  1.00  0.00    -0.237 OA
ATOM     75  O   UNL A   1      50.855  26.687  27.739  1.00  0.00    -0.744 OA
ENDBRANCH  69  72
ENDBRANCH  41  65
BRANCH  53  76
ATOM     76  C   UNL A   1      45.063  33.229  29.406  1.00  0.00     0.023 A 
ATOM     77  C   UNL A   1      45.915  33.302  30.525  1.00  0.00     0.012 A 
ATOM     78  C   UNL A   1      45.020  34.295  28.488  1.00  0.00     0.148 A 
ATOM     79  C   UNL A   1      46.716  34.425  30.727  1.00  0.00     0.002 A 
ATOM     80  C   UNL A   1      45.845  35.396  28.678  1.00  0.00     0.091 A 
ATOM     81  F   UNL A   1      44.195  34.197  27.436  1.00  0.00    -0.205 F 
ATOM     82  C   UNL A   1      46.691  35.463  29.797  1.00  0.00     0.022 A 
BRANCH  80  83
ATOM     83  S   UNL A   1      45.946  36.746  27.497  1.00  0.00     0.127 S 
ATOM     84  O   UNL A   1      46.273  36.036  26.261  1.00  0.00    -0.237 OA
ATOM     85  O   UNL A   1      44.593  37.299  27.545  1.00  0.00    -0.237 OA
ATOM     86  O   UNL A   1      46.986  37.639  27.991  1.00  0.00    -0.744 OA
ENDBRANCH  80  83
ENDBRANCH  53  76
ENDBRANCH  27  28
ENDBRANCH  20  22
ENDBRANCH   1  20
TORSDOF 14
ENDMDL
MODEL 3
REMARK VINA RESULT:     -11.8      5.231      9.996
REMARK SMILES Cc1ccc2c(c1C)O[C@@H](C(=O)OCCOC(=O)c1ccc(-c3c4nc(c(-c5cccc(S(=O)(=O)[O-])c5F)c5ccc([nH]5)c(-c5cccc(S(=O)(=O)[O-])c5F)c5nc(c(-c6cccc(S(=O)(=O)[O-])c6F)c6ccc3[nH]6)C=C5)C=C4)cc1)CC2=O
REMARK SMILES IDX 16 1 15 2 14 3 13 4 11 5 12 6 10 7 1 8 2 9 3 10 7 11 4 12
REMARK SMILES IDX 6 13 8 14 5 15 9 16 83 17 82 18 84 19 17 20 18 21 19 22
REMARK SMILES IDX 20 23 81 24 21 25 80 26 22 27 23 28 24 29 74 30 25 31 79 32
REMARK SMILES IDX 73 33 75 34 26 35 78 36 72 37 71 38 27 40 59 41 39 42 58 43
REMARK SMILES IDX 40 44 43 45 57 46 76 47 41 48 42 49 56 51 77 52 44 53 28 54
REMARK SMILES IDX 29 55 37 56 30 57 32 58 38 59 31 60 33 61 34 62 35 63 36 64
REMARK SMILES IDX 60 65 61 66 69 67 62 68 64 69 70 70 63 71 65 72 66 73 67 74
REMARK SMILES IDX 68 75 45 76 46 77 54 78 47 79 49 80 55 81 48 82 50 83 51 84
REMARK SMILES IDX 52 85 53 86
REMARK H PARENT 75 39 43 50
REMARK Flexibility Score: inf
ROOT
ATOM      1  O   UNL A   1      32.274  30.404  26.949  1.00  0.00    -0.458 OA
ENDROOT
BRANCH   1   2
ATOM      2  C   UNL A   1      31.754  30.256  25.616  1.00  0.00     0.275 C 
BRANCH   2   3
ATOM      3  C   UNL A   1      32.452  29.111  24.883  1.00  0.00     0.274 C 
BRANCH   3   4
ATOM      4  O   UNL A   1      31.494  28.310  24.163  1.00  0.00    -0.459 OA
BRANCH   4   5
ATOM      5  C   UNL A   1      31.072  27.169  24.766  1.00  0.00     0.347 C 
ATOM      6  O   UNL A   1      30.915  27.039  25.975  1.00  0.00    -0.248 OA
BRANCH   5   7
ATOM      7  C   UNL A   1      30.865  26.013  23.772  1.00  0.00     0.290 C 
ATOM      8  C   UNL A   1      34.044  22.573  27.578  1.00  0.00     0.045 C 
ATOM      9  C   UNL A   1      33.759  23.367  26.333  1.00  0.00    -0.044 A 
ATOM     10  C   UNL A   1      34.845  23.816  25.558  1.00  0.00     0.005 A 
ATOM     11  C   UNL A   1      32.440  23.657  25.919  1.00  0.00    -0.005 A 
ATOM     12  C   UNL A   1      34.641  24.552  24.395  1.00  0.00     0.016 A 
ATOM     13  C   UNL A   1      32.251  24.431  24.762  1.00  0.00     0.134 A 
ATOM     14  C   UNL A   1      31.232  23.227  26.711  1.00  0.00     0.049 C 
ATOM     15  C   UNL A   1      33.342  24.858  24.000  1.00  0.00     0.060 A 
ATOM     16  O   UNL A   1      30.961  24.741  24.414  1.00  0.00    -0.477 OA
ATOM     17  C   UNL A   1      33.103  25.642  22.774  1.00  0.00     0.170 C 
ATOM     18  C   UNL A   1      31.684  26.051  22.494  1.00  0.00     0.138 C 
ATOM     19  O   UNL A   1      34.027  25.894  22.006  1.00  0.00    -0.294 OA
ENDBRANCH   5   7
ENDBRANCH   4   5
ENDBRANCH   3   4
ENDBRANCH   2   3
ENDBRANCH   1   2
BRANCH   1  20
ATOM     20  C   UNL A   1      32.975  31.540  27.164  1.00  0.00     0.338 C 
ATOM     21  O   UNL A   1      32.589  32.688  27.035  1.00  0.00    -0.246 OA
BRANCH  20  22
ATOM     22  C   UNL A   1      34.292  31.205  27.709  1.00  0.00     0.060 A 
ATOM     23  C   UNL A   1      34.582  29.868  27.993  1.00  0.00     0.016 A 
ATOM     24  C   UNL A   1      35.187  32.222  28.037  1.00  0.00     0.016 A 
ATOM     25  C   UNL A   1      35.770  29.541  28.636  1.00  0.00     0.010 A 
ATOM     26  C   UNL A   1      36.388  31.890  28.665  1.00  0.00     0.010 A 
ATOM     27  C   UNL A   1      36.675  30.552  28.985  1.00  0.00    -0.014 A 
BRANCH  27  28
ATOM     28  C   UNL A   1      37.917  30.213  29.710  1.00  0.00     0.031 A 
ATOM     29  C   UNL A   1      38.909  29.276  29.088  1.00  0.00     0.074 A 
ATOM     30  C   UNL A   1      38.131  30.736  30.930  1.00  0.00     0.049 A 
ATOM     31  N   UNL A   1      40.012  28.796  29.597  1.00  0.00    -0.248 NA
ATOM     32  C   UNL A   1      38.629  28.816  27.716  1.00  0.00     0.031 C 
ATOM     33  C   UNL A   1      37.231  31.661  31.622  1.00  0.00     0.029 A 
ATOM     34  N   UNL A   1      39.159  30.544  31.816  1.00  0.00    -0.354 N 
ATOM     35  C   UNL A   1      40.542  27.955  28.627  1.00  0.00     0.074 A 
ATOM     36  C   UNL A   1      39.644  27.991  27.493  1.00  0.00     0.031 C 
ATOM     37  C   UNL A   1      37.735  31.937  32.835  1.00  0.00     0.029 A 
ATOM     38  C   UNL A   1      38.975  31.188  33.017  1.00  0.00     0.049 A 
ATOM     39  H   UNL A   1      39.954  29.999  31.612  1.00  0.00     0.167 HD
ATOM     40  C   UNL A   1      41.682  27.231  28.678  1.00  0.00     0.034 A 
ATOM     41  C   UNL A   1      39.712  31.157  34.144  1.00  0.00     0.034 A 
ATOM     42  C   UNL A   1      42.587  27.232  29.793  1.00  0.00     0.049 A 
ATOM     43  C   UNL A   1      40.973  30.341  34.171  1.00  0.00     0.074 A 
ATOM     44  C   UNL A   1      43.789  26.558  29.920  1.00  0.00     0.029 A 
ATOM     45  N   UNL A   1      42.393  27.939  30.968  1.00  0.00    -0.354 N 
ATOM     46  N   UNL A   1      41.502  29.617  33.214  1.00  0.00    -0.248 NA
ATOM     47  C   UNL A   1      41.752  30.351  35.418  1.00  0.00     0.031 C 
ATOM     48  C   UNL A   1      44.323  26.858  31.175  1.00  0.00     0.029 A 
ATOM     49  C   UNL A   1      43.455  27.721  31.825  1.00  0.00     0.049 A 
ATOM     50  H   UNL A   1      41.616  28.511  31.163  1.00  0.00     0.167 HD
ATOM     51  C   UNL A   1      42.685  29.107  33.732  1.00  0.00     0.074 A 
ATOM     52  C   UNL A   1      42.804  29.612  35.085  1.00  0.00     0.031 C 
ATOM     53  C   UNL A   1      43.583  28.282  33.144  1.00  0.00     0.034 A 
BRANCH  40  54
ATOM     54  C   UNL A   1      42.061  26.410  27.480  1.00  0.00     0.023 A 
ATOM     55  C   UNL A   1      42.840  27.000  26.466  1.00  0.00     0.012 A 
ATOM     56  C   UNL A   1      41.768  25.034  27.425  1.00  0.00     0.148 A 
ATOM     57  C   UNL A   1      43.324  26.230  25.411  1.00  0.00     0.002 A 
ATOM     58  C   UNL A   1      42.276  24.268  26.383  1.00  0.00     0.091 A 
ATOM     59  F   UNL A   1      41.020  24.503  28.403  1.00  0.00    -0.205 F 
ATOM     60  C   UNL A   1      43.052  24.864  25.375  1.00  0.00     0.022 A 
BRANCH  58  61
ATOM     61  S   UNL A   1      42.030  22.492  26.267  1.00  0.00     0.127 S 
ATOM     62  O   UNL A   1      40.571  22.397  26.239  1.00  0.00    -0.237 OA
ATOM     63  O   UNL A   1      42.688  22.176  25.001  1.00  0.00    -0.237 OA
ATOM     64  O   UNL A   1      42.657  21.919  27.451  1.00  0.00    -0.744 OA
ENDBRANCH  58  61
ENDBRANCH  40  54
BRANCH  41  65
ATOM     65  C   UNL A   1      39.285  31.960  35.321  1.00  0.00     0.023 A 
ATOM     66  C   UNL A   1      38.466  31.367  36.299  1.00  0.00     0.012 A 
ATOM     67  C   UNL A   1      39.732  33.283  35.501  1.00  0.00     0.148 A 
ATOM     68  C   UNL A   1      38.086  32.085  37.434  1.00  0.00     0.002 A 
ATOM     69  C   UNL A   1      39.383  33.979  36.653  1.00  0.00     0.091 A 
ATOM     70  F   UNL A   1      40.501  33.829  34.549  1.00  0.00    -0.205 F 
ATOM     71  C   UNL A   1      38.552  33.385  37.616  1.00  0.00     0.022 A 
BRANCH  69  72
ATOM     72  S   UNL A   1      40.022  35.617  37.021  1.00  0.00     0.127 S 
ATOM     73  O   UNL A   1      39.343  35.926  38.277  1.00  0.00    -0.237 OA
ATOM     74  O   UNL A   1      41.458  35.360  37.145  1.00  0.00    -0.237 OA
ATOM     75  O   UNL A   1      39.656  36.448  35.883  1.00  0.00    -0.744 OA
ENDBRANCH  69  72
ENDBRANCH  41  65
BRANCH  53  76
ATOM     76  C   UNL A   1      44.796  27.877  33.931  1.00  0.00     0.023 A 
ATOM     77  C   UNL A   1      45.918  28.728  33.948  1.00  0.00     0.012 A 
ATOM     78  C   UNL A   1      44.761  26.748  34.771  1.00  0.00     0.148 A 
ATOM     79  C   UNL A   1      46.993  28.458  34.793  1.00  0.00     0.002 A 
ATOM     80  C   UNL A   1      45.821  26.504  35.635  1.00  0.00     0.091 A 
ATOM     81  F   UNL A   1      43.681  25.955  34.728  1.00  0.00    -0.205 F 
ATOM     82  C   UNL A   1      46.938  27.355  35.644  1.00  0.00     0.022 A 
BRANCH  80  83
ATOM     83  S   UNL A   1      45.811  25.159  36.826  1.00  0.00     0.127 S 
ATOM     84  O   UNL A   1      45.825  23.987  35.951  1.00  0.00    -0.237 OA
ATOM     85  O   UNL A   1      47.054  25.389  37.561  1.00  0.00    -0.237 OA
ATOM     86  O   UNL A   1      44.597  25.327  37.614  1.00  0.00    -0.744 OA
ENDBRANCH  80  83
ENDBRANCH  53  76
ENDBRANCH  27  28
ENDBRANCH  20  22
ENDBRANCH   1  20
TORSDOF 14
ENDMDL
