MODEL 1
REMARK VINA RESULT:     -12.5      0.000      0.000
REMARK SMILES CC1(C)NC(=O)N(CCC(=O)N2CCC[C@H]2C(=O)OCCOC(=O)c2ccc(-c3c4nc(c(-c5cccc(S(=O)(=O)[O-])c5F)c5ccc([nH]5)c(-c5cccc(S(=O)(=O)[O-])c5F)c5nc(c(-c6cccc(S(=O)(=O)[O-])c6F)c6ccc3[nH]6)C=C5)C=C4)cc2)C1=O
REMARK SMILES IDX 20 1 19 2 17 3 18 4 16 5 12 6 13 7 14 8 15 9 10 10 11 11
REMARK SMILES IDX 9 12 8 13 7 14 1 15 2 16 3 17 4 18 88 19 5 20 89 22 6 23
REMARK SMILES IDX 21 24 22 25 23 26 24 27 25 28 26 29 87 30 27 31 86 32 28 33
REMARK SMILES IDX 29 34 30 35 80 36 31 37 85 38 79 39 81 40 32 41 84 42 78 43
REMARK SMILES IDX 77 44 33 46 65 47 45 48 64 49 46 50 49 51 63 52 82 53 47 54
REMARK SMILES IDX 48 55 62 57 83 58 50 59 34 60 35 61 43 62 36 63 38 64 44 65
REMARK SMILES IDX 37 66 39 67 40 68 41 69 42 70 66 71 67 72 75 73 68 74 70 75
REMARK SMILES IDX 76 76 69 77 71 78 72 79 73 80 74 81 51 82 52 83 60 84 53 85
REMARK SMILES IDX 55 86 61 87 54 88 56 89 57 90 58 91 59 92
REMARK H PARENT 4 21 81 45 49 56
REMARK Flexibility Score: inf
ROOT
ATOM      1  C   UNL A   1      31.054  28.579  24.667  1.00  0.00     0.274 C 
ENDROOT
BRANCH   1   2
ATOM      2  O   UNL A   1      31.368  27.195  24.345  1.00  0.00    -0.461 OA
BRANCH   2   3
ATOM      3  C   UNL A   1      30.908  26.185  25.136  1.00  0.00     0.328 C 
ATOM      4  O   UNL A   1      29.725  25.936  25.319  1.00  0.00    -0.250 OA
BRANCH   3   5
ATOM      5  C   UNL A   1      32.100  25.466  25.819  1.00  0.00     0.195 C 
ATOM      6  N   UNL A   1      32.332  24.096  25.382  1.00  0.00    -0.329 N 
ATOM      7  C   UNL A   1      33.571  24.024  24.638  1.00  0.00     0.120 C 
ATOM      8  C   UNL A   1      34.446  25.006  25.394  1.00  0.00     0.024 C 
ATOM      9  C   UNL A   1      33.475  26.133  25.763  1.00  0.00     0.039 C 
BRANCH   6  10
ATOM     10  C   UNL A   1      31.699  22.977  25.881  1.00  0.00     0.225 C 
ATOM     11  O   UNL A   1      30.526  23.007  26.256  1.00  0.00    -0.275 OA
BRANCH  10  12
ATOM     12  C   UNL A   1      32.516  21.700  26.014  1.00  0.00     0.122 C 
BRANCH  12  13
ATOM     13  C   UNL A   1      32.316  20.611  24.945  1.00  0.00     0.140 C 
BRANCH  13  14
ATOM     14  N   UNL A   1      33.280  19.506  24.829  1.00  0.00    -0.262 N 
ATOM     15  C   UNL A   1      34.179  16.793  23.014  1.00  0.00     0.045 C 
ATOM     16  C   UNL A   1      34.195  17.323  24.444  1.00  0.00     0.115 C 
ATOM     17  C   UNL A   1      34.284  16.157  25.426  1.00  0.00     0.045 C 
ATOM     18  N   UNL A   1      35.182  18.352  24.642  1.00  0.00    -0.324 N 
ATOM     19  C   UNL A   1      32.965  18.187  24.722  1.00  0.00     0.255 C 
ATOM     20  C   UNL A   1      34.632  19.612  24.814  1.00  0.00     0.325 C 
ATOM     21  H   UNL A   1      36.150  18.178  24.653  1.00  0.00     0.166 HD
ATOM     22  O   UNL A   1      31.857  17.744  24.894  1.00  0.00    -0.272 OA
ATOM     23  O   UNL A   1      35.295  20.622  24.966  1.00  0.00    -0.248 OA
ENDBRANCH  13  14
ENDBRANCH  12  13
ENDBRANCH  10  12
ENDBRANCH   6  10
ENDBRANCH   3   5
ENDBRANCH   2   3
ENDBRANCH   1   2
BRANCH   1  24
ATOM     24  C   UNL A   1      32.207  29.473  25.213  1.00  0.00     0.275 C 
BRANCH  24  25
ATOM     25  O   UNL A   1      32.187  29.699  26.654  1.00  0.00    -0.458 OA
BRANCH  25  26
ATOM     26  C   UNL A   1      32.799  30.849  27.077  1.00  0.00     0.338 C 
ATOM     27  O   UNL A   1      32.206  31.896  27.309  1.00  0.00    -0.246 OA
BRANCH  26  28
ATOM     28  C   UNL A   1      34.269  30.715  27.382  1.00  0.00     0.060 A 
ATOM     29  C   UNL A   1      34.847  29.482  27.627  1.00  0.00     0.016 A 
ATOM     30  C   UNL A   1      35.056  31.836  27.654  1.00  0.00     0.016 A 
ATOM     31  C   UNL A   1      35.999  29.365  28.415  1.00  0.00     0.010 A 
ATOM     32  C   UNL A   1      36.346  31.698  28.222  1.00  0.00     0.010 A 
ATOM     33  C   UNL A   1      36.817  30.458  28.696  1.00  0.00    -0.014 A 
BRANCH  33  34
ATOM     34  C   UNL A   1      38.119  30.313  29.457  1.00  0.00     0.031 A 
ATOM     35  C   UNL A   1      39.251  29.480  28.881  1.00  0.00     0.074 A 
ATOM     36  C   UNL A   1      38.333  30.895  30.664  1.00  0.00     0.049 A 
ATOM     37  N   UNL A   1      40.262  28.910  29.489  1.00  0.00    -0.248 NA
ATOM     38  C   UNL A   1      39.232  29.247  27.427  1.00  0.00     0.031 C 
ATOM     39  C   UNL A   1      37.433  31.821  31.356  1.00  0.00     0.029 A 
ATOM     40  N   UNL A   1      39.389  30.776  31.550  1.00  0.00    -0.354 N 
ATOM     41  C   UNL A   1      40.917  28.149  28.522  1.00  0.00     0.074 A 
ATOM     42  C   UNL A   1      40.216  28.370  27.276  1.00  0.00     0.031 C 
ATOM     43  C   UNL A   1      37.977  32.214  32.513  1.00  0.00     0.029 A 
ATOM     44  C   UNL A   1      39.182  31.438  32.744  1.00  0.00     0.049 A 
ATOM     45  H   UNL A   1      40.209  30.269  31.349  1.00  0.00     0.167 HD
ATOM     46  C   UNL A   1      41.988  27.328  28.664  1.00  0.00     0.034 A 
ATOM     47  C   UNL A   1      39.804  31.364  33.940  1.00  0.00     0.034 A 
ATOM     48  C   UNL A   1      42.734  27.183  29.888  1.00  0.00     0.049 A 
ATOM     49  C   UNL A   1      40.952  30.409  34.101  1.00  0.00     0.074 A 
ATOM     50  C   UNL A   1      43.827  26.374  30.145  1.00  0.00     0.029 A 
ATOM     51  N   UNL A   1      42.473  27.882  31.058  1.00  0.00    -0.354 N 
ATOM     52  N   UNL A   1      41.511  29.636  33.203  1.00  0.00    -0.248 NA
ATOM     53  C   UNL A   1      41.552  30.311  35.438  1.00  0.00     0.031 C 
ATOM     54  C   UNL A   1      44.206  26.559  31.480  1.00  0.00     0.029 A 
ATOM     55  C   UNL A   1      43.378  27.517  32.041  1.00  0.00     0.049 A 
ATOM     56  H   UNL A   1      41.751  28.541  31.172  1.00  0.00     0.167 HD
ATOM     57  C   UNL A   1      42.548  28.983  33.858  1.00  0.00     0.074 A 
ATOM     58  C   UNL A   1      42.553  29.469  35.223  1.00  0.00     0.031 C 
ATOM     59  C   UNL A   1      43.406  28.052  33.378  1.00  0.00     0.034 A 
BRANCH  46  60
ATOM     60  C   UNL A   1      42.390  26.477  27.481  1.00  0.00     0.023 A 
ATOM     61  C   UNL A   1      43.137  27.022  26.418  1.00  0.00     0.012 A 
ATOM     62  C   UNL A   1      42.037  25.111  27.442  1.00  0.00     0.148 A 
ATOM     63  C   UNL A   1      43.479  26.237  25.314  1.00  0.00     0.002 A 
ATOM     64  C   UNL A   1      42.421  24.324  26.362  1.00  0.00     0.091 A 
ATOM     65  F   UNL A   1      41.321  24.607  28.458  1.00  0.00    -0.205 F 
ATOM     66  C   UNL A   1      43.127  24.889  25.289  1.00  0.00     0.022 A 
BRANCH  64  67
ATOM     67  S   UNL A   1      42.080  22.562  26.272  1.00  0.00     0.127 S 
ATOM     68  O   UNL A   1      42.664  22.083  27.525  1.00  0.00    -0.237 OA
ATOM     69  O   UNL A   1      40.618  22.534  26.233  1.00  0.00    -0.237 OA
ATOM     70  O   UNL A   1      42.730  22.084  25.061  1.00  0.00    -0.744 OA
ENDBRANCH  64  67
ENDBRANCH  46  60
BRANCH  47  71
ATOM     71  C   UNL A   1      39.311  32.166  35.105  1.00  0.00     0.023 A 
ATOM     72  C   UNL A   1      38.374  31.601  35.992  1.00  0.00     0.012 A 
ATOM     73  C   UNL A   1      39.773  33.477  35.349  1.00  0.00     0.148 A 
ATOM     74  C   UNL A   1      37.887  32.333  37.078  1.00  0.00     0.002 A 
ATOM     75  C   UNL A   1      39.340  34.172  36.472  1.00  0.00     0.091 A 
ATOM     76  F   UNL A   1      40.648  34.014  34.487  1.00  0.00    -0.205 F 
ATOM     77  C   UNL A   1      38.379  33.612  37.325  1.00  0.00     0.022 A 
BRANCH  75  78
ATOM     78  S   UNL A   1      40.034  35.759  36.953  1.00  0.00     0.127 S 
ATOM     79  O   UNL A   1      39.321  36.034  38.197  1.00  0.00    -0.237 OA
ATOM     80  O   UNL A   1      41.452  35.430  37.114  1.00  0.00    -0.237 OA
ATOM     81  O   UNL A   1      39.753  36.664  35.847  1.00  0.00    -0.744 OA
ENDBRANCH  75  78
ENDBRANCH  47  71
BRANCH  59  82
ATOM     82  C   UNL A   1      44.471  27.541  34.312  1.00  0.00     0.023 A 
ATOM     83  C   UNL A   1      45.641  28.292  34.531  1.00  0.00     0.012 A 
ATOM     84  C   UNL A   1      44.269  26.344  35.025  1.00  0.00     0.148 A 
ATOM     85  C   UNL A   1      46.611  27.841  35.427  1.00  0.00     0.002 A 
ATOM     86  C   UNL A   1      45.213  25.930  35.955  1.00  0.00     0.091 A 
ATOM     87  F   UNL A   1      43.158  25.634  34.781  1.00  0.00    -0.205 F 
ATOM     88  C   UNL A   1      46.391  26.670  36.148  1.00  0.00     0.022 A 
BRANCH  86  89
ATOM     89  S   UNL A   1      44.964  24.492  37.002  1.00  0.00     0.127 S 
ATOM     90  O   UNL A   1      46.328  24.210  37.447  1.00  0.00    -0.237 OA
ATOM     91  O   UNL A   1      44.079  25.017  38.042  1.00  0.00    -0.237 OA
ATOM     92  O   UNL A   1      44.363  23.474  36.152  1.00  0.00    -0.744 OA
ENDBRANCH  86  89
ENDBRANCH  59  82
ENDBRANCH  33  34
ENDBRANCH  26  28
ENDBRANCH  25  26
ENDBRANCH  24  25
ENDBRANCH   1  24
TORSDOF 18
ENDMDL
MODEL 2
REMARK VINA RESULT:     -12.0      4.895     10.187
REMARK SMILES CC1(C)NC(=O)N(CCC(=O)N2CCC[C@H]2C(=O)OCCOC(=O)c2ccc(-c3c4nc(c(-c5cccc(S(=O)(=O)[O-])c5F)c5ccc([nH]5)c(-c5cccc(S(=O)(=O)[O-])c5F)c5nc(c(-c6cccc(S(=O)(=O)[O-])c6F)c6ccc3[nH]6)C=C5)C=C4)cc2)C1=O
REMARK SMILES IDX 20 1 19 2 17 3 18 4 16 5 12 6 13 7 14 8 15 9 10 10 11 11
REMARK SMILES IDX 9 12 8 13 7 14 1 15 2 16 3 17 4 18 88 19 5 20 89 22 6 23
REMARK SMILES IDX 21 24 22 25 23 26 24 27 25 28 26 29 87 30 27 31 86 32 28 33
REMARK SMILES IDX 29 34 30 35 80 36 31 37 85 38 79 39 81 40 32 41 84 42 78 43
REMARK SMILES IDX 77 44 33 46 65 47 45 48 64 49 46 50 49 51 63 52 82 53 47 54
REMARK SMILES IDX 48 55 62 57 83 58 50 59 34 60 35 61 43 62 36 63 38 64 44 65
REMARK SMILES IDX 37 66 39 67 40 68 41 69 42 70 66 71 67 72 75 73 68 74 70 75
REMARK SMILES IDX 76 76 69 77 71 78 72 79 73 80 74 81 51 82 52 83 60 84 53 85
REMARK SMILES IDX 55 86 61 87 54 88 56 89 57 90 58 91 59 92
REMARK H PARENT 4 21 81 45 49 56
REMARK Flexibility Score: inf
ROOT
ATOM      1  C   UNL A   1      34.590  21.836  24.365  1.00  0.00     0.274 C 
ENDROOT
BRANCH   1   2
ATOM      2  O   UNL A   1      34.646  23.185  23.824  1.00  0.00    -0.461 OA
BRANCH   2   3
ATOM      3  C   UNL A   1      34.464  24.260  24.643  1.00  0.00     0.328 C 
ATOM      4  O   UNL A   1      35.341  24.756  25.336  1.00  0.00    -0.250 OA
BRANCH   3   5
ATOM      5  C   UNL A   1      32.977  24.698  24.616  1.00  0.00     0.195 C 
ATOM      6  N   UNL A   1      32.261  24.393  23.385  1.00  0.00    -0.329 N 
ATOM      7  C   UNL A   1      31.269  23.369  23.638  1.00  0.00     0.120 C 
ATOM      8  C   UNL A   1      30.781  23.745  25.024  1.00  0.00     0.024 C 
ATOM      9  C   UNL A   1      32.058  24.206  25.736  1.00  0.00     0.039 C 
BRANCH   6  10
ATOM     10  C   UNL A   1      32.248  25.175  22.249  1.00  0.00     0.225 C 
ATOM     11  O   UNL A   1      33.019  24.970  21.311  1.00  0.00    -0.275 OA
BRANCH  10  12
ATOM     12  C   UNL A   1      31.283  26.350  22.209  1.00  0.00     0.122 C 
BRANCH  12  13
ATOM     13  C   UNL A   1      31.884  27.767  22.199  1.00  0.00     0.140 C 
BRANCH  13  14
ATOM     14  N   UNL A   1      32.462  28.330  23.428  1.00  0.00    -0.262 N 
ATOM     15  C   UNL A   1      32.933  27.839  26.745  1.00  0.00     0.045 C 
ATOM     16  C   UNL A   1      32.737  28.958  25.727  1.00  0.00     0.115 C 
ATOM     17  C   UNL A   1      32.209  30.208  26.427  1.00  0.00     0.045 C 
ATOM     18  N   UNL A   1      33.903  29.173  24.910  1.00  0.00    -0.324 N 
ATOM     19  C   UNL A   1      31.800  28.516  24.602  1.00  0.00     0.255 C 
ATOM     20  C   UNL A   1      33.737  28.759  23.599  1.00  0.00     0.325 C 
ATOM     21  H   UNL A   1      34.735  29.574  25.250  1.00  0.00     0.166 HD
ATOM     22  O   UNL A   1      30.605  28.413  24.724  1.00  0.00    -0.272 OA
ATOM     23  O   UNL A   1      34.613  28.825  22.754  1.00  0.00    -0.248 OA
ENDBRANCH  13  14
ENDBRANCH  12  13
ENDBRANCH  10  12
ENDBRANCH   6  10
ENDBRANCH   3   5
ENDBRANCH   2   3
ENDBRANCH   1   2
BRANCH   1  24
ATOM     24  C   UNL A   1      35.840  21.312  25.133  1.00  0.00     0.275 C 
BRANCH  24  25
ATOM     25  O   UNL A   1      37.119  21.827  24.660  1.00  0.00    -0.458 OA
BRANCH  25  26
ATOM     26  C   UNL A   1      38.217  21.414  25.367  1.00  0.00     0.338 C 
ATOM     27  O   UNL A   1      38.769  20.332  25.206  1.00  0.00    -0.246 OA
BRANCH  26  28
ATOM     28  C   UNL A   1      38.811  22.449  26.288  1.00  0.00     0.060 A 
ATOM     29  C   UNL A   1      38.386  23.766  26.265  1.00  0.00     0.016 A 
ATOM     30  C   UNL A   1      39.961  22.179  27.033  1.00  0.00     0.016 A 
ATOM     31  C   UNL A   1      39.232  24.808  26.665  1.00  0.00     0.010 A 
ATOM     32  C   UNL A   1      40.682  23.224  27.661  1.00  0.00     0.010 A 
ATOM     33  C   UNL A   1      40.381  24.580  27.421  1.00  0.00    -0.014 A 
BRANCH  33  34
ATOM     34  C   UNL A   1      41.238  25.714  27.945  1.00  0.00     0.031 A 
ATOM     35  C   UNL A   1      40.621  26.797  28.814  1.00  0.00     0.074 A 
ATOM     36  C   UNL A   1      42.561  25.825  27.665  1.00  0.00     0.049 A 
ATOM     37  N   UNL A   1      41.036  28.018  29.045  1.00  0.00    -0.248 NA
ATOM     38  C   UNL A   1      39.363  26.463  29.502  1.00  0.00     0.031 C 
ATOM     39  C   UNL A   1      43.382  24.851  26.942  1.00  0.00     0.029 A 
ATOM     40  N   UNL A   1      43.461  26.838  27.943  1.00  0.00    -0.354 N 
ATOM     41  C   UNL A   1      40.031  28.634  29.790  1.00  0.00     0.074 A 
ATOM     42  C   UNL A   1      39.009  27.634  30.012  1.00  0.00     0.031 C 
ATOM     43  C   UNL A   1      44.648  25.278  26.872  1.00  0.00     0.029 A 
ATOM     44  C   UNL A   1      44.706  26.637  27.379  1.00  0.00     0.049 A 
ATOM     45  H   UNL A   1      43.237  27.625  28.491  1.00  0.00     0.167 HD
ATOM     46  C   UNL A   1      39.958  29.916  30.228  1.00  0.00     0.034 A 
ATOM     47  C   UNL A   1      45.752  27.465  27.177  1.00  0.00     0.034 A 
ATOM     48  C   UNL A   1      41.019  30.879  30.079  1.00  0.00     0.049 A 
ATOM     49  C   UNL A   1      45.637  28.897  27.616  1.00  0.00     0.074 A 
ATOM     50  C   UNL A   1      41.047  32.204  30.477  1.00  0.00     0.029 A 
ATOM     51  N   UNL A   1      42.251  30.611  29.501  1.00  0.00    -0.354 N 
ATOM     52  N   UNL A   1      44.652  29.488  28.246  1.00  0.00    -0.248 NA
ATOM     53  C   UNL A   1      46.773  29.778  27.311  1.00  0.00     0.031 C 
ATOM     54  C   UNL A   1      42.284  32.747  30.108  1.00  0.00     0.029 A 
ATOM     55  C   UNL A   1      43.043  31.747  29.524  1.00  0.00     0.049 A 
ATOM     56  H   UNL A   1      42.523  29.741  29.130  1.00  0.00     0.167 HD
ATOM     57  C   UNL A   1      45.061  30.801  28.441  1.00  0.00     0.074 A 
ATOM     58  C   UNL A   1      46.394  30.912  27.882  1.00  0.00     0.031 C 
ATOM     59  C   UNL A   1      44.389  31.826  29.015  1.00  0.00     0.034 A 
BRANCH  46  60
ATOM     60  C   UNL A   1      38.666  30.374  30.865  1.00  0.00     0.023 A 
ATOM     61  C   UNL A   1      38.418  30.158  32.235  1.00  0.00     0.012 A 
ATOM     62  C   UNL A   1      37.697  31.048  30.090  1.00  0.00     0.148 A 
ATOM     63  C   UNL A   1      37.209  30.558  32.810  1.00  0.00     0.002 A 
ATOM     64  C   UNL A   1      36.516  31.485  30.680  1.00  0.00     0.091 A 
ATOM     65  F   UNL A   1      37.944  31.242  28.786  1.00  0.00    -0.205 F 
ATOM     66  C   UNL A   1      36.262  31.225  32.035  1.00  0.00     0.022 A 
BRANCH  64  67
ATOM     67  S   UNL A   1      35.269  32.418  29.784  1.00  0.00     0.127 S 
ATOM     68  O   UNL A   1      34.280  32.672  30.831  1.00  0.00    -0.237 OA
ATOM     69  O   UNL A   1      36.018  33.599  29.355  1.00  0.00    -0.237 OA
ATOM     70  O   UNL A   1      34.818  31.557  28.700  1.00  0.00    -0.744 OA
ENDBRANCH  64  67
ENDBRANCH  46  60
BRANCH  47  71
ATOM     71  C   UNL A   1      46.978  26.983  26.463  1.00  0.00     0.023 A 
ATOM     72  C   UNL A   1      47.104  27.197  25.077  1.00  0.00     0.012 A 
ATOM     73  C   UNL A   1      48.023  26.328  27.149  1.00  0.00     0.148 A 
ATOM     74  C   UNL A   1      48.231  26.743  24.385  1.00  0.00     0.002 A 
ATOM     75  C   UNL A   1      49.172  25.945  26.467  1.00  0.00     0.091 A 
ATOM     76  F   UNL A   1      47.883  26.109  28.464  1.00  0.00    -0.205 F 
ATOM     77  C   UNL A   1      49.269  26.130  25.081  1.00  0.00     0.022 A 
BRANCH  75  78
ATOM     78  S   UNL A   1      50.621  25.290  27.306  1.00  0.00     0.127 S 
ATOM     79  O   UNL A   1      51.017  26.417  28.145  1.00  0.00    -0.237 OA
ATOM     80  O   UNL A   1      50.059  24.149  28.030  1.00  0.00    -0.237 OA
ATOM     81  O   UNL A   1      51.556  24.925  26.251  1.00  0.00    -0.744 OA
ENDBRANCH  75  78
ENDBRANCH  47  71
BRANCH  59  82
ATOM     82  C   UNL A   1      45.102  33.147  29.132  1.00  0.00     0.023 A 
ATOM     83  C   UNL A   1      45.973  33.389  30.211  1.00  0.00     0.012 A 
ATOM     84  C   UNL A   1      44.956  34.120  28.125  1.00  0.00     0.148 A 
ATOM     85  C   UNL A   1      46.667  34.596  30.301  1.00  0.00     0.002 A 
ATOM     86  C   UNL A   1      45.691  35.295  28.193  1.00  0.00     0.091 A 
ATOM     87  F   UNL A   1      44.101  33.878  27.121  1.00  0.00    -0.205 F 
ATOM     88  C   UNL A   1      46.538  35.541  29.287  1.00  0.00     0.022 A 
BRANCH  86  89
ATOM     89  S   UNL A   1      45.666  36.522  26.881  1.00  0.00     0.127 S 
ATOM     90  O   UNL A   1      46.572  37.541  27.410  1.00  0.00    -0.237 OA
ATOM     91  O   UNL A   1      46.193  35.768  25.744  1.00  0.00    -0.237 OA
ATOM     92  O   UNL A   1      44.276  36.936  26.743  1.00  0.00    -0.744 OA
ENDBRANCH  86  89
ENDBRANCH  59  82
ENDBRANCH  33  34
ENDBRANCH  26  28
ENDBRANCH  25  26
ENDBRANCH  24  25
ENDBRANCH   1  24
TORSDOF 18
ENDMDL
MODEL 3
REMARK VINA RESULT:     -11.3      5.140     10.244
REMARK SMILES CC1(C)NC(=O)N(CCC(=O)N2CCC[C@H]2C(=O)OCCOC(=O)c2ccc(-c3c4nc(c(-c5cccc(S(=O)(=O)[O-])c5F)c5ccc([nH]5)c(-c5cccc(S(=O)(=O)[O-])c5F)c5nc(c(-c6cccc(S(=O)(=O)[O-])c6F)c6ccc3[nH]6)C=C5)C=C4)cc2)C1=O
REMARK SMILES IDX 20 1 19 2 17 3 18 4 16 5 12 6 13 7 14 8 15 9 10 10 11 11
REMARK SMILES IDX 9 12 8 13 7 14 1 15 2 16 3 17 4 18 88 19 5 20 89 22 6 23
REMARK SMILES IDX 21 24 22 25 23 26 24 27 25 28 26 29 87 30 27 31 86 32 28 33
REMARK SMILES IDX 29 34 30 35 80 36 31 37 85 38 79 39 81 40 32 41 84 42 78 43
REMARK SMILES IDX 77 44 33 46 65 47 45 48 64 49 46 50 49 51 63 52 82 53 47 54
REMARK SMILES IDX 48 55 62 57 83 58 50 59 34 60 35 61 43 62 36 63 38 64 44 65
REMARK SMILES IDX 37 66 39 67 40 68 41 69 42 70 66 71 67 72 75 73 68 74 70 75
REMARK SMILES IDX 76 76 69 77 71 78 72 79 73 80 74 81 51 82 52 83 60 84 53 85
REMARK SMILES IDX 55 86 61 87 54 88 56 89 57 90 58 91 59 92
REMARK H PARENT 4 21 81 45 49 56
REMARK Flexibility Score: inf
ROOT
ATOM      1  C   UNL A   1      35.596  21.906  24.143  1.00  0.00     0.274 C 
ENDROOT
BRANCH   1   2
ATOM      2  O   UNL A   1      35.323  23.333  24.064  1.00  0.00    -0.461 OA
BRANCH   2   3
ATOM      3  C   UNL A   1      34.828  23.998  25.146  1.00  0.00     0.328 C 
ATOM      4  O   UNL A   1      35.488  24.306  26.129  1.00  0.00    -0.250 OA
BRANCH   3   5
ATOM      5  C   UNL A   1      33.305  24.229  24.972  1.00  0.00     0.195 C 
ATOM      6  N   UNL A   1      32.797  24.036  23.621  1.00  0.00    -0.329 N 
ATOM      7  C   UNL A   1      31.953  22.861  23.580  1.00  0.00     0.120 C 
ATOM      8  C   UNL A   1      31.251  22.934  24.923  1.00  0.00     0.024 C 
ATOM      9  C   UNL A   1      32.347  23.441  25.867  1.00  0.00     0.039 C 
BRANCH   6  10
ATOM     10  C   UNL A   1      32.798  24.985  22.620  1.00  0.00     0.225 C 
ATOM     11  O   UNL A   1      33.803  25.219  21.948  1.00  0.00    -0.275 OA
BRANCH  10  12
ATOM     12  C   UNL A   1      31.524  25.788  22.404  1.00  0.00     0.122 C 
BRANCH  12  13
ATOM     13  C   UNL A   1      31.552  27.283  22.773  1.00  0.00     0.140 C 
BRANCH  13  14
ATOM     14  N   UNL A   1      31.771  27.693  24.168  1.00  0.00    -0.262 N 
ATOM     15  C   UNL A   1      31.913  30.328  26.290  1.00  0.00     0.045 C 
ATOM     16  C   UNL A   1      32.513  28.941  26.077  1.00  0.00     0.115 C 
ATOM     17  C   UNL A   1      33.855  28.842  26.798  1.00  0.00     0.045 C 
ATOM     18  N   UNL A   1      31.585  27.885  26.384  1.00  0.00    -0.324 N 
ATOM     19  C   UNL A   1      32.662  28.632  24.587  1.00  0.00     0.255 C 
ATOM     20  C   UNL A   1      31.133  27.209  25.262  1.00  0.00     0.325 C 
ATOM     21  H   UNL A   1      31.300  27.664  27.300  1.00  0.00     0.166 HD
ATOM     22  O   UNL A   1      33.513  29.113  23.882  1.00  0.00    -0.272 OA
ATOM     23  O   UNL A   1      30.321  26.302  25.303  1.00  0.00    -0.248 OA
ENDBRANCH  13  14
ENDBRANCH  12  13
ENDBRANCH  10  12
ENDBRANCH   6  10
ENDBRANCH   3   5
ENDBRANCH   2   3
ENDBRANCH   1   2
BRANCH   1  24
ATOM     24  C   UNL A   1      36.754  21.442  25.074  1.00  0.00     0.275 C 
BRANCH  24  25
ATOM     25  O   UNL A   1      37.967  22.249  25.004  1.00  0.00    -0.458 OA
BRANCH  25  26
ATOM     26  C   UNL A   1      38.958  21.896  25.881  1.00  0.00     0.338 C 
ATOM     27  O   UNL A   1      39.524  20.810  25.876  1.00  0.00    -0.246 OA
BRANCH  26  28
ATOM     28  C   UNL A   1      39.425  23.001  26.795  1.00  0.00     0.060 A 
ATOM     29  C   UNL A   1      38.905  24.280  26.708  1.00  0.00     0.016 A 
ATOM     30  C   UNL A   1      40.553  22.841  27.604  1.00  0.00     0.016 A 
ATOM     31  C   UNL A   1      39.649  25.395  27.113  1.00  0.00     0.010 A 
ATOM     32  C   UNL A   1      41.160  23.956  28.231  1.00  0.00     0.010 A 
ATOM     33  C   UNL A   1      40.771  25.277  27.932  1.00  0.00    -0.014 A 
BRANCH  33  34
ATOM     34  C   UNL A   1      41.513  26.488  28.459  1.00  0.00     0.031 A 
ATOM     35  C   UNL A   1      40.769  27.558  29.240  1.00  0.00     0.074 A 
ATOM     36  C   UNL A   1      42.842  26.681  28.258  1.00  0.00     0.049 A 
ATOM     37  N   UNL A   1      41.084  28.813  29.444  1.00  0.00    -0.248 NA
ATOM     38  C   UNL A   1      39.494  27.163  29.862  1.00  0.00     0.031 C 
ATOM     39  C   UNL A   1      43.773  25.740  27.631  1.00  0.00     0.029 A 
ATOM     40  N   UNL A   1      43.651  27.766  28.548  1.00  0.00    -0.354 N 
ATOM     41  C   UNL A   1      39.993  29.385  30.097  1.00  0.00     0.074 A 
ATOM     42  C   UNL A   1      39.028  28.325  30.298  1.00  0.00     0.031 C 
ATOM     43  C   UNL A   1      45.008  26.253  27.622  1.00  0.00     0.029 A 
ATOM     44  C   UNL A   1      44.940  27.631  28.073  1.00  0.00     0.049 A 
ATOM     45  H   UNL A   1      43.338  28.555  29.047  1.00  0.00     0.167 HD
ATOM     46  C   UNL A   1      39.804  30.675  30.474  1.00  0.00     0.034 A 
ATOM     47  C   UNL A   1      45.939  28.522  27.901  1.00  0.00     0.034 A 
ATOM     48  C   UNL A   1      40.805  31.704  30.351  1.00  0.00     0.049 A 
ATOM     49  C   UNL A   1      45.699  29.958  28.270  1.00  0.00     0.074 A 
ATOM     50  C   UNL A   1      40.718  33.042  30.692  1.00  0.00     0.029 A 
ATOM     51  N   UNL A   1      42.088  31.501  29.863  1.00  0.00    -0.354 N 
ATOM     52  N   UNL A   1      44.637  30.502  28.811  1.00  0.00    -0.248 NA
ATOM     53  C   UNL A   1      46.790  30.904  28.000  1.00  0.00     0.031 C 
ATOM     54  C   UNL A   1      41.936  33.656  30.379  1.00  0.00     0.029 A 
ATOM     55  C   UNL A   1      42.798  32.690  29.887  1.00  0.00     0.049 A 
ATOM     56  H   UNL A   1      42.442  30.638  29.548  1.00  0.00     0.167 HD
ATOM     57  C   UNL A   1      44.943  31.847  28.975  1.00  0.00     0.074 A 
ATOM     58  C   UNL A   1      46.298  32.031  28.496  1.00  0.00     0.031 C 
ATOM     59  C   UNL A   1      44.166  32.844  29.461  1.00  0.00     0.034 A 
BRANCH  46  60
ATOM     60  C   UNL A   1      38.445  31.065  31.009  1.00  0.00     0.023 A 
ATOM     61  C   UNL A   1      38.113  30.859  32.362  1.00  0.00     0.012 A 
ATOM     62  C   UNL A   1      37.496  31.666  30.153  1.00  0.00     0.148 A 
ATOM     63  C   UNL A   1      36.845  31.194  32.841  1.00  0.00     0.002 A 
ATOM     64  C   UNL A   1      36.253  32.041  30.649  1.00  0.00     0.091 A 
ATOM     65  F   UNL A   1      37.824  31.851  28.866  1.00  0.00    -0.205 F 
ATOM     66  C   UNL A   1      35.918  31.789  31.988  1.00  0.00     0.022 A 
BRANCH  64  67
ATOM     67  S   UNL A   1      35.020  32.881  29.647  1.00  0.00     0.127 S 
ATOM     68  O   UNL A   1      35.829  33.892  28.967  1.00  0.00    -0.237 OA
ATOM     69  O   UNL A   1      34.540  31.803  28.782  1.00  0.00    -0.237 OA
ATOM     70  O   UNL A   1      34.028  33.402  30.577  1.00  0.00    -0.744 OA
ENDBRANCH  64  67
ENDBRANCH  46  60
BRANCH  47  71
ATOM     71  C   UNL A   1      47.239  28.100  27.287  1.00  0.00     0.023 A 
ATOM     72  C   UNL A   1      48.347  27.836  28.116  1.00  0.00     0.012 A 
ATOM     73  C   UNL A   1      47.381  27.946  25.891  1.00  0.00     0.148 A 
ATOM     74  C   UNL A   1      49.574  27.456  27.567  1.00  0.00     0.002 A 
ATOM     75  C   UNL A   1      48.584  27.497  25.358  1.00  0.00     0.091 A 
ATOM     76  F   UNL A   1      46.328  28.221  25.110  1.00  0.00    -0.205 F 
ATOM     77  C   UNL A   1      49.689  27.274  26.192  1.00  0.00     0.022 A 
BRANCH  75  78
ATOM     78  S   UNL A   1      48.776  27.087  23.619  1.00  0.00     0.127 S 
ATOM     79  O   UNL A   1      50.212  26.839  23.525  1.00  0.00    -0.237 OA
ATOM     80  O   UNL A   1      47.935  25.895  23.496  1.00  0.00    -0.237 OA
ATOM     81  O   UNL A   1      48.283  28.244  22.884  1.00  0.00    -0.744 OA
ENDBRANCH  75  78
ENDBRANCH  47  71
BRANCH  59  82
ATOM     82  C   UNL A   1      44.778  34.215  29.565  1.00  0.00     0.023 A 
ATOM     83  C   UNL A   1      45.408  34.621  30.757  1.00  0.00     0.012 A 
ATOM     84  C   UNL A   1      44.787  35.072  28.448  1.00  0.00     0.148 A 
ATOM     85  C   UNL A   1      46.013  35.875  30.844  1.00  0.00     0.002 A 
ATOM     86  C   UNL A   1      45.437  36.296  28.524  1.00  0.00     0.091 A 
ATOM     87  F   UNL A   1      44.158  34.674  27.332  1.00  0.00    -0.205 F 
ATOM     88  C   UNL A   1      46.040  36.705  29.725  1.00  0.00     0.022 A 
BRANCH  86  89
ATOM     89  S   UNL A   1      45.612  37.383  27.105  1.00  0.00     0.127 S 
ATOM     90  O   UNL A   1      44.224  37.761  26.848  1.00  0.00    -0.237 OA
ATOM     91  O   UNL A   1      46.449  38.457  27.640  1.00  0.00    -0.237 OA
ATOM     92  O   UNL A   1      46.244  36.585  26.063  1.00  0.00    -0.744 OA
ENDBRANCH  86  89
ENDBRANCH  59  82
ENDBRANCH  33  34
ENDBRANCH  26  28
ENDBRANCH  25  26
ENDBRANCH  24  25
ENDBRANCH   1  24
TORSDOF 18
ENDMDL
