MODEL 1
REMARK VINA RESULT:     -11.8      0.000      0.000
REMARK SMILES COc1ccc(N2C(=O)S[C@@H](CC(=O)Nc3nc(CC(=O)OCCOC(=O)c4ccc(-c5c6nc(c(-c7cccc(S(=O)(=O)[O-])c7F)c7ccc([nH]7)c(-c7cccc(S(=O)(=O)[O-])c7F)c7nc(c(-c8cccc(S(=O)(=O)[O-])c8F)c8ccc5[nH]8)C=C7)C=C6)cc4)cs3)C2=O)cc1
REMARK SMILES IDX 22 1 20 2 21 3 19 4 18 5 16 6 17 7 92 8 91 9 15 10 13 11
REMARK SMILES IDX 14 12 12 14 11 15 7 16 8 17 93 18 9 19 10 20 94 21 6 22 3 23
REMARK SMILES IDX 4 24 96 25 5 26 95 27 2 28 1 29 23 30 24 31 25 32 26 33
REMARK SMILES IDX 27 34 28 35 29 36 90 37 30 38 89 39 31 40 32 41 33 42 83 43
REMARK SMILES IDX 34 44 88 45 82 46 84 47 35 48 87 49 81 50 80 51 36 53 68 54
REMARK SMILES IDX 48 55 67 56 49 57 52 58 66 59 85 60 50 61 51 62 65 64 86 65
REMARK SMILES IDX 53 66 37 67 38 68 46 69 39 70 41 71 47 72 40 73 42 74 43 75
REMARK SMILES IDX 44 76 45 77 69 78 70 79 78 80 71 81 73 82 79 83 72 84 74 85
REMARK SMILES IDX 75 86 76 87 77 88 54 89 55 90 63 91 56 92 58 93 64 94 57 95
REMARK SMILES IDX 59 96 60 97 61 98 62 99
REMARK H PARENT 15 13 84 52 52 63
REMARK Flexibility Score: inf
ROOT
ATOM      1  O   UNL A   1      32.321  30.291  27.028  1.00  0.00    -0.462 OA
ENDROOT
BRANCH   1   2
ATOM      2  C   UNL A   1      32.208  28.953  26.839  1.00  0.00     0.312 C 
ATOM      3  O   UNL A   1      31.502  28.215  27.522  1.00  0.00    -0.252 OA
BRANCH   2   4
ATOM      4  C   UNL A   1      33.096  28.399  25.772  1.00  0.00     0.179 C 
BRANCH   4   5
ATOM      5  C   UNL A   1      32.504  27.957  24.478  1.00  0.00     0.065 A 
ATOM      6  C   UNL A   1      32.588  26.595  22.744  1.00  0.00     0.189 A 
ATOM      7  N   UNL A   1      33.276  27.078  23.740  1.00  0.00    -0.224 NA
ATOM      8  S   UNL A   1      31.065  27.283  22.473  1.00  0.00    -0.105 S 
ATOM      9  C   UNL A   1      31.218  28.099  23.988  1.00  0.00     0.093 A 
BRANCH   6  10
ATOM     10  N   UNL A   1      32.995  25.614  21.897  1.00  0.00    -0.302 N 
ATOM     11  C   UNL A   1      33.038  24.289  22.236  1.00  0.00     0.227 C 
ATOM     12  O   UNL A   1      33.848  23.552  21.667  1.00  0.00    -0.275 OA
ATOM     13  H   UNL A   1      33.275  25.870  20.989  1.00  0.00     0.172 HD
BRANCH  11  14
ATOM     14  C   UNL A   1      31.925  23.685  23.103  1.00  0.00     0.125 C 
BRANCH  14  15
ATOM     15  C   UNL A   1      32.345  22.799  24.265  1.00  0.00     0.156 C 
ATOM     16  N   UNL A   1      33.444  20.737  24.794  1.00  0.00    -0.240 N 
ATOM     17  C   UNL A   1      34.109  21.589  25.641  1.00  0.00     0.293 C 
ATOM     18  C   UNL A   1      32.632  21.354  23.847  1.00  0.00     0.248 C 
ATOM     19  O   UNL A   1      34.815  21.329  26.607  1.00  0.00    -0.261 OA
ATOM     20  S   UNL A   1      33.865  23.264  25.136  1.00  0.00    -0.050 SA
ATOM     21  O   UNL A   1      32.122  20.824  22.865  1.00  0.00    -0.273 OA
BRANCH  16  22
ATOM     22  C   UNL A   1      33.558  19.315  24.890  1.00  0.00     0.053 A 
ATOM     23  C   UNL A   1      33.919  16.532  25.218  1.00  0.00     0.119 A 
ATOM     24  C   UNL A   1      32.783  17.159  25.722  1.00  0.00     0.048 A 
ATOM     25  C   UNL A   1      34.855  17.279  24.512  1.00  0.00     0.048 A 
ATOM     26  C   UNL A   1      32.621  18.545  25.595  1.00  0.00     0.031 A 
ATOM     27  C   UNL A   1      34.664  18.655  24.330  1.00  0.00     0.031 A 
BRANCH  23  28
ATOM     28  O   UNL A   1      34.003  15.182  25.394  1.00  0.00    -0.497 OA
ATOM     29  C   UNL A   1      32.746  14.514  25.488  1.00  0.00     0.278 C 
ENDBRANCH  23  28
ENDBRANCH  16  22
ENDBRANCH  14  15
ENDBRANCH  11  14
ENDBRANCH   6  10
ENDBRANCH   4   5
ENDBRANCH   2   4
ENDBRANCH   1   2
BRANCH   1  30
ATOM     30  C   UNL A   1      31.333  31.080  26.337  1.00  0.00     0.274 C 
BRANCH  30  31
ATOM     31  C   UNL A   1      31.420  32.553  26.740  1.00  0.00     0.275 C 
BRANCH  31  32
ATOM     32  O   UNL A   1      32.769  33.053  26.640  1.00  0.00    -0.458 OA
BRANCH  32  33
ATOM     33  C   UNL A   1      33.259  33.590  27.781  1.00  0.00     0.338 C 
ATOM     34  O   UNL A   1      32.724  34.441  28.472  1.00  0.00    -0.246 OA
BRANCH  33  35
ATOM     35  C   UNL A   1      34.536  32.971  28.173  1.00  0.00     0.060 A 
ATOM     36  C   UNL A   1      34.551  31.628  28.548  1.00  0.00     0.016 A 
ATOM     37  C   UNL A   1      35.657  33.771  28.387  1.00  0.00     0.016 A 
ATOM     38  C   UNL A   1      35.666  31.091  29.186  1.00  0.00     0.010 A 
ATOM     39  C   UNL A   1      36.794  33.218  28.993  1.00  0.00     0.010 A 
ATOM     40  C   UNL A   1      36.795  31.883  29.429  1.00  0.00    -0.014 A 
BRANCH  40  41
ATOM     41  C   UNL A   1      37.931  31.314  30.203  1.00  0.00     0.031 A 
ATOM     42  C   UNL A   1      38.839  30.297  29.572  1.00  0.00     0.074 A 
ATOM     43  C   UNL A   1      38.175  31.732  31.458  1.00  0.00     0.049 A 
ATOM     44  N   UNL A   1      39.865  29.677  30.091  1.00  0.00    -0.248 NA
ATOM     45  C   UNL A   1      38.552  29.926  28.177  1.00  0.00     0.031 C 
ATOM     46  C   UNL A   1      37.372  32.719  32.172  1.00  0.00     0.029 A 
ATOM     47  N   UNL A   1      39.152  31.389  32.358  1.00  0.00    -0.354 N 
ATOM     48  C   UNL A   1      40.319  28.806  29.110  1.00  0.00     0.074 A 
ATOM     49  C   UNL A   1      39.454  28.979  27.961  1.00  0.00     0.031 C 
ATOM     50  C   UNL A   1      37.892  32.918  33.392  1.00  0.00     0.029 A 
ATOM     51  C   UNL A   1      39.032  32.027  33.571  1.00  0.00     0.049 A 
ATOM     52  H   UNL A   1      39.872  30.748  32.155  1.00  0.00     0.167 HD
ATOM     53  C   UNL A   1      41.363  27.945  29.158  1.00  0.00     0.034 A 
ATOM     54  C   UNL A   1      39.741  31.891  34.709  1.00  0.00     0.034 A 
ATOM     55  C   UNL A   1      42.232  27.789  30.295  1.00  0.00     0.049 A 
ATOM     56  C   UNL A   1      40.891  30.921  34.735  1.00  0.00     0.074 A 
ATOM     57  C   UNL A   1      43.330  26.956  30.430  1.00  0.00     0.029 A 
ATOM     58  N   UNL A   1      42.101  28.469  31.497  1.00  0.00    -0.354 N 
ATOM     59  N   UNL A   1      41.350  30.159  33.773  1.00  0.00    -0.248 NA
ATOM     60  C   UNL A   1      41.638  30.813  35.995  1.00  0.00     0.031 C 
ATOM     61  C   UNL A   1      43.841  27.109  31.724  1.00  0.00     0.029 A 
ATOM     62  C   UNL A   1      43.092  28.072  32.380  1.00  0.00     0.049 A 
ATOM     63  H   UNL A   1      41.404  29.137  31.693  1.00  0.00     0.167 HD
ATOM     64  C   UNL A   1      42.461  29.509  34.297  1.00  0.00     0.074 A 
ATOM     65  C   UNL A   1      42.619  29.989  35.655  1.00  0.00     0.031 C 
ATOM     66  C   UNL A   1      43.268  28.589  33.714  1.00  0.00     0.034 A 
BRANCH  53  67
ATOM     67  C   UNL A   1      41.617  27.094  27.942  1.00  0.00     0.023 A 
ATOM     68  C   UNL A   1      42.250  27.651  26.811  1.00  0.00     0.012 A 
ATOM     69  C   UNL A   1      41.257  25.733  27.933  1.00  0.00     0.148 A 
ATOM     70  C   UNL A   1      42.486  26.873  25.677  1.00  0.00     0.002 A 
ATOM     71  C   UNL A   1      41.540  24.954  26.818  1.00  0.00     0.091 A 
ATOM     72  F   UNL A   1      40.636  25.229  29.009  1.00  0.00    -0.205 F 
ATOM     73  C   UNL A   1      42.140  25.524  25.684  1.00  0.00     0.022 A 
BRANCH  71  74
ATOM     74  S   UNL A   1      41.204  23.190  26.759  1.00  0.00     0.127 S 
ATOM     75  O   UNL A   1      41.997  22.777  25.602  1.00  0.00    -0.237 OA
ATOM     76  O   UNL A   1      41.726  22.737  28.049  1.00  0.00    -0.237 OA
ATOM     77  O   UNL A   1      39.762  23.058  26.606  1.00  0.00    -0.744 OA
ENDBRANCH  71  74
ENDBRANCH  53  67
BRANCH  54  78
ATOM     78  C   UNL A   1      39.397  32.699  35.915  1.00  0.00     0.023 A 
ATOM     79  C   UNL A   1      39.806  34.045  35.995  1.00  0.00     0.012 A 
ATOM     80  C   UNL A   1      38.674  32.140  36.986  1.00  0.00     0.148 A 
ATOM     81  C   UNL A   1      39.538  34.805  37.135  1.00  0.00     0.002 A 
ATOM     82  C   UNL A   1      38.356  32.919  38.092  1.00  0.00     0.091 A 
ATOM     83  F   UNL A   1      38.306  30.853  36.901  1.00  0.00    -0.205 F 
ATOM     84  C   UNL A   1      38.805  34.245  38.179  1.00  0.00     0.022 A 
BRANCH  82  85
ATOM     85  S   UNL A   1      37.309  32.320  39.423  1.00  0.00     0.127 S 
ATOM     86  O   UNL A   1      36.263  31.615  38.688  1.00  0.00    -0.237 OA
ATOM     87  O   UNL A   1      38.229  31.459  40.167  1.00  0.00    -0.237 OA
ATOM     88  O   UNL A   1      36.879  33.508  40.151  1.00  0.00    -0.744 OA
ENDBRANCH  82  85
ENDBRANCH  54  78
BRANCH  66  89
ATOM     89  C   UNL A   1      44.437  28.082  34.520  1.00  0.00     0.023 A 
ATOM     90  C   UNL A   1      45.670  28.765  34.496  1.00  0.00     0.012 A 
ATOM     91  C   UNL A   1      44.298  26.940  35.334  1.00  0.00     0.148 A 
ATOM     92  C   UNL A   1      46.759  28.288  35.226  1.00  0.00     0.002 A 
ATOM     93  C   UNL A   1      45.370  26.505  36.102  1.00  0.00     0.091 A 
ATOM     94  F   UNL A   1      43.125  26.289  35.332  1.00  0.00    -0.205 F 
ATOM     95  C   UNL A   1      46.607  27.166  36.036  1.00  0.00     0.022 A 
BRANCH  93  96
ATOM     96  S   UNL A   1      45.230  25.131  37.251  1.00  0.00     0.127 S 
ATOM     97  O   UNL A   1      45.672  25.742  38.503  1.00  0.00    -0.237 OA
ATOM     98  O   UNL A   1      43.801  24.822  37.193  1.00  0.00    -0.237 OA
ATOM     99  O   UNL A   1      46.093  24.081  36.724  1.00  0.00    -0.744 OA
ENDBRANCH  93  96
ENDBRANCH  66  89
ENDBRANCH  40  41
ENDBRANCH  33  35
ENDBRANCH  32  33
ENDBRANCH  31  32
ENDBRANCH  30  31
ENDBRANCH   1  30
TORSDOF 20
ENDMDL
MODEL 2
REMARK VINA RESULT:     -11.8      1.495      7.381
REMARK SMILES COc1ccc(N2C(=O)S[C@@H](CC(=O)Nc3nc(CC(=O)OCCOC(=O)c4ccc(-c5c6nc(c(-c7cccc(S(=O)(=O)[O-])c7F)c7ccc([nH]7)c(-c7cccc(S(=O)(=O)[O-])c7F)c7nc(c(-c8cccc(S(=O)(=O)[O-])c8F)c8ccc5[nH]8)C=C7)C=C6)cc4)cs3)C2=O)cc1
REMARK SMILES IDX 22 1 20 2 21 3 19 4 18 5 16 6 17 7 92 8 91 9 15 10 13 11
REMARK SMILES IDX 14 12 12 14 11 15 7 16 8 17 93 18 9 19 10 20 94 21 6 22 3 23
REMARK SMILES IDX 4 24 96 25 5 26 95 27 2 28 1 29 23 30 24 31 25 32 26 33
REMARK SMILES IDX 27 34 28 35 29 36 90 37 30 38 89 39 31 40 32 41 33 42 83 43
REMARK SMILES IDX 34 44 88 45 82 46 84 47 35 48 87 49 81 50 80 51 36 53 68 54
REMARK SMILES IDX 48 55 67 56 49 57 52 58 66 59 85 60 50 61 51 62 65 64 86 65
REMARK SMILES IDX 53 66 37 67 38 68 46 69 39 70 41 71 47 72 40 73 42 74 43 75
REMARK SMILES IDX 44 76 45 77 69 78 70 79 78 80 71 81 73 82 79 83 72 84 74 85
REMARK SMILES IDX 75 86 76 87 77 88 54 89 55 90 63 91 56 92 58 93 64 94 57 95
REMARK SMILES IDX 59 96 60 97 61 98 62 99
REMARK H PARENT 15 13 84 52 52 63
REMARK Flexibility Score: inf
ROOT
ATOM      1  O   UNL A   1      32.529  30.559  27.162  1.00  0.00    -0.462 OA
ENDROOT
BRANCH   1   2
ATOM      2  C   UNL A   1      32.396  29.248  26.842  1.00  0.00     0.312 C 
ATOM      3  O   UNL A   1      31.678  28.458  27.449  1.00  0.00    -0.252 OA
BRANCH   2   4
ATOM      4  C   UNL A   1      33.279  28.788  25.726  1.00  0.00     0.179 C 
BRANCH   4   5
ATOM      5  C   UNL A   1      32.666  28.278  24.468  1.00  0.00     0.065 A 
ATOM      6  C   UNL A   1      32.737  26.839  22.796  1.00  0.00     0.189 A 
ATOM      7  N   UNL A   1      33.438  27.378  23.753  1.00  0.00    -0.224 NA
ATOM      8  S   UNL A   1      31.197  27.488  22.528  1.00  0.00    -0.105 S 
ATOM      9  C   UNL A   1      31.368  28.375  24.000  1.00  0.00     0.093 A 
BRANCH   6  10
ATOM     10  N   UNL A   1      33.143  25.826  21.986  1.00  0.00    -0.302 N 
ATOM     11  C   UNL A   1      33.176  24.513  22.370  1.00  0.00     0.227 C 
ATOM     12  O   UNL A   1      33.985  23.752  21.832  1.00  0.00    -0.275 OA
ATOM     13  H   UNL A   1      33.430  26.049  21.071  1.00  0.00     0.172 HD
BRANCH  11  14
ATOM     14  C   UNL A   1      32.054  23.946  23.251  1.00  0.00     0.125 C 
BRANCH  14  15
ATOM     15  C   UNL A   1      32.453  22.993  24.366  1.00  0.00     0.156 C 
ATOM     16  N   UNL A   1      33.480  20.870  24.788  1.00  0.00    -0.240 N 
ATOM     17  C   UNL A   1      34.185  21.659  25.665  1.00  0.00     0.293 C 
ATOM     18  C   UNL A   1      32.682  21.559  23.880  1.00  0.00     0.248 C 
ATOM     19  O   UNL A   1      34.892  21.329  26.609  1.00  0.00    -0.261 OA
ATOM     20  S   UNL A   1      33.999  23.363  25.238  1.00  0.00    -0.050 SA
ATOM     21  O   UNL A   1      32.142  21.094  22.882  1.00  0.00    -0.273 OA
BRANCH  16  22
ATOM     22  C   UNL A   1      33.542  19.442  24.819  1.00  0.00     0.053 A 
ATOM     23  C   UNL A   1      33.782  16.635  25.035  1.00  0.00     0.119 A 
ATOM     24  C   UNL A   1      32.607  17.274  25.422  1.00  0.00     0.048 A 
ATOM     25  C   UNL A   1      34.821  17.386  24.498  1.00  0.00     0.048 A 
ATOM     26  C   UNL A   1      32.500  18.670  25.353  1.00  0.00     0.031 A 
ATOM     27  C   UNL A   1      34.693  18.775  24.370  1.00  0.00     0.031 A 
BRANCH  23  28
ATOM     28  O   UNL A   1      33.805  15.276  25.145  1.00  0.00    -0.497 OA
ATOM     29  C   UNL A   1      32.584  14.694  25.599  1.00  0.00     0.278 C 
ENDBRANCH  23  28
ENDBRANCH  16  22
ENDBRANCH  14  15
ENDBRANCH  11  14
ENDBRANCH   6  10
ENDBRANCH   4   5
ENDBRANCH   2   4
ENDBRANCH   1   2
BRANCH   1  30
ATOM     30  C   UNL A   1      31.564  31.429  26.540  1.00  0.00     0.274 C 
BRANCH  30  31
ATOM     31  C   UNL A   1      31.761  32.880  26.979  1.00  0.00     0.275 C 
BRANCH  31  32
ATOM     32  O   UNL A   1      33.152  33.261  26.948  1.00  0.00    -0.458 OA
BRANCH  32  33
ATOM     33  C   UNL A   1      33.679  33.575  28.153  1.00  0.00     0.338 C 
ATOM     34  O   UNL A   1      33.220  34.362  28.964  1.00  0.00    -0.246 OA
BRANCH  33  35
ATOM     35  C   UNL A   1      34.888  32.788  28.444  1.00  0.00     0.060 A 
ATOM     36  C   UNL A   1      34.763  31.587  29.143  1.00  0.00     0.016 A 
ATOM     37  C   UNL A   1      36.147  33.347  28.231  1.00  0.00     0.016 A 
ATOM     38  C   UNL A   1      35.889  30.965  29.676  1.00  0.00     0.010 A 
ATOM     39  C   UNL A   1      37.284  32.699  28.735  1.00  0.00     0.010 A 
ATOM     40  C   UNL A   1      37.161  31.521  29.492  1.00  0.00    -0.014 A 
BRANCH  40  41
ATOM     41  C   UNL A   1      38.334  30.894  30.158  1.00  0.00     0.031 A 
ATOM     42  C   UNL A   1      38.694  31.273  31.566  1.00  0.00     0.074 A 
ATOM     43  C   UNL A   1      39.058  29.957  29.518  1.00  0.00     0.049 A 
ATOM     44  N   UNL A   1      39.686  30.851  32.303  1.00  0.00    -0.248 NA
ATOM     45  C   UNL A   1      37.827  32.260  32.230  1.00  0.00     0.031 C 
ATOM     46  C   UNL A   1      38.800  29.500  28.157  1.00  0.00     0.029 A 
ATOM     47  N   UNL A   1      40.149  29.225  29.912  1.00  0.00    -0.354 N 
ATOM     48  C   UNL A   1      39.599  31.552  33.498  1.00  0.00     0.074 A 
ATOM     49  C   UNL A   1      38.452  32.431  33.386  1.00  0.00     0.031 C 
ATOM     50  C   UNL A   1      39.693  28.555  27.828  1.00  0.00     0.029 A 
ATOM     51  C   UNL A   1      40.626  28.381  28.934  1.00  0.00     0.049 A 
ATOM     52  H   UNL A   1      40.552  29.295  30.807  1.00  0.00     0.167 HD
ATOM     53  C   UNL A   1      40.396  31.470  34.589  1.00  0.00     0.034 A 
ATOM     54  C   UNL A   1      41.709  27.579  28.919  1.00  0.00     0.034 A 
ATOM     55  C   UNL A   1      41.524  30.583  34.704  1.00  0.00     0.049 A 
ATOM     56  C   UNL A   1      42.580  27.514  30.144  1.00  0.00     0.074 A 
ATOM     57  C   UNL A   1      42.379  30.413  35.779  1.00  0.00     0.029 A 
ATOM     58  N   UNL A   1      41.963  29.723  33.708  1.00  0.00    -0.354 N 
ATOM     59  N   UNL A   1      42.439  28.131  31.292  1.00  0.00    -0.248 NA
ATOM     60  C   UNL A   1      43.745  26.620  30.083  1.00  0.00     0.031 C 
ATOM     61  C   UNL A   1      43.354  29.476  35.422  1.00  0.00     0.029 A 
ATOM     62  C   UNL A   1      43.080  29.024  34.141  1.00  0.00     0.049 A 
ATOM     63  H   UNL A   1      41.544  29.623  32.824  1.00  0.00     0.167 HD
ATOM     64  C   UNL A   1      43.472  27.674  32.101  1.00  0.00     0.074 A 
ATOM     65  C   UNL A   1      44.215  26.707  31.319  1.00  0.00     0.031 C 
ATOM     66  C   UNL A   1      43.785  28.031  33.371  1.00  0.00     0.034 A 
BRANCH  53  67
ATOM     67  C   UNL A   1      40.078  32.376  35.750  1.00  0.00     0.023 A 
ATOM     68  C   UNL A   1      39.215  31.935  36.774  1.00  0.00     0.012 A 
ATOM     69  C   UNL A   1      40.662  33.654  35.840  1.00  0.00     0.148 A 
ATOM     70  C   UNL A   1      38.910  32.767  37.851  1.00  0.00     0.002 A 
ATOM     71  C   UNL A   1      40.391  34.458  36.941  1.00  0.00     0.091 A 
ATOM     72  F   UNL A   1      41.462  34.064  34.845  1.00  0.00    -0.205 F 
ATOM     73  C   UNL A   1      39.505  34.023  37.939  1.00  0.00     0.022 A 
BRANCH  71  74
ATOM     74  S   UNL A   1      41.168  36.059  37.184  1.00  0.00     0.127 S 
ATOM     75  O   UNL A   1      41.652  36.360  35.837  1.00  0.00    -0.237 OA
ATOM     76  O   UNL A   1      40.040  36.882  37.624  1.00  0.00    -0.237 OA
ATOM     77  O   UNL A   1      42.204  35.858  38.187  1.00  0.00    -0.744 OA
ENDBRANCH  71  74
ENDBRANCH  53  67
BRANCH  54  78
ATOM     78  C   UNL A   1      42.027  26.761  27.713  1.00  0.00     0.023 A 
ATOM     79  C   UNL A   1      42.633  27.369  26.596  1.00  0.00     0.012 A 
ATOM     80  C   UNL A   1      41.725  25.386  27.663  1.00  0.00     0.148 A 
ATOM     81  C   UNL A   1      42.895  26.634  25.438  1.00  0.00     0.002 A 
ATOM     82  C   UNL A   1      42.045  24.646  26.531  1.00  0.00     0.091 A 
ATOM     83  F   UNL A   1      41.134  24.827  28.727  1.00  0.00    -0.205 F 
ATOM     84  C   UNL A   1      42.610  25.271  25.409  1.00  0.00     0.022 A 
BRANCH  82  85
ATOM     85  S   UNL A   1      41.829  22.864  26.454  1.00  0.00     0.127 S 
ATOM     86  O   UNL A   1      42.593  22.419  27.617  1.00  0.00    -0.237 OA
ATOM     87  O   UNL A   1      40.378  22.729  26.580  1.00  0.00    -0.237 OA
ATOM     88  O   UNL A   1      42.359  22.459  25.158  1.00  0.00    -0.744 OA
ENDBRANCH  82  85
ENDBRANCH  54  78
BRANCH  66  89
ATOM     89  C   UNL A   1      44.950  27.329  34.020  1.00  0.00     0.023 A 
ATOM     90  C   UNL A   1      46.264  27.806  33.834  1.00  0.00     0.012 A 
ATOM     91  C   UNL A   1      44.736  26.208  34.848  1.00  0.00     0.148 A 
ATOM     92  C   UNL A   1      47.347  27.148  34.417  1.00  0.00     0.002 A 
ATOM     93  C   UNL A   1      45.814  25.593  35.471  1.00  0.00     0.091 A 
ATOM     94  F   UNL A   1      43.483  25.754  34.999  1.00  0.00    -0.205 F 
ATOM     95  C   UNL A   1      47.122  26.050  35.242  1.00  0.00     0.022 A 
BRANCH  93  96
ATOM     96  S   UNL A   1      45.605  24.239  36.631  1.00  0.00     0.127 S 
ATOM     97  O   UNL A   1      45.117  23.172  35.759  1.00  0.00    -0.237 OA
ATOM     98  O   UNL A   1      46.966  24.044  37.131  1.00  0.00    -0.237 OA
ATOM     99  O   UNL A   1      44.659  24.714  37.633  1.00  0.00    -0.744 OA
ENDBRANCH  93  96
ENDBRANCH  66  89
ENDBRANCH  40  41
ENDBRANCH  33  35
ENDBRANCH  32  33
ENDBRANCH  31  32
ENDBRANCH  30  31
ENDBRANCH   1  30
TORSDOF 20
ENDMDL
MODEL 3
REMARK VINA RESULT:     -11.4      5.626      9.910
REMARK SMILES COc1ccc(N2C(=O)S[C@@H](CC(=O)Nc3nc(CC(=O)OCCOC(=O)c4ccc(-c5c6nc(c(-c7cccc(S(=O)(=O)[O-])c7F)c7ccc([nH]7)c(-c7cccc(S(=O)(=O)[O-])c7F)c7nc(c(-c8cccc(S(=O)(=O)[O-])c8F)c8ccc5[nH]8)C=C7)C=C6)cc4)cs3)C2=O)cc1
REMARK SMILES IDX 22 1 20 2 21 3 19 4 18 5 16 6 17 7 92 8 91 9 15 10 13 11
REMARK SMILES IDX 14 12 12 14 11 15 7 16 8 17 93 18 9 19 10 20 94 21 6 22 3 23
REMARK SMILES IDX 4 24 96 25 5 26 95 27 2 28 1 29 23 30 24 31 25 32 26 33
REMARK SMILES IDX 27 34 28 35 29 36 90 37 30 38 89 39 31 40 32 41 33 42 83 43
REMARK SMILES IDX 34 44 88 45 82 46 84 47 35 48 87 49 81 50 80 51 36 53 68 54
REMARK SMILES IDX 48 55 67 56 49 57 52 58 66 59 85 60 50 61 51 62 65 64 86 65
REMARK SMILES IDX 53 66 37 67 38 68 46 69 39 70 41 71 47 72 40 73 42 74 43 75
REMARK SMILES IDX 44 76 45 77 69 78 70 79 78 80 71 81 73 82 79 83 72 84 74 85
REMARK SMILES IDX 75 86 76 87 77 88 54 89 55 90 63 91 56 92 58 93 64 94 57 95
REMARK SMILES IDX 59 96 60 97 61 98 62 99
REMARK H PARENT 15 13 84 52 52 63
REMARK Flexibility Score: inf
ROOT
ATOM      1  O   UNL A   1      37.747  22.277  24.659  1.00  0.00    -0.462 OA
ENDROOT
BRANCH   1   2
ATOM      2  C   UNL A   1      36.685  22.216  23.820  1.00  0.00     0.312 C 
ATOM      3  O   UNL A   1      36.576  22.880  22.792  1.00  0.00    -0.252 OA
BRANCH   2   4
ATOM      4  C   UNL A   1      35.573  21.332  24.287  1.00  0.00     0.179 C 
BRANCH   4   5
ATOM      5  C   UNL A   1      34.774  21.726  25.481  1.00  0.00     0.065 A 
ATOM      6  C   UNL A   1      32.793  22.152  26.354  1.00  0.00     0.189 A 
ATOM      7  N   UNL A   1      33.446  22.027  25.234  1.00  0.00    -0.224 NA
ATOM      8  S   UNL A   1      33.715  22.132  27.774  1.00  0.00    -0.105 S 
ATOM      9  C   UNL A   1      35.070  21.629  26.829  1.00  0.00     0.093 A 
BRANCH   6  10
ATOM     10  N   UNL A   1      31.450  22.320  26.478  1.00  0.00    -0.302 N 
ATOM     11  C   UNL A   1      30.857  23.524  26.743  1.00  0.00     0.227 C 
ATOM     12  O   UNL A   1      29.769  23.540  27.327  1.00  0.00    -0.275 OA
ATOM     13  H   UNL A   1      30.871  21.531  26.371  1.00  0.00     0.172 HD
BRANCH  11  14
ATOM     14  C   UNL A   1      31.401  24.803  26.092  1.00  0.00     0.125 C 
BRANCH  14  15
ATOM     15  C   UNL A   1      30.868  25.168  24.715  1.00  0.00     0.156 C 
ATOM     16  N   UNL A   1      30.405  27.027  23.277  1.00  0.00    -0.240 N 
ATOM     17  C   UNL A   1      31.125  26.231  22.419  1.00  0.00     0.293 C 
ATOM     18  C   UNL A   1      30.419  26.628  24.610  1.00  0.00     0.248 C 
ATOM     19  O   UNL A   1      31.221  26.293  21.200  1.00  0.00    -0.261 OA
ATOM     20  S   UNL A   1      32.024  25.013  23.327  1.00  0.00    -0.050 SA
ATOM     21  O   UNL A   1      30.041  27.286  25.573  1.00  0.00    -0.273 OA
BRANCH  16  22
ATOM     22  C   UNL A   1      29.674  28.172  22.832  1.00  0.00     0.053 A 
ATOM     23  C   UNL A   1      28.221  30.494  22.138  1.00  0.00     0.119 A 
ATOM     24  C   UNL A   1      29.583  30.406  21.861  1.00  0.00     0.048 A 
ATOM     25  C   UNL A   1      27.571  29.412  22.720  1.00  0.00     0.048 A 
ATOM     26  C   UNL A   1      30.313  29.272  22.240  1.00  0.00     0.031 A 
ATOM     27  C   UNL A   1      28.288  28.251  23.042  1.00  0.00     0.031 A 
BRANCH  23  28
ATOM     28  O   UNL A   1      27.588  31.637  21.746  1.00  0.00    -0.497 OA
ATOM     29  C   UNL A   1      28.078  32.202  20.530  1.00  0.00     0.278 C 
ENDBRANCH  23  28
ENDBRANCH  16  22
ENDBRANCH  14  15
ENDBRANCH  11  14
ENDBRANCH   6  10
ENDBRANCH   4   5
ENDBRANCH   2   4
ENDBRANCH   1   2
BRANCH   1  30
ATOM     30  C   UNL A   1      38.231  20.995  25.109  1.00  0.00     0.274 C 
BRANCH  30  31
ATOM     31  C   UNL A   1      39.437  21.151  26.035  1.00  0.00     0.275 C 
BRANCH  31  32
ATOM     32  O   UNL A   1      39.999  19.872  26.395  1.00  0.00    -0.458 OA
BRANCH  32  33
ATOM     33  C   UNL A   1      41.339  19.778  26.231  1.00  0.00     0.338 C 
ATOM     34  O   UNL A   1      41.953  18.810  25.814  1.00  0.00    -0.246 OA
BRANCH  33  35
ATOM     35  C   UNL A   1      42.020  21.041  26.555  1.00  0.00     0.060 A 
ATOM     36  C   UNL A   1      42.130  21.429  27.891  1.00  0.00     0.016 A 
ATOM     37  C   UNL A   1      42.340  21.937  25.536  1.00  0.00     0.016 A 
ATOM     38  C   UNL A   1      42.509  22.730  28.213  1.00  0.00     0.010 A 
ATOM     39  C   UNL A   1      42.760  23.234  25.864  1.00  0.00     0.010 A 
ATOM     40  C   UNL A   1      42.814  23.652  27.205  1.00  0.00    -0.014 A 
BRANCH  40  41
ATOM     41  C   UNL A   1      43.116  25.061  27.573  1.00  0.00     0.031 A 
ATOM     42  C   UNL A   1      44.507  25.602  27.406  1.00  0.00     0.074 A 
ATOM     43  C   UNL A   1      42.139  25.869  28.023  1.00  0.00     0.049 A 
ATOM     44  N   UNL A   1      44.965  26.793  27.689  1.00  0.00    -0.248 NA
ATOM     45  C   UNL A   1      45.516  24.684  26.855  1.00  0.00     0.031 C 
ATOM     46  C   UNL A   1      40.752  25.462  28.217  1.00  0.00     0.029 A 
ATOM     47  N   UNL A   1      42.152  27.188  28.401  1.00  0.00    -0.354 N 
ATOM     48  C   UNL A   1      46.322  26.757  27.399  1.00  0.00     0.074 A 
ATOM     49  C   UNL A   1      46.614  25.423  26.917  1.00  0.00     0.031 C 
ATOM     50  C   UNL A   1      40.039  26.507  28.662  1.00  0.00     0.029 A 
ATOM     51  C   UNL A   1      40.931  27.646  28.843  1.00  0.00     0.049 A 
ATOM     52  H   UNL A   1      42.957  27.754  28.359  1.00  0.00     0.167 HD
ATOM     53  C   UNL A   1      47.241  27.746  27.518  1.00  0.00     0.034 A 
ATOM     54  C   UNL A   1      40.576  28.837  29.362  1.00  0.00     0.034 A 
ATOM     55  C   UNL A   1      46.943  29.076  27.980  1.00  0.00     0.049 A 
ATOM     56  C   UNL A   1      41.620  29.913  29.489  1.00  0.00     0.074 A 
ATOM     57  C   UNL A   1      47.805  30.152  28.114  1.00  0.00     0.029 A 
ATOM     58  N   UNL A   1      45.694  29.514  28.393  1.00  0.00    -0.354 N 
ATOM     59  N   UNL A   1      42.883  29.883  29.141  1.00  0.00    -0.248 NA
ATOM     60  C   UNL A   1      41.183  31.197  30.054  1.00  0.00     0.031 C 
ATOM     61  C   UNL A   1      47.083  31.229  28.640  1.00  0.00     0.029 A 
ATOM     62  C   UNL A   1      45.761  30.841  28.788  1.00  0.00     0.049 A 
ATOM     63  H   UNL A   1      44.878  28.963  28.404  1.00  0.00     0.167 HD
ATOM     64  C   UNL A   1      43.383  31.152  29.409  1.00  0.00     0.074 A 
ATOM     65  C   UNL A   1      42.277  31.933  29.924  1.00  0.00     0.031 C 
ATOM     66  C   UNL A   1      44.645  31.624  29.256  1.00  0.00     0.034 A 
BRANCH  53  67
ATOM     67  C   UNL A   1      48.664  27.417  27.149  1.00  0.00     0.023 A 
ATOM     68  C   UNL A   1      49.519  26.819  28.097  1.00  0.00     0.012 A 
ATOM     69  C   UNL A   1      49.142  27.672  25.849  1.00  0.00     0.148 A 
ATOM     70  C   UNL A   1      50.839  26.515  27.767  1.00  0.00     0.002 A 
ATOM     71  C   UNL A   1      50.444  27.321  25.515  1.00  0.00     0.091 A 
ATOM     72  F   UNL A   1      48.320  28.262  24.969  1.00  0.00    -0.205 F 
ATOM     73  C   UNL A   1      51.298  26.757  26.475  1.00  0.00     0.022 A 
BRANCH  71  74
ATOM     74  S   UNL A   1      51.104  27.521  23.855  1.00  0.00     0.127 S 
ATOM     75  O   UNL A   1      51.186  28.977  23.744  1.00  0.00    -0.237 OA
ATOM     76  O   UNL A   1      52.397  26.844  23.958  1.00  0.00    -0.237 OA
ATOM     77  O   UNL A   1      50.150  26.880  22.961  1.00  0.00    -0.744 OA
ENDBRANCH  71  74
ENDBRANCH  53  67
BRANCH  54  78
ATOM     78  C   UNL A   1      39.168  29.086  29.790  1.00  0.00     0.023 A 
ATOM     79  C   UNL A   1      38.716  28.592  31.029  1.00  0.00     0.012 A 
ATOM     80  C   UNL A   1      38.273  29.802  28.971  1.00  0.00     0.148 A 
ATOM     81  C   UNL A   1      37.390  28.771  31.427  1.00  0.00     0.002 A 
ATOM     82  C   UNL A   1      36.971  30.031  29.400  1.00  0.00     0.091 A 
ATOM     83  F   UNL A   1      38.714  30.250  27.788  1.00  0.00    -0.205 F 
ATOM     84  C   UNL A   1      36.520  29.498  30.618  1.00  0.00     0.022 A 
BRANCH  82  85
ATOM     85  S   UNL A   1      35.822  31.062  28.482  1.00  0.00     0.127 S 
ATOM     86  O   UNL A   1      36.694  32.134  28.009  1.00  0.00    -0.237 OA
ATOM     87  O   UNL A   1      35.353  30.143  27.444  1.00  0.00    -0.237 OA
ATOM     88  O   UNL A   1      34.796  31.458  29.440  1.00  0.00    -0.744 OA
ENDBRANCH  82  85
ENDBRANCH  54  78
BRANCH  66  89
ATOM     89  C   UNL A   1      44.888  33.072  29.594  1.00  0.00     0.023 A 
ATOM     90  C   UNL A   1      45.273  33.445  30.897  1.00  0.00     0.012 A 
ATOM     91  C   UNL A   1      44.767  34.066  28.601  1.00  0.00     0.148 A 
ATOM     92  C   UNL A   1      45.481  34.787  31.219  1.00  0.00     0.002 A 
ATOM     93  C   UNL A   1      45.032  35.392  28.915  1.00  0.00     0.091 A 
ATOM     94  F   UNL A   1      44.381  33.698  27.370  1.00  0.00    -0.205 F 
ATOM     95  C   UNL A   1      45.371  35.757  30.228  1.00  0.00     0.022 A 
BRANCH  93  96
ATOM     96  S   UNL A   1      45.014  36.692  27.675  1.00  0.00     0.127 S 
ATOM     97  O   UNL A   1      44.997  37.895  28.504  1.00  0.00    -0.237 OA
ATOM     98  O   UNL A   1      46.271  36.459  26.963  1.00  0.00    -0.237 OA
ATOM     99  O   UNL A   1      43.819  36.462  26.874  1.00  0.00    -0.744 OA
ENDBRANCH  93  96
ENDBRANCH  66  89
ENDBRANCH  40  41
ENDBRANCH  33  35
ENDBRANCH  32  33
ENDBRANCH  31  32
ENDBRANCH  30  31
ENDBRANCH   1  30
TORSDOF 20
ENDMDL
