MODEL 1
REMARK VINA RESULT:     -12.1      0.000      0.000
REMARK SMILES Cc1cccc(NC(=O)C[C@@H]2CCCCO2)c1C(=O)OCCOC(=O)c1ccc(-c2c3nc(c(-c4cccc(S(=O)(=O)[O-])c4F)c4ccc([nH]4)c(-c4cccc(S(=O)(=O)[O-])c4F)c4nc(c(-c5cccc(S(=O)(=O)[O-])c5F)c5ccc2[nH]5)C=C4)C=C3)cc1
REMARK SMILES IDX 21 1 20 2 18 3 19 4 17 5 1 6 2 7 3 8 4 9 6 10 5 11 7 12 8 13
REMARK SMILES IDX 9 15 10 16 11 17 12 18 16 19 13 20 15 21 14 22 22 23 23 24
REMARK SMILES IDX 24 25 25 26 26 27 27 28 88 29 28 30 87 31 29 32 30 33 31 34
REMARK SMILES IDX 81 35 32 36 86 37 80 38 82 39 33 40 85 41 79 42 78 43 34 45
REMARK SMILES IDX 66 46 46 47 65 48 47 49 50 50 64 51 83 52 48 53 49 54 63 56
REMARK SMILES IDX 84 57 51 58 35 59 36 60 44 61 37 62 39 63 45 64 38 65 40 66
REMARK SMILES IDX 41 67 42 68 43 69 67 70 68 71 76 72 69 73 71 74 77 75 70 76
REMARK SMILES IDX 72 77 73 78 74 79 75 80 52 81 53 82 61 83 54 84 56 85 62 86
REMARK SMILES IDX 55 87 57 88 58 89 59 90 60 91
REMARK H PARENT 7 14 82 44 50 55
REMARK Flexibility Score: inf
ROOT
ATOM      1  C   UNL A   1      33.968  28.333  27.195  1.00  0.00     0.275 C 
ENDROOT
BRANCH   1   2
ATOM      2  O   UNL A   1      32.997  27.381  26.739  1.00  0.00    -0.458 OA
BRANCH   2   3
ATOM      3  C   UNL A   1      31.671  27.619  26.836  1.00  0.00     0.340 C 
ATOM      4  O   UNL A   1      31.090  28.055  27.811  1.00  0.00    -0.246 OA
BRANCH   3   5
ATOM      5  C   UNL A   1      31.045  27.238  25.537  1.00  0.00     0.086 A 
ATOM      6  C   UNL A   1      31.111  29.717  24.829  1.00  0.00     0.045 C 
ATOM      7  C   UNL A   1      30.790  28.267  24.583  1.00  0.00    -0.034 A 
ATOM      8  C   UNL A   1      30.235  27.930  23.344  1.00  0.00     0.004 A 
ATOM      9  C   UNL A   1      30.044  26.600  23.012  1.00  0.00     0.002 A 
ATOM     10  C   UNL A   1      30.730  25.883  25.249  1.00  0.00     0.056 A 
ATOM     11  C   UNL A   1      30.344  25.596  23.935  1.00  0.00     0.027 A 
BRANCH  10  12
ATOM     12  N   UNL A   1      30.808  24.892  26.271  1.00  0.00    -0.325 N 
ATOM     13  C   UNL A   1      31.669  23.879  26.612  1.00  0.00     0.227 C 
ATOM     14  H   UNL A   1      30.048  24.949  26.893  1.00  0.00     0.169 HD
ATOM     15  O   UNL A   1      31.412  23.275  27.667  1.00  0.00    -0.275 OA
BRANCH  13  16
ATOM     16  C   UNL A   1      32.827  23.383  25.769  1.00  0.00     0.132 C 
BRANCH  16  17
ATOM     17  C   UNL A   1      34.190  23.964  26.175  1.00  0.00     0.127 C 
ATOM     18  C   UNL A   1      34.905  24.654  25.002  1.00  0.00     0.033 C 
ATOM     19  O   UNL A   1      35.109  23.029  26.754  1.00  0.00    -0.378 OA
ATOM     20  C   UNL A   1      35.389  23.648  23.957  1.00  0.00     0.005 C 
ATOM     21  C   UNL A   1      35.512  21.988  25.877  1.00  0.00     0.160 C 
ATOM     22  C   UNL A   1      36.153  22.493  24.596  1.00  0.00     0.029 C 
ENDBRANCH  16  17
ENDBRANCH  13  16
ENDBRANCH  10  12
ENDBRANCH   3   5
ENDBRANCH   2   3
ENDBRANCH   1   2
BRANCH   1  23
ATOM     23  C   UNL A   1      33.752  29.850  27.012  1.00  0.00     0.275 C 
BRANCH  23  24
ATOM     24  O   UNL A   1      34.689  30.909  27.349  1.00  0.00    -0.458 OA
BRANCH  24  25
ATOM     25  C   UNL A   1      35.257  31.141  28.561  1.00  0.00     0.338 C 
ATOM     26  O   UNL A   1      34.894  31.991  29.331  1.00  0.00    -0.246 OA
BRANCH  25  27
ATOM     27  C   UNL A   1      36.502  30.389  28.741  1.00  0.00     0.060 A 
ATOM     28  C   UNL A   1      36.695  29.631  29.903  1.00  0.00     0.016 A 
ATOM     29  C   UNL A   1      37.400  30.367  27.679  1.00  0.00     0.016 A 
ATOM     30  C   UNL A   1      37.746  28.736  29.964  1.00  0.00     0.010 A 
ATOM     31  C   UNL A   1      38.368  29.408  27.678  1.00  0.00     0.010 A 
ATOM     32  C   UNL A   1      38.572  28.657  28.849  1.00  0.00    -0.014 A 
BRANCH  32  33
ATOM     33  C   UNL A   1      39.936  28.190  28.945  1.00  0.00     0.031 A 
ATOM     34  C   UNL A   1      40.240  26.778  28.724  1.00  0.00     0.074 A 
ATOM     35  C   UNL A   1      40.766  29.259  29.020  1.00  0.00     0.049 A 
ATOM     36  N   UNL A   1      41.325  26.219  29.113  1.00  0.00    -0.248 NA
ATOM     37  C   UNL A   1      39.302  25.835  28.111  1.00  0.00     0.031 C 
ATOM     38  C   UNL A   1      42.158  29.445  28.678  1.00  0.00     0.029 A 
ATOM     39  N   UNL A   1      40.398  30.509  29.566  1.00  0.00    -0.354 N 
ATOM     40  C   UNL A   1      41.395  24.994  28.474  1.00  0.00     0.074 A 
ATOM     41  C   UNL A   1      40.049  24.726  28.034  1.00  0.00     0.031 C 
ATOM     42  C   UNL A   1      42.589  30.580  29.273  1.00  0.00     0.029 A 
ATOM     43  C   UNL A   1      41.527  31.033  30.174  1.00  0.00     0.049 A 
ATOM     44  H   UNL A   1      39.507  30.927  29.522  1.00  0.00     0.167 HD
ATOM     45  C   UNL A   1      42.634  24.498  28.196  1.00  0.00     0.034 A 
ATOM     46  C   UNL A   1      41.594  31.112  31.540  1.00  0.00     0.034 A 
ATOM     47  C   UNL A   1      43.642  25.428  28.738  1.00  0.00     0.049 A 
ATOM     48  C   UNL A   1      42.682  30.182  32.046  1.00  0.00     0.074 A 
ATOM     49  C   UNL A   1      44.290  26.502  28.149  1.00  0.00     0.029 A 
ATOM     50  N   UNL A   1      43.774  25.588  30.112  1.00  0.00    -0.354 N 
ATOM     51  N   UNL A   1      43.111  29.139  31.393  1.00  0.00    -0.248 NA
ATOM     52  C   UNL A   1      43.322  30.341  33.345  1.00  0.00     0.031 C 
ATOM     53  C   UNL A   1      44.712  27.374  29.190  1.00  0.00     0.029 A 
ATOM     54  C   UNL A   1      44.340  26.823  30.406  1.00  0.00     0.049 A 
ATOM     55  H   UNL A   1      43.503  24.922  30.785  1.00  0.00     0.167 HD
ATOM     56  C   UNL A   1      43.999  28.449  32.164  1.00  0.00     0.074 A 
ATOM     57  C   UNL A   1      44.128  29.267  33.363  1.00  0.00     0.031 C 
ATOM     58  C   UNL A   1      44.515  27.240  31.793  1.00  0.00     0.034 A 
BRANCH  45  59
ATOM     59  C   UNL A   1      43.002  23.431  27.171  1.00  0.00     0.023 A 
ATOM     60  C   UNL A   1      43.824  23.863  26.099  1.00  0.00     0.012 A 
ATOM     61  C   UNL A   1      42.589  22.076  27.117  1.00  0.00     0.148 A 
ATOM     62  C   UNL A   1      44.157  23.048  25.014  1.00  0.00     0.002 A 
ATOM     63  C   UNL A   1      42.920  21.257  26.026  1.00  0.00     0.091 A 
ATOM     64  F   UNL A   1      41.889  21.551  28.124  1.00  0.00    -0.205 F 
ATOM     65  C   UNL A   1      43.694  21.745  24.970  1.00  0.00     0.022 A 
BRANCH  63  66
ATOM     66  S   UNL A   1      42.377  19.541  25.874  1.00  0.00     0.127 S 
ATOM     67  O   UNL A   1      42.809  18.968  27.151  1.00  0.00    -0.237 OA
ATOM     68  O   UNL A   1      40.929  19.682  25.732  1.00  0.00    -0.237 OA
ATOM     69  O   UNL A   1      43.059  18.996  24.706  1.00  0.00    -0.744 OA
ENDBRANCH  63  66
ENDBRANCH  45  59
BRANCH  46  70
ATOM     70  C   UNL A   1      40.271  31.257  32.268  1.00  0.00     0.023 A 
ATOM     71  C   UNL A   1      39.567  30.097  32.687  1.00  0.00     0.012 A 
ATOM     72  C   UNL A   1      39.877  32.493  32.812  1.00  0.00     0.148 A 
ATOM     73  C   UNL A   1      38.609  30.155  33.708  1.00  0.00     0.002 A 
ATOM     74  C   UNL A   1      38.947  32.543  33.848  1.00  0.00     0.091 A 
ATOM     75  F   UNL A   1      40.438  33.615  32.350  1.00  0.00    -0.205 F 
ATOM     76  C   UNL A   1      38.321  31.376  34.310  1.00  0.00     0.022 A 
BRANCH  74  77
ATOM     77  S   UNL A   1      38.699  34.053  34.788  1.00  0.00     0.127 S 
ATOM     78  O   UNL A   1      40.066  34.444  35.117  1.00  0.00    -0.237 OA
ATOM     79  O   UNL A   1      38.032  34.903  33.807  1.00  0.00    -0.237 OA
ATOM     80  O   UNL A   1      37.855  33.690  35.916  1.00  0.00    -0.744 OA
ENDBRANCH  74  77
ENDBRANCH  46  70
BRANCH  58  81
ATOM     81  C   UNL A   1      45.259  26.336  32.737  1.00  0.00     0.023 A 
ATOM     82  C   UNL A   1      46.664  26.336  32.809  1.00  0.00     0.012 A 
ATOM     83  C   UNL A   1      44.561  25.573  33.701  1.00  0.00     0.148 A 
ATOM     84  C   UNL A   1      47.350  25.527  33.717  1.00  0.00     0.002 A 
ATOM     85  C   UNL A   1      45.246  24.886  34.693  1.00  0.00     0.091 A 
ATOM     86  F   UNL A   1      43.221  25.498  33.659  1.00  0.00    -0.205 F 
ATOM     87  C   UNL A   1      46.641  24.817  34.674  1.00  0.00     0.022 A 
BRANCH  85  88
ATOM     88  S   UNL A   1      44.365  24.235  36.116  1.00  0.00     0.127 S 
ATOM     89  O   UNL A   1      43.773  25.442  36.689  1.00  0.00    -0.237 OA
ATOM     90  O   UNL A   1      43.405  23.316  35.502  1.00  0.00    -0.237 OA
ATOM     91  O   UNL A   1      45.389  23.575  36.916  1.00  0.00    -0.744 OA
ENDBRANCH  85  88
ENDBRANCH  58  81
ENDBRANCH  32  33
ENDBRANCH  25  27
ENDBRANCH  24  25
ENDBRANCH  23  24
ENDBRANCH   1  23
TORSDOF 17
ENDMDL
MODEL 2
REMARK VINA RESULT:     -11.9      1.665      2.149
REMARK SMILES Cc1cccc(NC(=O)C[C@@H]2CCCCO2)c1C(=O)OCCOC(=O)c1ccc(-c2c3nc(c(-c4cccc(S(=O)(=O)[O-])c4F)c4ccc([nH]4)c(-c4cccc(S(=O)(=O)[O-])c4F)c4nc(c(-c5cccc(S(=O)(=O)[O-])c5F)c5ccc2[nH]5)C=C4)C=C3)cc1
REMARK SMILES IDX 21 1 20 2 18 3 19 4 17 5 1 6 2 7 3 8 4 9 6 10 5 11 7 12 8 13
REMARK SMILES IDX 9 15 10 16 11 17 12 18 16 19 13 20 15 21 14 22 22 23 23 24
REMARK SMILES IDX 24 25 25 26 26 27 27 28 88 29 28 30 87 31 29 32 30 33 31 34
REMARK SMILES IDX 81 35 32 36 86 37 80 38 82 39 33 40 85 41 79 42 78 43 34 45
REMARK SMILES IDX 66 46 46 47 65 48 47 49 50 50 64 51 83 52 48 53 49 54 63 56
REMARK SMILES IDX 84 57 51 58 35 59 36 60 44 61 37 62 39 63 45 64 38 65 40 66
REMARK SMILES IDX 41 67 42 68 43 69 67 70 68 71 76 72 69 73 71 74 77 75 70 76
REMARK SMILES IDX 72 77 73 78 74 79 75 80 52 81 53 82 61 83 54 84 56 85 62 86
REMARK SMILES IDX 55 87 57 88 58 89 59 90 60 91
REMARK H PARENT 7 14 82 44 50 55
REMARK Flexibility Score: inf
ROOT
ATOM      1  C   UNL A   1      33.811  27.752  26.194  1.00  0.00     0.275 C 
ENDROOT
BRANCH   1   2
ATOM      2  O   UNL A   1      33.141  26.502  26.407  1.00  0.00    -0.458 OA
BRANCH   2   3
ATOM      3  C   UNL A   1      31.797  26.426  26.510  1.00  0.00     0.340 C 
ATOM      4  O   UNL A   1      31.110  26.976  27.349  1.00  0.00    -0.246 OA
BRANCH   3   5
ATOM      5  C   UNL A   1      31.308  25.537  25.417  1.00  0.00     0.086 A 
ATOM      6  C   UNL A   1      30.549  27.629  24.114  1.00  0.00     0.045 C 
ATOM      7  C   UNL A   1      30.714  26.141  24.270  1.00  0.00    -0.034 A 
ATOM      8  C   UNL A   1      30.279  25.330  23.216  1.00  0.00     0.004 A 
ATOM      9  C   UNL A   1      30.526  23.968  23.246  1.00  0.00     0.002 A 
ATOM     10  C   UNL A   1      31.447  24.126  25.508  1.00  0.00     0.056 A 
ATOM     11  C   UNL A   1      31.153  23.393  24.353  1.00  0.00     0.027 A 
BRANCH  10  12
ATOM     12  N   UNL A   1      31.862  23.519  26.730  1.00  0.00    -0.325 N 
ATOM     13  C   UNL A   1      32.983  22.876  27.191  1.00  0.00     0.227 C 
ATOM     14  H   UNL A   1      31.163  23.577  27.420  1.00  0.00     0.169 HD
ATOM     15  O   UNL A   1      32.977  22.562  28.394  1.00  0.00    -0.275 OA
BRANCH  13  16
ATOM     16  C   UNL A   1      34.162  22.439  26.345  1.00  0.00     0.132 C 
BRANCH  16  17
ATOM     17  C   UNL A   1      35.123  23.580  25.975  1.00  0.00     0.127 C 
ATOM     18  C   UNL A   1      34.861  24.131  24.564  1.00  0.00     0.033 C 
ATOM     19  O   UNL A   1      36.517  23.261  26.065  1.00  0.00    -0.378 OA
ATOM     20  C   UNL A   1      35.263  23.133  23.477  1.00  0.00     0.005 C 
ATOM     21  C   UNL A   1      36.944  22.248  25.166  1.00  0.00     0.160 C 
ATOM     22  C   UNL A   1      36.665  22.579  23.710  1.00  0.00     0.029 C 
ENDBRANCH  16  17
ENDBRANCH  13  16
ENDBRANCH  10  12
ENDBRANCH   3   5
ENDBRANCH   2   3
ENDBRANCH   1   2
BRANCH   1  23
ATOM     23  C   UNL A   1      33.947  28.792  27.326  1.00  0.00     0.275 C 
BRANCH  23  24
ATOM     24  O   UNL A   1      34.821  29.954  27.340  1.00  0.00    -0.458 OA
BRANCH  24  25
ATOM     25  C   UNL A   1      35.541  30.422  28.392  1.00  0.00     0.338 C 
ATOM     26  O   UNL A   1      35.178  31.305  29.126  1.00  0.00    -0.246 OA
BRANCH  25  27
ATOM     27  C   UNL A   1      36.905  29.887  28.411  1.00  0.00     0.060 A 
ATOM     28  C   UNL A   1      37.612  29.745  27.211  1.00  0.00     0.016 A 
ATOM     29  C   UNL A   1      37.489  29.653  29.651  1.00  0.00     0.016 A 
ATOM     30  C   UNL A   1      38.968  29.478  27.248  1.00  0.00     0.010 A 
ATOM     31  C   UNL A   1      38.842  29.506  29.706  1.00  0.00     0.010 A 
ATOM     32  C   UNL A   1      39.551  29.349  28.503  1.00  0.00    -0.014 A 
BRANCH  32  33
ATOM     33  C   UNL A   1      40.767  28.594  28.702  1.00  0.00     0.031 A 
ATOM     34  C   UNL A   1      40.743  27.136  28.607  1.00  0.00     0.074 A 
ATOM     35  C   UNL A   1      41.819  29.449  28.733  1.00  0.00     0.049 A 
ATOM     36  N   UNL A   1      41.658  26.381  29.091  1.00  0.00    -0.248 NA
ATOM     37  C   UNL A   1      39.631  26.381  28.025  1.00  0.00     0.031 C 
ATOM     38  C   UNL A   1      43.225  29.283  28.446  1.00  0.00     0.029 A 
ATOM     39  N   UNL A   1      41.732  30.792  29.161  1.00  0.00    -0.354 N 
ATOM     40  C   UNL A   1      41.462  25.121  28.554  1.00  0.00     0.074 A 
ATOM     41  C   UNL A   1      40.104  25.129  28.072  1.00  0.00     0.031 C 
ATOM     42  C   UNL A   1      43.889  30.337  28.971  1.00  0.00     0.029 A 
ATOM     43  C   UNL A   1      42.934  31.097  29.781  1.00  0.00     0.049 A 
ATOM     44  H   UNL A   1      40.964  31.397  29.041  1.00  0.00     0.167 HD
ATOM     45  C   UNL A   1      42.560  24.334  28.377  1.00  0.00     0.034 A 
ATOM     46  C   UNL A   1      42.977  31.278  31.138  1.00  0.00     0.034 A 
ATOM     47  C   UNL A   1      43.740  25.054  28.893  1.00  0.00     0.049 A 
ATOM     48  C   UNL A   1      43.806  30.173  31.767  1.00  0.00     0.074 A 
ATOM     49  C   UNL A   1      44.635  25.897  28.254  1.00  0.00     0.029 A 
ATOM     50  N   UNL A   1      43.864  25.300  30.255  1.00  0.00    -0.354 N 
ATOM     51  N   UNL A   1      44.002  29.006  31.220  1.00  0.00    -0.248 NA
ATOM     52  C   UNL A   1      44.427  30.295  33.079  1.00  0.00     0.031 C 
ATOM     53  C   UNL A   1      45.216  26.737  29.243  1.00  0.00     0.029 A 
ATOM     54  C   UNL A   1      44.691  26.394  30.478  1.00  0.00     0.049 A 
ATOM     55  H   UNL A   1      43.428  24.774  30.964  1.00  0.00     0.167 HD
ATOM     56  C   UNL A   1      44.683  28.203  32.085  1.00  0.00     0.074 A 
ATOM     57  C   UNL A   1      44.963  29.072  33.221  1.00  0.00     0.031 C 
ATOM     58  C   UNL A   1      44.917  26.880  31.835  1.00  0.00     0.034 A 
BRANCH  45  59
ATOM     59  C   UNL A   1      42.702  23.126  27.458  1.00  0.00     0.023 A 
ATOM     60  C   UNL A   1      41.843  22.033  27.738  1.00  0.00     0.012 A 
ATOM     61  C   UNL A   1      43.615  22.928  26.392  1.00  0.00     0.148 A 
ATOM     62  C   UNL A   1      41.922  20.807  27.073  1.00  0.00     0.002 A 
ATOM     63  C   UNL A   1      43.699  21.696  25.724  1.00  0.00     0.091 A 
ATOM     64  F   UNL A   1      44.403  23.928  25.993  1.00  0.00    -0.205 F 
ATOM     65  C   UNL A   1      42.861  20.632  26.071  1.00  0.00     0.022 A 
BRANCH  63  66
ATOM     66  S   UNL A   1      44.878  21.365  24.397  1.00  0.00     0.127 S 
ATOM     67  O   UNL A   1      44.556  19.981  24.039  1.00  0.00    -0.237 OA
ATOM     68  O   UNL A   1      44.502  22.354  23.389  1.00  0.00    -0.237 OA
ATOM     69  O   UNL A   1      46.206  21.546  24.971  1.00  0.00    -0.744 OA
ENDBRANCH  63  66
ENDBRANCH  45  59
BRANCH  46  70
ATOM     70  C   UNL A   1      41.703  31.784  31.787  1.00  0.00     0.023 A 
ATOM     71  C   UNL A   1      41.106  32.987  31.324  1.00  0.00     0.012 A 
ATOM     72  C   UNL A   1      40.930  30.946  32.613  1.00  0.00     0.148 A 
ATOM     73  C   UNL A   1      39.754  33.267  31.561  1.00  0.00     0.002 A 
ATOM     74  C   UNL A   1      39.580  31.212  32.820  1.00  0.00     0.091 A 
ATOM     75  F   UNL A   1      41.502  29.870  33.161  1.00  0.00    -0.205 F 
ATOM     76  C   UNL A   1      38.982  32.363  32.284  1.00  0.00     0.022 A 
BRANCH  74  77
ATOM     77  S   UNL A   1      38.504  29.982  33.564  1.00  0.00     0.127 S 
ATOM     78  O   UNL A   1      38.774  30.152  34.988  1.00  0.00    -0.237 OA
ATOM     79  O   UNL A   1      37.189  30.438  33.125  1.00  0.00    -0.237 OA
ATOM     80  O   UNL A   1      38.899  28.704  32.993  1.00  0.00    -0.744 OA
ENDBRANCH  74  77
ENDBRANCH  46  70
BRANCH  58  81
ATOM     81  C   UNL A   1      45.404  25.917  32.883  1.00  0.00     0.023 A 
ATOM     82  C   UNL A   1      46.737  25.468  32.913  1.00  0.00     0.012 A 
ATOM     83  C   UNL A   1      44.575  25.559  33.970  1.00  0.00     0.148 A 
ATOM     84  C   UNL A   1      47.197  24.608  33.911  1.00  0.00     0.002 A 
ATOM     85  C   UNL A   1      45.079  24.824  35.034  1.00  0.00     0.091 A 
ATOM     86  F   UNL A   1      43.283  25.920  33.980  1.00  0.00    -0.205 F 
ATOM     87  C   UNL A   1      46.374  24.302  34.985  1.00  0.00     0.022 A 
BRANCH  85  88
ATOM     88  S   UNL A   1      44.149  24.692  36.564  1.00  0.00     0.127 S 
ATOM     89  O   UNL A   1      45.027  23.863  37.386  1.00  0.00    -0.237 OA
ATOM     90  O   UNL A   1      44.046  26.087  36.994  1.00  0.00    -0.237 OA
ATOM     91  O   UNL A   1      42.876  24.096  36.174  1.00  0.00    -0.744 OA
ENDBRANCH  85  88
ENDBRANCH  58  81
ENDBRANCH  32  33
ENDBRANCH  25  27
ENDBRANCH  24  25
ENDBRANCH  23  24
ENDBRANCH   1  23
TORSDOF 17
ENDMDL
MODEL 3
REMARK VINA RESULT:     -11.9      3.852      9.727
REMARK SMILES Cc1cccc(NC(=O)C[C@@H]2CCCCO2)c1C(=O)OCCOC(=O)c1ccc(-c2c3nc(c(-c4cccc(S(=O)(=O)[O-])c4F)c4ccc([nH]4)c(-c4cccc(S(=O)(=O)[O-])c4F)c4nc(c(-c5cccc(S(=O)(=O)[O-])c5F)c5ccc2[nH]5)C=C4)C=C3)cc1
REMARK SMILES IDX 21 1 20 2 18 3 19 4 17 5 1 6 2 7 3 8 4 9 6 10 5 11 7 12 8 13
REMARK SMILES IDX 9 15 10 16 11 17 12 18 16 19 13 20 15 21 14 22 22 23 23 24
REMARK SMILES IDX 24 25 25 26 26 27 27 28 88 29 28 30 87 31 29 32 30 33 31 34
REMARK SMILES IDX 81 35 32 36 86 37 80 38 82 39 33 40 85 41 79 42 78 43 34 45
REMARK SMILES IDX 66 46 46 47 65 48 47 49 50 50 64 51 83 52 48 53 49 54 63 56
REMARK SMILES IDX 84 57 51 58 35 59 36 60 44 61 37 62 39 63 45 64 38 65 40 66
REMARK SMILES IDX 41 67 42 68 43 69 67 70 68 71 76 72 69 73 71 74 77 75 70 76
REMARK SMILES IDX 72 77 73 78 74 79 75 80 52 81 53 82 61 83 54 84 56 85 62 86
REMARK SMILES IDX 55 87 57 88 58 89 59 90 60 91
REMARK H PARENT 7 14 82 44 50 55
REMARK Flexibility Score: inf
ROOT
ATOM      1  C   UNL A   1      37.483  23.729  25.044  1.00  0.00     0.275 C 
ENDROOT
BRANCH   1   2
ATOM      2  O   UNL A   1      36.100  23.703  24.665  1.00  0.00    -0.458 OA
BRANCH   2   3
ATOM      3  C   UNL A   1      35.687  23.103  23.528  1.00  0.00     0.340 C 
ATOM      4  O   UNL A   1      36.338  22.971  22.510  1.00  0.00    -0.246 OA
BRANCH   3   5
ATOM      5  C   UNL A   1      34.284  22.642  23.741  1.00  0.00     0.086 A 
ATOM      6  C   UNL A   1      35.201  20.537  24.916  1.00  0.00     0.045 C 
ATOM      7  C   UNL A   1      34.076  21.404  24.417  1.00  0.00    -0.034 A 
ATOM      8  C   UNL A   1      32.769  20.968  24.659  1.00  0.00     0.004 A 
ATOM      9  C   UNL A   1      31.698  21.786  24.344  1.00  0.00     0.002 A 
ATOM     10  C   UNL A   1      33.185  23.426  23.299  1.00  0.00     0.056 A 
ATOM     11  C   UNL A   1      31.916  23.019  23.726  1.00  0.00     0.027 A 
BRANCH  10  12
ATOM     12  N   UNL A   1      33.397  24.559  22.460  1.00  0.00    -0.325 N 
ATOM     13  C   UNL A   1      33.595  25.905  22.638  1.00  0.00     0.227 C 
ATOM     14  H   UNL A   1      33.404  24.311  21.508  1.00  0.00     0.169 HD
ATOM     15  O   UNL A   1      33.836  26.562  21.610  1.00  0.00    -0.275 OA
BRANCH  13  16
ATOM     16  C   UNL A   1      33.447  26.656  23.946  1.00  0.00     0.132 C 
BRANCH  16  17
ATOM     17  C   UNL A   1      32.235  27.599  23.992  1.00  0.00     0.127 C 
ATOM     18  C   UNL A   1      32.632  29.047  24.324  1.00  0.00     0.033 C 
ATOM     19  O   UNL A   1      31.193  27.216  24.899  1.00  0.00    -0.378 OA
ATOM     20  C   UNL A   1      33.091  29.195  25.775  1.00  0.00     0.005 C 
ATOM     21  C   UNL A   1      31.580  27.210  26.265  1.00  0.00     0.160 C 
ATOM     22  C   UNL A   1      32.107  28.550  26.746  1.00  0.00     0.029 C 
ENDBRANCH  16  17
ENDBRANCH  13  16
ENDBRANCH  10  12
ENDBRANCH   3   5
ENDBRANCH   2   3
ENDBRANCH   1   2
BRANCH   1  23
ATOM     23  C   UNL A   1      38.141  22.529  25.760  1.00  0.00     0.275 C 
BRANCH  23  24
ATOM     24  O   UNL A   1      39.245  22.579  26.703  1.00  0.00    -0.458 OA
BRANCH  24  25
ATOM     25  C   UNL A   1      40.435  23.212  26.534  1.00  0.00     0.338 C 
ATOM     26  O   UNL A   1      41.432  22.685  26.114  1.00  0.00    -0.246 OA
BRANCH  25  27
ATOM     27  C   UNL A   1      40.437  24.554  27.123  1.00  0.00     0.060 A 
ATOM     28  C   UNL A   1      40.954  25.632  26.395  1.00  0.00     0.016 A 
ATOM     29  C   UNL A   1      39.806  24.719  28.352  1.00  0.00     0.016 A 
ATOM     30  C   UNL A   1      40.734  26.922  26.841  1.00  0.00     0.010 A 
ATOM     31  C   UNL A   1      39.481  25.983  28.741  1.00  0.00     0.010 A 
ATOM     32  C   UNL A   1      40.011  27.066  28.020  1.00  0.00    -0.014 A 
BRANCH  32  33
ATOM     33  C   UNL A   1      40.140  28.241  28.852  1.00  0.00     0.031 A 
ATOM     34  C   UNL A   1      39.192  29.344  28.705  1.00  0.00     0.074 A 
ATOM     35  C   UNL A   1      41.051  27.998  29.825  1.00  0.00     0.049 A 
ATOM     36  N   UNL A   1      39.416  30.531  29.133  1.00  0.00    -0.248 NA
ATOM     37  C   UNL A   1      37.925  29.231  27.981  1.00  0.00     0.031 C 
ATOM     38  C   UNL A   1      41.251  28.558  31.143  1.00  0.00     0.029 A 
ATOM     39  N   UNL A   1      42.129  27.095  29.691  1.00  0.00    -0.354 N 
ATOM     40  C   UNL A   1      38.208  31.203  29.097  1.00  0.00     0.074 A 
ATOM     41  C   UNL A   1      37.380  30.434  28.204  1.00  0.00     0.031 C 
ATOM     42  C   UNL A   1      42.496  28.228  31.555  1.00  0.00     0.029 A 
ATOM     43  C   UNL A   1      43.187  27.618  30.417  1.00  0.00     0.049 A 
ATOM     44  H   UNL A   1      42.129  26.254  29.178  1.00  0.00     0.167 HD
ATOM     45  C   UNL A   1      38.006  32.184  30.022  1.00  0.00     0.034 A 
ATOM     46  C   UNL A   1      44.284  28.118  29.766  1.00  0.00     0.034 A 
ATOM     47  C   UNL A   1      39.230  32.322  30.834  1.00  0.00     0.049 A 
ATOM     48  C   UNL A   1      44.372  29.615  30.002  1.00  0.00     0.074 A 
ATOM     49  C   UNL A   1      39.597  31.716  32.025  1.00  0.00     0.029 A 
ATOM     50  N   UNL A   1      40.398  32.804  30.256  1.00  0.00    -0.354 N 
ATOM     51  N   UNL A   1      43.353  30.365  30.313  1.00  0.00    -0.248 NA
ATOM     52  C   UNL A   1      45.609  30.370  29.855  1.00  0.00     0.031 C 
ATOM     53  C   UNL A   1      41.016  31.737  32.099  1.00  0.00     0.029 A 
ATOM     54  C   UNL A   1      41.508  32.369  30.969  1.00  0.00     0.049 A 
ATOM     55  H   UNL A   1      40.435  33.373  29.454  1.00  0.00     0.167 HD
ATOM     56  C   UNL A   1      43.738  31.672  30.339  1.00  0.00     0.074 A 
ATOM     57  C   UNL A   1      45.172  31.619  30.086  1.00  0.00     0.031 C 
ATOM     58  C   UNL A   1      42.853  32.699  30.508  1.00  0.00     0.034 A 
BRANCH  45  59
ATOM     59  C   UNL A   1      36.675  32.775  30.477  1.00  0.00     0.023 A 
ATOM     60  C   UNL A   1      36.266  32.432  31.790  1.00  0.00     0.012 A 
ATOM     61  C   UNL A   1      35.768  33.579  29.744  1.00  0.00     0.148 A 
ATOM     62  C   UNL A   1      35.023  32.788  32.322  1.00  0.00     0.002 A 
ATOM     63  C   UNL A   1      34.518  33.935  30.274  1.00  0.00     0.091 A 
ATOM     64  F   UNL A   1      36.102  34.028  28.533  1.00  0.00    -0.205 F 
ATOM     65  C   UNL A   1      34.141  33.531  31.558  1.00  0.00     0.022 A 
BRANCH  63  66
ATOM     66  S   UNL A   1      33.297  34.910  29.368  1.00  0.00     0.127 S 
ATOM     67  O   UNL A   1      32.333  35.246  30.418  1.00  0.00    -0.237 OA
ATOM     68  O   UNL A   1      34.091  36.042  28.892  1.00  0.00    -0.237 OA
ATOM     69  O   UNL A   1      32.772  34.043  28.321  1.00  0.00    -0.744 OA
ENDBRANCH  63  66
ENDBRANCH  45  59
BRANCH  46  70
ATOM     70  C   UNL A   1      44.593  27.508  28.411  1.00  0.00     0.023 A 
ATOM     71  C   UNL A   1      44.264  28.220  27.227  1.00  0.00     0.012 A 
ATOM     72  C   UNL A   1      45.469  26.413  28.294  1.00  0.00     0.148 A 
ATOM     73  C   UNL A   1      44.893  27.935  26.007  1.00  0.00     0.002 A 
ATOM     74  C   UNL A   1      46.116  26.154  27.089  1.00  0.00     0.091 A 
ATOM     75  F   UNL A   1      45.703  25.652  29.367  1.00  0.00    -0.205 F 
ATOM     76  C   UNL A   1      45.844  26.920  25.946  1.00  0.00     0.022 A 
BRANCH  74  77
ATOM     77  S   UNL A   1      47.490  24.999  27.012  1.00  0.00     0.127 S 
ATOM     78  O   UNL A   1      48.138  25.369  25.758  1.00  0.00    -0.237 OA
ATOM     79  O   UNL A   1      48.234  25.349  28.219  1.00  0.00    -0.237 OA
ATOM     80  O   UNL A   1      46.900  23.670  27.054  1.00  0.00    -0.744 OA
ENDBRANCH  74  77
ENDBRANCH  46  70
BRANCH  58  81
ATOM     81  C   UNL A   1      43.203  34.140  30.255  1.00  0.00     0.023 A 
ATOM     82  C   UNL A   1      43.638  34.989  31.290  1.00  0.00     0.012 A 
ATOM     83  C   UNL A   1      43.263  34.644  28.936  1.00  0.00     0.148 A 
ATOM     84  C   UNL A   1      44.003  36.313  31.045  1.00  0.00     0.002 A 
ATOM     85  C   UNL A   1      43.765  35.912  28.684  1.00  0.00     0.091 A 
ATOM     86  F   UNL A   1      42.823  33.899  27.910  1.00  0.00    -0.205 F 
ATOM     87  C   UNL A   1      44.087  36.770  29.738  1.00  0.00     0.022 A 
BRANCH  85  88
ATOM     88  S   UNL A   1      44.185  36.403  27.008  1.00  0.00     0.127 S 
ATOM     89  O   UNL A   1      42.911  36.916  26.510  1.00  0.00    -0.237 OA
ATOM     90  O   UNL A   1      45.212  37.424  27.225  1.00  0.00    -0.237 OA
ATOM     91  O   UNL A   1      44.683  35.186  26.379  1.00  0.00    -0.744 OA
ENDBRANCH  85  88
ENDBRANCH  58  81
ENDBRANCH  32  33
ENDBRANCH  25  27
ENDBRANCH  24  25
ENDBRANCH  23  24
ENDBRANCH   1  23
TORSDOF 17
ENDMDL
