MODEL 1
REMARK VINA RESULT:     -13.2      0.000      0.000
REMARK SMILES Cc1ccccc1C[N@@H+]1[C@@H](C(=O)OCCOC(=O)c2ccc(-c3c4nc(c(-c5cccc(S(=O)(=O)[O-])c5F)c5ccc([nH]5)c(-c5cccc(S(=O)(=O)[O-])c5F)c5nc(c(-c6cccc(S(=O)(=O)[O-])c6F)c6ccc3[nH]6)C=C5)C=C4)cc2)C[C@H]2CCCC[C@@H]21
REMARK SMILES IDX 15 1 14 2 13 3 11 4 12 5 10 6 9 7 88 8 82 10 83 11 87 12
REMARK SMILES IDX 84 13 86 14 85 15 8 16 7 17 1 18 2 19 3 20 4 21 6 22 5 23
REMARK SMILES IDX 16 24 17 25 18 26 19 27 20 28 81 29 21 30 80 31 22 32 23 33
REMARK SMILES IDX 24 34 74 35 25 36 79 37 73 38 75 39 26 40 78 41 72 42 71 43
REMARK SMILES IDX 27 45 59 46 39 47 58 48 40 49 43 50 57 51 76 52 41 53 42 54
REMARK SMILES IDX 56 56 77 57 44 58 28 59 29 60 37 61 30 62 32 63 38 64 31 65
REMARK SMILES IDX 33 66 34 67 35 68 36 69 60 70 61 71 69 72 62 73 64 74 70 75
REMARK SMILES IDX 63 76 65 77 66 78 67 79 68 80 45 81 46 82 54 83 47 84 49 85
REMARK SMILES IDX 55 86 48 87 50 88 51 89 52 90 53 91
REMARK H PARENT 9 9 75 44 43 55
REMARK Flexibility Score: inf
ROOT
ATOM      1  C   UNL A   1      33.946  31.366  27.630  1.00  0.00     0.275 C 
ENDROOT
BRANCH   1   2
ATOM      2  C   UNL A   1      32.963  30.405  26.918  1.00  0.00     0.274 C 
BRANCH   2   3
ATOM      3  O   UNL A   1      33.237  29.026  27.188  1.00  0.00    -0.458 OA
BRANCH   3   4
ATOM      4  C   UNL A   1      32.203  28.170  27.034  1.00  0.00     0.365 C 
ATOM      5  O   UNL A   1      31.489  27.818  27.968  1.00  0.00    -0.245 OA
BRANCH   4   6
ATOM      6  C   UNL A   1      32.186  27.581  25.599  1.00  0.00     0.296 C 
ATOM      7  N   UNL A   1      30.957  26.788  25.333  1.00  0.00    -0.317 N 
ATOM      8  C   UNL A   1      31.259  25.534  26.015  1.00  0.00     0.188 C 
ATOM      9  H   UNL A   1      30.098  27.206  25.692  1.00  0.00     0.349 HD
ATOM     10  C   UNL A   1      33.378  26.619  25.554  1.00  0.00     0.087 C 
ATOM     11  C   UNL A   1      32.723  25.250  25.662  1.00  0.00     0.054 C 
ATOM     12  C   UNL A   1      30.412  24.283  25.895  1.00  0.00     0.065 C 
ATOM     13  C   UNL A   1      33.313  24.295  26.679  1.00  0.00     0.010 C 
ATOM     14  C   UNL A   1      30.997  23.199  26.815  1.00  0.00     0.006 C 
ATOM     15  C   UNL A   1      32.510  22.991  26.628  1.00  0.00     0.001 C 
BRANCH   7  16
ATOM     16  C   UNL A   1      30.511  26.741  23.907  1.00  0.00     0.300 C 
BRANCH  16  17
ATOM     17  C   UNL A   1      29.404  27.678  23.426  1.00  0.00     0.009 A 
ATOM     18  C   UNL A   1      30.925  29.318  22.128  1.00  0.00     0.045 C 
ATOM     19  C   UNL A   1      29.628  28.918  22.783  1.00  0.00    -0.042 A 
ATOM     20  C   UNL A   1      28.570  29.844  22.682  1.00  0.00     0.004 A 
ATOM     21  C   UNL A   1      27.279  29.510  23.077  1.00  0.00     0.000 A 
ATOM     22  C   UNL A   1      28.066  27.309  23.659  1.00  0.00     0.010 A 
ATOM     23  C   UNL A   1      27.016  28.219  23.506  1.00  0.00     0.001 A 
ENDBRANCH  16  17
ENDBRANCH   7  16
ENDBRANCH   4   6
ENDBRANCH   3   4
ENDBRANCH   2   3
ENDBRANCH   1   2
BRANCH   1  24
ATOM     24  O   UNL A   1      35.397  31.143  27.633  1.00  0.00    -0.458 OA
BRANCH  24  25
ATOM     25  C   UNL A   1      36.138  30.890  28.759  1.00  0.00     0.338 C 
ATOM     26  O   UNL A   1      36.099  31.561  29.762  1.00  0.00    -0.246 OA
BRANCH  25  27
ATOM     27  C   UNL A   1      37.084  29.769  28.540  1.00  0.00     0.060 A 
ATOM     28  C   UNL A   1      37.921  29.690  27.411  1.00  0.00     0.016 A 
ATOM     29  C   UNL A   1      37.307  28.955  29.632  1.00  0.00     0.016 A 
ATOM     30  C   UNL A   1      39.118  28.960  27.488  1.00  0.00     0.010 A 
ATOM     31  C   UNL A   1      38.572  28.474  29.800  1.00  0.00     0.010 A 
ATOM     32  C   UNL A   1      39.479  28.425  28.723  1.00  0.00    -0.014 A 
BRANCH  32  33
ATOM     33  C   UNL A   1      40.517  27.434  28.981  1.00  0.00     0.031 A 
ATOM     34  C   UNL A   1      40.482  26.011  28.634  1.00  0.00     0.074 A 
ATOM     35  C   UNL A   1      41.699  28.072  29.146  1.00  0.00     0.049 A 
ATOM     36  N   UNL A   1      41.414  25.208  29.018  1.00  0.00    -0.248 NA
ATOM     37  C   UNL A   1      39.465  25.363  27.820  1.00  0.00     0.031 C 
ATOM     38  C   UNL A   1      43.057  27.674  28.858  1.00  0.00     0.029 A 
ATOM     39  N   UNL A   1      41.831  29.383  29.610  1.00  0.00    -0.354 N 
ATOM     40  C   UNL A   1      41.306  24.049  28.282  1.00  0.00     0.074 A 
ATOM     41  C   UNL A   1      40.013  24.149  27.641  1.00  0.00     0.031 C 
ATOM     42  C   UNL A   1      43.882  28.598  29.390  1.00  0.00     0.029 A 
ATOM     43  C   UNL A   1      43.073  29.507  30.198  1.00  0.00     0.049 A 
ATOM     44  H   UNL A   1      41.155  30.094  29.530  1.00  0.00     0.167 HD
ATOM     45  C   UNL A   1      42.400  23.233  28.195  1.00  0.00     0.034 A 
ATOM     46  C   UNL A   1      43.126  29.744  31.542  1.00  0.00     0.034 A 
ATOM     47  C   UNL A   1      43.553  23.837  28.907  1.00  0.00     0.049 A 
ATOM     48  C   UNL A   1      43.684  28.516  32.250  1.00  0.00     0.074 A 
ATOM     49  C   UNL A   1      44.700  24.496  28.489  1.00  0.00     0.029 A 
ATOM     50  N   UNL A   1      43.478  24.052  30.277  1.00  0.00    -0.354 N 
ATOM     51  N   UNL A   1      44.179  27.465  31.650  1.00  0.00    -0.248 NA
ATOM     52  C   UNL A   1      43.616  28.339  33.694  1.00  0.00     0.031 C 
ATOM     53  C   UNL A   1      45.290  25.136  29.622  1.00  0.00     0.029 A 
ATOM     54  C   UNL A   1      44.525  24.843  30.737  1.00  0.00     0.049 A 
ATOM     55  H   UNL A   1      42.768  23.689  30.853  1.00  0.00     0.167 HD
ATOM     56  C   UNL A   1      44.295  26.432  32.541  1.00  0.00     0.074 A 
ATOM     57  C   UNL A   1      43.952  27.045  33.817  1.00  0.00     0.031 C 
ATOM     58  C   UNL A   1      44.589  25.144  32.166  1.00  0.00     0.034 A 
BRANCH  45  59
ATOM     59  C   UNL A   1      42.574  22.020  27.279  1.00  0.00     0.023 A 
ATOM     60  C   UNL A   1      41.708  20.919  27.499  1.00  0.00     0.012 A 
ATOM     61  C   UNL A   1      43.506  21.857  26.226  1.00  0.00     0.148 A 
ATOM     62  C   UNL A   1      41.812  19.710  26.802  1.00  0.00     0.002 A 
ATOM     63  C   UNL A   1      43.637  20.633  25.549  1.00  0.00     0.091 A 
ATOM     64  F   UNL A   1      44.235  22.899  25.819  1.00  0.00    -0.205 F 
ATOM     65  C   UNL A   1      42.795  19.556  25.842  1.00  0.00     0.022 A 
BRANCH  63  66
ATOM     66  S   UNL A   1      44.902  20.322  24.299  1.00  0.00     0.127 S 
ATOM     67  O   UNL A   1      46.133  20.644  25.025  1.00  0.00    -0.237 OA
ATOM     68  O   UNL A   1      44.726  18.899  24.014  1.00  0.00    -0.237 OA
ATOM     69  O   UNL A   1      44.610  21.218  23.188  1.00  0.00    -0.744 OA
ENDBRANCH  63  66
ENDBRANCH  45  59
BRANCH  46  70
ATOM     70  C   UNL A   1      41.962  30.609  32.021  1.00  0.00     0.023 A 
ATOM     71  C   UNL A   1      41.773  31.859  31.364  1.00  0.00     0.012 A 
ATOM     72  C   UNL A   1      40.862  30.087  32.733  1.00  0.00     0.148 A 
ATOM     73  C   UNL A   1      40.519  32.483  31.308  1.00  0.00     0.002 A 
ATOM     74  C   UNL A   1      39.618  30.728  32.688  1.00  0.00     0.091 A 
ATOM     75  F   UNL A   1      40.993  28.926  33.383  1.00  0.00    -0.205 F 
ATOM     76  C   UNL A   1      39.435  31.906  31.954  1.00  0.00     0.022 A 
BRANCH  74  77
ATOM     77  S   UNL A   1      38.173  29.958  33.441  1.00  0.00     0.127 S 
ATOM     78  O   UNL A   1      38.276  28.566  33.000  1.00  0.00    -0.237 OA
ATOM     79  O   UNL A   1      38.385  30.138  34.871  1.00  0.00    -0.237 OA
ATOM     80  O   UNL A   1      37.085  30.719  32.836  1.00  0.00    -0.744 OA
ENDBRANCH  74  77
ENDBRANCH  46  70
BRANCH  58  81
ATOM     81  C   UNL A   1      44.882  24.013  33.145  1.00  0.00     0.023 A 
ATOM     82  C   UNL A   1      43.888  23.099  33.541  1.00  0.00     0.012 A 
ATOM     83  C   UNL A   1      46.138  23.876  33.793  1.00  0.00     0.148 A 
ATOM     84  C   UNL A   1      44.159  22.011  34.376  1.00  0.00     0.002 A 
ATOM     85  C   UNL A   1      46.408  22.806  34.640  1.00  0.00     0.091 A 
ATOM     86  F   UNL A   1      47.069  24.828  33.668  1.00  0.00    -0.205 F 
ATOM     87  C   UNL A   1      45.430  21.849  34.905  1.00  0.00     0.022 A 
BRANCH  85  88
ATOM     88  S   UNL A   1      48.002  22.613  35.446  1.00  0.00     0.127 S 
ATOM     89  O   UNL A   1      48.915  22.680  34.305  1.00  0.00    -0.237 OA
ATOM     90  O   UNL A   1      48.040  23.780  36.328  1.00  0.00    -0.237 OA
ATOM     91  O   UNL A   1      47.950  21.335  36.140  1.00  0.00    -0.744 OA
ENDBRANCH  85  88
ENDBRANCH  58  81
ENDBRANCH  32  33
ENDBRANCH  25  27
ENDBRANCH  24  25
ENDBRANCH   1  24
TORSDOF 16
ENDMDL
MODEL 2
REMARK VINA RESULT:     -13.0      0.758      2.820
REMARK SMILES Cc1ccccc1C[N@@H+]1[C@@H](C(=O)OCCOC(=O)c2ccc(-c3c4nc(c(-c5cccc(S(=O)(=O)[O-])c5F)c5ccc([nH]5)c(-c5cccc(S(=O)(=O)[O-])c5F)c5nc(c(-c6cccc(S(=O)(=O)[O-])c6F)c6ccc3[nH]6)C=C5)C=C4)cc2)C[C@H]2CCCC[C@@H]21
REMARK SMILES IDX 15 1 14 2 13 3 11 4 12 5 10 6 9 7 88 8 82 10 83 11 87 12
REMARK SMILES IDX 84 13 86 14 85 15 8 16 7 17 1 18 2 19 3 20 4 21 6 22 5 23
REMARK SMILES IDX 16 24 17 25 18 26 19 27 20 28 81 29 21 30 80 31 22 32 23 33
REMARK SMILES IDX 24 34 74 35 25 36 79 37 73 38 75 39 26 40 78 41 72 42 71 43
REMARK SMILES IDX 27 45 59 46 39 47 58 48 40 49 43 50 57 51 76 52 41 53 42 54
REMARK SMILES IDX 56 56 77 57 44 58 28 59 29 60 37 61 30 62 32 63 38 64 31 65
REMARK SMILES IDX 33 66 34 67 35 68 36 69 60 70 61 71 69 72 62 73 64 74 70 75
REMARK SMILES IDX 63 76 65 77 66 78 67 79 68 80 45 81 46 82 54 83 47 84 49 85
REMARK SMILES IDX 55 86 48 87 50 88 51 89 52 90 53 91
REMARK H PARENT 9 9 75 44 43 55
REMARK Flexibility Score: inf
ROOT
ATOM      1  C   UNL A   1      34.112  30.895  27.354  1.00  0.00     0.275 C 
ENDROOT
BRANCH   1   2
ATOM      2  C   UNL A   1      32.876  30.033  26.999  1.00  0.00     0.274 C 
BRANCH   2   3
ATOM      3  O   UNL A   1      33.123  28.628  27.118  1.00  0.00    -0.458 OA
BRANCH   3   4
ATOM      4  C   UNL A   1      32.033  27.834  27.197  1.00  0.00     0.365 C 
ATOM      5  O   UNL A   1      31.164  27.984  28.051  1.00  0.00    -0.245 OA
BRANCH   4   6
ATOM      6  C   UNL A   1      32.147  26.642  26.211  1.00  0.00     0.296 C 
ATOM      7  N   UNL A   1      32.988  26.969  25.030  1.00  0.00    -0.317 N 
ATOM      8  C   UNL A   1      32.068  27.758  24.219  1.00  0.00     0.188 C 
ATOM      9  H   UNL A   1      33.835  27.497  25.247  1.00  0.00     0.349 HD
ATOM     10  C   UNL A   1      30.718  26.406  25.712  1.00  0.00     0.087 C 
ATOM     11  C   UNL A   1      30.735  27.007  24.315  1.00  0.00     0.054 C 
ATOM     12  C   UNL A   1      32.354  28.189  22.794  1.00  0.00     0.065 C 
ATOM     13  C   UNL A   1      29.598  27.946  23.968  1.00  0.00     0.010 C 
ATOM     14  C   UNL A   1      31.193  29.066  22.300  1.00  0.00     0.006 C 
ATOM     15  C   UNL A   1      29.809  28.437  22.532  1.00  0.00     0.001 C 
BRANCH   7  16
ATOM     16  C   UNL A   1      33.696  25.815  24.397  1.00  0.00     0.300 C 
BRANCH  16  17
ATOM     17  C   UNL A   1      33.613  24.429  25.035  1.00  0.00     0.009 A 
ATOM     18  C   UNL A   1      31.757  23.490  23.498  1.00  0.00     0.045 C 
ATOM     19  C   UNL A   1      32.619  23.469  24.734  1.00  0.00    -0.042 A 
ATOM     20  C   UNL A   1      32.433  22.373  25.602  1.00  0.00     0.004 A 
ATOM     21  C   UNL A   1      33.295  22.143  26.669  1.00  0.00     0.000 A 
ATOM     22  C   UNL A   1      34.564  24.083  26.013  1.00  0.00     0.010 A 
ATOM     23  C   UNL A   1      34.400  22.964  26.834  1.00  0.00     0.001 A 
ENDBRANCH  16  17
ENDBRANCH   7  16
ENDBRANCH   4   6
ENDBRANCH   3   4
ENDBRANCH   2   3
ENDBRANCH   1   2
BRANCH   1  24
ATOM     24  O   UNL A   1      35.015  30.554  28.458  1.00  0.00    -0.458 OA
BRANCH  24  25
ATOM     25  C   UNL A   1      36.322  30.960  28.542  1.00  0.00     0.338 C 
ATOM     26  O   UNL A   1      36.670  32.113  28.641  1.00  0.00    -0.246 OA
BRANCH  25  27
ATOM     27  C   UNL A   1      37.254  29.819  28.364  1.00  0.00     0.060 A 
ATOM     28  C   UNL A   1      38.101  29.697  27.247  1.00  0.00     0.016 A 
ATOM     29  C   UNL A   1      37.453  29.033  29.481  1.00  0.00     0.016 A 
ATOM     30  C   UNL A   1      39.286  28.952  27.357  1.00  0.00     0.010 A 
ATOM     31  C   UNL A   1      38.709  28.537  29.676  1.00  0.00     0.010 A 
ATOM     32  C   UNL A   1      39.626  28.446  28.610  1.00  0.00    -0.014 A 
BRANCH  32  33
ATOM     33  C   UNL A   1      40.646  27.446  28.907  1.00  0.00     0.031 A 
ATOM     34  C   UNL A   1      40.609  26.022  28.567  1.00  0.00     0.074 A 
ATOM     35  C   UNL A   1      41.828  28.075  29.104  1.00  0.00     0.049 A 
ATOM     36  N   UNL A   1      41.520  25.212  28.985  1.00  0.00    -0.248 NA
ATOM     37  C   UNL A   1      39.612  25.378  27.725  1.00  0.00     0.031 C 
ATOM     38  C   UNL A   1      43.191  27.662  28.861  1.00  0.00     0.029 A 
ATOM     39  N   UNL A   1      41.958  29.387  29.564  1.00  0.00    -0.354 N 
ATOM     40  C   UNL A   1      41.425  24.050  28.253  1.00  0.00     0.074 A 
ATOM     41  C   UNL A   1      40.153  24.158  27.571  1.00  0.00     0.031 C 
ATOM     42  C   UNL A   1      44.007  28.582  29.413  1.00  0.00     0.029 A 
ATOM     43  C   UNL A   1      43.183  29.503  30.190  1.00  0.00     0.049 A 
ATOM     44  H   UNL A   1      41.291  30.104  29.459  1.00  0.00     0.167 HD
ATOM     45  C   UNL A   1      42.513  23.224  28.205  1.00  0.00     0.034 A 
ATOM     46  C   UNL A   1      43.196  29.749  31.534  1.00  0.00     0.034 A 
ATOM     47  C   UNL A   1      43.649  23.821  28.949  1.00  0.00     0.049 A 
ATOM     48  C   UNL A   1      43.720  28.521  32.266  1.00  0.00     0.074 A 
ATOM     49  C   UNL A   1      44.814  24.467  28.563  1.00  0.00     0.029 A 
ATOM     50  N   UNL A   1      43.533  24.046  30.314  1.00  0.00    -0.354 N 
ATOM     51  N   UNL A   1      44.224  27.461  31.688  1.00  0.00    -0.248 NA
ATOM     52  C   UNL A   1      43.605  28.353  33.708  1.00  0.00     0.031 C 
ATOM     53  C   UNL A   1      45.375  25.109  29.709  1.00  0.00     0.029 A 
ATOM     54  C   UNL A   1      44.573  24.830  30.801  1.00  0.00     0.049 A 
ATOM     55  H   UNL A   1      42.802  23.693  30.870  1.00  0.00     0.167 HD
ATOM     56  C   UNL A   1      44.302  26.433  32.588  1.00  0.00     0.074 A 
ATOM     57  C   UNL A   1      43.925  27.057  33.849  1.00  0.00     0.031 C 
ATOM     58  C   UNL A   1      44.595  25.139  32.231  1.00  0.00     0.034 A 
BRANCH  45  59
ATOM     59  C   UNL A   1      42.704  22.003  27.302  1.00  0.00     0.023 A 
ATOM     60  C   UNL A   1      41.866  20.886  27.547  1.00  0.00     0.012 A 
ATOM     61  C   UNL A   1      43.626  21.848  26.240  1.00  0.00     0.148 A 
ATOM     62  C   UNL A   1      41.989  19.671  26.863  1.00  0.00     0.002 A 
ATOM     63  C   UNL A   1      43.778  20.619  25.577  1.00  0.00     0.091 A 
ATOM     64  F   UNL A   1      44.326  22.901  25.811  1.00  0.00    -0.205 F 
ATOM     65  C   UNL A   1      42.964  19.527  25.894  1.00  0.00     0.022 A 
BRANCH  63  66
ATOM     66  S   UNL A   1      45.034  20.321  24.315  1.00  0.00     0.127 S 
ATOM     67  O   UNL A   1      44.663  21.291  23.281  1.00  0.00    -0.237 OA
ATOM     68  O   UNL A   1      46.275  20.637  25.020  1.00  0.00    -0.237 OA
ATOM     69  O   UNL A   1      44.888  18.929  23.910  1.00  0.00    -0.744 OA
ENDBRANCH  63  66
ENDBRANCH  45  59
BRANCH  46  70
ATOM     70  C   UNL A   1      42.025  30.627  31.971  1.00  0.00     0.023 A 
ATOM     71  C   UNL A   1      41.823  31.839  31.249  1.00  0.00     0.012 A 
ATOM     72  C   UNL A   1      40.933  30.135  32.714  1.00  0.00     0.148 A 
ATOM     73  C   UNL A   1      40.563  32.448  31.164  1.00  0.00     0.002 A 
ATOM     74  C   UNL A   1      39.683  30.761  32.640  1.00  0.00     0.091 A 
ATOM     75  F   UNL A   1      41.077  29.011  33.424  1.00  0.00    -0.205 F 
ATOM     76  C   UNL A   1      39.487  31.896  31.846  1.00  0.00     0.022 A 
BRANCH  74  77
ATOM     77  S   UNL A   1      38.249  30.019  33.439  1.00  0.00     0.127 S 
ATOM     78  O   UNL A   1      38.286  28.635  32.963  1.00  0.00    -0.237 OA
ATOM     79  O   UNL A   1      38.528  30.158  34.862  1.00  0.00    -0.237 OA
ATOM     80  O   UNL A   1      37.161  30.829  32.900  1.00  0.00    -0.744 OA
ENDBRANCH  74  77
ENDBRANCH  46  70
BRANCH  58  81
ATOM     81  C   UNL A   1      44.846  24.012  33.225  1.00  0.00     0.023 A 
ATOM     82  C   UNL A   1      43.820  23.141  33.634  1.00  0.00     0.012 A 
ATOM     83  C   UNL A   1      46.098  23.838  33.874  1.00  0.00     0.148 A 
ATOM     84  C   UNL A   1      44.051  22.056  34.484  1.00  0.00     0.002 A 
ATOM     85  C   UNL A   1      46.328  22.770  34.735  1.00  0.00     0.091 A 
ATOM     86  F   UNL A   1      47.064  24.752  33.735  1.00  0.00    -0.205 F 
ATOM     87  C   UNL A   1      45.315  21.854  35.014  1.00  0.00     0.022 A 
BRANCH  85  88
ATOM     88  S   UNL A   1      47.915  22.529  35.544  1.00  0.00     0.127 S 
ATOM     89  O   UNL A   1      47.669  21.307  36.310  1.00  0.00    -0.237 OA
ATOM     90  O   UNL A   1      48.816  22.362  34.402  1.00  0.00    -0.237 OA
ATOM     91  O   UNL A   1      48.154  23.731  36.329  1.00  0.00    -0.744 OA
ENDBRANCH  85  88
ENDBRANCH  58  81
ENDBRANCH  32  33
ENDBRANCH  25  27
ENDBRANCH  24  25
ENDBRANCH   1  24
TORSDOF 16
ENDMDL
MODEL 3
REMARK VINA RESULT:     -12.6      1.673      2.138
REMARK SMILES Cc1ccccc1C[N@@H+]1[C@@H](C(=O)OCCOC(=O)c2ccc(-c3c4nc(c(-c5cccc(S(=O)(=O)[O-])c5F)c5ccc([nH]5)c(-c5cccc(S(=O)(=O)[O-])c5F)c5nc(c(-c6cccc(S(=O)(=O)[O-])c6F)c6ccc3[nH]6)C=C5)C=C4)cc2)C[C@H]2CCCC[C@@H]21
REMARK SMILES IDX 15 1 14 2 13 3 11 4 12 5 10 6 9 7 88 8 82 10 83 11 87 12
REMARK SMILES IDX 84 13 86 14 85 15 8 16 7 17 1 18 2 19 3 20 4 21 6 22 5 23
REMARK SMILES IDX 16 24 17 25 18 26 19 27 20 28 81 29 21 30 80 31 22 32 23 33
REMARK SMILES IDX 24 34 74 35 25 36 79 37 73 38 75 39 26 40 78 41 72 42 71 43
REMARK SMILES IDX 27 45 59 46 39 47 58 48 40 49 43 50 57 51 76 52 41 53 42 54
REMARK SMILES IDX 56 56 77 57 44 58 28 59 29 60 37 61 30 62 32 63 38 64 31 65
REMARK SMILES IDX 33 66 34 67 35 68 36 69 60 70 61 71 69 72 62 73 64 74 70 75
REMARK SMILES IDX 63 76 65 77 66 78 67 79 68 80 45 81 46 82 54 83 47 84 49 85
REMARK SMILES IDX 55 86 48 87 50 88 51 89 52 90 53 91
REMARK H PARENT 9 9 75 44 43 55
REMARK Flexibility Score: inf
ROOT
ATOM      1  C   UNL A   1      33.427  30.799  27.284  1.00  0.00     0.275 C 
ENDROOT
BRANCH   1   2
ATOM      2  C   UNL A   1      33.328  29.279  27.006  1.00  0.00     0.274 C 
BRANCH   2   3
ATOM      3  O   UNL A   1      33.740  28.926  25.681  1.00  0.00    -0.458 OA
BRANCH   3   4
ATOM      4  C   UNL A   1      33.471  27.661  25.289  1.00  0.00     0.365 C 
ATOM      5  O   UNL A   1      33.741  26.682  25.979  1.00  0.00    -0.245 OA
BRANCH   4   6
ATOM      6  C   UNL A   1      32.974  27.635  23.821  1.00  0.00     0.296 C 
ATOM      7  N   UNL A   1      31.643  26.985  23.690  1.00  0.00    -0.317 N 
ATOM      8  C   UNL A   1      31.994  25.571  23.764  1.00  0.00     0.188 C 
ATOM      9  H   UNL A   1      30.976  27.238  24.420  1.00  0.00     0.349 HD
ATOM     10  C   UNL A   1      33.990  26.764  23.076  1.00  0.00     0.087 C 
ATOM     11  C   UNL A   1      33.253  25.445  22.898  1.00  0.00     0.054 C 
ATOM     12  C   UNL A   1      31.021  24.443  23.485  1.00  0.00     0.065 C 
ATOM     13  C   UNL A   1      34.008  24.189  23.283  1.00  0.00     0.010 C 
ATOM     14  C   UNL A   1      31.730  23.104  23.740  1.00  0.00     0.006 C 
ATOM     15  C   UNL A   1      33.091  22.988  23.033  1.00  0.00     0.001 C 
BRANCH   7  16
ATOM     16  C   UNL A   1      30.799  27.458  22.552  1.00  0.00     0.300 C 
BRANCH  16  17
ATOM     17  C   UNL A   1      29.643  28.423  22.811  1.00  0.00     0.009 A 
ATOM     18  C   UNL A   1      28.032  26.702  23.876  1.00  0.00     0.045 C 
ATOM     19  C   UNL A   1      28.353  28.030  23.240  1.00  0.00    -0.042 A 
ATOM     20  C   UNL A   1      27.282  28.939  23.128  1.00  0.00     0.004 A 
ATOM     21  C   UNL A   1      27.493  30.258  22.736  1.00  0.00     0.000 A 
ATOM     22  C   UNL A   1      29.852  29.796  22.582  1.00  0.00     0.010 A 
ATOM     23  C   UNL A   1      28.789  30.701  22.526  1.00  0.00     0.001 A 
ENDBRANCH  16  17
ENDBRANCH   7  16
ENDBRANCH   4   6
ENDBRANCH   3   4
ENDBRANCH   2   3
ENDBRANCH   1   2
BRANCH   1  24
ATOM     24  O   UNL A   1      34.665  31.432  27.751  1.00  0.00    -0.458 OA
BRANCH  24  25
ATOM     25  C   UNL A   1      35.309  31.104  28.916  1.00  0.00     0.338 C 
ATOM     26  O   UNL A   1      35.112  31.646  29.977  1.00  0.00    -0.246 OA
BRANCH  25  27
ATOM     27  C   UNL A   1      36.368  30.092  28.680  1.00  0.00     0.060 A 
ATOM     28  C   UNL A   1      37.033  29.961  27.447  1.00  0.00     0.016 A 
ATOM     29  C   UNL A   1      36.865  29.474  29.810  1.00  0.00     0.016 A 
ATOM     30  C   UNL A   1      38.323  29.406  27.413  1.00  0.00     0.010 A 
ATOM     31  C   UNL A   1      38.198  29.185  29.825  1.00  0.00     0.010 A 
ATOM     32  C   UNL A   1      38.935  29.101  28.627  1.00  0.00    -0.014 A 
BRANCH  32  33
ATOM     33  C   UNL A   1      40.133  28.294  28.828  1.00  0.00     0.031 A 
ATOM     34  C   UNL A   1      40.271  26.852  28.614  1.00  0.00     0.074 A 
ATOM     35  C   UNL A   1      41.217  29.103  28.773  1.00  0.00     0.049 A 
ATOM     36  N   UNL A   1      41.352  26.229  28.938  1.00  0.00    -0.248 NA
ATOM     37  C   UNL A   1      39.271  25.987  28.006  1.00  0.00     0.031 C 
ATOM     38  C   UNL A   1      42.575  28.867  28.340  1.00  0.00     0.029 A 
ATOM     39  N   UNL A   1      41.206  30.461  29.098  1.00  0.00    -0.354 N 
ATOM     40  C   UNL A   1      41.331  24.995  28.328  1.00  0.00     0.074 A 
ATOM     41  C   UNL A   1      39.969  24.847  27.862  1.00  0.00     0.031 C 
ATOM     42  C   UNL A   1      43.310  29.947  28.671  1.00  0.00     0.029 A 
ATOM     43  C   UNL A   1      42.479  30.817  29.499  1.00  0.00     0.049 A 
ATOM     44  H   UNL A   1      40.427  31.060  29.049  1.00  0.00     0.167 HD
ATOM     45  C   UNL A   1      42.516  24.333  28.165  1.00  0.00     0.034 A 
ATOM     46  C   UNL A   1      42.659  31.201  30.797  1.00  0.00     0.034 A 
ATOM     47  C   UNL A   1      43.643  25.161  28.657  1.00  0.00     0.049 A 
ATOM     48  C   UNL A   1      43.477  30.144  31.528  1.00  0.00     0.074 A 
ATOM     49  C   UNL A   1      44.619  25.924  28.031  1.00  0.00     0.029 A 
ATOM     50  N   UNL A   1      43.704  25.509  30.000  1.00  0.00    -0.354 N 
ATOM     51  N   UNL A   1      44.047  29.113  30.961  1.00  0.00    -0.248 NA
ATOM     52  C   UNL A   1      43.612  30.114  32.977  1.00  0.00     0.031 C 
ATOM     53  C   UNL A   1      45.240  26.756  29.012  1.00  0.00     0.029 A 
ATOM     54  C   UNL A   1      44.669  26.481  30.242  1.00  0.00     0.049 A 
ATOM     55  H   UNL A   1      43.132  25.115  30.698  1.00  0.00     0.167 HD
ATOM     56  C   UNL A   1      44.424  28.207  31.915  1.00  0.00     0.074 A 
ATOM     57  C   UNL A   1      44.151  28.899  33.166  1.00  0.00     0.031 C 
ATOM     58  C   UNL A   1      44.860  26.938  31.618  1.00  0.00     0.034 A 
BRANCH  45  59
ATOM     59  C   UNL A   1      42.757  23.064  27.344  1.00  0.00     0.023 A 
ATOM     60  C   UNL A   1      42.084  21.889  27.764  1.00  0.00     0.012 A 
ATOM     61  C   UNL A   1      43.581  22.916  26.202  1.00  0.00     0.148 A 
ATOM     62  C   UNL A   1      42.280  20.638  27.167  1.00  0.00     0.002 A 
ATOM     63  C   UNL A   1      43.808  21.656  25.623  1.00  0.00     0.091 A 
ATOM     64  F   UNL A   1      44.106  23.995  25.619  1.00  0.00    -0.205 F 
ATOM     65  C   UNL A   1      43.163  20.515  26.111  1.00  0.00     0.022 A 
BRANCH  63  66
ATOM     66  S   UNL A   1      44.958  21.384  24.258  1.00  0.00     0.127 S 
ATOM     67  O   UNL A   1      46.241  21.745  24.866  1.00  0.00    -0.237 OA
ATOM     68  O   UNL A   1      44.801  19.956  23.988  1.00  0.00    -0.237 OA
ATOM     69  O   UNL A   1      44.535  22.270  23.182  1.00  0.00    -0.744 OA
ENDBRANCH  63  66
ENDBRANCH  45  59
BRANCH  46  70
ATOM     70  C   UNL A   1      41.445  31.943  31.352  1.00  0.00     0.023 A 
ATOM     71  C   UNL A   1      40.975  33.061  30.604  1.00  0.00     0.012 A 
ATOM     72  C   UNL A   1      40.545  31.364  32.271  1.00  0.00     0.148 A 
ATOM     73  C   UNL A   1      39.641  33.488  30.671  1.00  0.00     0.002 A 
ATOM     74  C   UNL A   1      39.220  31.809  32.346  1.00  0.00     0.091 A 
ATOM     75  F   UNL A   1      40.945  30.324  33.011  1.00  0.00    -0.205 F 
ATOM     76  C   UNL A   1      38.758  32.847  31.529  1.00  0.00     0.022 A 
BRANCH  74  77
ATOM     77  S   UNL A   1      38.029  30.941  33.382  1.00  0.00     0.127 S 
ATOM     78  O   UNL A   1      36.742  31.366  32.829  1.00  0.00    -0.237 OA
ATOM     79  O   UNL A   1      38.329  29.534  33.159  1.00  0.00    -0.237 OA
ATOM     80  O   UNL A   1      38.341  31.479  34.702  1.00  0.00    -0.744 OA
ENDBRANCH  74  77
ENDBRANCH  46  70
BRANCH  58  81
ATOM     81  C   UNL A   1      45.436  25.969  32.644  1.00  0.00     0.023 A 
ATOM     82  C   UNL A   1      46.797  25.611  32.643  1.00  0.00     0.012 A 
ATOM     83  C   UNL A   1      44.621  25.292  33.590  1.00  0.00     0.148 A 
ATOM     84  C   UNL A   1      47.356  24.785  33.623  1.00  0.00     0.002 A 
ATOM     85  C   UNL A   1      45.170  24.455  34.555  1.00  0.00     0.091 A 
ATOM     86  F   UNL A   1      43.289  25.381  33.519  1.00  0.00    -0.205 F 
ATOM     87  C   UNL A   1      46.544  24.228  34.598  1.00  0.00     0.022 A 
BRANCH  85  88
ATOM     88  S   UNL A   1      44.149  23.612  35.770  1.00  0.00     0.127 S 
ATOM     89  O   UNL A   1      43.659  24.736  36.569  1.00  0.00    -0.237 OA
ATOM     90  O   UNL A   1      43.136  22.975  34.927  1.00  0.00    -0.237 OA
ATOM     91  O   UNL A   1      45.030  22.682  36.461  1.00  0.00    -0.744 OA
ENDBRANCH  85  88
ENDBRANCH  58  81
ENDBRANCH  32  33
ENDBRANCH  25  27
ENDBRANCH  24  25
ENDBRANCH   1  24
TORSDOF 16
ENDMDL
