MODEL 1
REMARK VINA RESULT:     -10.4      0.000      0.000
REMARK SMILES CCCCCCNC(=O)Oc1cccc(-c2ccc([C@@H](C)C(=O)OCCOC(=O)c3ccc(-c4c5nc(c(-c6cccc(S(=O)(=O)[O-])c6F)c6ccc([nH]6)c(-c6cccc(S(=O)(=O)[O-])c6F)c6nc(c(-c7cccc(S(=O)(=O)[O-])c7F)c7ccc4[nH]7)C=C6)C=C5)cc3)cc2C)c1
REMARK SMILES IDX 20 1 21 2 19 3 16 4 17 5 94 6 18 7 93 8 95 9 15 10 11 11
REMARK SMILES IDX 12 12 96 13 13 14 14 15 10 16 8 17 7 18 9 20 6 21 5 22 4 23
REMARK SMILES IDX 3 24 2 25 1 26 22 27 23 28 24 29 25 30 26 31 27 32 28 33
REMARK SMILES IDX 29 34 30 35 31 36 92 37 32 38 91 39 33 40 34 41 35 42 85 43
REMARK SMILES IDX 36 44 90 45 84 46 86 47 37 48 89 49 83 50 82 51 38 53 70 54
REMARK SMILES IDX 50 55 69 56 51 57 54 58 68 59 87 60 52 61 53 62 67 64 88 65
REMARK SMILES IDX 55 66 39 67 40 68 48 69 41 70 43 71 49 72 42 73 44 74 45 75
REMARK SMILES IDX 46 76 47 77 71 78 72 79 80 80 73 81 75 82 81 83 74 84 76 85
REMARK SMILES IDX 77 86 78 87 79 88 56 89 57 90 65 91 58 92 60 93 66 94 59 95
REMARK SMILES IDX 61 96 62 97 63 98 64 99
REMARK H PARENT 7 19 86 52 54 63
REMARK Flexibility Score: inf
ROOT
ATOM      1  C   UNL A   1      40.923  22.020  26.683  1.00  0.00     0.126 C 
ATOM      2  C   UNL A   1      41.561  22.848  27.797  1.00  0.00     0.025 C 
ENDROOT
BRANCH   1   3
ATOM      3  C   UNL A   1      39.486  22.436  26.409  1.00  0.00    -0.034 A 
ATOM      4  C   UNL A   1      36.806  23.180  25.768  1.00  0.00    -0.015 A 
ATOM      5  C   UNL A   1      37.700  24.078  26.382  1.00  0.00     0.009 A 
ATOM      6  C   UNL A   1      37.269  21.877  25.487  1.00  0.00    -0.043 A 
ATOM      7  C   UNL A   1      39.016  23.720  26.689  1.00  0.00     0.005 A 
ATOM      8  C   UNL A   1      38.594  21.524  25.822  1.00  0.00     0.008 A 
ATOM      9  C   UNL A   1      36.412  20.805  24.865  1.00  0.00     0.045 C 
BRANCH   4  10
ATOM     10  C   UNL A   1      35.467  23.668  25.379  1.00  0.00    -0.014 A 
ATOM     11  C   UNL A   1      33.952  24.793  23.856  1.00  0.00     0.133 A 
ATOM     12  C   UNL A   1      32.907  24.690  24.772  1.00  0.00     0.047 A 
ATOM     13  C   UNL A   1      35.222  24.282  24.141  1.00  0.00     0.056 A 
ATOM     14  C   UNL A   1      33.126  24.054  25.988  1.00  0.00     0.004 A 
ATOM     15  C   UNL A   1      34.396  23.558  26.290  1.00  0.00     0.009 A 
BRANCH  11  16
ATOM     16  O   UNL A   1      33.704  25.582  22.720  1.00  0.00    -0.410 OA
BRANCH  16  17
ATOM     17  C   UNL A   1      32.970  25.059  21.666  1.00  0.00     0.412 C 
ATOM     18  N   UNL A   1      31.829  25.770  21.409  1.00  0.00    -0.321 N 
ATOM     19  H   UNL A   1      31.271  25.452  20.664  1.00  0.00     0.167 HD
ATOM     20  O   UNL A   1      33.251  24.058  21.021  1.00  0.00    -0.224 OA
BRANCH  18  21
ATOM     21  C   UNL A   1      31.354  26.942  22.122  1.00  0.00     0.119 C 
BRANCH  21  22
ATOM     22  C   UNL A   1      30.312  26.596  23.186  1.00  0.00     0.021 C 
BRANCH  22  23
ATOM     23  C   UNL A   1      29.318  27.718  23.508  1.00  0.00     0.002 C 
BRANCH  23  24
ATOM     24  C   UNL A   1      29.721  29.119  23.034  1.00  0.00    -0.000 C 
BRANCH  24  25
ATOM     25  C   UNL A   1      28.786  29.762  22.007  1.00  0.00    -0.003 C 
ATOM     26  C   UNL A   1      27.754  30.689  22.631  1.00  0.00     0.004 C 
ENDBRANCH  24  25
ENDBRANCH  23  24
ENDBRANCH  22  23
ENDBRANCH  21  22
ENDBRANCH  18  21
ENDBRANCH  16  17
ENDBRANCH  11  16
ENDBRANCH   4  10
ENDBRANCH   1   3
BRANCH   1  27
ATOM     27  C   UNL A   1      41.169  20.539  26.937  1.00  0.00     0.313 C 
ATOM     28  O   UNL A   1      40.801  19.988  27.971  1.00  0.00    -0.252 OA
BRANCH  27  29
ATOM     29  O   UNL A   1      41.764  19.890  25.902  1.00  0.00    -0.462 OA
BRANCH  29  30
ATOM     30  C   UNL A   1      42.379  18.624  26.201  1.00  0.00     0.274 C 
BRANCH  30  31
ATOM     31  C   UNL A   1      43.585  18.365  25.296  1.00  0.00     0.275 C 
BRANCH  31  32
ATOM     32  O   UNL A   1      43.778  19.444  24.365  1.00  0.00    -0.458 OA
BRANCH  32  33
ATOM     33  C   UNL A   1      45.027  19.963  24.348  1.00  0.00     0.338 C 
ATOM     34  O   UNL A   1      46.038  19.443  23.909  1.00  0.00    -0.246 OA
BRANCH  33  35
ATOM     35  C   UNL A   1      45.002  21.346  24.844  1.00  0.00     0.060 A 
ATOM     36  C   UNL A   1      45.131  22.375  23.911  1.00  0.00     0.016 A 
ATOM     37  C   UNL A   1      44.975  21.626  26.210  1.00  0.00     0.016 A 
ATOM     38  C   UNL A   1      45.279  23.691  24.334  1.00  0.00     0.010 A 
ATOM     39  C   UNL A   1      45.103  22.954  26.636  1.00  0.00     0.010 A 
ATOM     40  C   UNL A   1      45.287  23.990  25.703  1.00  0.00    -0.014 A 
BRANCH  40  41
ATOM     41  C   UNL A   1      45.551  25.384  26.138  1.00  0.00     0.031 A 
ATOM     42  C   UNL A   1      44.422  26.240  26.641  1.00  0.00     0.074 A 
ATOM     43  C   UNL A   1      46.804  25.875  26.094  1.00  0.00     0.049 A 
ATOM     44  N   UNL A   1      44.450  27.479  27.060  1.00  0.00    -0.248 NA
ATOM     45  C   UNL A   1      43.083  25.626  26.675  1.00  0.00     0.031 C 
ATOM     46  C   UNL A   1      47.979  25.147  25.612  1.00  0.00     0.029 A 
ATOM     47  N   UNL A   1      47.294  27.108  26.443  1.00  0.00    -0.354 N 
ATOM     48  C   UNL A   1      43.134  27.810  27.358  1.00  0.00     0.074 A 
ATOM     49  C   UNL A   1      42.329  26.640  27.078  1.00  0.00     0.031 C 
ATOM     50  C   UNL A   1      49.051  25.953  25.679  1.00  0.00     0.029 A 
ATOM     51  C   UNL A   1      48.637  27.259  26.184  1.00  0.00     0.049 A 
ATOM     52  H   UNL A   1      46.739  27.817  26.841  1.00  0.00     0.167 HD
ATOM     53  C   UNL A   1      42.643  28.978  27.835  1.00  0.00     0.034 A 
ATOM     54  C   UNL A   1      49.438  28.334  26.321  1.00  0.00     0.034 A 
ATOM     55  C   UNL A   1      43.452  30.118  28.172  1.00  0.00     0.049 A 
ATOM     56  C   UNL A   1      48.867  29.608  26.887  1.00  0.00     0.074 A 
ATOM     57  C   UNL A   1      43.053  31.313  28.747  1.00  0.00     0.029 A 
ATOM     58  N   UNL A   1      44.817  30.213  27.960  1.00  0.00    -0.354 N 
ATOM     59  N   UNL A   1      47.649  29.851  27.304  1.00  0.00    -0.248 NA
ATOM     60  C   UNL A   1      49.790  30.744  27.031  1.00  0.00     0.031 C 
ATOM     61  C   UNL A   1      44.178  32.136  28.867  1.00  0.00     0.029 A 
ATOM     62  C   UNL A   1      45.277  31.449  28.377  1.00  0.00     0.049 A 
ATOM     63  H   UNL A   1      45.378  29.503  27.568  1.00  0.00     0.167 HD
ATOM     64  C   UNL A   1      47.663  31.158  27.780  1.00  0.00     0.074 A 
ATOM     65  C   UNL A   1      49.020  31.643  27.630  1.00  0.00     0.031 C 
ATOM     66  C   UNL A   1      46.641  31.899  28.275  1.00  0.00     0.034 A 
BRANCH  53  67
ATOM     67  C   UNL A   1      41.159  29.081  28.059  1.00  0.00     0.023 A 
ATOM     68  C   UNL A   1      40.302  29.304  26.962  1.00  0.00     0.012 A 
ATOM     69  C   UNL A   1      40.608  28.875  29.338  1.00  0.00     0.148 A 
ATOM     70  C   UNL A   1      38.920  29.335  27.139  1.00  0.00     0.002 A 
ATOM     71  C   UNL A   1      39.228  28.872  29.501  1.00  0.00     0.091 A 
ATOM     72  F   UNL A   1      41.443  28.687  30.371  1.00  0.00    -0.205 F 
ATOM     73  C   UNL A   1      38.383  29.109  28.404  1.00  0.00     0.022 A 
BRANCH  71  74
ATOM     74  S   UNL A   1      38.438  28.520  31.075  1.00  0.00     0.127 S 
ATOM     75  O   UNL A   1      38.702  27.089  31.224  1.00  0.00    -0.237 OA
ATOM     76  O   UNL A   1      39.188  29.376  31.995  1.00  0.00    -0.237 OA
ATOM     77  O   UNL A   1      37.037  28.882  30.914  1.00  0.00    -0.744 OA
ENDBRANCH  71  74
ENDBRANCH  53  67
BRANCH  54  78
ATOM     78  C   UNL A   1      50.876  28.243  25.944  1.00  0.00     0.023 A 
ATOM     79  C   UNL A   1      51.287  28.643  24.658  1.00  0.00     0.012 A 
ATOM     80  C   UNL A   1      51.842  27.778  26.858  1.00  0.00     0.148 A 
ATOM     81  C   UNL A   1      52.627  28.554  24.280  1.00  0.00     0.002 A 
ATOM     82  C   UNL A   1      53.183  27.745  26.493  1.00  0.00     0.091 A 
ATOM     83  F   UNL A   1      51.433  27.375  28.069  1.00  0.00    -0.205 F 
ATOM     84  C   UNL A   1      53.576  28.117  25.199  1.00  0.00     0.022 A 
BRANCH  82  85
ATOM     85  S   UNL A   1      54.471  27.322  27.671  1.00  0.00     0.127 S 
ATOM     86  O   UNL A   1      54.592  28.556  28.442  1.00  0.00    -0.237 OA
ATOM     87  O   UNL A   1      53.875  26.199  28.397  1.00  0.00    -0.237 OA
ATOM     88  O   UNL A   1      55.624  26.957  26.858  1.00  0.00    -0.744 OA
ENDBRANCH  82  85
ENDBRANCH  54  78
BRANCH  66  89
ATOM     89  C   UNL A   1      46.946  33.309  28.705  1.00  0.00     0.023 A 
ATOM     90  C   UNL A   1      47.403  33.549  30.016  1.00  0.00     0.012 A 
ATOM     91  C   UNL A   1      46.854  34.381  27.797  1.00  0.00     0.148 A 
ATOM     92  C   UNL A   1      47.737  34.840  30.426  1.00  0.00     0.002 A 
ATOM     93  C   UNL A   1      47.229  35.659  28.199  1.00  0.00     0.091 A 
ATOM     94  F   UNL A   1      46.395  34.138  26.560  1.00  0.00    -0.205 F 
ATOM     95  C   UNL A   1      47.660  35.891  29.515  1.00  0.00     0.022 A 
BRANCH  93  96
ATOM     96  S   UNL A   1      47.250  37.049  27.061  1.00  0.00     0.127 S 
ATOM     97  O   UNL A   1      48.278  36.639  26.107  1.00  0.00    -0.237 OA
ATOM     98  O   UNL A   1      45.887  37.043  26.530  1.00  0.00    -0.237 OA
ATOM     99  O   UNL A   1      47.571  38.217  27.872  1.00  0.00    -0.744 OA
ENDBRANCH  93  96
ENDBRANCH  66  89
ENDBRANCH  40  41
ENDBRANCH  33  35
ENDBRANCH  32  33
ENDBRANCH  31  32
ENDBRANCH  30  31
ENDBRANCH  29  30
ENDBRANCH  27  29
ENDBRANCH   1  27
TORSDOF 23
ENDMDL
MODEL 2
REMARK VINA RESULT:     -10.3      3.670     10.390
REMARK SMILES CCCCCCNC(=O)Oc1cccc(-c2ccc([C@@H](C)C(=O)OCCOC(=O)c3ccc(-c4c5nc(c(-c6cccc(S(=O)(=O)[O-])c6F)c6ccc([nH]6)c(-c6cccc(S(=O)(=O)[O-])c6F)c6nc(c(-c7cccc(S(=O)(=O)[O-])c7F)c7ccc4[nH]7)C=C6)C=C5)cc3)cc2C)c1
REMARK SMILES IDX 20 1 21 2 19 3 16 4 17 5 94 6 18 7 93 8 95 9 15 10 11 11
REMARK SMILES IDX 12 12 96 13 13 14 14 15 10 16 8 17 7 18 9 20 6 21 5 22 4 23
REMARK SMILES IDX 3 24 2 25 1 26 22 27 23 28 24 29 25 30 26 31 27 32 28 33
REMARK SMILES IDX 29 34 30 35 31 36 92 37 32 38 91 39 33 40 34 41 35 42 85 43
REMARK SMILES IDX 36 44 90 45 84 46 86 47 37 48 89 49 83 50 82 51 38 53 70 54
REMARK SMILES IDX 50 55 69 56 51 57 54 58 68 59 87 60 52 61 53 62 67 64 88 65
REMARK SMILES IDX 55 66 39 67 40 68 48 69 41 70 43 71 49 72 42 73 44 74 45 75
REMARK SMILES IDX 46 76 47 77 71 78 72 79 80 80 73 81 75 82 81 83 74 84 76 85
REMARK SMILES IDX 77 86 78 87 79 88 56 89 57 90 65 91 58 92 60 93 66 94 59 95
REMARK SMILES IDX 61 96 62 97 63 98 64 99
REMARK H PARENT 7 19 86 52 54 63
REMARK Flexibility Score: inf
ROOT
ATOM      1  C   UNL A   1      35.326  32.784  28.883  1.00  0.00     0.126 C 
ATOM      2  C   UNL A   1      36.444  33.448  28.081  1.00  0.00     0.025 C 
ENDROOT
BRANCH   1   3
ATOM      3  C   UNL A   1      34.543  31.779  28.053  1.00  0.00    -0.034 A 
ATOM      4  C   UNL A   1      32.973  29.903  26.582  1.00  0.00    -0.015 A 
ATOM      5  C   UNL A   1      34.277  29.599  27.021  1.00  0.00     0.009 A 
ATOM      6  C   UNL A   1      32.460  31.183  26.878  1.00  0.00    -0.043 A 
ATOM      7  C   UNL A   1      35.045  30.512  27.749  1.00  0.00     0.005 A 
ATOM      8  C   UNL A   1      33.255  32.101  27.596  1.00  0.00     0.008 A 
ATOM      9  C   UNL A   1      31.096  31.654  26.442  1.00  0.00     0.045 C 
BRANCH   4  10
ATOM     10  C   UNL A   1      32.188  28.846  25.911  1.00  0.00    -0.014 A 
ATOM     11  C   UNL A   1      31.572  26.528  25.559  1.00  0.00     0.133 A 
ATOM     12  C   UNL A   1      30.750  26.877  24.489  1.00  0.00     0.047 A 
ATOM     13  C   UNL A   1      32.282  27.494  26.277  1.00  0.00     0.056 A 
ATOM     14  C   UNL A   1      30.621  28.216  24.138  1.00  0.00     0.004 A 
ATOM     15  C   UNL A   1      31.340  29.186  24.836  1.00  0.00     0.009 A 
BRANCH  11  16
ATOM     16  O   UNL A   1      31.777  25.151  25.758  1.00  0.00    -0.410 OA
BRANCH  16  17
ATOM     17  C   UNL A   1      30.687  24.306  25.891  1.00  0.00     0.412 C 
ATOM     18  N   UNL A   1      30.545  23.452  24.831  1.00  0.00    -0.321 N 
ATOM     19  H   UNL A   1      29.793  22.818  24.874  1.00  0.00     0.167 HD
ATOM     20  O   UNL A   1      29.891  24.300  26.821  1.00  0.00    -0.224 OA
BRANCH  18  21
ATOM     21  C   UNL A   1      31.384  23.382  23.650  1.00  0.00     0.119 C 
BRANCH  21  22
ATOM     22  C   UNL A   1      31.810  21.952  23.320  1.00  0.00     0.021 C 
BRANCH  22  23
ATOM     23  C   UNL A   1      33.317  21.685  23.416  1.00  0.00     0.002 C 
BRANCH  23  24
ATOM     24  C   UNL A   1      34.129  22.734  24.186  1.00  0.00    -0.000 C 
BRANCH  24  25
ATOM     25  C   UNL A   1      35.445  22.237  24.789  1.00  0.00    -0.003 C 
ATOM     26  C   UNL A   1      35.272  21.575  26.148  1.00  0.00     0.004 C 
ENDBRANCH  24  25
ENDBRANCH  23  24
ENDBRANCH  22  23
ENDBRANCH  21  22
ENDBRANCH  18  21
ENDBRANCH  16  17
ENDBRANCH  11  16
ENDBRANCH   4  10
ENDBRANCH   1   3
BRANCH   1  27
ATOM     27  C   UNL A   1      34.515  33.846  29.614  1.00  0.00     0.313 C 
ATOM     28  O   UNL A   1      34.244  34.926  29.095  1.00  0.00    -0.252 OA
BRANCH  27  29
ATOM     29  O   UNL A   1      34.078  33.463  30.841  1.00  0.00    -0.462 OA
BRANCH  29  30
ATOM     30  C   UNL A   1      34.390  34.338  31.941  1.00  0.00     0.274 C 
BRANCH  30  31
ATOM     31  C   UNL A   1      34.583  33.552  33.239  1.00  0.00     0.275 C 
BRANCH  31  32
ATOM     32  O   UNL A   1      35.234  32.293  32.993  1.00  0.00    -0.458 OA
BRANCH  32  33
ATOM     33  C   UNL A   1      36.463  32.171  33.545  1.00  0.00     0.338 C 
ATOM     34  O   UNL A   1      36.796  32.467  34.679  1.00  0.00    -0.246 OA
BRANCH  33  35
ATOM     35  C   UNL A   1      37.371  31.502  32.603  1.00  0.00     0.060 A 
ATOM     36  C   UNL A   1      38.296  30.595  33.124  1.00  0.00     0.016 A 
ATOM     37  C   UNL A   1      37.398  31.846  31.252  1.00  0.00     0.016 A 
ATOM     38  C   UNL A   1      39.285  30.057  32.308  1.00  0.00     0.010 A 
ATOM     39  C   UNL A   1      38.382  31.288  30.426  1.00  0.00     0.010 A 
ATOM     40  C   UNL A   1      39.349  30.415  30.956  1.00  0.00    -0.014 A 
BRANCH  40  41
ATOM     41  C   UNL A   1      40.473  29.913  30.126  1.00  0.00     0.031 A 
ATOM     42  C   UNL A   1      41.706  30.754  29.945  1.00  0.00     0.074 A 
ATOM     43  C   UNL A   1      40.391  28.699  29.548  1.00  0.00     0.049 A 
ATOM     44  N   UNL A   1      42.788  30.494  29.257  1.00  0.00    -0.248 NA
ATOM     45  C   UNL A   1      41.727  32.062  30.623  1.00  0.00     0.031 C 
ATOM     46  C   UNL A   1      39.241  27.798  29.639  1.00  0.00     0.029 A 
ATOM     47  N   UNL A   1      41.285  28.024  28.757  1.00  0.00    -0.354 N 
ATOM     48  C   UNL A   1      43.594  31.619  29.374  1.00  0.00     0.074 A 
ATOM     49  C   UNL A   1      42.881  32.566  30.205  1.00  0.00     0.031 C 
ATOM     50  C   UNL A   1      39.492  26.695  28.916  1.00  0.00     0.029 A 
ATOM     51  C   UNL A   1      40.806  26.821  28.292  1.00  0.00     0.049 A 
ATOM     52  H   UNL A   1      42.182  28.366  28.543  1.00  0.00     0.167 HD
ATOM     53  C   UNL A   1      44.823  31.838  28.849  1.00  0.00     0.034 A 
ATOM     54  C   UNL A   1      41.358  25.930  27.444  1.00  0.00     0.034 A 
ATOM     55  C   UNL A   1      45.556  30.872  28.076  1.00  0.00     0.049 A 
ATOM     56  C   UNL A   1      42.740  26.188  26.905  1.00  0.00     0.074 A 
ATOM     57  C   UNL A   1      46.844  30.970  27.579  1.00  0.00     0.029 A 
ATOM     58  N   UNL A   1      45.068  29.637  27.681  1.00  0.00    -0.354 N 
ATOM     59  N   UNL A   1      43.548  27.191  27.151  1.00  0.00    -0.248 NA
ATOM     60  C   UNL A   1      43.300  25.174  25.998  1.00  0.00     0.031 C 
ATOM     61  C   UNL A   1      47.129  29.799  26.868  1.00  0.00     0.029 A 
ATOM     62  C   UNL A   1      46.021  28.969  26.933  1.00  0.00     0.049 A 
ATOM     63  H   UNL A   1      44.173  29.287  27.899  1.00  0.00     0.167 HD
ATOM     64  C   UNL A   1      44.716  26.920  26.448  1.00  0.00     0.074 A 
ATOM     65  C   UNL A   1      44.525  25.642  25.794  1.00  0.00     0.031 C 
ATOM     66  C   UNL A   1      45.840  27.672  26.335  1.00  0.00     0.034 A 
BRANCH  53  67
ATOM     67  C   UNL A   1      45.479  33.165  29.117  1.00  0.00     0.023 A 
ATOM     68  C   UNL A   1      46.178  33.365  30.324  1.00  0.00     0.012 A 
ATOM     69  C   UNL A   1      45.475  34.179  28.141  1.00  0.00     0.148 A 
ATOM     70  C   UNL A   1      46.849  34.563  30.562  1.00  0.00     0.002 A 
ATOM     71  C   UNL A   1      46.177  35.357  28.371  1.00  0.00     0.091 A 
ATOM     72  F   UNL A   1      44.785  33.976  27.009  1.00  0.00    -0.205 F 
ATOM     73  C   UNL A   1      46.858  35.553  29.583  1.00  0.00     0.022 A 
BRANCH  71  74
ATOM     74  S   UNL A   1      46.307  36.663  27.144  1.00  0.00     0.127 S 
ATOM     75  O   UNL A   1      46.204  35.905  25.896  1.00  0.00    -0.237 OA
ATOM     76  O   UNL A   1      45.141  37.492  27.450  1.00  0.00    -0.237 OA
ATOM     77  O   UNL A   1      47.590  37.309  27.377  1.00  0.00    -0.744 OA
ENDBRANCH  71  74
ENDBRANCH  53  67
BRANCH  54  78
ATOM     78  C   UNL A   1      40.613  24.693  27.076  1.00  0.00     0.023 A 
ATOM     79  C   UNL A   1      39.348  24.796  26.467  1.00  0.00     0.012 A 
ATOM     80  C   UNL A   1      41.158  23.416  27.311  1.00  0.00     0.148 A 
ATOM     81  C   UNL A   1      38.627  23.651  26.127  1.00  0.00     0.002 A 
ATOM     82  C   UNL A   1      40.460  22.281  26.918  1.00  0.00     0.091 A 
ATOM     83  F   UNL A   1      42.352  23.333  27.915  1.00  0.00    -0.205 F 
ATOM     84  C   UNL A   1      39.187  22.395  26.341  1.00  0.00     0.022 A 
BRANCH  82  85
ATOM     85  S   UNL A   1      41.180  20.639  27.040  1.00  0.00     0.127 S 
ATOM     86  O   UNL A   1      40.818  20.251  28.400  1.00  0.00    -0.237 OA
ATOM     87  O   UNL A   1      40.476  19.910  25.983  1.00  0.00    -0.237 OA
ATOM     88  O   UNL A   1      42.602  20.829  26.783  1.00  0.00    -0.744 OA
ENDBRANCH  82  85
ENDBRANCH  54  78
BRANCH  66  89
ATOM     89  C   UNL A   1      46.958  27.131  25.485  1.00  0.00     0.023 A 
ATOM     90  C   UNL A   1      47.696  26.020  25.937  1.00  0.00     0.012 A 
ATOM     91  C   UNL A   1      47.229  27.671  24.213  1.00  0.00     0.148 A 
ATOM     92  C   UNL A   1      48.707  25.471  25.148  1.00  0.00     0.002 A 
ATOM     93  C   UNL A   1      48.209  27.092  23.413  1.00  0.00     0.091 A 
ATOM     94  F   UNL A   1      46.531  28.743  23.808  1.00  0.00    -0.205 F 
ATOM     95  C   UNL A   1      48.955  26.000  23.883  1.00  0.00     0.022 A 
BRANCH  93  96
ATOM     96  S   UNL A   1      48.525  27.653  21.735  1.00  0.00     0.127 S 
ATOM     97  O   UNL A   1      49.132  26.467  21.134  1.00  0.00    -0.237 OA
ATOM     98  O   UNL A   1      47.181  27.964  21.247  1.00  0.00    -0.237 OA
ATOM     99  O   UNL A   1      49.398  28.812  21.865  1.00  0.00    -0.744 OA
ENDBRANCH  93  96
ENDBRANCH  66  89
ENDBRANCH  40  41
ENDBRANCH  33  35
ENDBRANCH  32  33
ENDBRANCH  31  32
ENDBRANCH  30  31
ENDBRANCH  29  30
ENDBRANCH  27  29
ENDBRANCH   1  27
TORSDOF 23
ENDMDL
MODEL 3
REMARK VINA RESULT:     -10.3      5.154      9.175
REMARK SMILES CCCCCCNC(=O)Oc1cccc(-c2ccc([C@@H](C)C(=O)OCCOC(=O)c3ccc(-c4c5nc(c(-c6cccc(S(=O)(=O)[O-])c6F)c6ccc([nH]6)c(-c6cccc(S(=O)(=O)[O-])c6F)c6nc(c(-c7cccc(S(=O)(=O)[O-])c7F)c7ccc4[nH]7)C=C6)C=C5)cc3)cc2C)c1
REMARK SMILES IDX 20 1 21 2 19 3 16 4 17 5 94 6 18 7 93 8 95 9 15 10 11 11
REMARK SMILES IDX 12 12 96 13 13 14 14 15 10 16 8 17 7 18 9 20 6 21 5 22 4 23
REMARK SMILES IDX 3 24 2 25 1 26 22 27 23 28 24 29 25 30 26 31 27 32 28 33
REMARK SMILES IDX 29 34 30 35 31 36 92 37 32 38 91 39 33 40 34 41 35 42 85 43
REMARK SMILES IDX 36 44 90 45 84 46 86 47 37 48 89 49 83 50 82 51 38 53 70 54
REMARK SMILES IDX 50 55 69 56 51 57 54 58 68 59 87 60 52 61 53 62 67 64 88 65
REMARK SMILES IDX 55 66 39 67 40 68 48 69 41 70 43 71 49 72 42 73 44 74 45 75
REMARK SMILES IDX 46 76 47 77 71 78 72 79 80 80 73 81 75 82 81 83 74 84 76 85
REMARK SMILES IDX 77 86 78 87 79 88 56 89 57 90 65 91 58 92 60 93 66 94 59 95
REMARK SMILES IDX 61 96 62 97 63 98 64 99
REMARK H PARENT 7 19 86 52 54 63
REMARK Flexibility Score: inf
ROOT
ATOM      1  C   UNL A   1      42.410  21.373  27.170  1.00  0.00     0.126 C 
ATOM      2  C   UNL A   1      41.495  20.192  27.489  1.00  0.00     0.025 C 
ENDROOT
BRANCH   1   3
ATOM      3  C   UNL A   1      41.779  22.706  27.542  1.00  0.00    -0.034 A 
ATOM      4  C   UNL A   1      40.569  25.228  28.112  1.00  0.00    -0.015 A 
ATOM      5  C   UNL A   1      41.865  24.905  28.563  1.00  0.00     0.009 A 
ATOM      6  C   UNL A   1      39.867  24.253  27.374  1.00  0.00    -0.043 A 
ATOM      7  C   UNL A   1      42.463  23.675  28.278  1.00  0.00     0.005 A 
ATOM      8  C   UNL A   1      40.477  23.008  27.112  1.00  0.00     0.008 A 
ATOM      9  C   UNL A   1      38.464  24.449  26.859  1.00  0.00     0.045 C 
BRANCH   4  10
ATOM     10  C   UNL A   1      40.051  26.588  28.363  1.00  0.00    -0.014 A 
ATOM     11  C   UNL A   1      38.843  28.210  29.700  1.00  0.00     0.133 A 
ATOM     12  C   UNL A   1      38.978  29.177  28.705  1.00  0.00     0.047 A 
ATOM     13  C   UNL A   1      39.378  26.928  29.547  1.00  0.00     0.056 A 
ATOM     14  C   UNL A   1      39.671  28.864  27.542  1.00  0.00     0.004 A 
ATOM     15  C   UNL A   1      40.193  27.581  27.371  1.00  0.00     0.009 A 
BRANCH  11  16
ATOM     16  O   UNL A   1      37.999  28.542  30.775  1.00  0.00    -0.410 OA
BRANCH  16  17
ATOM     17  C   UNL A   1      38.471  28.444  32.075  1.00  0.00     0.412 C 
ATOM     18  N   UNL A   1      38.940  29.635  32.561  1.00  0.00    -0.321 N 
ATOM     19  H   UNL A   1      39.279  29.631  33.485  1.00  0.00     0.167 HD
ATOM     20  O   UNL A   1      38.513  27.424  32.749  1.00  0.00    -0.224 OA
BRANCH  18  21
ATOM     21  C   UNL A   1      38.992  30.903  31.857  1.00  0.00     0.119 C 
BRANCH  21  22
ATOM     22  C   UNL A   1      38.063  31.950  32.472  1.00  0.00     0.021 C 
BRANCH  22  23
ATOM     23  C   UNL A   1      37.284  32.800  31.460  1.00  0.00     0.002 C 
BRANCH  23  24
ATOM     24  C   UNL A   1      36.503  32.018  30.398  1.00  0.00    -0.000 C 
BRANCH  24  25
ATOM     25  C   UNL A   1      36.779  32.420  28.947  1.00  0.00    -0.003 C 
ATOM     26  C   UNL A   1      35.636  32.084  28.001  1.00  0.00     0.004 C 
ENDBRANCH  24  25
ENDBRANCH  23  24
ENDBRANCH  22  23
ENDBRANCH  21  22
ENDBRANCH  18  21
ENDBRANCH  16  17
ENDBRANCH  11  16
ENDBRANCH   4  10
ENDBRANCH   1   3
BRANCH   1  27
ATOM     27  C   UNL A   1      42.944  21.243  25.750  1.00  0.00     0.313 C 
ATOM     28  O   UNL A   1      43.105  20.149  25.216  1.00  0.00    -0.252 OA
BRANCH  27  29
ATOM     29  O   UNL A   1      43.157  22.431  25.127  1.00  0.00    -0.462 OA
BRANCH  29  30
ATOM     30  C   UNL A   1      44.268  22.491  24.213  1.00  0.00     0.274 C 
BRANCH  30  31
ATOM     31  C   UNL A   1      45.452  23.241  24.827  1.00  0.00     0.275 C 
BRANCH  31  32
ATOM     32  O   UNL A   1      45.323  24.661  24.637  1.00  0.00    -0.458 OA
BRANCH  32  33
ATOM     33  C   UNL A   1      46.288  25.403  25.227  1.00  0.00     0.338 C 
ATOM     34  O   UNL A   1      47.486  25.365  25.012  1.00  0.00    -0.246 OA
BRANCH  33  35
ATOM     35  C   UNL A   1      45.678  26.393  26.127  1.00  0.00     0.060 A 
ATOM     36  C   UNL A   1      46.502  27.014  27.066  1.00  0.00     0.016 A 
ATOM     37  C   UNL A   1      44.301  26.617  26.133  1.00  0.00     0.016 A 
ATOM     38  C   UNL A   1      45.954  27.833  28.047  1.00  0.00     0.010 A 
ATOM     39  C   UNL A   1      43.752  27.458  27.109  1.00  0.00     0.010 A 
ATOM     40  C   UNL A   1      44.570  28.045  28.090  1.00  0.00    -0.014 A 
BRANCH  40  41
ATOM     41  C   UNL A   1      43.993  28.835  29.206  1.00  0.00     0.031 A 
ATOM     42  C   UNL A   1      43.721  30.303  29.024  1.00  0.00     0.074 A 
ATOM     43  C   UNL A   1      43.702  28.232  30.374  1.00  0.00     0.049 A 
ATOM     44  N   UNL A   1      43.226  31.161  29.879  1.00  0.00    -0.248 NA
ATOM     45  C   UNL A   1      44.051  30.885  27.712  1.00  0.00     0.031 C 
ATOM     46  C   UNL A   1      43.933  26.819  30.675  1.00  0.00     0.029 A 
ATOM     47  N   UNL A   1      43.163  28.737  31.531  1.00  0.00    -0.354 N 
ATOM     48  C   UNL A   1      43.232  32.390  29.231  1.00  0.00     0.074 A 
ATOM     49  C   UNL A   1      43.775  32.168  27.907  1.00  0.00     0.031 C 
ATOM     50  C   UNL A   1      43.557  26.573  31.940  1.00  0.00     0.029 A 
ATOM     51  C   UNL A   1      43.081  27.814  32.547  1.00  0.00     0.049 A 
ATOM     52  H   UNL A   1      42.865  29.670  31.625  1.00  0.00     0.167 HD
ATOM     53  C   UNL A   1      42.811  33.591  29.692  1.00  0.00     0.034 A 
ATOM     54  C   UNL A   1      42.685  27.955  33.828  1.00  0.00     0.034 A 
ATOM     55  C   UNL A   1      42.215  33.798  30.984  1.00  0.00     0.049 A 
ATOM     56  C   UNL A   1      42.190  29.298  34.298  1.00  0.00     0.074 A 
ATOM     57  C   UNL A   1      41.675  34.963  31.503  1.00  0.00     0.029 A 
ATOM     58  N   UNL A   1      42.086  32.827  31.962  1.00  0.00    -0.354 N 
ATOM     59  N   UNL A   1      42.063  30.414  33.621  1.00  0.00    -0.248 NA
ATOM     60  C   UNL A   1      41.753  29.392  35.699  1.00  0.00     0.031 C 
ATOM     61  C   UNL A   1      41.234  34.698  32.803  1.00  0.00     0.029 A 
ATOM     62  C   UNL A   1      41.489  33.365  33.088  1.00  0.00     0.049 A 
ATOM     63  H   UNL A   1      42.376  31.890  31.870  1.00  0.00     0.167 HD
ATOM     64  C   UNL A   1      41.512  31.334  34.506  1.00  0.00     0.074 A 
ATOM     65  C   UNL A   1      41.299  30.637  35.757  1.00  0.00     0.031 C 
ATOM     66  C   UNL A   1      41.230  32.646  34.308  1.00  0.00     0.034 A 
BRANCH  53  67
ATOM     67  C   UNL A   1      42.945  34.783  28.783  1.00  0.00     0.023 A 
ATOM     68  C   UNL A   1      41.815  35.261  28.090  1.00  0.00     0.012 A 
ATOM     69  C   UNL A   1      44.167  35.476  28.680  1.00  0.00     0.148 A 
ATOM     70  C   UNL A   1      41.904  36.404  27.296  1.00  0.00     0.002 A 
ATOM     71  C   UNL A   1      44.238  36.634  27.915  1.00  0.00     0.091 A 
ATOM     72  F   UNL A   1      45.234  34.989  29.330  1.00  0.00    -0.205 F 
ATOM     73  C   UNL A   1      43.110  37.095  27.218  1.00  0.00     0.022 A 
BRANCH  71  74
ATOM     74  S   UNL A   1      45.727  37.634  27.807  1.00  0.00     0.127 S 
ATOM     75  O   UNL A   1      45.298  38.703  26.905  1.00  0.00    -0.237 OA
ATOM     76  O   UNL A   1      45.919  38.051  29.196  1.00  0.00    -0.237 OA
ATOM     77  O   UNL A   1      46.765  36.757  27.286  1.00  0.00    -0.744 OA
ENDBRANCH  71  74
ENDBRANCH  53  67
BRANCH  54  78
ATOM     78  C   UNL A   1      42.710  26.785  34.748  1.00  0.00     0.023 A 
ATOM     79  C   UNL A   1      41.529  26.052  34.976  1.00  0.00     0.012 A 
ATOM     80  C   UNL A   1      43.900  26.383  35.386  1.00  0.00     0.148 A 
ATOM     81  C   UNL A   1      41.527  24.960  35.845  1.00  0.00     0.002 A 
ATOM     82  C   UNL A   1      43.902  25.261  36.206  1.00  0.00     0.091 A 
ATOM     83  F   UNL A   1      45.010  27.106  35.181  1.00  0.00    -0.205 F 
ATOM     84  C   UNL A   1      42.714  24.557  36.450  1.00  0.00     0.022 A 
BRANCH  82  85
ATOM     85  S   UNL A   1      45.421  24.608  36.907  1.00  0.00     0.127 S 
ATOM     86  O   UNL A   1      44.914  23.707  37.938  1.00  0.00    -0.237 OA
ATOM     87  O   UNL A   1      46.036  23.943  35.757  1.00  0.00    -0.237 OA
ATOM     88  O   UNL A   1      46.155  25.775  37.378  1.00  0.00    -0.744 OA
ENDBRANCH  82  85
ENDBRANCH  54  78
BRANCH  66  89
ATOM     89  C   UNL A   1      40.646  33.416  35.463  1.00  0.00     0.023 A 
ATOM     90  C   UNL A   1      39.254  33.389  35.679  1.00  0.00     0.012 A 
ATOM     91  C   UNL A   1      41.475  34.099  36.373  1.00  0.00     0.148 A 
ATOM     92  C   UNL A   1      38.693  34.056  36.769  1.00  0.00     0.002 A 
ATOM     93  C   UNL A   1      40.914  34.725  37.481  1.00  0.00     0.091 A 
ATOM     94  F   UNL A   1      42.796  34.132  36.139  1.00  0.00    -0.205 F 
ATOM     95  C   UNL A   1      39.523  34.713  37.674  1.00  0.00     0.022 A 
BRANCH  93  96
ATOM     96  S   UNL A   1      41.920  35.513  38.744  1.00  0.00     0.127 S 
ATOM     97  O   UNL A   1      40.906  35.963  39.695  1.00  0.00    -0.237 OA
ATOM     98  O   UNL A   1      42.753  34.408  39.219  1.00  0.00    -0.237 OA
ATOM     99  O   UNL A   1      42.657  36.567  38.061  1.00  0.00    -0.744 OA
ENDBRANCH  93  96
ENDBRANCH  66  89
ENDBRANCH  40  41
ENDBRANCH  33  35
ENDBRANCH  32  33
ENDBRANCH  31  32
ENDBRANCH  30  31
ENDBRANCH  29  30
ENDBRANCH  27  29
ENDBRANCH   1  27
TORSDOF 23
ENDMDL
