MODEL 1
REMARK VINA RESULT:     -11.3      0.000      0.000
REMARK SMILES C[C@@H](CS(=O)(=O)[C@@H]1CCC[C@H](S(C)(=O)=O)C1)C(=O)OCCOC(=O)c1ccc(-c2c3nc(c(-c4cccc(S(=O)(=O)[O-])c4F)c4ccc([nH]4)c(-c4cccc(S(=O)(=O)[O-])c4F)c4nc(c(-c5cccc(S(=O)(=O)[O-])c5F)c5ccc2[nH]5)C=C4)C=C3)cc1
REMARK SMILES IDX 20 1 19 2 17 3 18 4 2 5 1 6 3 7 4 8 5 9 6 10 7 11 8 12 16 13
REMARK SMILES IDX 9 14 11 15 10 16 12 17 13 18 14 19 15 20 21 21 22 22 23 23
REMARK SMILES IDX 24 24 25 25 26 26 87 27 27 28 86 29 28 30 29 31 30 32 80 33
REMARK SMILES IDX 31 34 85 35 79 36 81 37 32 38 84 39 78 40 77 41 33 43 65 44
REMARK SMILES IDX 45 45 64 46 46 47 49 48 63 49 82 50 47 51 48 52 62 54 83 55
REMARK SMILES IDX 50 56 34 57 35 58 43 59 36 60 38 61 44 62 37 63 39 64 40 65
REMARK SMILES IDX 41 66 42 67 66 68 67 69 75 70 68 71 70 72 76 73 69 74 71 75
REMARK SMILES IDX 72 76 73 77 74 78 51 79 52 80 60 81 53 82 55 83 61 84 54 85
REMARK SMILES IDX 56 86 57 87 58 88 59 89
REMARK H PARENT 81 42 49 53
REMARK Flexibility Score: inf
ROOT
ATOM      1  C   UNL A   1      31.352  29.551  24.635  1.00  0.00     0.274 C 
ENDROOT
BRANCH   1   2
ATOM      2  O   UNL A   1      31.522  29.003  23.310  1.00  0.00    -0.462 OA
BRANCH   2   3
ATOM      3  C   UNL A   1      30.529  28.200  22.859  1.00  0.00     0.309 C 
ATOM      4  O   UNL A   1      29.579  28.554  22.172  1.00  0.00    -0.252 OA
BRANCH   3   5
ATOM      5  C   UNL A   1      30.670  26.768  23.345  1.00  0.00     0.111 C 
ATOM      6  C   UNL A   1      29.531  26.226  24.209  1.00  0.00     0.021 C 
BRANCH   5   7
ATOM      7  C   UNL A   1      31.152  25.818  22.253  1.00  0.00     0.152 C 
BRANCH   7   8
ATOM      8  S   UNL A   1      32.890  25.462  22.043  1.00  0.00     0.154 S 
ATOM      9  O   UNL A   1      33.279  25.638  20.660  1.00  0.00    -0.229 OA
ATOM     10  O   UNL A   1      33.557  26.257  23.063  1.00  0.00    -0.229 OA
BRANCH   8  11
ATOM     11  C   UNL A   1      33.207  23.737  22.507  1.00  0.00     0.110 C 
ATOM     12  C   UNL A   1      31.963  23.193  23.230  1.00  0.00     0.020 C 
ATOM     13  C   UNL A   1      34.445  23.561  23.376  1.00  0.00     0.039 C 
ATOM     14  C   UNL A   1      32.156  21.765  23.725  1.00  0.00     0.003 C 
ATOM     15  C   UNL A   1      34.630  22.132  23.906  1.00  0.00     0.109 C 
ATOM     16  C   UNL A   1      33.377  21.647  24.628  1.00  0.00     0.020 C 
BRANCH  15  17
ATOM     17  S   UNL A   1      36.098  22.068  24.952  1.00  0.00     0.150 S 
ATOM     18  C   UNL A   1      36.626  23.758  25.100  1.00  0.00     0.158 C 
ATOM     19  O   UNL A   1      35.656  21.660  26.271  1.00  0.00    -0.229 OA
ATOM     20  O   UNL A   1      37.133  21.346  24.240  1.00  0.00    -0.229 OA
ENDBRANCH  15  17
ENDBRANCH   8  11
ENDBRANCH   7   8
ENDBRANCH   5   7
ENDBRANCH   3   5
ENDBRANCH   2   3
ENDBRANCH   1   2
BRANCH   1  21
ATOM     21  C   UNL A   1      32.710  29.871  25.254  1.00  0.00     0.275 C 
BRANCH  21  22
ATOM     22  O   UNL A   1      32.544  30.179  26.648  1.00  0.00    -0.458 OA
BRANCH  22  23
ATOM     23  C   UNL A   1      33.106  31.344  27.037  1.00  0.00     0.338 C 
ATOM     24  O   UNL A   1      32.605  32.455  27.043  1.00  0.00    -0.246 OA
BRANCH  23  25
ATOM     25  C   UNL A   1      34.430  31.071  27.596  1.00  0.00     0.060 A 
ATOM     26  C   UNL A   1      34.716  29.769  28.010  1.00  0.00     0.016 A 
ATOM     27  C   UNL A   1      35.336  32.105  27.814  1.00  0.00     0.016 A 
ATOM     28  C   UNL A   1      35.882  29.502  28.717  1.00  0.00     0.010 A 
ATOM     29  C   UNL A   1      36.541  31.821  28.458  1.00  0.00     0.010 A 
ATOM     30  C   UNL A   1      36.812  30.525  28.937  1.00  0.00    -0.014 A 
BRANCH  30  31
ATOM     31  C   UNL A   1      38.077  30.246  29.656  1.00  0.00     0.031 A 
ATOM     32  C   UNL A   1      39.081  29.297  29.069  1.00  0.00     0.074 A 
ATOM     33  C   UNL A   1      38.286  30.804  30.866  1.00  0.00     0.049 A 
ATOM     34  N   UNL A   1      40.144  28.778  29.621  1.00  0.00    -0.248 NA
ATOM     35  C   UNL A   1      38.853  28.865  27.679  1.00  0.00     0.031 C 
ATOM     36  C   UNL A   1      37.383  31.747  31.530  1.00  0.00     0.029 A 
ATOM     37  N   UNL A   1      39.306  30.628  31.767  1.00  0.00    -0.354 N 
ATOM     38  C   UNL A   1      40.674  27.906  28.678  1.00  0.00     0.074 A 
ATOM     39  C   UNL A   1      39.827  27.981  27.507  1.00  0.00     0.031 C 
ATOM     40  C   UNL A   1      37.875  32.048  32.740  1.00  0.00     0.029 A 
ATOM     41  C   UNL A   1      39.090  31.273  32.963  1.00  0.00     0.049 A 
ATOM     42  H   UNL A   1      40.111  30.095  31.577  1.00  0.00     0.167 HD
ATOM     43  C   UNL A   1      41.771  27.120  28.781  1.00  0.00     0.034 A 
ATOM     44  C   UNL A   1      39.764  31.206  34.126  1.00  0.00     0.034 A 
ATOM     45  C   UNL A   1      42.641  27.103  29.926  1.00  0.00     0.049 A 
ATOM     46  C   UNL A   1      40.976  30.322  34.214  1.00  0.00     0.074 A 
ATOM     47  C   UNL A   1      43.821  26.404  30.099  1.00  0.00     0.029 A 
ATOM     48  N   UNL A   1      42.422  27.816  31.095  1.00  0.00    -0.354 N 
ATOM     49  N   UNL A   1      41.522  29.581  33.280  1.00  0.00    -0.248 NA
ATOM     50  C   UNL A   1      41.671  30.272  35.507  1.00  0.00     0.031 C 
ATOM     51  C   UNL A   1      44.309  26.682  31.380  1.00  0.00     0.029 A 
ATOM     52  C   UNL A   1      43.436  27.561  32.001  1.00  0.00     0.049 A 
ATOM     53  H   UNL A   1      41.657  28.414  31.257  1.00  0.00     0.167 HD
ATOM     54  C   UNL A   1      42.635  28.990  33.866  1.00  0.00     0.074 A 
ATOM     55  C   UNL A   1      42.699  29.481  35.228  1.00  0.00     0.031 C 
ATOM     56  C   UNL A   1      43.509  28.102  33.334  1.00  0.00     0.034 A 
BRANCH  43  57
ATOM     57  C   UNL A   1      42.113  26.231  27.617  1.00  0.00     0.023 A 
ATOM     58  C   UNL A   1      42.845  26.751  26.532  1.00  0.00     0.012 A 
ATOM     59  C   UNL A   1      41.771  24.864  27.632  1.00  0.00     0.148 A 
ATOM     60  C   UNL A   1      43.213  25.928  25.468  1.00  0.00     0.002 A 
ATOM     61  C   UNL A   1      42.170  24.043  26.584  1.00  0.00     0.091 A 
ATOM     62  F   UNL A   1      41.052  24.395  28.662  1.00  0.00    -0.205 F 
ATOM     63  C   UNL A   1      42.885  24.575  25.497  1.00  0.00     0.022 A 
BRANCH  61  64
ATOM     64  S   UNL A   1      41.852  22.275  26.565  1.00  0.00     0.127 S 
ATOM     65  O   UNL A   1      40.394  22.238  26.457  1.00  0.00    -0.237 OA
ATOM     66  O   UNL A   1      42.562  21.844  25.360  1.00  0.00    -0.237 OA
ATOM     67  O   UNL A   1      42.403  21.757  27.809  1.00  0.00    -0.744 OA
ENDBRANCH  61  64
ENDBRANCH  43  57
BRANCH  44  68
ATOM     68  C   UNL A   1      39.301  32.004  35.296  1.00  0.00     0.023 A 
ATOM     69  C   UNL A   1      38.439  31.413  36.238  1.00  0.00     0.012 A 
ATOM     70  C   UNL A   1      39.749  33.323  35.509  1.00  0.00     0.148 A 
ATOM     71  C   UNL A   1      38.017  32.126  37.362  1.00  0.00     0.002 A 
ATOM     72  C   UNL A   1      39.371  34.008  36.658  1.00  0.00     0.091 A 
ATOM     73  F   UNL A   1      40.549  33.882  34.588  1.00  0.00    -0.205 F 
ATOM     74  C   UNL A   1      38.494  33.416  37.579  1.00  0.00     0.022 A 
BRANCH  72  75
ATOM     75  S   UNL A   1      40.059  35.615  37.073  1.00  0.00     0.127 S 
ATOM     76  O   UNL A   1      39.645  36.422  35.929  1.00  0.00    -0.237 OA
ATOM     77  O   UNL A   1      39.376  35.931  38.328  1.00  0.00    -0.237 OA
ATOM     78  O   UNL A   1      41.492  35.391  37.216  1.00  0.00    -0.744 OA
ENDBRANCH  72  75
ENDBRANCH  44  68
BRANCH  56  79
ATOM     79  C   UNL A   1      44.621  27.610  34.218  1.00  0.00     0.023 A 
ATOM     80  C   UNL A   1      45.810  28.359  34.314  1.00  0.00     0.012 A 
ATOM     81  C   UNL A   1      44.457  26.461  35.016  1.00  0.00     0.148 A 
ATOM     82  C   UNL A   1      46.828  27.961  35.178  1.00  0.00     0.002 A 
ATOM     83  C   UNL A   1      45.459  26.093  35.904  1.00  0.00     0.091 A 
ATOM     84  F   UNL A   1      43.325  25.753  34.892  1.00  0.00    -0.205 F 
ATOM     85  C   UNL A   1      46.648  26.837  35.981  1.00  0.00     0.022 A 
BRANCH  83  86
ATOM     86  S   UNL A   1      45.277  24.713  37.040  1.00  0.00     0.127 S 
ATOM     87  O   UNL A   1      45.174  23.581  36.121  1.00  0.00    -0.237 OA
ATOM     88  O   UNL A   1      46.525  24.769  37.803  1.00  0.00    -0.237 OA
ATOM     89  O   UNL A   1      44.081  24.996  37.823  1.00  0.00    -0.744 OA
ENDBRANCH  83  86
ENDBRANCH  56  79
ENDBRANCH  30  31
ENDBRANCH  23  25
ENDBRANCH  22  23
ENDBRANCH  21  22
ENDBRANCH   1  21
TORSDOF 18
ENDMDL
MODEL 2
REMARK VINA RESULT:     -11.3      5.232     10.185
REMARK SMILES C[C@@H](CS(=O)(=O)[C@@H]1CCC[C@H](S(C)(=O)=O)C1)C(=O)OCCOC(=O)c1ccc(-c2c3nc(c(-c4cccc(S(=O)(=O)[O-])c4F)c4ccc([nH]4)c(-c4cccc(S(=O)(=O)[O-])c4F)c4nc(c(-c5cccc(S(=O)(=O)[O-])c5F)c5ccc2[nH]5)C=C4)C=C3)cc1
REMARK SMILES IDX 20 1 19 2 17 3 18 4 2 5 1 6 3 7 4 8 5 9 6 10 7 11 8 12 16 13
REMARK SMILES IDX 9 14 11 15 10 16 12 17 13 18 14 19 15 20 21 21 22 22 23 23
REMARK SMILES IDX 24 24 25 25 26 26 87 27 27 28 86 29 28 30 29 31 30 32 80 33
REMARK SMILES IDX 31 34 85 35 79 36 81 37 32 38 84 39 78 40 77 41 33 43 65 44
REMARK SMILES IDX 45 45 64 46 46 47 49 48 63 49 82 50 47 51 48 52 62 54 83 55
REMARK SMILES IDX 50 56 34 57 35 58 43 59 36 60 38 61 44 62 37 63 39 64 40 65
REMARK SMILES IDX 41 66 42 67 66 68 67 69 75 70 68 71 70 72 76 73 69 74 71 75
REMARK SMILES IDX 72 76 73 77 74 78 51 79 52 80 60 81 53 82 55 83 61 84 54 85
REMARK SMILES IDX 56 86 57 87 58 88 59 89
REMARK H PARENT 81 42 49 53
REMARK Flexibility Score: inf
ROOT
ATOM      1  C   UNL A   1      35.656  20.197  25.091  1.00  0.00     0.274 C 
ENDROOT
BRANCH   1   2
ATOM      2  O   UNL A   1      34.713  21.290  25.082  1.00  0.00    -0.462 OA
BRANCH   2   3
ATOM      3  C   UNL A   1      33.541  21.068  24.441  1.00  0.00     0.309 C 
ATOM      4  O   UNL A   1      33.123  19.977  24.072  1.00  0.00    -0.252 OA
BRANCH   3   5
ATOM      5  C   UNL A   1      32.777  22.349  24.158  1.00  0.00     0.111 C 
ATOM      6  C   UNL A   1      32.500  22.668  22.689  1.00  0.00     0.021 C 
BRANCH   5   7
ATOM      7  C   UNL A   1      31.585  22.546  25.090  1.00  0.00     0.152 C 
BRANCH   7   8
ATOM      8  S   UNL A   1      31.679  23.663  26.481  1.00  0.00     0.154 S 
ATOM      9  O   UNL A   1      30.940  23.132  27.607  1.00  0.00    -0.229 OA
ATOM     10  O   UNL A   1      33.099  23.934  26.645  1.00  0.00    -0.229 OA
BRANCH   8  11
ATOM     11  C   UNL A   1      30.944  25.255  26.019  1.00  0.00     0.110 C 
ATOM     12  C   UNL A   1      30.561  25.199  24.531  1.00  0.00     0.020 C 
ATOM     13  C   UNL A   1      31.858  26.445  26.287  1.00  0.00     0.039 C 
ATOM     14  C   UNL A   1      29.997  26.521  24.024  1.00  0.00     0.003 C 
ATOM     15  C   UNL A   1      31.313  27.776  25.751  1.00  0.00     0.109 C 
ATOM     16  C   UNL A   1      30.964  27.672  24.271  1.00  0.00     0.020 C 
BRANCH  15  17
ATOM     17  S   UNL A   1      32.502  29.089  26.091  1.00  0.00     0.150 S 
ATOM     18  C   UNL A   1      33.964  28.246  26.647  1.00  0.00     0.158 C 
ATOM     19  O   UNL A   1      32.837  29.691  24.815  1.00  0.00    -0.229 OA
ATOM     20  O   UNL A   1      32.003  29.880  27.197  1.00  0.00    -0.229 OA
ENDBRANCH  15  17
ENDBRANCH   8  11
ENDBRANCH   7   8
ENDBRANCH   5   7
ENDBRANCH   3   5
ENDBRANCH   2   3
ENDBRANCH   1   2
BRANCH   1  21
ATOM     21  C   UNL A   1      37.035  20.684  24.655  1.00  0.00     0.275 C 
BRANCH  21  22
ATOM     22  O   UNL A   1      37.583  21.545  25.668  1.00  0.00    -0.458 OA
BRANCH  22  23
ATOM     23  C   UNL A   1      38.861  21.267  26.009  1.00  0.00     0.338 C 
ATOM     24  O   UNL A   1      39.494  20.249  25.787  1.00  0.00    -0.246 OA
BRANCH  23  25
ATOM     25  C   UNL A   1      39.464  22.458  26.607  1.00  0.00     0.060 A 
ATOM     26  C   UNL A   1      39.035  23.710  26.164  1.00  0.00     0.016 A 
ATOM     27  C   UNL A   1      40.518  22.343  27.509  1.00  0.00     0.016 A 
ATOM     28  C   UNL A   1      39.706  24.859  26.561  1.00  0.00     0.010 A 
ATOM     29  C   UNL A   1      41.144  23.504  27.967  1.00  0.00     0.010 A 
ATOM     30  C   UNL A   1      40.760  24.767  27.476  1.00  0.00    -0.014 A 
BRANCH  30  31
ATOM     31  C   UNL A   1      41.462  25.988  27.938  1.00  0.00     0.031 A 
ATOM     32  C   UNL A   1      40.710  27.044  28.698  1.00  0.00     0.074 A 
ATOM     33  C   UNL A   1      42.758  26.168  27.616  1.00  0.00     0.049 A 
ATOM     34  N   UNL A   1      41.085  28.253  29.016  1.00  0.00    -0.248 NA
ATOM     35  C   UNL A   1      39.351  26.696  29.148  1.00  0.00     0.031 C 
ATOM     36  C   UNL A   1      43.590  25.206  26.889  1.00  0.00     0.029 A 
ATOM     37  N   UNL A   1      43.592  27.237  27.827  1.00  0.00    -0.354 N 
ATOM     38  C   UNL A   1      39.991  28.837  29.641  1.00  0.00     0.074 A 
ATOM     39  C   UNL A   1      38.941  27.842  29.676  1.00  0.00     0.031 C 
ATOM     40  C   UNL A   1      44.805  25.737  26.692  1.00  0.00     0.029 A 
ATOM     41  C   UNL A   1      44.819  27.096  27.221  1.00  0.00     0.049 A 
ATOM     42  H   UNL A   1      43.338  28.026  28.358  1.00  0.00     0.167 HD
ATOM     43  C   UNL A   1      39.878  30.089  30.143  1.00  0.00     0.034 A 
ATOM     44  C   UNL A   1      45.822  27.979  27.061  1.00  0.00     0.034 A 
ATOM     45  C   UNL A   1      40.950  31.047  30.159  1.00  0.00     0.049 A 
ATOM     46  C   UNL A   1      45.668  29.363  27.625  1.00  0.00     0.074 A 
ATOM     47  C   UNL A   1      40.964  32.313  30.715  1.00  0.00     0.029 A 
ATOM     48  N   UNL A   1      42.197  30.845  29.589  1.00  0.00    -0.354 N 
ATOM     49  N   UNL A   1      44.665  29.868  28.302  1.00  0.00    -0.248 NA
ATOM     50  C   UNL A   1      46.784  30.295  27.414  1.00  0.00     0.031 C 
ATOM     51  C   UNL A   1      42.217  32.884  30.468  1.00  0.00     0.029 A 
ATOM     52  C   UNL A   1      42.985  31.970  29.765  1.00  0.00     0.049 A 
ATOM     53  H   UNL A   1      42.481  30.024  29.126  1.00  0.00     0.167 HD
ATOM     54  C   UNL A   1      45.034  31.171  28.614  1.00  0.00     0.074 A 
ATOM     55  C   UNL A   1      46.365  31.367  28.075  1.00  0.00     0.031 C 
ATOM     56  C   UNL A   1      44.327  32.125  29.265  1.00  0.00     0.034 A 
BRANCH  43  57
ATOM     57  C   UNL A   1      38.558  30.492  30.742  1.00  0.00     0.023 A 
ATOM     58  C   UNL A   1      38.318  30.277  32.113  1.00  0.00     0.012 A 
ATOM     59  C   UNL A   1      37.584  31.146  29.962  1.00  0.00     0.148 A 
ATOM     60  C   UNL A   1      37.120  30.688  32.695  1.00  0.00     0.002 A 
ATOM     61  C   UNL A   1      36.406  31.584  30.556  1.00  0.00     0.091 A 
ATOM     62  F   UNL A   1      37.821  31.318  28.654  1.00  0.00    -0.205 F 
ATOM     63  C   UNL A   1      36.169  31.350  31.921  1.00  0.00     0.022 A 
BRANCH  61  64
ATOM     64  S   UNL A   1      35.152  32.503  29.656  1.00  0.00     0.127 S 
ATOM     65  O   UNL A   1      34.210  32.840  30.723  1.00  0.00    -0.237 OA
ATOM     66  O   UNL A   1      35.914  33.639  29.135  1.00  0.00    -0.237 OA
ATOM     67  O   UNL A   1      34.647  31.596  28.636  1.00  0.00    -0.744 OA
ENDBRANCH  61  64
ENDBRANCH  43  57
BRANCH  44  68
ATOM     68  C   UNL A   1      47.058  27.571  26.336  1.00  0.00     0.023 A 
ATOM     69  C   UNL A   1      48.051  26.843  27.018  1.00  0.00     0.012 A 
ATOM     70  C   UNL A   1      47.232  27.851  24.966  1.00  0.00     0.148 A 
ATOM     71  C   UNL A   1      49.203  26.417  26.353  1.00  0.00     0.002 A 
ATOM     72  C   UNL A   1      48.354  27.376  24.297  1.00  0.00     0.091 A 
ATOM     73  F   UNL A   1      46.289  28.568  24.336  1.00  0.00    -0.205 F 
ATOM     74  C   UNL A   1      49.348  26.671  24.992  1.00  0.00     0.022 A 
BRANCH  72  75
ATOM     75  S   UNL A   1      48.537  27.541  22.517  1.00  0.00     0.127 S 
ATOM     76  O   UNL A   1      48.590  26.146  22.091  1.00  0.00    -0.237 OA
ATOM     77  O   UNL A   1      47.315  28.253  22.144  1.00  0.00    -0.237 OA
ATOM     78  O   UNL A   1      49.757  28.316  22.330  1.00  0.00    -0.744 OA
ENDBRANCH  72  75
ENDBRANCH  44  68
BRANCH  56  79
ATOM     79  C   UNL A   1      44.979  33.468  29.446  1.00  0.00     0.023 A 
ATOM     80  C   UNL A   1      45.845  33.674  30.537  1.00  0.00     0.012 A 
ATOM     81  C   UNL A   1      44.804  34.491  28.494  1.00  0.00     0.148 A 
ATOM     82  C   UNL A   1      46.514  34.887  30.690  1.00  0.00     0.002 A 
ATOM     83  C   UNL A   1      45.505  35.682  28.630  1.00  0.00     0.091 A 
ATOM     84  F   UNL A   1      43.958  34.279  27.476  1.00  0.00    -0.205 F 
ATOM     85  C   UNL A   1      46.354  35.885  29.731  1.00  0.00     0.022 A 
BRANCH  83  86
ATOM     86  S   UNL A   1      45.430  36.988  27.398  1.00  0.00     0.127 S 
ATOM     87  O   UNL A   1      46.154  38.068  28.063  1.00  0.00    -0.237 OA
ATOM     88  O   UNL A   1      46.133  36.388  26.264  1.00  0.00    -0.237 OA
ATOM     89  O   UNL A   1      44.012  37.234  27.164  1.00  0.00    -0.744 OA
ENDBRANCH  83  86
ENDBRANCH  56  79
ENDBRANCH  30  31
ENDBRANCH  23  25
ENDBRANCH  22  23
ENDBRANCH  21  22
ENDBRANCH   1  21
TORSDOF 18
ENDMDL
MODEL 3
REMARK VINA RESULT:     -11.2      1.554      1.839
REMARK SMILES C[C@@H](CS(=O)(=O)[C@@H]1CCC[C@H](S(C)(=O)=O)C1)C(=O)OCCOC(=O)c1ccc(-c2c3nc(c(-c4cccc(S(=O)(=O)[O-])c4F)c4ccc([nH]4)c(-c4cccc(S(=O)(=O)[O-])c4F)c4nc(c(-c5cccc(S(=O)(=O)[O-])c5F)c5ccc2[nH]5)C=C4)C=C3)cc1
REMARK SMILES IDX 20 1 19 2 17 3 18 4 2 5 1 6 3 7 4 8 5 9 6 10 7 11 8 12 16 13
REMARK SMILES IDX 9 14 11 15 10 16 12 17 13 18 14 19 15 20 21 21 22 22 23 23
REMARK SMILES IDX 24 24 25 25 26 26 87 27 27 28 86 29 28 30 29 31 30 32 80 33
REMARK SMILES IDX 31 34 85 35 79 36 81 37 32 38 84 39 78 40 77 41 33 43 65 44
REMARK SMILES IDX 45 45 64 46 46 47 49 48 63 49 82 50 47 51 48 52 62 54 83 55
REMARK SMILES IDX 50 56 34 57 35 58 43 59 36 60 38 61 44 62 37 63 39 64 40 65
REMARK SMILES IDX 41 66 42 67 66 68 67 69 75 70 68 71 70 72 76 73 69 74 71 75
REMARK SMILES IDX 72 76 73 77 74 78 51 79 52 80 60 81 53 82 55 83 61 84 54 85
REMARK SMILES IDX 56 86 57 87 58 88 59 89
REMARK H PARENT 81 42 49 53
REMARK Flexibility Score: inf
ROOT
ATOM      1  C   UNL A   1      31.433  29.954  25.372  1.00  0.00     0.274 C 
ENDROOT
BRANCH   1   2
ATOM      2  O   UNL A   1      32.455  28.933  25.364  1.00  0.00    -0.462 OA
BRANCH   2   3
ATOM      3  C   UNL A   1      32.086  27.711  25.818  1.00  0.00     0.309 C 
ATOM      4  O   UNL A   1      31.020  27.440  26.356  1.00  0.00    -0.252 OA
BRANCH   3   5
ATOM      5  C   UNL A   1      33.177  26.670  25.642  1.00  0.00     0.111 C 
ATOM      6  C   UNL A   1      32.859  25.259  26.139  1.00  0.00     0.021 C 
BRANCH   5   7
ATOM      7  C   UNL A   1      33.836  26.729  24.267  1.00  0.00     0.152 C 
BRANCH   7   8
ATOM      8  S   UNL A   1      33.088  25.938  22.851  1.00  0.00     0.154 S 
ATOM      9  O   UNL A   1      31.645  26.003  22.939  1.00  0.00    -0.229 OA
ATOM     10  O   UNL A   1      33.745  26.539  21.700  1.00  0.00    -0.229 OA
BRANCH   8  11
ATOM     11  C   UNL A   1      33.577  24.192  22.816  1.00  0.00     0.110 C 
ATOM     12  C   UNL A   1      32.339  23.335  23.129  1.00  0.00     0.020 C 
ATOM     13  C   UNL A   1      34.709  23.859  23.779  1.00  0.00     0.039 C 
ATOM     14  C   UNL A   1      32.661  21.847  23.193  1.00  0.00     0.003 C 
ATOM     15  C   UNL A   1      35.020  22.359  23.874  1.00  0.00     0.109 C 
ATOM     16  C   UNL A   1      33.765  21.557  24.202  1.00  0.00     0.020 C 
BRANCH  15  17
ATOM     17  S   UNL A   1      36.340  22.097  25.074  1.00  0.00     0.150 S 
ATOM     18  C   UNL A   1      36.845  23.729  25.560  1.00  0.00     0.158 C 
ATOM     19  O   UNL A   1      35.732  21.492  26.243  1.00  0.00    -0.229 OA
ATOM     20  O   UNL A   1      37.458  21.477  24.392  1.00  0.00    -0.229 OA
ENDBRANCH  15  17
ENDBRANCH   8  11
ENDBRANCH   7   8
ENDBRANCH   5   7
ENDBRANCH   3   5
ENDBRANCH   2   3
ENDBRANCH   1   2
BRANCH   1  21
ATOM     21  C   UNL A   1      31.748  31.008  26.429  1.00  0.00     0.275 C 
BRANCH  21  22
ATOM     22  O   UNL A   1      33.060  30.773  26.968  1.00  0.00    -0.458 OA
BRANCH  22  23
ATOM     23  C   UNL A   1      33.667  31.871  27.467  1.00  0.00     0.338 C 
ATOM     24  O   UNL A   1      33.201  32.989  27.608  1.00  0.00    -0.246 OA
BRANCH  23  25
ATOM     25  C   UNL A   1      34.995  31.501  27.959  1.00  0.00     0.060 A 
ATOM     26  C   UNL A   1      35.213  30.174  28.335  1.00  0.00     0.016 A 
ATOM     27  C   UNL A   1      35.975  32.469  28.155  1.00  0.00     0.016 A 
ATOM     28  C   UNL A   1      36.389  29.817  28.981  1.00  0.00     0.010 A 
ATOM     29  C   UNL A   1      37.188  32.093  28.736  1.00  0.00     0.010 A 
ATOM     30  C   UNL A   1      37.393  30.771  29.177  1.00  0.00    -0.014 A 
BRANCH  30  31
ATOM     31  C   UNL A   1      38.668  30.395  29.832  1.00  0.00     0.031 A 
ATOM     32  C   UNL A   1      39.583  29.400  29.177  1.00  0.00     0.074 A 
ATOM     33  C   UNL A   1      38.966  30.907  31.042  1.00  0.00     0.049 A 
ATOM     34  N   UNL A   1      40.634  28.801  29.668  1.00  0.00    -0.248 NA
ATOM     35  C   UNL A   1      39.266  29.020  27.790  1.00  0.00     0.031 C 
ATOM     36  C   UNL A   1      38.156  31.888  31.768  1.00  0.00     0.029 A 
ATOM     37  N   UNL A   1      40.012  30.645  31.892  1.00  0.00    -0.354 N 
ATOM     38  C   UNL A   1      41.065  27.922  28.682  1.00  0.00     0.074 A 
ATOM     39  C   UNL A   1      40.173  28.081  27.554  1.00  0.00     0.031 C 
ATOM     40  C   UNL A   1      38.719  32.126  32.961  1.00  0.00     0.029 A 
ATOM     41  C   UNL A   1      39.890  31.271  33.111  1.00  0.00     0.049 A 
ATOM     42  H   UNL A   1      40.771  30.067  31.653  1.00  0.00     0.167 HD
ATOM     43  C   UNL A   1      42.113  27.066  28.718  1.00  0.00     0.034 A 
ATOM     44  C   UNL A   1      40.609  31.132  34.240  1.00  0.00     0.034 A 
ATOM     45  C   UNL A   1      43.029  26.965  29.821  1.00  0.00     0.049 A 
ATOM     46  C   UNL A   1      41.764  30.171  34.252  1.00  0.00     0.074 A 
ATOM     47  C   UNL A   1      44.169  26.189  29.924  1.00  0.00     0.029 A 
ATOM     48  N   UNL A   1      42.908  27.660  31.014  1.00  0.00    -0.354 N 
ATOM     49  N   UNL A   1      42.220  29.421  33.278  1.00  0.00    -0.248 NA
ATOM     50  C   UNL A   1      42.511  30.045  35.511  1.00  0.00     0.031 C 
ATOM     51  C   UNL A   1      44.729  26.403  31.187  1.00  0.00     0.029 A 
ATOM     52  C   UNL A   1      43.943  27.319  31.867  1.00  0.00     0.049 A 
ATOM     53  H   UNL A   1      42.191  28.301  31.225  1.00  0.00     0.167 HD
ATOM     54  C   UNL A   1      43.318  28.746  33.799  1.00  0.00     0.074 A 
ATOM     55  C   UNL A   1      43.474  29.198  35.167  1.00  0.00     0.031 C 
ATOM     56  C   UNL A   1      44.109  27.820  33.208  1.00  0.00     0.034 A 
BRANCH  43  57
ATOM     57  C   UNL A   1      42.345  26.187  27.519  1.00  0.00     0.023 A 
ATOM     58  C   UNL A   1      43.046  26.693  26.407  1.00  0.00     0.012 A 
ATOM     59  C   UNL A   1      41.931  24.841  27.525  1.00  0.00     0.148 A 
ATOM     60  C   UNL A   1      43.314  25.877  25.308  1.00  0.00     0.002 A 
ATOM     61  C   UNL A   1      42.230  24.024  26.440  1.00  0.00     0.091 A 
ATOM     62  F   UNL A   1      41.243  24.387  28.582  1.00  0.00    -0.205 F 
ATOM     63  C   UNL A   1      42.915  24.543  25.328  1.00  0.00     0.022 A 
BRANCH  61  64
ATOM     64  S   UNL A   1      41.817  22.276  26.402  1.00  0.00     0.127 S 
ATOM     65  O   UNL A   1      40.356  22.318  26.403  1.00  0.00    -0.237 OA
ATOM     66  O   UNL A   1      42.413  21.843  25.137  1.00  0.00    -0.237 OA
ATOM     67  O   UNL A   1      42.430  21.695  27.588  1.00  0.00    -0.744 OA
ENDBRANCH  61  64
ENDBRANCH  43  57
BRANCH  44  68
ATOM     68  C   UNL A   1      40.250  31.928  35.447  1.00  0.00     0.023 A 
ATOM     69  C   UNL A   1      40.906  33.149  35.690  1.00  0.00     0.012 A 
ATOM     70  C   UNL A   1      39.229  31.511  36.325  1.00  0.00     0.148 A 
ATOM     71  C   UNL A   1      40.565  33.932  36.795  1.00  0.00     0.002 A 
ATOM     72  C   UNL A   1      38.856  32.322  37.391  1.00  0.00     0.091 A 
ATOM     73  F   UNL A   1      38.631  30.333  36.095  1.00  0.00    -0.205 F 
ATOM     74  C   UNL A   1      39.532  33.526  37.636  1.00  0.00     0.022 A 
BRANCH  72  75
ATOM     75  S   UNL A   1      37.441  31.932  38.428  1.00  0.00     0.127 S 
ATOM     76  O   UNL A   1      36.434  32.861  37.922  1.00  0.00    -0.237 OA
ATOM     77  O   UNL A   1      37.198  30.526  38.106  1.00  0.00    -0.237 OA
ATOM     78  O   UNL A   1      37.895  32.159  39.794  1.00  0.00    -0.744 OA
ENDBRANCH  72  75
ENDBRANCH  44  68
BRANCH  56  79
ATOM     79  C   UNL A   1      45.225  27.236  34.028  1.00  0.00     0.023 A 
ATOM     80  C   UNL A   1      46.468  27.895  34.071  1.00  0.00     0.012 A 
ATOM     81  C   UNL A   1      45.018  26.091  34.821  1.00  0.00     0.148 A 
ATOM     82  C   UNL A   1      47.498  27.413  34.877  1.00  0.00     0.002 A 
ATOM     83  C   UNL A   1      46.034  25.639  35.654  1.00  0.00     0.091 A 
ATOM     84  F   UNL A   1      43.832  25.468  34.748  1.00  0.00    -0.205 F 
ATOM     85  C   UNL A   1      47.276  26.293  35.677  1.00  0.00     0.022 A 
BRANCH  83  86
ATOM     86  S   UNL A   1      45.809  24.260  36.783  1.00  0.00     0.127 S 
ATOM     87  O   UNL A   1      47.140  24.139  37.376  1.00  0.00    -0.237 OA
ATOM     88  O   UNL A   1      44.780  24.765  37.692  1.00  0.00    -0.237 OA
ATOM     89  O   UNL A   1      45.385  23.135  35.960  1.00  0.00    -0.744 OA
ENDBRANCH  83  86
ENDBRANCH  56  79
ENDBRANCH  30  31
ENDBRANCH  23  25
ENDBRANCH  22  23
ENDBRANCH  21  22
ENDBRANCH   1  21
TORSDOF 18
ENDMDL
