MODEL 1
REMARK VINA RESULT:     -11.9      0.000      0.000
REMARK SMILES C[C@H](Oc1ccccc1Cl)C(=O)N1CCCC[C@H]1C(=O)OCCOC(=O)c1ccc(-c2c3nc(c(-c4cccc(S(=O)(=O)[O-])c4F)c4ccc([nH]4)c(-c4cccc(S(=O)(=O)[O-])c4F)c4nc(c(-c5cccc(S(=O)(=O)[O-])c5F)c5ccc2[nH]5)C=C4)C=C3)cc1
REMARK SMILES IDX 22 1 21 2 19 3 20 4 18 5 13 6 14 7 15 8 17 9 16 10 11 11
REMARK SMILES IDX 12 12 2 13 1 14 3 15 4 16 5 17 9 18 6 19 8 20 10 21 7 22
REMARK SMILES IDX 23 23 24 24 25 25 26 26 27 27 28 28 89 29 29 30 88 31 30 32
REMARK SMILES IDX 31 33 32 34 82 35 33 36 87 37 81 38 83 39 34 40 86 41 80 42
REMARK SMILES IDX 79 43 35 45 67 46 47 47 66 48 48 49 51 50 65 51 84 52 49 53
REMARK SMILES IDX 50 54 64 56 85 57 52 58 36 59 37 60 45 61 38 62 40 63 46 64
REMARK SMILES IDX 39 65 41 66 42 67 43 68 44 69 68 70 69 71 77 72 70 73 72 74
REMARK SMILES IDX 78 75 71 76 73 77 74 78 75 79 76 80 53 81 54 82 62 83 55 84
REMARK SMILES IDX 57 85 63 86 56 87 58 88 59 89 60 90 61 91
REMARK H PARENT 83 44 51 55
REMARK Flexibility Score: inf
ROOT
ATOM      1  C   UNL A   1      36.103  20.170  25.003  1.00  0.00     0.274 C 
ENDROOT
BRANCH   1   2
ATOM      2  O   UNL A   1      34.983  20.888  25.565  1.00  0.00    -0.461 OA
BRANCH   2   3
ATOM      3  C   UNL A   1      33.784  20.680  24.947  1.00  0.00     0.328 C 
ATOM      4  O   UNL A   1      33.392  19.576  24.595  1.00  0.00    -0.250 OA
BRANCH   3   5
ATOM      5  C   UNL A   1      33.055  21.997  24.616  1.00  0.00     0.195 C 
ATOM      6  N   UNL A   1      33.188  23.032  25.680  1.00  0.00    -0.326 N 
ATOM      7  C   UNL A   1      34.381  23.878  25.628  1.00  0.00     0.120 C 
ATOM      8  C   UNL A   1      34.682  24.436  24.248  1.00  0.00     0.022 C 
ATOM      9  C   UNL A   1      33.404  22.560  23.228  1.00  0.00     0.037 C 
ATOM     10  C   UNL A   1      34.718  23.327  23.209  1.00  0.00     0.005 C 
BRANCH   6  11
ATOM     11  C   UNL A   1      32.376  23.165  26.812  1.00  0.00     0.264 C 
ATOM     12  O   UNL A   1      32.644  22.555  27.856  1.00  0.00    -0.271 OA
BRANCH  11  13
ATOM     13  C   UNL A   1      31.025  23.932  26.754  1.00  0.00     0.259 C 
ATOM     14  C   UNL A   1      29.911  22.899  26.972  1.00  0.00     0.064 C 
BRANCH  13  15
ATOM     15  O   UNL A   1      30.942  24.721  25.580  1.00  0.00    -0.479 OA
BRANCH  15  16
ATOM     16  C   UNL A   1      31.258  26.042  25.506  1.00  0.00     0.139 A 
ATOM     17  C   UNL A   1      31.412  26.901  26.593  1.00  0.00     0.048 A 
ATOM     18  C   UNL A   1      31.364  26.577  24.209  1.00  0.00     0.083 A 
ATOM     19  C   UNL A   1      31.577  28.276  26.391  1.00  0.00     0.004 A 
ATOM     20  C   UNL A   1      31.552  27.947  24.008  1.00  0.00     0.024 A 
ATOM     21  Cl  UNL A   1      31.276  25.575  22.799  1.00  0.00    -0.080 Cl
ATOM     22  C   UNL A   1      31.637  28.801  25.102  1.00  0.00     0.002 A 
ENDBRANCH  15  16
ENDBRANCH  13  15
ENDBRANCH  11  13
ENDBRANCH   6  11
ENDBRANCH   3   5
ENDBRANCH   2   3
ENDBRANCH   1   2
BRANCH   1  23
ATOM     23  C   UNL A   1      37.223  21.117  24.576  1.00  0.00     0.275 C 
BRANCH  23  24
ATOM     24  O   UNL A   1      37.662  21.890  25.702  1.00  0.00    -0.458 OA
BRANCH  24  25
ATOM     25  C   UNL A   1      38.928  21.667  26.131  1.00  0.00     0.338 C 
ATOM     26  O   UNL A   1      39.568  20.639  25.990  1.00  0.00    -0.246 OA
BRANCH  25  27
ATOM     27  C   UNL A   1      39.482  22.885  26.771  1.00  0.00     0.060 A 
ATOM     28  C   UNL A   1      39.004  24.154  26.454  1.00  0.00     0.016 A 
ATOM     29  C   UNL A   1      40.577  22.766  27.629  1.00  0.00     0.016 A 
ATOM     30  C   UNL A   1      39.675  25.296  26.897  1.00  0.00     0.010 A 
ATOM     31  C   UNL A   1      41.172  23.913  28.167  1.00  0.00     0.010 A 
ATOM     32  C   UNL A   1      40.753  25.200  27.784  1.00  0.00    -0.014 A 
BRANCH  32  33
ATOM     33  C   UNL A   1      41.444  26.415  28.317  1.00  0.00     0.031 A 
ATOM     34  C   UNL A   1      40.663  27.451  29.088  1.00  0.00     0.074 A 
ATOM     35  C   UNL A   1      42.751  26.641  28.066  1.00  0.00     0.049 A 
ATOM     36  N   UNL A   1      40.958  28.703  29.322  1.00  0.00    -0.248 NA
ATOM     37  C   UNL A   1      39.365  27.029  29.645  1.00  0.00     0.031 C 
ATOM     38  C   UNL A   1      43.658  25.729  27.368  1.00  0.00     0.029 A 
ATOM     39  N   UNL A   1      43.541  27.734  28.345  1.00  0.00    -0.354 N 
ATOM     40  C   UNL A   1      39.841  29.247  29.947  1.00  0.00     0.074 A 
ATOM     41  C   UNL A   1      38.879  28.177  30.097  1.00  0.00     0.031 C 
ATOM     42  C   UNL A   1      44.872  26.287  27.283  1.00  0.00     0.029 A 
ATOM     43  C   UNL A   1      44.805  27.644  27.807  1.00  0.00     0.049 A 
ATOM     44  H   UNL A   1      43.232  28.503  28.876  1.00  0.00     0.167 HD
ATOM     45  C   UNL A   1      39.638  30.524  30.348  1.00  0.00     0.034 A 
ATOM     46  C   UNL A   1      45.781  28.563  27.665  1.00  0.00     0.034 A 
ATOM     47  C   UNL A   1      40.643  31.554  30.307  1.00  0.00     0.049 A 
ATOM     48  C   UNL A   1      45.548  29.963  28.151  1.00  0.00     0.074 A 
ATOM     49  C   UNL A   1      40.552  32.861  30.753  1.00  0.00     0.029 A 
ATOM     50  N   UNL A   1      41.928  31.387  29.817  1.00  0.00    -0.354 N 
ATOM     51  N   UNL A   1      44.489  30.464  28.738  1.00  0.00    -0.248 NA
ATOM     52  C   UNL A   1      46.640  30.927  27.956  1.00  0.00     0.031 C 
ATOM     53  C   UNL A   1      41.783  33.486  30.532  1.00  0.00     0.029 A 
ATOM     54  C   UNL A   1      42.642  32.566  29.954  1.00  0.00     0.049 A 
ATOM     55  H   UNL A   1      42.283  30.555  29.430  1.00  0.00     0.167 HD
ATOM     56  C   UNL A   1      44.790  31.797  28.991  1.00  0.00     0.074 A 
ATOM     57  C   UNL A   1      46.142  32.018  28.521  1.00  0.00     0.031 C 
ATOM     58  C   UNL A   1      44.005  32.757  29.536  1.00  0.00     0.034 A 
BRANCH  45  59
ATOM     59  C   UNL A   1      38.285  30.899  30.892  1.00  0.00     0.023 A 
ATOM     60  C   UNL A   1      38.000  30.721  32.257  1.00  0.00     0.012 A 
ATOM     61  C   UNL A   1      37.338  31.533  30.061  1.00  0.00     0.148 A 
ATOM     62  C   UNL A   1      36.785  31.157  32.788  1.00  0.00     0.002 A 
ATOM     63  C   UNL A   1      36.146  32.000  30.604  1.00  0.00     0.091 A 
ATOM     64  F   UNL A   1      37.621  31.673  28.758  1.00  0.00    -0.205 F 
ATOM     65  C   UNL A   1      35.867  31.807  31.967  1.00  0.00     0.022 A 
BRANCH  63  66
ATOM     66  S   UNL A   1      34.940  32.920  29.642  1.00  0.00     0.127 S 
ATOM     67  O   UNL A   1      34.027  33.390  30.682  1.00  0.00    -0.237 OA
ATOM     68  O   UNL A   1      35.761  33.968  29.034  1.00  0.00    -0.237 OA
ATOM     69  O   UNL A   1      34.375  31.969  28.694  1.00  0.00    -0.744 OA
ENDBRANCH  63  66
ENDBRANCH  45  59
BRANCH  46  70
ATOM     70  C   UNL A   1      47.057  28.177  26.996  1.00  0.00     0.023 A 
ATOM     71  C   UNL A   1      48.137  27.719  27.772  1.00  0.00     0.012 A 
ATOM     72  C   UNL A   1      47.175  28.179  25.592  1.00  0.00     0.148 A 
ATOM     73  C   UNL A   1      49.313  27.277  27.162  1.00  0.00     0.002 A 
ATOM     74  C   UNL A   1      48.319  27.668  24.989  1.00  0.00     0.091 A 
ATOM     75  F   UNL A   1      46.152  28.650  24.864  1.00  0.00    -0.205 F 
ATOM     76  C   UNL A   1      49.396  27.231  25.772  1.00  0.00     0.022 A 
BRANCH  74  77
ATOM     77  S   UNL A   1      48.398  27.407  23.213  1.00  0.00     0.127 S 
ATOM     78  O   UNL A   1      47.255  28.182  22.740  1.00  0.00    -0.237 OA
ATOM     79  O   UNL A   1      49.707  27.966  22.870  1.00  0.00    -0.237 OA
ATOM     80  O   UNL A   1      48.313  25.961  23.043  1.00  0.00    -0.744 OA
ENDBRANCH  74  77
ENDBRANCH  46  70
BRANCH  58  81
ATOM     81  C   UNL A   1      44.590  34.133  29.682  1.00  0.00     0.023 A 
ATOM     82  C   UNL A   1      45.281  34.470  30.863  1.00  0.00     0.012 A 
ATOM     83  C   UNL A   1      44.526  35.062  28.625  1.00  0.00     0.148 A 
ATOM     84  C   UNL A   1      45.883  35.720  30.997  1.00  0.00     0.002 A 
ATOM     85  C   UNL A   1      45.160  36.291  28.752  1.00  0.00     0.091 A 
ATOM     86  F   UNL A   1      43.847  34.725  27.519  1.00  0.00    -0.205 F 
ATOM     87  C   UNL A   1      45.832  36.625  29.939  1.00  0.00     0.022 A 
BRANCH  85  88
ATOM     88  S   UNL A   1      45.213  37.486  27.411  1.00  0.00     0.127 S 
ATOM     89  O   UNL A   1      43.801  37.591  27.050  1.00  0.00    -0.237 OA
ATOM     90  O   UNL A   1      45.763  38.672  28.071  1.00  0.00    -0.237 OA
ATOM     91  O   UNL A   1      46.080  36.907  26.394  1.00  0.00    -0.744 OA
ENDBRANCH  85  88
ENDBRANCH  58  81
ENDBRANCH  32  33
ENDBRANCH  25  27
ENDBRANCH  24  25
ENDBRANCH  23  24
ENDBRANCH   1  23
TORSDOF 18
ENDMDL
MODEL 2
REMARK VINA RESULT:     -11.9      5.103      9.975
REMARK SMILES C[C@H](Oc1ccccc1Cl)C(=O)N1CCCC[C@H]1C(=O)OCCOC(=O)c1ccc(-c2c3nc(c(-c4cccc(S(=O)(=O)[O-])c4F)c4ccc([nH]4)c(-c4cccc(S(=O)(=O)[O-])c4F)c4nc(c(-c5cccc(S(=O)(=O)[O-])c5F)c5ccc2[nH]5)C=C4)C=C3)cc1
REMARK SMILES IDX 22 1 21 2 19 3 20 4 18 5 13 6 14 7 15 8 17 9 16 10 11 11
REMARK SMILES IDX 12 12 2 13 1 14 3 15 4 16 5 17 9 18 6 19 8 20 10 21 7 22
REMARK SMILES IDX 23 23 24 24 25 25 26 26 27 27 28 28 89 29 29 30 88 31 30 32
REMARK SMILES IDX 31 33 32 34 82 35 33 36 87 37 81 38 83 39 34 40 86 41 80 42
REMARK SMILES IDX 79 43 35 45 67 46 47 47 66 48 48 49 51 50 65 51 84 52 49 53
REMARK SMILES IDX 50 54 64 56 85 57 52 58 36 59 37 60 45 61 38 62 40 63 46 64
REMARK SMILES IDX 39 65 41 66 42 67 43 68 44 69 68 70 69 71 77 72 70 73 72 74
REMARK SMILES IDX 78 75 71 76 73 77 74 78 75 79 76 80 53 81 54 82 62 83 55 84
REMARK SMILES IDX 57 85 63 86 56 87 58 88 59 89 60 90 61 91
REMARK H PARENT 83 44 51 55
REMARK Flexibility Score: inf
ROOT
ATOM      1  C   UNL A   1      31.825  29.106  25.331  1.00  0.00     0.274 C 
ENDROOT
BRANCH   1   2
ATOM      2  O   UNL A   1      30.874  28.992  24.250  1.00  0.00    -0.461 OA
BRANCH   2   3
ATOM      3  C   UNL A   1      30.748  27.745  23.709  1.00  0.00     0.328 C 
ATOM      4  O   UNL A   1      29.746  27.369  23.116  1.00  0.00    -0.250 OA
BRANCH   3   5
ATOM      5  C   UNL A   1      31.939  26.829  24.054  1.00  0.00     0.195 C 
ATOM      6  N   UNL A   1      31.539  25.425  24.355  1.00  0.00    -0.326 N 
ATOM      7  C   UNL A   1      31.396  24.524  23.212  1.00  0.00     0.120 C 
ATOM      8  C   UNL A   1      32.548  24.590  22.225  1.00  0.00     0.022 C 
ATOM      9  C   UNL A   1      33.076  26.888  23.021  1.00  0.00     0.037 C 
ATOM     10  C   UNL A   1      32.815  26.023  21.796  1.00  0.00     0.005 C 
BRANCH   6  11
ATOM     11  C   UNL A   1      31.129  24.930  25.598  1.00  0.00     0.264 C 
ATOM     12  O   UNL A   1      30.740  25.701  26.487  1.00  0.00    -0.271 OA
BRANCH  11  13
ATOM     13  C   UNL A   1      31.308  23.433  25.974  1.00  0.00     0.259 C 
ATOM     14  C   UNL A   1      30.133  23.052  26.884  1.00  0.00     0.064 C 
BRANCH  13  15
ATOM     15  O   UNL A   1      32.610  23.191  26.479  1.00  0.00    -0.479 OA
BRANCH  15  16
ATOM     16  C   UNL A   1      33.577  22.486  25.832  1.00  0.00     0.139 A 
ATOM     17  C   UNL A   1      33.573  21.109  25.620  1.00  0.00     0.048 A 
ATOM     18  C   UNL A   1      34.700  23.225  25.414  1.00  0.00     0.083 A 
ATOM     19  C   UNL A   1      34.698  20.470  25.086  1.00  0.00     0.004 A 
ATOM     20  C   UNL A   1      35.813  22.590  24.859  1.00  0.00     0.024 A 
ATOM     21  Cl  UNL A   1      34.760  24.950  25.554  1.00  0.00    -0.080 Cl
ATOM     22  C   UNL A   1      35.821  21.207  24.715  1.00  0.00     0.002 A 
ENDBRANCH  15  16
ENDBRANCH  13  15
ENDBRANCH  11  13
ENDBRANCH   6  11
ENDBRANCH   3   5
ENDBRANCH   2   3
ENDBRANCH   1   2
BRANCH   1  23
ATOM     23  C   UNL A   1      31.768  30.484  25.989  1.00  0.00     0.275 C 
BRANCH  23  24
ATOM     24  O   UNL A   1      32.580  30.491  27.173  1.00  0.00    -0.458 OA
BRANCH  24  25
ATOM     25  C   UNL A   1      33.299  31.615  27.405  1.00  0.00     0.338 C 
ATOM     26  O   UNL A   1      32.903  32.762  27.292  1.00  0.00    -0.246 OA
BRANCH  25  27
ATOM     27  C   UNL A   1      34.662  31.271  27.880  1.00  0.00     0.060 A 
ATOM     28  C   UNL A   1      34.990  29.974  28.268  1.00  0.00     0.016 A 
ATOM     29  C   UNL A   1      35.603  32.288  28.043  1.00  0.00     0.016 A 
ATOM     30  C   UNL A   1      36.201  29.712  28.913  1.00  0.00     0.010 A 
ATOM     31  C   UNL A   1      36.864  31.996  28.580  1.00  0.00     0.010 A 
ATOM     32  C   UNL A   1      37.173  30.709  29.055  1.00  0.00    -0.014 A 
BRANCH  32  33
ATOM     33  C   UNL A   1      38.499  30.430  29.687  1.00  0.00     0.031 A 
ATOM     34  C   UNL A   1      39.465  29.477  29.027  1.00  0.00     0.074 A 
ATOM     35  C   UNL A   1      38.830  30.966  30.881  1.00  0.00     0.049 A 
ATOM     36  N   UNL A   1      40.476  28.831  29.547  1.00  0.00    -0.248 NA
ATOM     37  C   UNL A   1      39.249  29.193  27.597  1.00  0.00     0.031 C 
ATOM     38  C   UNL A   1      38.029  31.930  31.637  1.00  0.00     0.029 A 
ATOM     39  N   UNL A   1      39.924  30.747  31.689  1.00  0.00    -0.354 N 
ATOM     40  C   UNL A   1      40.940  27.981  28.550  1.00  0.00     0.074 A 
ATOM     41  C   UNL A   1      40.130  28.227  27.376  1.00  0.00     0.031 C 
ATOM     42  C   UNL A   1      38.655  32.228  32.783  1.00  0.00     0.029 A 
ATOM     43  C   UNL A   1      39.838  31.388  32.906  1.00  0.00     0.049 A 
ATOM     44  H   UNL A   1      40.689  30.188  31.424  1.00  0.00     0.167 HD
ATOM     45  C   UNL A   1      41.944  27.075  28.614  1.00  0.00     0.034 A 
ATOM     46  C   UNL A   1      40.568  31.262  34.032  1.00  0.00     0.034 A 
ATOM     47  C   UNL A   1      42.824  26.922  29.742  1.00  0.00     0.049 A 
ATOM     48  C   UNL A   1      41.700  30.278  34.068  1.00  0.00     0.074 A 
ATOM     49  C   UNL A   1      43.911  26.076  29.875  1.00  0.00     0.029 A 
ATOM     50  N   UNL A   1      42.735  27.646  30.920  1.00  0.00    -0.354 N 
ATOM     51  N   UNL A   1      42.128  29.481  33.119  1.00  0.00    -0.248 NA
ATOM     52  C   UNL A   1      42.451  30.171  35.327  1.00  0.00     0.031 C 
ATOM     53  C   UNL A   1      44.481  26.289  31.134  1.00  0.00     0.029 A 
ATOM     54  C   UNL A   1      43.751  27.271  31.783  1.00  0.00     0.049 A 
ATOM     55  H   UNL A   1      42.052  28.327  31.116  1.00  0.00     0.167 HD
ATOM     56  C   UNL A   1      43.201  28.787  33.662  1.00  0.00     0.074 A 
ATOM     57  C   UNL A   1      43.379  29.278  35.013  1.00  0.00     0.031 C 
ATOM     58  C   UNL A   1      43.953  27.809  33.102  1.00  0.00     0.034 A 
BRANCH  45  59
ATOM     59  C   UNL A   1      42.178  26.178  27.428  1.00  0.00     0.023 A 
ATOM     60  C   UNL A   1      42.967  26.623  26.352  1.00  0.00     0.012 A 
ATOM     61  C   UNL A   1      41.701  24.850  27.438  1.00  0.00     0.148 A 
ATOM     62  C   UNL A   1      43.270  25.763  25.295  1.00  0.00     0.002 A 
ATOM     63  C   UNL A   1      42.039  23.988  26.401  1.00  0.00     0.091 A 
ATOM     64  F   UNL A   1      40.932  24.454  28.461  1.00  0.00    -0.205 F 
ATOM     65  C   UNL A   1      42.819  24.445  25.326  1.00  0.00     0.022 A 
BRANCH  63  66
ATOM     66  S   UNL A   1      41.573  22.252  26.396  1.00  0.00     0.127 S 
ATOM     67  O   UNL A   1      40.124  22.336  26.218  1.00  0.00    -0.237 OA
ATOM     68  O   UNL A   1      42.300  21.738  25.235  1.00  0.00    -0.237 OA
ATOM     69  O   UNL A   1      42.018  21.715  27.675  1.00  0.00    -0.744 OA
ENDBRANCH  63  66
ENDBRANCH  45  59
BRANCH  46  70
ATOM     70  C   UNL A   1      40.212  32.078  35.228  1.00  0.00     0.023 A 
ATOM     71  C   UNL A   1      40.739  33.375  35.367  1.00  0.00     0.012 A 
ATOM     72  C   UNL A   1      39.288  31.608  36.184  1.00  0.00     0.148 A 
ATOM     73  C   UNL A   1      40.357  34.186  36.437  1.00  0.00     0.002 A 
ATOM     74  C   UNL A   1      38.855  32.448  37.204  1.00  0.00     0.091 A 
ATOM     75  F   UNL A   1      38.818  30.358  36.061  1.00  0.00    -0.205 F 
ATOM     76  C   UNL A   1      39.400  33.731  37.342  1.00  0.00     0.022 A 
BRANCH  74  77
ATOM     77  S   UNL A   1      37.488  31.985  38.275  1.00  0.00     0.127 S 
ATOM     78  O   UNL A   1      38.020  32.296  39.598  1.00  0.00    -0.237 OA
ATOM     79  O   UNL A   1      36.415  32.870  37.818  1.00  0.00    -0.237 OA
ATOM     80  O   UNL A   1      37.251  30.575  37.989  1.00  0.00    -0.744 OA
ENDBRANCH  74  77
ENDBRANCH  46  70
BRANCH  58  81
ATOM     81  C   UNL A   1      45.056  27.217  33.932  1.00  0.00     0.023 A 
ATOM     82  C   UNL A   1      46.330  27.819  33.921  1.00  0.00     0.012 A 
ATOM     83  C   UNL A   1      44.813  26.119  34.780  1.00  0.00     0.148 A 
ATOM     84  C   UNL A   1      47.353  27.324  34.728  1.00  0.00     0.002 A 
ATOM     85  C   UNL A   1      45.827  25.654  35.609  1.00  0.00     0.091 A 
ATOM     86  F   UNL A   1      43.599  25.551  34.759  1.00  0.00    -0.205 F 
ATOM     87  C   UNL A   1      47.098  26.250  35.579  1.00  0.00     0.022 A 
BRANCH  85  88
ATOM     88  S   UNL A   1      45.566  24.328  36.792  1.00  0.00     0.127 S 
ATOM     89  O   UNL A   1      45.248  23.204  35.915  1.00  0.00    -0.237 OA
ATOM     90  O   UNL A   1      46.870  24.237  37.452  1.00  0.00    -0.237 OA
ATOM     91  O   UNL A   1      44.483  24.773  37.659  1.00  0.00    -0.744 OA
ENDBRANCH  85  88
ENDBRANCH  58  81
ENDBRANCH  32  33
ENDBRANCH  25  27
ENDBRANCH  24  25
ENDBRANCH  23  24
ENDBRANCH   1  23
TORSDOF 18
ENDMDL
MODEL 3
REMARK VINA RESULT:     -11.8      5.067      9.971
REMARK SMILES C[C@H](Oc1ccccc1Cl)C(=O)N1CCCC[C@H]1C(=O)OCCOC(=O)c1ccc(-c2c3nc(c(-c4cccc(S(=O)(=O)[O-])c4F)c4ccc([nH]4)c(-c4cccc(S(=O)(=O)[O-])c4F)c4nc(c(-c5cccc(S(=O)(=O)[O-])c5F)c5ccc2[nH]5)C=C4)C=C3)cc1
REMARK SMILES IDX 22 1 21 2 19 3 20 4 18 5 13 6 14 7 15 8 17 9 16 10 11 11
REMARK SMILES IDX 12 12 2 13 1 14 3 15 4 16 5 17 9 18 6 19 8 20 10 21 7 22
REMARK SMILES IDX 23 23 24 24 25 25 26 26 27 27 28 28 89 29 29 30 88 31 30 32
REMARK SMILES IDX 31 33 32 34 82 35 33 36 87 37 81 38 83 39 34 40 86 41 80 42
REMARK SMILES IDX 79 43 35 45 67 46 47 47 66 48 48 49 51 50 65 51 84 52 49 53
REMARK SMILES IDX 50 54 64 56 85 57 52 58 36 59 37 60 45 61 38 62 40 63 46 64
REMARK SMILES IDX 39 65 41 66 42 67 43 68 44 69 68 70 69 71 77 72 70 73 72 74
REMARK SMILES IDX 78 75 71 76 73 77 74 78 75 79 76 80 53 81 54 82 62 83 55 84
REMARK SMILES IDX 57 85 63 86 56 87 58 88 59 89 60 90 61 91
REMARK H PARENT 83 44 51 55
REMARK Flexibility Score: inf
ROOT
ATOM      1  C   UNL A   1      31.663  27.964  26.436  1.00  0.00     0.274 C 
ENDROOT
BRANCH   1   2
ATOM      2  O   UNL A   1      32.689  26.970  26.220  1.00  0.00    -0.461 OA
BRANCH   2   3
ATOM      3  C   UNL A   1      32.424  26.057  25.241  1.00  0.00     0.328 C 
ATOM      4  O   UNL A   1      31.440  25.330  25.249  1.00  0.00    -0.250 OA
BRANCH   3   5
ATOM      5  C   UNL A   1      33.566  25.945  24.212  1.00  0.00     0.195 C 
ATOM      6  N   UNL A   1      33.827  24.548  23.764  1.00  0.00    -0.326 N 
ATOM      7  C   UNL A   1      33.010  24.050  22.658  1.00  0.00     0.120 C 
ATOM      8  C   UNL A   1      32.901  25.012  21.488  1.00  0.00     0.022 C 
ATOM      9  C   UNL A   1      33.413  26.906  23.020  1.00  0.00     0.037 C 
ATOM     10  C   UNL A   1      32.456  26.388  21.956  1.00  0.00     0.005 C 
BRANCH   6  11
ATOM     11  C   UNL A   1      34.654  23.616  24.401  1.00  0.00     0.264 C 
ATOM     12  O   UNL A   1      35.860  23.549  24.123  1.00  0.00    -0.271 OA
BRANCH  11  13
ATOM     13  C   UNL A   1      34.071  22.524  25.341  1.00  0.00     0.259 C 
ATOM     14  C   UNL A   1      33.988  23.135  26.746  1.00  0.00     0.064 C 
BRANCH  13  15
ATOM     15  O   UNL A   1      34.795  21.312  25.215  1.00  0.00    -0.479 OA
BRANCH  15  16
ATOM     16  C   UNL A   1      34.292  20.155  24.705  1.00  0.00     0.139 A 
ATOM     17  C   UNL A   1      32.968  19.944  24.323  1.00  0.00     0.048 A 
ATOM     18  C   UNL A   1      35.190  19.074  24.632  1.00  0.00     0.083 A 
ATOM     19  C   UNL A   1      32.529  18.665  23.965  1.00  0.00     0.004 A 
ATOM     20  C   UNL A   1      34.756  17.802  24.251  1.00  0.00     0.024 A 
ATOM     21  Cl  UNL A   1      36.873  19.260  25.000  1.00  0.00    -0.080 Cl
ATOM     22  C   UNL A   1      33.418  17.592  23.938  1.00  0.00     0.002 A 
ENDBRANCH  15  16
ENDBRANCH  13  15
ENDBRANCH  11  13
ENDBRANCH   6  11
ENDBRANCH   3   5
ENDBRANCH   2   3
ENDBRANCH   1   2
BRANCH   1  23
ATOM     23  C   UNL A   1      31.765  29.108  25.428  1.00  0.00     0.275 C 
BRANCH  23  24
ATOM     24  O   UNL A   1      33.008  29.803  25.606  1.00  0.00    -0.458 OA
BRANCH  24  25
ATOM     25  C   UNL A   1      33.017  30.795  26.528  1.00  0.00     0.338 C 
ATOM     26  O   UNL A   1      32.151  31.638  26.692  1.00  0.00    -0.246 OA
BRANCH  25  27
ATOM     27  C   UNL A   1      34.227  30.701  27.381  1.00  0.00     0.060 A 
ATOM     28  C   UNL A   1      35.032  31.811  27.626  1.00  0.00     0.016 A 
ATOM     29  C   UNL A   1      34.627  29.452  27.860  1.00  0.00     0.016 A 
ATOM     30  C   UNL A   1      36.275  31.663  28.244  1.00  0.00     0.010 A 
ATOM     31  C   UNL A   1      35.819  29.330  28.586  1.00  0.00     0.010 A 
ATOM     32  C   UNL A   1      36.681  30.428  28.762  1.00  0.00    -0.014 A 
BRANCH  32  33
ATOM     33  C   UNL A   1      37.981  30.265  29.483  1.00  0.00     0.031 A 
ATOM     34  C   UNL A   1      39.070  29.404  28.892  1.00  0.00     0.074 A 
ATOM     35  C   UNL A   1      38.181  30.824  30.696  1.00  0.00     0.049 A 
ATOM     36  N   UNL A   1      40.095  28.847  29.481  1.00  0.00    -0.248 NA
ATOM     37  C   UNL A   1      38.977  29.107  27.451  1.00  0.00     0.031 C 
ATOM     38  C   UNL A   1      37.249  31.710  31.394  1.00  0.00     0.029 A 
ATOM     39  N   UNL A   1      39.232  30.698  31.577  1.00  0.00    -0.354 N 
ATOM     40  C   UNL A   1      40.700  28.045  28.520  1.00  0.00     0.074 A 
ATOM     41  C   UNL A   1      39.953  28.223  27.293  1.00  0.00     0.031 C 
ATOM     42  C   UNL A   1      37.766  32.057  32.579  1.00  0.00     0.029 A 
ATOM     43  C   UNL A   1      39.008  31.324  32.783  1.00  0.00     0.049 A 
ATOM     44  H   UNL A   1      40.060  30.210  31.365  1.00  0.00     0.167 HD
ATOM     45  C   UNL A   1      41.773  27.231  28.654  1.00  0.00     0.034 A 
ATOM     46  C   UNL A   1      39.668  31.259  33.957  1.00  0.00     0.034 A 
ATOM     47  C   UNL A   1      42.584  27.152  29.840  1.00  0.00     0.049 A 
ATOM     48  C   UNL A   1      40.877  30.379  34.072  1.00  0.00     0.074 A 
ATOM     49  C   UNL A   1      43.730  26.405  30.048  1.00  0.00     0.029 A 
ATOM     50  N   UNL A   1      42.352  27.861  31.007  1.00  0.00    -0.354 N 
ATOM     51  N   UNL A   1      41.437  29.626  33.156  1.00  0.00    -0.248 NA
ATOM     52  C   UNL A   1      41.547  30.333  35.379  1.00  0.00     0.031 C 
ATOM     53  C   UNL A   1      44.192  26.662  31.343  1.00  0.00     0.029 A 
ATOM     54  C   UNL A   1      43.336  27.573  31.938  1.00  0.00     0.049 A 
ATOM     55  H   UNL A   1      41.600  28.478  31.154  1.00  0.00     0.167 HD
ATOM     56  C   UNL A   1      42.528  29.027  33.773  1.00  0.00     0.074 A 
ATOM     57  C   UNL A   1      42.570  29.527  35.131  1.00  0.00     0.031 C 
ATOM     58  C   UNL A   1      43.400  28.122  33.266  1.00  0.00     0.034 A 
BRANCH  45  59
ATOM     59  C   UNL A   1      42.165  26.363  27.488  1.00  0.00     0.023 A 
ATOM     60  C   UNL A   1      43.034  26.859  26.500  1.00  0.00     0.012 A 
ATOM     61  C   UNL A   1      41.753  25.014  27.438  1.00  0.00     0.148 A 
ATOM     62  C   UNL A   1      43.481  26.029  25.471  1.00  0.00     0.002 A 
ATOM     63  C   UNL A   1      42.233  24.183  26.432  1.00  0.00     0.091 A 
ATOM     64  F   UNL A   1      40.907  24.568  28.376  1.00  0.00    -0.205 F 
ATOM     65  C   UNL A   1      43.093  24.691  25.444  1.00  0.00     0.022 A 
BRANCH  63  66
ATOM     66  S   UNL A   1      41.852  22.428  26.364  1.00  0.00     0.127 S 
ATOM     67  O   UNL A   1      42.661  21.994  25.226  1.00  0.00    -0.237 OA
ATOM     68  O   UNL A   1      42.327  21.956  27.665  1.00  0.00    -0.237 OA
ATOM     69  O   UNL A   1      40.410  22.340  26.179  1.00  0.00    -0.744 OA
ENDBRANCH  63  66
ENDBRANCH  45  59
BRANCH  46  70
ATOM     70  C   UNL A   1      39.161  32.035  35.125  1.00  0.00     0.023 A 
ATOM     71  C   UNL A   1      38.300  31.418  36.050  1.00  0.00     0.012 A 
ATOM     72  C   UNL A   1      39.596  33.354  35.369  1.00  0.00     0.148 A 
ATOM     73  C   UNL A   1      37.876  32.100  37.192  1.00  0.00     0.002 A 
ATOM     74  C   UNL A   1      39.231  34.000  36.544  1.00  0.00     0.091 A 
ATOM     75  F   UNL A   1      40.389  33.945  34.463  1.00  0.00    -0.205 F 
ATOM     76  C   UNL A   1      38.359  33.382  37.450  1.00  0.00     0.022 A 
BRANCH  74  77
ATOM     77  S   UNL A   1      39.976  35.566  37.016  1.00  0.00     0.127 S 
ATOM     78  O   UNL A   1      41.386  35.209  37.133  1.00  0.00    -0.237 OA
ATOM     79  O   UNL A   1      39.651  36.426  35.877  1.00  0.00    -0.237 OA
ATOM     80  O   UNL A   1      39.300  35.944  38.251  1.00  0.00    -0.744 OA
ENDBRANCH  74  77
ENDBRANCH  46  70
BRANCH  58  81
ATOM     81  C   UNL A   1      44.492  27.626  34.171  1.00  0.00     0.023 A 
ATOM     82  C   UNL A   1      45.649  28.409  34.351  1.00  0.00     0.012 A 
ATOM     83  C   UNL A   1      44.340  26.431  34.901  1.00  0.00     0.148 A 
ATOM     84  C   UNL A   1      46.650  27.999  35.231  1.00  0.00     0.002 A 
ATOM     85  C   UNL A   1      45.324  26.048  35.803  1.00  0.00     0.091 A 
ATOM     86  F   UNL A   1      43.238  25.694  34.698  1.00  0.00    -0.205 F 
ATOM     87  C   UNL A   1      46.482  26.825  35.964  1.00  0.00     0.022 A 
BRANCH  85  88
ATOM     88  S   UNL A   1      45.156  24.595  36.846  1.00  0.00     0.127 S 
ATOM     89  O   UNL A   1      44.742  23.581  35.879  1.00  0.00    -0.237 OA
ATOM     90  O   UNL A   1      46.514  24.425  37.366  1.00  0.00    -0.237 OA
ATOM     91  O   UNL A   1      44.165  24.940  37.856  1.00  0.00    -0.744 OA
ENDBRANCH  85  88
ENDBRANCH  58  81
ENDBRANCH  32  33
ENDBRANCH  25  27
ENDBRANCH  24  25
ENDBRANCH  23  24
ENDBRANCH   1  23
TORSDOF 18
ENDMDL
