MODEL 1
REMARK VINA RESULT:     -11.6      0.000      0.000
REMARK SMILES Cc1cs/c(=N\S(=O)(=O)c2ccc(/C=C/C(=O)OCCOC(=O)c3ccc(-c4c5nc(c(-c6cccc(S(=O)(=O)[O-])c6F)c6ccc([nH]6)c(-c6cccc(S(=O)(=O)[O-])c6F)c6nc(c(-c7cccc(S(=O)(=O)[O-])c7F)c7ccc4[nH]7)C=C6)C=C5)cc3)cc2)[nH]1
REMARK SMILES IDX 19 1 18 2 16 3 17 4 15 5 14 6 13 7 10 8 11 9 88 10 12 11
REMARK SMILES IDX 87 12 7 13 8 14 9 15 6 16 1 17 2 18 3 19 89 20 4 21 5 22
REMARK SMILES IDX 20 24 21 25 22 26 23 27 24 28 25 29 86 30 26 31 85 32 27 33
REMARK SMILES IDX 28 34 29 35 79 36 30 37 84 38 78 39 80 40 31 41 83 42 77 43
REMARK SMILES IDX 76 44 32 46 64 47 44 48 63 49 45 50 48 51 62 52 81 53 46 54
REMARK SMILES IDX 47 55 61 57 82 58 49 59 33 60 34 61 42 62 35 63 37 64 43 65
REMARK SMILES IDX 36 66 38 67 39 68 40 69 41 70 65 71 66 72 74 73 67 74 69 75
REMARK SMILES IDX 75 76 68 77 70 78 71 79 72 80 73 81 50 82 51 83 59 84 52 85
REMARK SMILES IDX 54 86 60 87 53 88 55 89 56 90 57 91 58 92
REMARK H PARENT 89 23 80 45 48 56
REMARK Flexibility Score: inf
ROOT
ATOM      1  C   UNL A   1      43.021  19.778  25.853  1.00  0.00     0.275 C 
ENDROOT
BRANCH   1   2
ATOM      2  O   UNL A   1      41.635  19.730  25.463  1.00  0.00    -0.459 OA
BRANCH   2   3
ATOM      3  C   UNL A   1      40.750  20.058  26.433  1.00  0.00     0.330 C 
ATOM      4  O   UNL A   1      40.887  19.856  27.631  1.00  0.00    -0.247 OA
BRANCH   3   5
ATOM      5  C   UNL A   1      39.552  20.747  25.915  1.00  0.00     0.094 C 
ATOM      6  C   UNL A   1      39.212  22.027  26.135  1.00  0.00     0.015 C 
BRANCH   6   7
ATOM      7  C   UNL A   1      37.958  22.596  25.616  1.00  0.00    -0.025 A 
ATOM      8  C   UNL A   1      35.552  23.640  24.622  1.00  0.00     0.089 A 
ATOM      9  C   UNL A   1      36.214  24.294  25.665  1.00  0.00     0.023 A 
ATOM     10  C   UNL A   1      36.097  22.490  24.048  1.00  0.00     0.023 A 
ATOM     11  C   UNL A   1      37.414  23.773  26.154  1.00  0.00     0.009 A 
ATOM     12  C   UNL A   1      37.302  21.975  24.543  1.00  0.00     0.009 A 
BRANCH   8  13
ATOM     13  S   UNL A   1      34.002  24.325  24.059  1.00  0.00     0.285 S 
ATOM     14  O   UNL A   1      32.973  23.524  24.687  1.00  0.00    -0.199 OA
ATOM     15  O   UNL A   1      34.132  24.410  22.616  1.00  0.00    -0.199 OA
BRANCH  13  16
ATOM     16  N   UNL A   1      33.952  25.820  24.674  1.00  0.00    -0.130 NA
ATOM     17  C   UNL A   1      31.377  29.895  25.170  1.00  0.00     0.065 C 
ATOM     18  C   UNL A   1      31.610  28.507  24.685  1.00  0.00     0.024 A 
ATOM     19  C   UNL A   1      30.752  27.772  23.958  1.00  0.00     0.089 A 
ATOM     20  N   UNL A   1      32.787  27.843  24.970  1.00  0.00    -0.334 N 
ATOM     21  S   UNL A   1      31.412  26.192  23.597  1.00  0.00    -0.104 S 
ATOM     22  C   UNL A   1      32.915  26.561  24.486  1.00  0.00     0.199 A 
ATOM     23  H   UNL A   1      33.503  28.268  25.495  1.00  0.00     0.169 HD
ENDBRANCH  13  16
ENDBRANCH   8  13
ENDBRANCH   6   7
ENDBRANCH   3   5
ENDBRANCH   2   3
ENDBRANCH   1   2
BRANCH   1  24
ATOM     24  C   UNL A   1      43.709  21.048  25.341  1.00  0.00     0.275 C 
BRANCH  24  25
ATOM     25  O   UNL A   1      42.843  22.196  25.395  1.00  0.00    -0.458 OA
BRANCH  25  26
ATOM     26  C   UNL A   1      43.458  23.386  25.191  1.00  0.00     0.338 C 
ATOM     27  O   UNL A   1      44.113  23.715  24.215  1.00  0.00    -0.246 OA
BRANCH  26  28
ATOM     28  C   UNL A   1      43.135  24.317  26.287  1.00  0.00     0.060 A 
ATOM     29  C   UNL A   1      42.279  23.867  27.296  1.00  0.00     0.016 A 
ATOM     30  C   UNL A   1      43.605  25.634  26.291  1.00  0.00     0.016 A 
ATOM     31  C   UNL A   1      41.882  24.734  28.312  1.00  0.00     0.010 A 
ATOM     32  C   UNL A   1      43.203  26.503  27.312  1.00  0.00     0.010 A 
ATOM     33  C   UNL A   1      42.329  26.063  28.321  1.00  0.00    -0.014 A 
BRANCH  33  34
ATOM     34  C   UNL A   1      41.860  26.991  29.381  1.00  0.00     0.031 A 
ATOM     35  C   UNL A   1      42.630  27.128  30.664  1.00  0.00     0.074 A 
ATOM     36  C   UNL A   1      40.737  27.709  29.189  1.00  0.00     0.049 A 
ATOM     37  N   UNL A   1      42.376  27.883  31.702  1.00  0.00    -0.248 NA
ATOM     38  C   UNL A   1      43.844  26.307  30.801  1.00  0.00     0.031 C 
ATOM     39  C   UNL A   1      39.895  27.650  27.994  1.00  0.00     0.029 A 
ATOM     40  N   UNL A   1      40.102  28.614  30.003  1.00  0.00    -0.354 N 
ATOM     41  C   UNL A   1      43.378  27.612  32.625  1.00  0.00     0.074 A 
ATOM     42  C   UNL A   1      44.241  26.614  32.028  1.00  0.00     0.031 C 
ATOM     43  C   UNL A   1      38.846  28.473  28.159  1.00  0.00     0.029 A 
ATOM     44  C   UNL A   1      38.928  29.096  29.477  1.00  0.00     0.049 A 
ATOM     45  H   UNL A   1      40.455  28.889  30.880  1.00  0.00     0.167 HD
ATOM     46  C   UNL A   1      43.573  28.159  33.850  1.00  0.00     0.034 A 
ATOM     47  C   UNL A   1      38.014  29.936  30.002  1.00  0.00     0.034 A 
ATOM     48  C   UNL A   1      42.732  29.172  34.430  1.00  0.00     0.049 A 
ATOM     49  C   UNL A   1      38.255  30.527  31.366  1.00  0.00     0.074 A 
ATOM     50  C   UNL A   1      42.883  29.824  35.640  1.00  0.00     0.029 A 
ATOM     51  N   UNL A   1      41.578  29.674  33.847  1.00  0.00    -0.354 N 
ATOM     52  N   UNL A   1      39.277  30.357  32.169  1.00  0.00    -0.248 NA
ATOM     53  C   UNL A   1      37.232  31.448  31.882  1.00  0.00     0.031 C 
ATOM     54  C   UNL A   1      41.808  30.708  35.799  1.00  0.00     0.029 A 
ATOM     55  C   UNL A   1      41.000  30.618  34.678  1.00  0.00     0.049 A 
ATOM     56  H   UNL A   1      41.222  29.398  32.971  1.00  0.00     0.167 HD
ATOM     57  C   UNL A   1      39.037  31.172  33.270  1.00  0.00     0.074 A 
ATOM     58  C   UNL A   1      37.783  31.852  33.020  1.00  0.00     0.031 C 
ATOM     59  C   UNL A   1      39.778  31.329  34.395  1.00  0.00     0.034 A 
BRANCH  46  60
ATOM     60  C   UNL A   1      44.772  27.699  34.638  1.00  0.00     0.023 A 
ATOM     61  C   UNL A   1      45.998  28.380  34.496  1.00  0.00     0.012 A 
ATOM     62  C   UNL A   1      44.671  26.641  35.562  1.00  0.00     0.148 A 
ATOM     63  C   UNL A   1      47.113  27.998  35.241  1.00  0.00     0.002 A 
ATOM     64  C   UNL A   1      45.778  26.290  36.330  1.00  0.00     0.091 A 
ATOM     65  F   UNL A   1      43.504  25.991  35.667  1.00  0.00    -0.205 F 
ATOM     66  C   UNL A   1      46.999  26.961  36.164  1.00  0.00     0.022 A 
BRANCH  64  67
ATOM     67  S   UNL A   1      45.711  25.016  37.595  1.00  0.00     0.127 S 
ATOM     68  O   UNL A   1      44.537  25.426  38.365  1.00  0.00    -0.237 OA
ATOM     69  O   UNL A   1      45.523  23.800  36.802  1.00  0.00    -0.237 OA
ATOM     70  O   UNL A   1      46.982  25.087  38.301  1.00  0.00    -0.744 OA
ENDBRANCH  64  67
ENDBRANCH  46  60
BRANCH  47  71
ATOM     71  C   UNL A   1      36.806  30.304  29.211  1.00  0.00     0.023 A 
ATOM     72  C   UNL A   1      35.993  29.288  28.674  1.00  0.00     0.012 A 
ATOM     73  C   UNL A   1      36.445  31.651  29.013  1.00  0.00     0.148 A 
ATOM     74  C   UNL A   1      34.853  29.606  27.935  1.00  0.00     0.002 A 
ATOM     75  C   UNL A   1      35.278  31.961  28.322  1.00  0.00     0.091 A 
ATOM     76  F   UNL A   1      37.244  32.604  29.513  1.00  0.00    -0.205 F 
ATOM     77  C   UNL A   1      34.490  30.941  27.769  1.00  0.00     0.022 A 
BRANCH  75  78
ATOM     78  S   UNL A   1      34.671  33.645  28.173  1.00  0.00     0.127 S 
ATOM     79  O   UNL A   1      33.291  33.429  27.747  1.00  0.00    -0.237 OA
ATOM     80  O   UNL A   1      34.822  34.145  29.540  1.00  0.00    -0.237 OA
ATOM     81  O   UNL A   1      35.543  34.289  27.201  1.00  0.00    -0.744 OA
ENDBRANCH  75  78
ENDBRANCH  47  71
BRANCH  59  82
ATOM     82  C   UNL A   1      39.270  32.289  35.440  1.00  0.00     0.023 A 
ATOM     83  C   UNL A   1      38.301  31.860  36.369  1.00  0.00     0.012 A 
ATOM     84  C   UNL A   1      39.803  33.589  35.548  1.00  0.00     0.148 A 
ATOM     85  C   UNL A   1      37.850  32.718  37.370  1.00  0.00     0.002 A 
ATOM     86  C   UNL A   1      39.380  34.424  36.576  1.00  0.00     0.091 A 
ATOM     87  F   UNL A   1      40.708  33.988  34.643  1.00  0.00    -0.205 F 
ATOM     88  C   UNL A   1      38.396  33.994  37.482  1.00  0.00     0.022 A 
BRANCH  86  89
ATOM     89  S   UNL A   1      40.095  36.050  36.851  1.00  0.00     0.127 S 
ATOM     90  O   UNL A   1      39.728  36.749  35.621  1.00  0.00    -0.237 OA
ATOM     91  O   UNL A   1      39.383  36.507  38.046  1.00  0.00    -0.237 OA
ATOM     92  O   UNL A   1      41.521  35.830  37.047  1.00  0.00    -0.744 OA
ENDBRANCH  86  89
ENDBRANCH  59  82
ENDBRANCH  33  34
ENDBRANCH  26  28
ENDBRANCH  25  26
ENDBRANCH  24  25
ENDBRANCH   1  24
TORSDOF 17
ENDMDL
MODEL 2
REMARK VINA RESULT:     -11.5      4.975     11.201
REMARK SMILES Cc1cs/c(=N\S(=O)(=O)c2ccc(/C=C/C(=O)OCCOC(=O)c3ccc(-c4c5nc(c(-c6cccc(S(=O)(=O)[O-])c6F)c6ccc([nH]6)c(-c6cccc(S(=O)(=O)[O-])c6F)c6nc(c(-c7cccc(S(=O)(=O)[O-])c7F)c7ccc4[nH]7)C=C6)C=C5)cc3)cc2)[nH]1
REMARK SMILES IDX 19 1 18 2 16 3 17 4 15 5 14 6 13 7 10 8 11 9 88 10 12 11
REMARK SMILES IDX 87 12 7 13 8 14 9 15 6 16 1 17 2 18 3 19 89 20 4 21 5 22
REMARK SMILES IDX 20 24 21 25 22 26 23 27 24 28 25 29 86 30 26 31 85 32 27 33
REMARK SMILES IDX 28 34 29 35 79 36 30 37 84 38 78 39 80 40 31 41 83 42 77 43
REMARK SMILES IDX 76 44 32 46 64 47 44 48 63 49 45 50 48 51 62 52 81 53 46 54
REMARK SMILES IDX 47 55 61 57 82 58 49 59 33 60 34 61 42 62 35 63 37 64 43 65
REMARK SMILES IDX 36 66 38 67 39 68 40 69 41 70 65 71 66 72 74 73 67 74 69 75
REMARK SMILES IDX 75 76 68 77 70 78 71 79 72 80 73 81 50 82 51 83 59 84 52 85
REMARK SMILES IDX 54 86 60 87 53 88 55 89 56 90 57 91 58 92
REMARK H PARENT 89 23 80 45 48 56
REMARK Flexibility Score: inf
ROOT
ATOM      1  C   UNL A   1      34.421  34.211  30.433  1.00  0.00     0.275 C 
ENDROOT
BRANCH   1   2
ATOM      2  O   UNL A   1      33.773  33.248  29.581  1.00  0.00    -0.459 OA
BRANCH   2   3
ATOM      3  C   UNL A   1      34.407  32.993  28.412  1.00  0.00     0.330 C 
ATOM      4  O   UNL A   1      35.277  33.681  27.900  1.00  0.00    -0.247 OA
BRANCH   3   5
ATOM      5  C   UNL A   1      33.970  31.731  27.781  1.00  0.00     0.094 C 
ATOM      6  C   UNL A   1      32.759  31.481  27.259  1.00  0.00     0.015 C 
BRANCH   6   7
ATOM      7  C   UNL A   1      32.411  30.162  26.707  1.00  0.00    -0.025 A 
ATOM      8  C   UNL A   1      31.760  27.662  25.613  1.00  0.00     0.089 A 
ATOM      9  C   UNL A   1      32.341  27.735  26.883  1.00  0.00     0.023 A 
ATOM     10  C   UNL A   1      31.471  28.827  24.899  1.00  0.00     0.023 A 
ATOM     11  C   UNL A   1      32.659  28.982  27.425  1.00  0.00     0.009 A 
ATOM     12  C   UNL A   1      31.792  30.073  25.451  1.00  0.00     0.009 A 
BRANCH   8  13
ATOM     13  S   UNL A   1      31.408  26.043  24.949  1.00  0.00     0.285 S 
ATOM     14  O   UNL A   1      31.255  26.234  23.522  1.00  0.00    -0.199 OA
ATOM     15  O   UNL A   1      30.330  25.527  25.771  1.00  0.00    -0.199 OA
BRANCH  13  16
ATOM     16  N   UNL A   1      32.744  25.173  25.222  1.00  0.00    -0.130 NA
ATOM     17  C   UNL A   1      34.836  20.809  24.986  1.00  0.00     0.065 C 
ATOM     18  C   UNL A   1      33.711  21.767  24.810  1.00  0.00     0.024 A 
ATOM     19  C   UNL A   1      32.495  21.474  24.319  1.00  0.00     0.089 A 
ATOM     20  N   UNL A   1      33.850  23.098  25.154  1.00  0.00    -0.334 N 
ATOM     21  S   UNL A   1      31.465  22.888  24.278  1.00  0.00    -0.104 S 
ATOM     22  C   UNL A   1      32.761  23.914  24.952  1.00  0.00     0.199 A 
ATOM     23  H   UNL A   1      34.692  23.446  25.527  1.00  0.00     0.169 HD
ENDBRANCH  13  16
ENDBRANCH   8  13
ENDBRANCH   6   7
ENDBRANCH   3   5
ENDBRANCH   2   3
ENDBRANCH   1   2
BRANCH   1  24
ATOM     24  C   UNL A   1      34.532  33.707  31.876  1.00  0.00     0.275 C 
BRANCH  24  25
ATOM     25  O   UNL A   1      34.919  32.322  31.941  1.00  0.00    -0.458 OA
BRANCH  25  26
ATOM     26  C   UNL A   1      36.012  32.069  32.700  1.00  0.00     0.338 C 
ATOM     27  O   UNL A   1      36.109  32.192  33.910  1.00  0.00    -0.246 OA
BRANCH  26  28
ATOM     28  C   UNL A   1      37.084  31.495  31.867  1.00  0.00     0.060 A 
ATOM     29  C   UNL A   1      38.134  30.837  32.515  1.00  0.00     0.016 A 
ATOM     30  C   UNL A   1      37.101  31.659  30.479  1.00  0.00     0.016 A 
ATOM     31  C   UNL A   1      39.210  30.346  31.778  1.00  0.00     0.010 A 
ATOM     32  C   UNL A   1      38.183  31.165  29.741  1.00  0.00     0.010 A 
ATOM     33  C   UNL A   1      39.250  30.518  30.387  1.00  0.00    -0.014 A 
BRANCH  33  34
ATOM     34  C   UNL A   1      40.425  30.033  29.619  1.00  0.00     0.031 A 
ATOM     35  C   UNL A   1      40.394  28.685  28.956  1.00  0.00     0.074 A 
ATOM     36  C   UNL A   1      41.523  30.807  29.521  1.00  0.00     0.049 A 
ATOM     37  N   UNL A   1      41.320  28.093  28.246  1.00  0.00    -0.248 NA
ATOM     38  C   UNL A   1      39.161  27.897  29.112  1.00  0.00     0.031 C 
ATOM     39  C   UNL A   1      41.679  32.126  30.134  1.00  0.00     0.029 A 
ATOM     40  N   UNL A   1      42.719  30.588  28.885  1.00  0.00    -0.354 N 
ATOM     41  C   UNL A   1      40.797  26.856  27.893  1.00  0.00     0.074 A 
ATOM     42  C   UNL A   1      39.474  26.776  28.476  1.00  0.00     0.031 C 
ATOM     43  C   UNL A   1      42.908  32.593  29.856  1.00  0.00     0.029 A 
ATOM     44  C   UNL A   1      43.632  31.599  29.068  1.00  0.00     0.049 A 
ATOM     45  H   UNL A   1      42.905  29.783  28.350  1.00  0.00     0.167 HD
ATOM     46  C   UNL A   1      41.360  25.882  27.137  1.00  0.00     0.034 A 
ATOM     47  C   UNL A   1      44.911  31.707  28.659  1.00  0.00     0.034 A 
ATOM     48  C   UNL A   1      42.664  25.973  26.535  1.00  0.00     0.049 A 
ATOM     49  C   UNL A   1      45.512  30.610  27.822  1.00  0.00     0.074 A 
ATOM     50  C   UNL A   1      43.294  25.061  25.707  1.00  0.00     0.029 A 
ATOM     51  N   UNL A   1      43.541  27.034  26.700  1.00  0.00    -0.354 N 
ATOM     52  N   UNL A   1      44.956  29.504  27.389  1.00  0.00    -0.248 NA
ATOM     53  C   UNL A   1      46.906  30.788  27.391  1.00  0.00     0.031 C 
ATOM     54  C   UNL A   1      44.562  25.562  25.388  1.00  0.00     0.029 A 
ATOM     55  C   UNL A   1      44.712  26.794  26.002  1.00  0.00     0.049 A 
ATOM     56  H   UNL A   1      43.358  27.839  27.236  1.00  0.00     0.167 HD
ATOM     57  C   UNL A   1      45.919  28.871  26.611  1.00  0.00     0.074 A 
ATOM     58  C   UNL A   1      47.086  29.728  26.614  1.00  0.00     0.031 C 
ATOM     59  C   UNL A   1      45.849  27.679  25.967  1.00  0.00     0.034 A 
BRANCH  46  60
ATOM     60  C   UNL A   1      40.549  24.637  26.883  1.00  0.00     0.023 A 
ATOM     61  C   UNL A   1      39.255  24.752  26.338  1.00  0.00     0.012 A 
ATOM     62  C   UNL A   1      41.089  23.358  27.120  1.00  0.00     0.148 A 
ATOM     63  C   UNL A   1      38.498  23.615  26.058  1.00  0.00     0.002 A 
ATOM     64  C   UNL A   1      40.343  22.227  26.803  1.00  0.00     0.091 A 
ATOM     65  F   UNL A   1      42.313  23.269  27.659  1.00  0.00    -0.205 F 
ATOM     66  C   UNL A   1      39.046  22.355  26.281  1.00  0.00     0.022 A 
BRANCH  64  67
ATOM     67  S   UNL A   1      40.989  20.561  26.988  1.00  0.00     0.127 S 
ATOM     68  O   UNL A   1      40.125  19.807  26.081  1.00  0.00    -0.237 OA
ATOM     69  O   UNL A   1      42.371  20.710  26.528  1.00  0.00    -0.237 OA
ATOM     70  O   UNL A   1      40.855  20.234  28.400  1.00  0.00    -0.744 OA
ENDBRANCH  64  67
ENDBRANCH  46  60
BRANCH  47  71
ATOM     71  C   UNL A   1      45.696  32.928  28.999  1.00  0.00     0.023 A 
ATOM     72  C   UNL A   1      46.561  32.909  30.110  1.00  0.00     0.012 A 
ATOM     73  C   UNL A   1      45.611  34.093  28.213  1.00  0.00     0.148 A 
ATOM     74  C   UNL A   1      47.312  34.036  30.445  1.00  0.00     0.002 A 
ATOM     75  C   UNL A   1      46.402  35.195  28.520  1.00  0.00     0.091 A 
ATOM     76  F   UNL A   1      44.765  34.099  27.173  1.00  0.00    -0.205 F 
ATOM     77  C   UNL A   1      47.241  35.174  29.644  1.00  0.00     0.022 A 
BRANCH  75  78
ATOM     78  S   UNL A   1      46.468  36.651  27.470  1.00  0.00     0.127 S 
ATOM     79  O   UNL A   1      47.372  37.520  28.219  1.00  0.00    -0.237 OA
ATOM     80  O   UNL A   1      47.023  36.107  26.230  1.00  0.00    -0.237 OA
ATOM     81  O   UNL A   1      45.090  37.112  27.356  1.00  0.00    -0.744 OA
ENDBRANCH  75  78
ENDBRANCH  47  71
BRANCH  59  82
ATOM     82  C   UNL A   1      47.060  27.232  25.191  1.00  0.00     0.023 A 
ATOM     83  C   UNL A   1      47.955  26.308  25.767  1.00  0.00     0.012 A 
ATOM     84  C   UNL A   1      47.274  27.668  23.868  1.00  0.00     0.148 A 
ATOM     85  C   UNL A   1      49.059  25.847  25.049  1.00  0.00     0.002 A 
ATOM     86  C   UNL A   1      48.351  27.170  23.143  1.00  0.00     0.091 A 
ATOM     87  F   UNL A   1      46.424  28.563  23.344  1.00  0.00    -0.205 F 
ATOM     88  C   UNL A   1      49.250  26.268  23.736  1.00  0.00     0.022 A 
BRANCH  86  89
ATOM     89  S   UNL A   1      48.623  27.587  21.417  1.00  0.00     0.127 S 
ATOM     90  O   UNL A   1      49.235  26.362  20.906  1.00  0.00    -0.237 OA
ATOM     91  O   UNL A   1      47.262  27.834  20.936  1.00  0.00    -0.237 OA
ATOM     92  O   UNL A   1      49.482  28.764  21.422  1.00  0.00    -0.744 OA
ENDBRANCH  86  89
ENDBRANCH  59  82
ENDBRANCH  33  34
ENDBRANCH  26  28
ENDBRANCH  25  26
ENDBRANCH  24  25
ENDBRANCH   1  24
TORSDOF 17
ENDMDL
MODEL 3
REMARK VINA RESULT:     -11.5      2.897      9.271
REMARK SMILES Cc1cs/c(=N\S(=O)(=O)c2ccc(/C=C/C(=O)OCCOC(=O)c3ccc(-c4c5nc(c(-c6cccc(S(=O)(=O)[O-])c6F)c6ccc([nH]6)c(-c6cccc(S(=O)(=O)[O-])c6F)c6nc(c(-c7cccc(S(=O)(=O)[O-])c7F)c7ccc4[nH]7)C=C6)C=C5)cc3)cc2)[nH]1
REMARK SMILES IDX 19 1 18 2 16 3 17 4 15 5 14 6 13 7 10 8 11 9 88 10 12 11
REMARK SMILES IDX 87 12 7 13 8 14 9 15 6 16 1 17 2 18 3 19 89 20 4 21 5 22
REMARK SMILES IDX 20 24 21 25 22 26 23 27 24 28 25 29 86 30 26 31 85 32 27 33
REMARK SMILES IDX 28 34 29 35 79 36 30 37 84 38 78 39 80 40 31 41 83 42 77 43
REMARK SMILES IDX 76 44 32 46 64 47 44 48 63 49 45 50 48 51 62 52 81 53 46 54
REMARK SMILES IDX 47 55 61 57 82 58 49 59 33 60 34 61 42 62 35 63 37 64 43 65
REMARK SMILES IDX 36 66 38 67 39 68 40 69 41 70 65 71 66 72 74 73 67 74 69 75
REMARK SMILES IDX 75 76 68 77 70 78 71 79 72 80 73 81 50 82 51 83 59 84 52 85
REMARK SMILES IDX 54 86 60 87 53 88 55 89 56 90 57 91 58 92
REMARK H PARENT 89 23 80 45 48 56
REMARK Flexibility Score: inf
ROOT
ATOM      1  C   UNL A   1      31.806  30.453  26.414  1.00  0.00     0.275 C 
ENDROOT
BRANCH   1   2
ATOM      2  O   UNL A   1      32.485  29.506  27.260  1.00  0.00    -0.459 OA
BRANCH   2   3
ATOM      3  C   UNL A   1      33.557  28.898  26.700  1.00  0.00     0.330 C 
ATOM      4  O   UNL A   1      34.649  29.407  26.494  1.00  0.00    -0.247 OA
BRANCH   3   5
ATOM      5  C   UNL A   1      33.308  27.481  26.365  1.00  0.00     0.094 C 
ATOM      6  C   UNL A   1      33.970  26.750  25.454  1.00  0.00     0.015 C 
BRANCH   6   7
ATOM      7  C   UNL A   1      33.596  25.358  25.158  1.00  0.00    -0.025 A 
ATOM      8  C   UNL A   1      32.901  22.709  24.552  1.00  0.00     0.089 A 
ATOM      9  C   UNL A   1      33.361  23.031  25.833  1.00  0.00     0.023 A 
ATOM     10  C   UNL A   1      32.754  23.702  23.581  1.00  0.00     0.023 A 
ATOM     11  C   UNL A   1      33.701  24.352  26.131  1.00  0.00     0.009 A 
ATOM     12  C   UNL A   1      33.096  25.025  23.890  1.00  0.00     0.009 A 
BRANCH   8  13
ATOM     13  S   UNL A   1      32.515  20.999  24.210  1.00  0.00     0.285 S 
ATOM     14  O   UNL A   1      32.309  20.928  22.779  1.00  0.00    -0.199 OA
ATOM     15  O   UNL A   1      31.467  20.656  25.152  1.00  0.00    -0.199 OA
BRANCH  13  16
ATOM     16  N   UNL A   1      33.856  20.179  24.590  1.00  0.00    -0.130 NA
ATOM     17  C   UNL A   1      35.836  15.828  25.384  1.00  0.00     0.065 C 
ATOM     18  C   UNL A   1      34.716  16.751  25.053  1.00  0.00     0.024 A 
ATOM     19  C   UNL A   1      33.451  16.389  24.779  1.00  0.00     0.089 A 
ATOM     20  N   UNL A   1      34.913  18.117  24.999  1.00  0.00    -0.334 N 
ATOM     21  S   UNL A   1      32.448  17.783  24.441  1.00  0.00    -0.104 S 
ATOM     22  C   UNL A   1      33.824  18.895  24.680  1.00  0.00     0.199 A 
ATOM     23  H   UNL A   1      35.794  18.516  25.180  1.00  0.00     0.169 HD
ENDBRANCH  13  16
ENDBRANCH   8  13
ENDBRANCH   6   7
ENDBRANCH   3   5
ENDBRANCH   2   3
ENDBRANCH   1   2
BRANCH   1  24
ATOM     24  C   UNL A   1      32.408  31.856  26.537  1.00  0.00     0.275 C 
BRANCH  24  25
ATOM     25  O   UNL A   1      32.884  32.131  27.867  1.00  0.00    -0.458 OA
BRANCH  25  26
ATOM     26  C   UNL A   1      33.912  33.011  27.936  1.00  0.00     0.338 C 
ATOM     27  O   UNL A   1      33.865  34.211  27.718  1.00  0.00    -0.246 OA
BRANCH  26  28
ATOM     28  C   UNL A   1      35.123  32.337  28.438  1.00  0.00     0.060 A 
ATOM     29  C   UNL A   1      34.956  31.188  29.216  1.00  0.00     0.016 A 
ATOM     30  C   UNL A   1      36.399  32.859  28.211  1.00  0.00     0.016 A 
ATOM     31  C   UNL A   1      36.066  30.559  29.779  1.00  0.00     0.010 A 
ATOM     32  C   UNL A   1      37.512  32.227  28.777  1.00  0.00     0.010 A 
ATOM     33  C   UNL A   1      37.351  31.081  29.576  1.00  0.00    -0.014 A 
BRANCH  33  34
ATOM     34  C   UNL A   1      38.520  30.431  30.219  1.00  0.00     0.031 A 
ATOM     35  C   UNL A   1      38.917  30.799  31.622  1.00  0.00     0.074 A 
ATOM     36  C   UNL A   1      39.229  29.511  29.538  1.00  0.00     0.049 A 
ATOM     37  N   UNL A   1      39.905  30.342  32.346  1.00  0.00    -0.248 NA
ATOM     38  C   UNL A   1      38.095  31.816  32.298  1.00  0.00     0.031 C 
ATOM     39  C   UNL A   1      38.954  29.083  28.167  1.00  0.00     0.029 A 
ATOM     40  N   UNL A   1      40.336  28.785  29.901  1.00  0.00    -0.354 N 
ATOM     41  C   UNL A   1      39.844  31.030  33.551  1.00  0.00     0.074 A 
ATOM     42  C   UNL A   1      38.725  31.946  33.458  1.00  0.00     0.031 C 
ATOM     43  C   UNL A   1      39.877  28.178  27.799  1.00  0.00     0.029 A 
ATOM     44  C   UNL A   1      40.820  27.982  28.897  1.00  0.00     0.049 A 
ATOM     45  H   UNL A   1      40.744  28.835  30.796  1.00  0.00     0.167 HD
ATOM     46  C   UNL A   1      40.635  30.899  34.644  1.00  0.00     0.034 A 
ATOM     47  C   UNL A   1      41.908  27.187  28.859  1.00  0.00     0.034 A 
ATOM     48  C   UNL A   1      41.728  29.969  34.748  1.00  0.00     0.049 A 
ATOM     49  C   UNL A   1      42.771  27.061  30.086  1.00  0.00     0.074 A 
ATOM     50  C   UNL A   1      42.549  29.725  35.834  1.00  0.00     0.029 A 
ATOM     51  N   UNL A   1      42.159  29.134  33.727  1.00  0.00    -0.354 N 
ATOM     52  N   UNL A   1      42.620  27.623  31.261  1.00  0.00    -0.248 NA
ATOM     53  C   UNL A   1      43.935  26.168  29.993  1.00  0.00     0.031 C 
ATOM     54  C   UNL A   1      43.490  28.757  35.463  1.00  0.00     0.029 A 
ATOM     55  C   UNL A   1      43.242  28.385  34.153  1.00  0.00     0.049 A 
ATOM     56  H   UNL A   1      41.754  29.083  32.831  1.00  0.00     0.167 HD
ATOM     57  C   UNL A   1      43.649  27.130  32.056  1.00  0.00     0.074 A 
ATOM     58  C   UNL A   1      44.403  26.206  31.234  1.00  0.00     0.031 C 
ATOM     59  C   UNL A   1      43.953  27.428  33.343  1.00  0.00     0.034 A 
BRANCH  46  60
ATOM     60  C   UNL A   1      40.323  31.760  35.841  1.00  0.00     0.023 A 
ATOM     61  C   UNL A   1      41.191  32.817  36.179  1.00  0.00     0.012 A 
ATOM     62  C   UNL A   1      39.146  31.565  36.589  1.00  0.00     0.148 A 
ATOM     63  C   UNL A   1      40.906  33.652  37.259  1.00  0.00     0.002 A 
ATOM     64  C   UNL A   1      38.850  32.424  37.642  1.00  0.00     0.091 A 
ATOM     65  F   UNL A   1      38.344  30.540  36.266  1.00  0.00    -0.205 F 
ATOM     66  C   UNL A   1      39.732  33.461  37.983  1.00  0.00     0.022 A 
BRANCH  64  67
ATOM     67  S   UNL A   1      37.326  32.304  38.588  1.00  0.00     0.127 S 
ATOM     68  O   UNL A   1      37.709  32.945  39.845  1.00  0.00    -0.237 OA
ATOM     69  O   UNL A   1      36.391  33.077  37.770  1.00  0.00    -0.237 OA
ATOM     70  O   UNL A   1      37.021  30.883  38.674  1.00  0.00    -0.744 OA
ENDBRANCH  64  67
ENDBRANCH  46  60
BRANCH  47  71
ATOM     71  C   UNL A   1      42.215  26.410  27.625  1.00  0.00     0.023 A 
ATOM     72  C   UNL A   1      42.890  27.038  26.560  1.00  0.00     0.012 A 
ATOM     73  C   UNL A   1      41.868  25.050  27.512  1.00  0.00     0.148 A 
ATOM     74  C   UNL A   1      43.194  26.331  25.397  1.00  0.00     0.002 A 
ATOM     75  C   UNL A   1      42.222  24.337  26.373  1.00  0.00     0.091 A 
ATOM     76  F   UNL A   1      41.206  24.477  28.527  1.00  0.00    -0.205 F 
ATOM     77  C   UNL A   1      42.871  24.979  25.308  1.00  0.00     0.022 A 
BRANCH  75  78
ATOM     78  S   UNL A   1      41.959  22.565  26.230  1.00  0.00     0.127 S 
ATOM     79  O   UNL A   1      42.546  22.073  27.473  1.00  0.00    -0.237 OA
ATOM     80  O   UNL A   1      40.500  22.480  26.161  1.00  0.00    -0.237 OA
ATOM     81  O   UNL A   1      42.639  22.168  25.004  1.00  0.00    -0.744 OA
ENDBRANCH  75  78
ENDBRANCH  47  71
BRANCH  59  82
ATOM     82  C   UNL A   1      45.142  26.737  33.960  1.00  0.00     0.023 A 
ATOM     83  C   UNL A   1      46.404  27.365  33.935  1.00  0.00     0.012 A 
ATOM     84  C   UNL A   1      44.997  25.504  34.625  1.00  0.00     0.148 A 
ATOM     85  C   UNL A   1      47.508  26.763  34.538  1.00  0.00     0.002 A 
ATOM     86  C   UNL A   1      46.092  24.931  35.263  1.00  0.00     0.091 A 
ATOM     87  F   UNL A   1      43.795  24.910  34.621  1.00  0.00    -0.205 F 
ATOM     88  C   UNL A   1      47.350  25.554  35.211  1.00  0.00     0.022 A 
BRANCH  86  89
ATOM     89  S   UNL A   1      45.962  23.422  36.229  1.00  0.00     0.127 S 
ATOM     90  O   UNL A   1      44.909  23.767  37.181  1.00  0.00    -0.237 OA
ATOM     91  O   UNL A   1      45.571  22.436  35.219  1.00  0.00    -0.237 OA
ATOM     92  O   UNL A   1      47.282  23.202  36.805  1.00  0.00    -0.744 OA
ENDBRANCH  86  89
ENDBRANCH  59  82
ENDBRANCH  33  34
ENDBRANCH  26  28
ENDBRANCH  25  26
ENDBRANCH  24  25
ENDBRANCH   1  24
TORSDOF 17
ENDMDL
