MODEL 1
REMARK VINA RESULT:     -13.8      0.000      0.000
REMARK SMILES Cc1cccc(-c2ncc(C[NH+]3CCC4(CC3)NC(=O)C[C@H]4C(=O)OCCOC(=O)c3ccc(-c4c5nc(c(-c6cccc(S(=O)(=O)[O-])c6F)c6ccc([nH]6)c(-c6cccc(S(=O)(=O)[O-])c6F)c6nc(c(-c7cccc(S(=O)(=O)[O-])c7F)c7ccc4[nH]7)C=C6)C=C5)cc3)cn2)c1
REMARK SMILES IDX 26 1 25 2 23 3 24 4 22 5 12 6 13 7 17 8 14 10 16 11 15 12
REMARK SMILES IDX 18 13 19 14 21 16 20 17 11 18 10 19 7 20 8 21 95 22 9 23
REMARK SMILES IDX 94 24 6 25 1 26 2 27 3 28 96 29 4 30 5 31 27 32 28 33 29 34
REMARK SMILES IDX 30 35 31 36 32 37 93 38 33 39 92 40 34 41 35 42 36 43 86 44
REMARK SMILES IDX 37 45 91 46 85 47 87 48 38 49 90 50 84 51 83 52 39 54 71 55
REMARK SMILES IDX 51 56 70 57 52 58 55 59 69 60 88 61 53 62 54 63 68 65 89 66
REMARK SMILES IDX 56 67 40 68 41 69 49 70 42 71 44 72 50 73 43 74 45 75 46 76
REMARK SMILES IDX 47 77 48 78 72 79 73 80 81 81 74 82 76 83 82 84 75 85 77 86
REMARK SMILES IDX 78 87 79 88 80 89 57 90 58 91 66 92 59 93 61 94 67 95 60 96
REMARK SMILES IDX 62 97 63 98 64 99 65 100
REMARK H PARENT 12 9 18 15 87 53 55 64
REMARK Flexibility Score: inf
ROOT
ATOM      1  C   UNL A   1      33.600  28.330  26.523  1.00  0.00     0.274 C 
ENDROOT
BRANCH   1   2
ATOM      2  O   UNL A   1      32.517  27.385  26.759  1.00  0.00    -0.462 OA
BRANCH   2   3
ATOM      3  C   UNL A   1      31.526  27.273  25.859  1.00  0.00     0.311 C 
ATOM      4  O   UNL A   1      30.448  26.774  26.147  1.00  0.00    -0.252 OA
BRANCH   3   5
ATOM      5  C   UNL A   1      31.664  28.000  24.543  1.00  0.00     0.134 C 
ATOM      6  N   UNL A   1      33.571  24.652  23.069  1.00  0.00    -0.331 N 
ATOM      7  C   UNL A   1      33.820  25.901  22.354  1.00  0.00     0.264 C 
ATOM      8  C   UNL A   1      32.814  24.895  24.274  1.00  0.00     0.264 C 
ATOM      9  H   UNL A   1      34.529  24.373  23.276  1.00  0.00     0.348 HD
ATOM     10  C   UNL A   1      32.728  27.011  22.334  1.00  0.00     0.091 C 
ATOM     11  C   UNL A   1      31.465  25.536  23.928  1.00  0.00     0.091 C 
ATOM     12  C   UNL A   1      31.598  26.960  23.400  1.00  0.00     0.064 C 
ATOM     13  N   UNL A   1      30.361  27.331  22.733  1.00  0.00    -0.349 N 
ATOM     14  C   UNL A   1      29.767  28.479  23.180  1.00  0.00     0.221 C 
ATOM     15  H   UNL A   1      29.975  26.790  22.006  1.00  0.00     0.164 HD
ATOM     16  C   UNL A   1      30.610  29.072  24.262  1.00  0.00     0.117 C 
ATOM     17  O   UNL A   1      28.739  28.937  22.717  1.00  0.00    -0.275 OA
BRANCH   6  18
ATOM     18  C   UNL A   1      33.277  23.387  22.389  1.00  0.00     0.302 C 
BRANCH  18  19
ATOM     19  C   UNL A   1      33.061  22.195  23.286  1.00  0.00     0.043 A 
ATOM     20  C   UNL A   1      33.276  19.701  24.351  1.00  0.00     0.159 A 
ATOM     21  N   UNL A   1      34.099  20.664  24.819  1.00  0.00    -0.236 NA
ATOM     22  N   UNL A   1      32.253  19.920  23.498  1.00  0.00    -0.236 NA
ATOM     23  C   UNL A   1      33.958  21.897  24.290  1.00  0.00     0.124 A 
ATOM     24  C   UNL A   1      32.173  21.170  22.980  1.00  0.00     0.124 A 
BRANCH  20  25
ATOM     25  C   UNL A   1      33.621  18.309  24.686  1.00  0.00     0.019 A 
ATOM     26  C   UNL A   1      31.915  15.147  26.070  1.00  0.00     0.044 C 
ATOM     27  C   UNL A   1      32.950  16.074  25.493  1.00  0.00    -0.050 A 
ATOM     28  C   UNL A   1      34.230  15.597  25.211  1.00  0.00     0.003 A 
ATOM     29  C   UNL A   1      32.662  17.424  25.229  1.00  0.00     0.015 A 
ATOM     30  C   UNL A   1      35.205  16.458  24.704  1.00  0.00     0.001 A 
ATOM     31  C   UNL A   1      34.907  17.804  24.459  1.00  0.00     0.012 A 
ENDBRANCH  20  25
ENDBRANCH  18  19
ENDBRANCH   6  18
ENDBRANCH   3   5
ENDBRANCH   2   3
ENDBRANCH   1   2
BRANCH   1  32
ATOM     32  C   UNL A   1      33.564  29.844  26.927  1.00  0.00     0.275 C 
BRANCH  32  33
ATOM     33  O   UNL A   1      34.655  30.755  27.352  1.00  0.00    -0.458 OA
BRANCH  33  34
ATOM     34  C   UNL A   1      35.174  31.154  28.553  1.00  0.00     0.338 C 
ATOM     35  O   UNL A   1      34.713  32.054  29.222  1.00  0.00    -0.246 OA
BRANCH  34  36
ATOM     36  C   UNL A   1      36.440  30.502  28.898  1.00  0.00     0.060 A 
ATOM     37  C   UNL A   1      36.619  29.824  30.122  1.00  0.00     0.016 A 
ATOM     38  C   UNL A   1      37.318  30.377  27.836  1.00  0.00     0.016 A 
ATOM     39  C   UNL A   1      37.597  28.833  30.203  1.00  0.00     0.010 A 
ATOM     40  C   UNL A   1      38.208  29.344  27.879  1.00  0.00     0.010 A 
ATOM     41  C   UNL A   1      38.362  28.581  29.057  1.00  0.00    -0.014 A 
BRANCH  41  42
ATOM     42  C   UNL A   1      39.689  27.998  29.100  1.00  0.00     0.031 A 
ATOM     43  C   UNL A   1      40.034  26.636  28.681  1.00  0.00     0.074 A 
ATOM     44  C   UNL A   1      40.567  29.021  29.213  1.00  0.00     0.049 A 
ATOM     45  N   UNL A   1      41.066  26.021  29.149  1.00  0.00    -0.248 NA
ATOM     46  C   UNL A   1      39.266  25.833  27.729  1.00  0.00     0.031 C 
ATOM     47  C   UNL A   1      41.939  29.156  28.792  1.00  0.00     0.029 A 
ATOM     48  N   UNL A   1      40.271  30.263  29.801  1.00  0.00    -0.354 N 
ATOM     49  C   UNL A   1      41.261  24.908  28.358  1.00  0.00     0.074 A 
ATOM     50  C   UNL A   1      40.039  24.744  27.605  1.00  0.00     0.031 C 
ATOM     51  C   UNL A   1      42.439  30.271  29.370  1.00  0.00     0.029 A 
ATOM     52  C   UNL A   1      41.442  30.772  30.320  1.00  0.00     0.049 A 
ATOM     53  H   UNL A   1      39.386  30.693  29.834  1.00  0.00     0.167 HD
ATOM     54  C   UNL A   1      42.518  24.401  28.209  1.00  0.00     0.034 A 
ATOM     55  C   UNL A   1      41.556  30.914  31.675  1.00  0.00     0.034 A 
ATOM     56  C   UNL A   1      43.488  25.334  28.798  1.00  0.00     0.049 A 
ATOM     57  C   UNL A   1      42.631  29.985  32.175  1.00  0.00     0.074 A 
ATOM     58  C   UNL A   1      44.178  26.385  28.212  1.00  0.00     0.029 A 
ATOM     59  N   UNL A   1      43.592  25.507  30.171  1.00  0.00    -0.354 N 
ATOM     60  N   UNL A   1      43.030  28.929  31.524  1.00  0.00    -0.248 NA
ATOM     61  C   UNL A   1      43.331  30.171  33.437  1.00  0.00     0.031 C 
ATOM     62  C   UNL A   1      44.644  27.233  29.243  1.00  0.00     0.029 A 
ATOM     63  C   UNL A   1      44.256  26.693  30.457  1.00  0.00     0.049 A 
ATOM     64  H   UNL A   1      43.244  24.879  30.845  1.00  0.00     0.167 HD
ATOM     65  C   UNL A   1      43.983  28.279  32.247  1.00  0.00     0.074 A 
ATOM     66  C   UNL A   1      44.162  29.115  33.424  1.00  0.00     0.031 C 
ATOM     67  C   UNL A   1      44.515  27.092  31.833  1.00  0.00     0.034 A 
BRANCH  54  68
ATOM     68  C   UNL A   1      42.931  23.354  27.186  1.00  0.00     0.023 A 
ATOM     69  C   UNL A   1      43.746  23.788  26.113  1.00  0.00     0.012 A 
ATOM     70  C   UNL A   1      42.586  21.981  27.192  1.00  0.00     0.148 A 
ATOM     71  C   UNL A   1      44.115  22.958  25.053  1.00  0.00     0.002 A 
ATOM     72  C   UNL A   1      42.932  21.152  26.113  1.00  0.00     0.091 A 
ATOM     73  F   UNL A   1      41.961  21.468  28.259  1.00  0.00    -0.205 F 
ATOM     74  C   UNL A   1      43.687  21.643  25.040  1.00  0.00     0.022 A 
BRANCH  72  75
ATOM     75  S   UNL A   1      42.401  19.435  25.966  1.00  0.00     0.127 S 
ATOM     76  O   UNL A   1      40.954  19.576  25.779  1.00  0.00    -0.237 OA
ATOM     77  O   UNL A   1      43.121  18.981  24.778  1.00  0.00    -0.237 OA
ATOM     78  O   UNL A   1      42.779  18.786  27.215  1.00  0.00    -0.744 OA
ENDBRANCH  72  75
ENDBRANCH  54  68
BRANCH  55  79
ATOM     79  C   UNL A   1      40.264  31.182  32.422  1.00  0.00     0.023 A 
ATOM     80  C   UNL A   1      39.633  30.092  33.083  1.00  0.00     0.012 A 
ATOM     81  C   UNL A   1      39.835  32.482  32.753  1.00  0.00     0.148 A 
ATOM     82  C   UNL A   1      38.677  30.295  34.086  1.00  0.00     0.002 A 
ATOM     83  C   UNL A   1      38.889  32.676  33.769  1.00  0.00     0.091 A 
ATOM     84  F   UNL A   1      40.379  33.526  32.117  1.00  0.00    -0.205 F 
ATOM     85  C   UNL A   1      38.316  31.587  34.440  1.00  0.00     0.022 A 
BRANCH  83  86
ATOM     86  S   UNL A   1      38.525  34.328  34.391  1.00  0.00     0.127 S 
ATOM     87  O   UNL A   1      37.863  34.055  35.668  1.00  0.00    -0.237 OA
ATOM     88  O   UNL A   1      39.833  34.950  34.537  1.00  0.00    -0.237 OA
ATOM     89  O   UNL A   1      37.655  34.858  33.346  1.00  0.00    -0.744 OA
ENDBRANCH  83  86
ENDBRANCH  55  79
BRANCH  67  90
ATOM     90  C   UNL A   1      45.370  26.207  32.695  1.00  0.00     0.023 A 
ATOM     91  C   UNL A   1      46.766  26.362  32.753  1.00  0.00     0.012 A 
ATOM     92  C   UNL A   1      44.777  25.301  33.606  1.00  0.00     0.148 A 
ATOM     93  C   UNL A   1      47.550  25.601  33.621  1.00  0.00     0.002 A 
ATOM     94  C   UNL A   1      45.549  24.641  34.552  1.00  0.00     0.091 A 
ATOM     95  F   UNL A   1      43.458  25.061  33.557  1.00  0.00    -0.205 F 
ATOM     96  C   UNL A   1      46.940  24.759  34.540  1.00  0.00     0.022 A 
BRANCH  94  97
ATOM     97  S   UNL A   1      44.758  23.765  35.906  1.00  0.00     0.127 S 
ATOM     98  O   UNL A   1      44.208  22.591  35.234  1.00  0.00    -0.237 OA
ATOM     99  O   UNL A   1      45.880  23.484  36.803  1.00  0.00    -0.237 OA
ATOM    100  O   UNL A   1      43.793  24.716  36.444  1.00  0.00    -0.744 OA
ENDBRANCH  94  97
ENDBRANCH  67  90
ENDBRANCH  41  42
ENDBRANCH  34  36
ENDBRANCH  33  34
ENDBRANCH  32  33
ENDBRANCH   1  32
TORSDOF 17
ENDMDL
MODEL 2
REMARK VINA RESULT:     -13.5      2.066      2.715
REMARK SMILES Cc1cccc(-c2ncc(C[NH+]3CCC4(CC3)NC(=O)C[C@H]4C(=O)OCCOC(=O)c3ccc(-c4c5nc(c(-c6cccc(S(=O)(=O)[O-])c6F)c6ccc([nH]6)c(-c6cccc(S(=O)(=O)[O-])c6F)c6nc(c(-c7cccc(S(=O)(=O)[O-])c7F)c7ccc4[nH]7)C=C6)C=C5)cc3)cn2)c1
REMARK SMILES IDX 26 1 25 2 23 3 24 4 22 5 12 6 13 7 17 8 14 10 16 11 15 12
REMARK SMILES IDX 18 13 19 14 21 16 20 17 11 18 10 19 7 20 8 21 95 22 9 23
REMARK SMILES IDX 94 24 6 25 1 26 2 27 3 28 96 29 4 30 5 31 27 32 28 33 29 34
REMARK SMILES IDX 30 35 31 36 32 37 93 38 33 39 92 40 34 41 35 42 36 43 86 44
REMARK SMILES IDX 37 45 91 46 85 47 87 48 38 49 90 50 84 51 83 52 39 54 71 55
REMARK SMILES IDX 51 56 70 57 52 58 55 59 69 60 88 61 53 62 54 63 68 65 89 66
REMARK SMILES IDX 56 67 40 68 41 69 49 70 42 71 44 72 50 73 43 74 45 75 46 76
REMARK SMILES IDX 47 77 48 78 72 79 73 80 81 81 74 82 76 83 82 84 75 85 77 86
REMARK SMILES IDX 78 87 79 88 80 89 57 90 58 91 66 92 59 93 61 94 67 95 60 96
REMARK SMILES IDX 62 97 63 98 64 99 65 100
REMARK H PARENT 12 9 18 15 87 53 55 64
REMARK Flexibility Score: inf
ROOT
ATOM      1  C   UNL A   1      33.365  30.028  25.931  1.00  0.00     0.274 C 
ENDROOT
BRANCH   1   2
ATOM      2  O   UNL A   1      32.776  29.260  24.844  1.00  0.00    -0.462 OA
BRANCH   2   3
ATOM      3  C   UNL A   1      31.472  29.405  24.559  1.00  0.00     0.311 C 
ATOM      4  O   UNL A   1      30.775  30.231  25.131  1.00  0.00    -0.252 OA
BRANCH   3   5
ATOM      5  C   UNL A   1      30.921  28.706  23.339  1.00  0.00     0.134 C 
ATOM      6  N   UNL A   1      32.571  25.213  24.785  1.00  0.00    -0.331 N 
ATOM      7  C   UNL A   1      32.283  25.243  23.352  1.00  0.00     0.264 C 
ATOM      8  C   UNL A   1      32.360  26.512  25.377  1.00  0.00     0.264 C 
ATOM      9  H   UNL A   1      33.560  24.967  24.760  1.00  0.00     0.348 HD
ATOM     10  C   UNL A   1      31.113  26.121  22.820  1.00  0.00     0.091 C 
ATOM     11  C   UNL A   1      30.902  26.948  25.183  1.00  0.00     0.091 C 
ATOM     12  C   UNL A   1      30.559  27.254  23.728  1.00  0.00     0.064 C 
ATOM     13  N   UNL A   1      29.113  27.258  23.578  1.00  0.00    -0.349 N 
ATOM     14  C   UNL A   1      28.576  28.393  23.036  1.00  0.00     0.221 C 
ATOM     15  H   UNL A   1      28.556  26.493  23.851  1.00  0.00     0.164 HD
ATOM     16  C   UNL A   1      29.681  29.345  22.711  1.00  0.00     0.117 C 
ATOM     17  O   UNL A   1      27.388  28.549  22.827  1.00  0.00    -0.275 OA
BRANCH   6  18
ATOM     18  C   UNL A   1      32.239  24.072  25.642  1.00  0.00     0.302 C 
BRANCH  18  19
ATOM     19  C   UNL A   1      32.429  22.710  25.023  1.00  0.00     0.043 A 
ATOM     20  C   UNL A   1      33.073  20.084  24.725  1.00  0.00     0.159 A 
ATOM     21  N   UNL A   1      31.824  20.388  25.137  1.00  0.00    -0.236 NA
ATOM     22  N   UNL A   1      33.980  20.992  24.307  1.00  0.00    -0.236 NA
ATOM     23  C   UNL A   1      31.522  21.698  25.256  1.00  0.00     0.124 A 
ATOM     24  C   UNL A   1      33.634  22.292  24.471  1.00  0.00     0.124 A 
BRANCH  20  25
ATOM     25  C   UNL A   1      33.506  18.686  24.887  1.00  0.00     0.019 A 
ATOM     26  C   UNL A   1      32.044  15.307  26.014  1.00  0.00     0.044 C 
ATOM     27  C   UNL A   1      32.996  16.345  25.484  1.00  0.00    -0.050 A 
ATOM     28  C   UNL A   1      34.278  15.972  25.081  1.00  0.00     0.003 A 
ATOM     29  C   UNL A   1      32.626  17.697  25.383  1.00  0.00     0.015 A 
ATOM     30  C   UNL A   1      35.177  16.934  24.617  1.00  0.00     0.001 A 
ATOM     31  C   UNL A   1      34.798  18.279  24.535  1.00  0.00     0.012 A 
ENDBRANCH  20  25
ENDBRANCH  18  19
ENDBRANCH   6  18
ENDBRANCH   3   5
ENDBRANCH   2   3
ENDBRANCH   1   2
BRANCH   1  32
ATOM     32  C   UNL A   1      34.570  29.547  26.811  1.00  0.00     0.275 C 
BRANCH  32  33
ATOM     33  O   UNL A   1      35.239  30.192  27.967  1.00  0.00    -0.458 OA
BRANCH  33  34
ATOM     34  C   UNL A   1      36.485  30.704  28.206  1.00  0.00     0.338 C 
ATOM     35  O   UNL A   1      36.719  31.889  28.314  1.00  0.00    -0.246 OA
BRANCH  34  36
ATOM     36  C   UNL A   1      37.554  29.704  28.169  1.00  0.00     0.060 A 
ATOM     37  C   UNL A   1      38.406  29.564  27.053  1.00  0.00     0.016 A 
ATOM     38  C   UNL A   1      37.820  29.117  29.393  1.00  0.00     0.016 A 
ATOM     39  C   UNL A   1      39.663  28.990  27.238  1.00  0.00     0.010 A 
ATOM     40  C   UNL A   1      39.084  28.646  29.600  1.00  0.00     0.010 A 
ATOM     41  C   UNL A   1      40.001  28.567  28.529  1.00  0.00    -0.014 A 
BRANCH  41  42
ATOM     42  C   UNL A   1      40.986  27.537  28.795  1.00  0.00     0.031 A 
ATOM     43  C   UNL A   1      40.848  26.118  28.453  1.00  0.00     0.074 A 
ATOM     44  C   UNL A   1      42.159  28.164  29.039  1.00  0.00     0.049 A 
ATOM     45  N   UNL A   1      41.488  25.198  29.089  1.00  0.00    -0.248 NA
ATOM     46  C   UNL A   1      39.982  25.592  27.397  1.00  0.00     0.031 C 
ATOM     47  C   UNL A   1      43.526  27.748  28.847  1.00  0.00     0.029 A 
ATOM     48  N   UNL A   1      42.272  29.466  29.557  1.00  0.00    -0.354 N 
ATOM     49  C   UNL A   1      41.362  24.038  28.352  1.00  0.00     0.074 A 
ATOM     50  C   UNL A   1      40.294  24.287  27.411  1.00  0.00     0.031 C 
ATOM     51  C   UNL A   1      44.320  28.635  29.487  1.00  0.00     0.029 A 
ATOM     52  C   UNL A   1      43.459  29.539  30.256  1.00  0.00     0.049 A 
ATOM     53  H   UNL A   1      41.622  30.196  29.441  1.00  0.00     0.167 HD
ATOM     54  C   UNL A   1      42.340  23.091  28.417  1.00  0.00     0.034 A 
ATOM     55  C   UNL A   1      43.417  29.724  31.610  1.00  0.00     0.034 A 
ATOM     56  C   UNL A   1      43.493  23.636  29.147  1.00  0.00     0.049 A 
ATOM     57  C   UNL A   1      43.973  28.500  32.288  1.00  0.00     0.074 A 
ATOM     58  C   UNL A   1      44.607  24.309  28.670  1.00  0.00     0.029 A 
ATOM     59  N   UNL A   1      43.450  23.856  30.516  1.00  0.00    -0.354 N 
ATOM     60  N   UNL A   1      44.034  27.328  31.723  1.00  0.00    -0.248 NA
ATOM     61  C   UNL A   1      44.497  28.503  33.646  1.00  0.00     0.031 C 
ATOM     62  C   UNL A   1      45.202  24.995  29.755  1.00  0.00     0.029 A 
ATOM     63  C   UNL A   1      44.464  24.726  30.895  1.00  0.00     0.049 A 
ATOM     64  H   UNL A   1      42.795  23.452  31.131  1.00  0.00     0.167 HD
ATOM     65  C   UNL A   1      44.552  26.424  32.599  1.00  0.00     0.074 A 
ATOM     66  C   UNL A   1      44.859  27.215  33.780  1.00  0.00     0.031 C 
ATOM     67  C   UNL A   1      44.649  25.098  32.290  1.00  0.00     0.034 A 
BRANCH  54  68
ATOM     68  C   UNL A   1      42.471  21.895  27.486  1.00  0.00     0.023 A 
ATOM     69  C   UNL A   1      41.456  20.911  27.555  1.00  0.00     0.012 A 
ATOM     70  C   UNL A   1      43.506  21.659  26.549  1.00  0.00     0.148 A 
ATOM     71  C   UNL A   1      41.501  19.718  26.830  1.00  0.00     0.002 A 
ATOM     72  C   UNL A   1      43.569  20.449  25.842  1.00  0.00     0.091 A 
ATOM     73  F   UNL A   1      44.405  22.623  26.312  1.00  0.00    -0.205 F 
ATOM     74  C   UNL A   1      42.573  19.475  25.991  1.00  0.00     0.022 A 
BRANCH  72  75
ATOM     75  S   UNL A   1      44.932  20.002  24.750  1.00  0.00     0.127 S 
ATOM     76  O   UNL A   1      44.838  18.539  24.724  1.00  0.00    -0.237 OA
ATOM     77  O   UNL A   1      44.560  20.652  23.495  1.00  0.00    -0.237 OA
ATOM     78  O   UNL A   1      46.142  20.509  25.385  1.00  0.00    -0.744 OA
ENDBRANCH  72  75
ENDBRANCH  54  68
BRANCH  55  79
ATOM     79  C   UNL A   1      42.228  30.506  32.132  1.00  0.00     0.023 A 
ATOM     80  C   UNL A   1      42.065  31.850  31.697  1.00  0.00     0.012 A 
ATOM     81  C   UNL A   1      41.130  29.888  32.761  1.00  0.00     0.148 A 
ATOM     82  C   UNL A   1      40.837  32.516  31.808  1.00  0.00     0.002 A 
ATOM     83  C   UNL A   1      39.901  30.555  32.855  1.00  0.00     0.091 A 
ATOM     84  F   UNL A   1      41.265  28.638  33.221  1.00  0.00    -0.205 F 
ATOM     85  C   UNL A   1      39.751  31.863  32.375  1.00  0.00     0.022 A 
BRANCH  83  86
ATOM     86  S   UNL A   1      38.419  29.693  33.409  1.00  0.00     0.127 S 
ATOM     87  O   UNL A   1      37.351  30.393  32.693  1.00  0.00    -0.237 OA
ATOM     88  O   UNL A   1      38.615  28.322  32.960  1.00  0.00    -0.237 OA
ATOM     89  O   UNL A   1      38.454  29.928  34.848  1.00  0.00    -0.744 OA
ENDBRANCH  83  86
ENDBRANCH  55  79
BRANCH  67  90
ATOM     90  C   UNL A   1      44.968  24.022  33.289  1.00  0.00     0.023 A 
ATOM     91  C   UNL A   1      44.044  23.010  33.603  1.00  0.00     0.012 A 
ATOM     92  C   UNL A   1      46.275  23.897  33.818  1.00  0.00     0.148 A 
ATOM     93  C   UNL A   1      44.373  21.960  34.460  1.00  0.00     0.002 A 
ATOM     94  C   UNL A   1      46.632  22.786  34.568  1.00  0.00     0.091 A 
ATOM     95  F   UNL A   1      47.183  24.863  33.608  1.00  0.00    -0.205 F 
ATOM     96  C   UNL A   1      45.676  21.832  34.923  1.00  0.00     0.022 A 
BRANCH  94  97
ATOM     97  S   UNL A   1      48.359  22.472  34.945  1.00  0.00     0.127 S 
ATOM     98  O   UNL A   1      48.465  22.944  36.323  1.00  0.00    -0.237 OA
ATOM     99  O   UNL A   1      48.462  21.020  34.789  1.00  0.00    -0.237 OA
ATOM    100  O   UNL A   1      49.097  23.229  33.941  1.00  0.00    -0.744 OA
ENDBRANCH  94  97
ENDBRANCH  67  90
ENDBRANCH  41  42
ENDBRANCH  34  36
ENDBRANCH  33  34
ENDBRANCH  32  33
ENDBRANCH   1  32
TORSDOF 17
ENDMDL
MODEL 3
REMARK VINA RESULT:     -13.3      1.481      1.960
REMARK SMILES Cc1cccc(-c2ncc(C[NH+]3CCC4(CC3)NC(=O)C[C@H]4C(=O)OCCOC(=O)c3ccc(-c4c5nc(c(-c6cccc(S(=O)(=O)[O-])c6F)c6ccc([nH]6)c(-c6cccc(S(=O)(=O)[O-])c6F)c6nc(c(-c7cccc(S(=O)(=O)[O-])c7F)c7ccc4[nH]7)C=C6)C=C5)cc3)cn2)c1
REMARK SMILES IDX 26 1 25 2 23 3 24 4 22 5 12 6 13 7 17 8 14 10 16 11 15 12
REMARK SMILES IDX 18 13 19 14 21 16 20 17 11 18 10 19 7 20 8 21 95 22 9 23
REMARK SMILES IDX 94 24 6 25 1 26 2 27 3 28 96 29 4 30 5 31 27 32 28 33 29 34
REMARK SMILES IDX 30 35 31 36 32 37 93 38 33 39 92 40 34 41 35 42 36 43 86 44
REMARK SMILES IDX 37 45 91 46 85 47 87 48 38 49 90 50 84 51 83 52 39 54 71 55
REMARK SMILES IDX 51 56 70 57 52 58 55 59 69 60 88 61 53 62 54 63 68 65 89 66
REMARK SMILES IDX 56 67 40 68 41 69 49 70 42 71 44 72 50 73 43 74 45 75 46 76
REMARK SMILES IDX 47 77 48 78 72 79 73 80 81 81 74 82 76 83 82 84 75 85 77 86
REMARK SMILES IDX 78 87 79 88 80 89 57 90 58 91 66 92 59 93 61 94 67 95 60 96
REMARK SMILES IDX 62 97 63 98 64 99 65 100
REMARK H PARENT 12 9 18 15 87 53 55 64
REMARK Flexibility Score: inf
ROOT
ATOM      1  C   UNL A   1      32.686  30.297  25.799  1.00  0.00     0.274 C 
ENDROOT
BRANCH   1   2
ATOM      2  O   UNL A   1      31.835  29.484  24.943  1.00  0.00    -0.462 OA
BRANCH   2   3
ATOM      3  C   UNL A   1      32.329  28.982  23.799  1.00  0.00     0.311 C 
ATOM      4  O   UNL A   1      33.518  29.057  23.523  1.00  0.00    -0.252 OA
BRANCH   3   5
ATOM      5  C   UNL A   1      31.441  28.095  22.961  1.00  0.00     0.134 C 
ATOM      6  N   UNL A   1      32.711  24.914  25.261  1.00  0.00    -0.331 N 
ATOM      7  C   UNL A   1      32.162  24.580  23.949  1.00  0.00     0.264 C 
ATOM      8  C   UNL A   1      32.845  26.344  25.410  1.00  0.00     0.264 C 
ATOM      9  H   UNL A   1      33.619  24.456  25.194  1.00  0.00     0.348 HD
ATOM     10  C   UNL A   1      31.080  25.499  23.309  1.00  0.00     0.091 C 
ATOM     11  C   UNL A   1      31.475  27.018  25.270  1.00  0.00     0.091 C 
ATOM     12  C   UNL A   1      30.916  26.945  23.853  1.00  0.00     0.064 C 
ATOM     13  N   UNL A   1      29.491  27.230  23.896  1.00  0.00    -0.349 N 
ATOM     14  C   UNL A   1      29.064  28.241  23.081  1.00  0.00     0.221 C 
ATOM     15  H   UNL A   1      28.873  26.727  24.475  1.00  0.00     0.164 HD
ATOM     16  C   UNL A   1      30.232  28.778  22.320  1.00  0.00     0.117 C 
ATOM     17  O   UNL A   1      27.902  28.592  22.985  1.00  0.00    -0.275 OA
BRANCH   6  18
ATOM     18  C   UNL A   1      32.358  24.186  26.483  1.00  0.00     0.302 C 
BRANCH  18  19
ATOM     19  C   UNL A   1      32.368  22.682  26.376  1.00  0.00     0.043 A 
ATOM     20  C   UNL A   1      32.819  20.170  25.436  1.00  0.00     0.159 A 
ATOM     21  N   UNL A   1      33.750  20.722  26.243  1.00  0.00    -0.236 NA
ATOM     22  N   UNL A   1      31.611  20.716  25.181  1.00  0.00    -0.236 NA
ATOM     23  C   UNL A   1      33.493  21.960  26.713  1.00  0.00     0.124 A 
ATOM     24  C   UNL A   1      31.415  21.969  25.658  1.00  0.00     0.124 A 
BRANCH  20  25
ATOM     25  C   UNL A   1      33.219  18.973  24.679  1.00  0.00     0.019 A 
ATOM     26  C   UNL A   1      35.341  15.798  25.176  1.00  0.00     0.044 C 
ATOM     27  C   UNL A   1      34.423  16.820  24.561  1.00  0.00    -0.050 A 
ATOM     28  C   UNL A   1      33.893  16.603  23.290  1.00  0.00     0.003 A 
ATOM     29  C   UNL A   1      34.080  18.002  25.239  1.00  0.00     0.015 A 
ATOM     30  C   UNL A   1      33.065  17.559  22.700  1.00  0.00     0.001 A 
ATOM     31  C   UNL A   1      32.744  18.738  23.383  1.00  0.00     0.012 A 
ENDBRANCH  20  25
ENDBRANCH  18  19
ENDBRANCH   6  18
ENDBRANCH   3   5
ENDBRANCH   2   3
ENDBRANCH   1   2
BRANCH   1  32
ATOM     32  C   UNL A   1      33.912  29.753  26.611  1.00  0.00     0.275 C 
BRANCH  32  33
ATOM     33  O   UNL A   1      34.536  30.247  27.862  1.00  0.00    -0.458 OA
BRANCH  33  34
ATOM     34  C   UNL A   1      35.595  31.059  28.165  1.00  0.00     0.338 C 
ATOM     35  O   UNL A   1      35.584  32.263  28.026  1.00  0.00    -0.246 OA
BRANCH  34  36
ATOM     36  C   UNL A   1      36.814  30.332  28.530  1.00  0.00     0.060 A 
ATOM     37  C   UNL A   1      36.976  29.739  29.800  1.00  0.00     0.016 A 
ATOM     38  C   UNL A   1      37.645  30.052  27.460  1.00  0.00     0.016 A 
ATOM     39  C   UNL A   1      37.872  28.680  29.935  1.00  0.00     0.010 A 
ATOM     40  C   UNL A   1      38.449  28.955  27.563  1.00  0.00     0.010 A 
ATOM     41  C   UNL A   1      38.578  28.276  28.795  1.00  0.00    -0.014 A 
BRANCH  41  42
ATOM     42  C   UNL A   1      39.854  27.590  28.852  1.00  0.00     0.031 A 
ATOM     43  C   UNL A   1      40.073  26.173  28.545  1.00  0.00     0.074 A 
ATOM     44  C   UNL A   1      40.815  28.541  28.849  1.00  0.00     0.049 A 
ATOM     45  N   UNL A   1      41.067  25.516  29.036  1.00  0.00    -0.248 NA
ATOM     46  C   UNL A   1      39.209  25.359  27.689  1.00  0.00     0.031 C 
ATOM     47  C   UNL A   1      42.178  28.524  28.380  1.00  0.00     0.029 A 
ATOM     48  N   UNL A   1      40.642  29.850  29.333  1.00  0.00    -0.354 N 
ATOM     49  C   UNL A   1      41.143  24.327  28.340  1.00  0.00     0.074 A 
ATOM     50  C   UNL A   1      39.886  24.202  27.639  1.00  0.00     0.031 C 
ATOM     51  C   UNL A   1      42.787  29.639  28.842  1.00  0.00     0.029 A 
ATOM     52  C   UNL A   1      41.868  30.301  29.773  1.00  0.00     0.049 A 
ATOM     53  H   UNL A   1      39.797  30.354  29.353  1.00  0.00     0.167 HD
ATOM     54  C   UNL A   1      42.349  23.705  28.201  1.00  0.00     0.034 A 
ATOM     55  C   UNL A   1      42.042  30.548  31.106  1.00  0.00     0.034 A 
ATOM     56  C   UNL A   1      43.412  24.601  28.679  1.00  0.00     0.049 A 
ATOM     57  C   UNL A   1      43.054  29.578  31.655  1.00  0.00     0.074 A 
ATOM     58  C   UNL A   1      44.163  25.536  27.982  1.00  0.00     0.029 A 
ATOM     59  N   UNL A   1      43.577  24.881  30.027  1.00  0.00    -0.354 N 
ATOM     60  N   UNL A   1      43.343  28.441  31.089  1.00  0.00    -0.248 NA
ATOM     61  C   UNL A   1      43.811  29.813  32.876  1.00  0.00     0.031 C 
ATOM     62  C   UNL A   1      44.732  26.428  28.922  1.00  0.00     0.029 A 
ATOM     63  C   UNL A   1      44.345  26.027  30.189  1.00  0.00     0.049 A 
ATOM     64  H   UNL A   1      43.204  24.345  30.764  1.00  0.00     0.167 HD
ATOM     65  C   UNL A   1      44.265  27.778  31.839  1.00  0.00     0.074 A 
ATOM     66  C   UNL A   1      44.553  28.693  32.932  1.00  0.00     0.031 C 
ATOM     67  C   UNL A   1      44.684  26.519  31.517  1.00  0.00     0.034 A 
BRANCH  54  68
ATOM     68  C   UNL A   1      42.639  22.544  27.263  1.00  0.00     0.023 A 
ATOM     69  C   UNL A   1      41.962  21.327  27.516  1.00  0.00     0.012 A 
ATOM     70  C   UNL A   1      43.518  22.549  26.153  1.00  0.00     0.148 A 
ATOM     71  C   UNL A   1      42.206  20.155  26.797  1.00  0.00     0.002 A 
ATOM     72  C   UNL A   1      43.786  21.366  25.447  1.00  0.00     0.091 A 
ATOM     73  F   UNL A   1      44.062  23.707  25.755  1.00  0.00    -0.205 F 
ATOM     74  C   UNL A   1      43.139  20.168  25.777  1.00  0.00     0.022 A 
BRANCH  72  75
ATOM     75  S   UNL A   1      45.007  21.250  24.125  1.00  0.00     0.127 S 
ATOM     76  O   UNL A   1      44.818  19.875  23.653  1.00  0.00    -0.237 OA
ATOM     77  O   UNL A   1      44.557  22.276  23.187  1.00  0.00    -0.237 OA
ATOM     78  O   UNL A   1      46.302  21.492  24.748  1.00  0.00    -0.744 OA
ENDBRANCH  72  75
ENDBRANCH  54  68
BRANCH  55  79
ATOM     79  C   UNL A   1      40.803  30.986  31.862  1.00  0.00     0.023 A 
ATOM     80  C   UNL A   1      40.235  30.082  32.802  1.00  0.00     0.012 A 
ATOM     81  C   UNL A   1      40.379  32.329  31.913  1.00  0.00     0.148 A 
ATOM     82  C   UNL A   1      39.351  30.516  33.798  1.00  0.00     0.002 A 
ATOM     83  C   UNL A   1      39.507  32.757  32.922  1.00  0.00     0.091 A 
ATOM     84  F   UNL A   1      40.862  33.196  31.014  1.00  0.00    -0.205 F 
ATOM     85  C   UNL A   1      38.998  31.856  33.868  1.00  0.00     0.022 A 
BRANCH  83  86
ATOM     86  S   UNL A   1      39.165  34.509  33.169  1.00  0.00     0.127 S 
ATOM     87  O   UNL A   1      38.605  34.914  31.878  1.00  0.00    -0.237 OA
ATOM     88  O   UNL A   1      38.195  34.534  34.254  1.00  0.00    -0.237 OA
ATOM     89  O   UNL A   1      40.494  35.038  33.458  1.00  0.00    -0.744 OA
ENDBRANCH  83  86
ENDBRANCH  55  79
BRANCH  67  90
ATOM     90  C   UNL A   1      45.495  25.643  32.428  1.00  0.00     0.023 A 
ATOM     91  C   UNL A   1      46.880  25.826  32.587  1.00  0.00     0.012 A 
ATOM     92  C   UNL A   1      44.858  24.715  33.286  1.00  0.00     0.148 A 
ATOM     93  C   UNL A   1      47.616  25.072  33.502  1.00  0.00     0.002 A 
ATOM     94  C   UNL A   1      45.575  24.060  34.278  1.00  0.00     0.091 A 
ATOM     95  F   UNL A   1      43.551  24.448  33.141  1.00  0.00    -0.205 F 
ATOM     96  C   UNL A   1      46.961  24.207  34.367  1.00  0.00     0.022 A 
BRANCH  94  97
ATOM     97  S   UNL A   1      44.709  23.154  35.564  1.00  0.00     0.127 S 
ATOM     98  O   UNL A   1      43.696  24.116  35.991  1.00  0.00    -0.237 OA
ATOM     99  O   UNL A   1      44.181  21.996  34.839  1.00  0.00    -0.237 OA
ATOM    100  O   UNL A   1      45.741  22.823  36.538  1.00  0.00    -0.744 OA
ENDBRANCH  94  97
ENDBRANCH  67  90
ENDBRANCH  41  42
ENDBRANCH  34  36
ENDBRANCH  33  34
ENDBRANCH  32  33
ENDBRANCH   1  32
TORSDOF 17
ENDMDL
