MODEL 1
REMARK VINA RESULT:     -11.7      0.000      0.000
REMARK SMILES O=C(OCCOC(=O)[C@@H]1[C@H](C(=O)NCc2ccncc2)[C@H]2C=C[C@@H]1O2)c1ccc(-c2c3nc(c(-c4cccc(S(=O)(=O)[O-])c4F)c4ccc([nH]4)c(-c4cccc(S(=O)(=O)[O-])c4F)c4nc(c(-c5cccc(S(=O)(=O)[O-])c5F)c5ccc2[nH]5)C=C4)C=C3)cc1
REMARK SMILES IDX 4 1 3 2 2 3 1 4 26 5 27 6 88 7 28 8 87 9 29 10 30 11 31 12
REMARK SMILES IDX 81 13 32 14 86 15 80 16 82 17 33 18 85 19 79 20 78 21 34 23
REMARK SMILES IDX 66 24 46 25 65 26 47 27 50 28 64 29 83 30 48 31 49 32 63 34
REMARK SMILES IDX 84 35 51 36 35 37 36 38 44 39 37 40 39 41 45 42 38 43 40 44
REMARK SMILES IDX 41 45 42 46 43 47 67 48 68 49 76 50 69 51 71 52 77 53 70 54
REMARK SMILES IDX 72 55 73 56 74 57 75 58 52 59 53 60 61 61 54 62 56 63 62 64
REMARK SMILES IDX 55 65 57 66 58 67 59 68 60 69 5 70 6 71 7 72 8 73 9 74 10 75
REMARK SMILES IDX 24 76 21 77 23 78 25 79 22 80 11 81 12 82 13 83 14 85 15 86
REMARK SMILES IDX 16 87 20 88 17 89 19 90 18 91
REMARK H PARENT 82 22 50 33 13 84
REMARK Flexibility Score: inf
ROOT
ATOM      1  C   UNL A   1      36.798  21.058  25.287  1.00  0.00     0.275 C 
ENDROOT
BRANCH   1   2
ATOM      2  O   UNL A   1      38.236  20.947  25.235  1.00  0.00    -0.458 OA
BRANCH   2   3
ATOM      3  C   UNL A   1      39.207  21.108  26.164  1.00  0.00     0.338 C 
ATOM      4  O   UNL A   1      39.704  20.084  26.638  1.00  0.00    -0.246 OA
BRANCH   3   5
ATOM      5  C   UNL A   1      39.707  22.422  26.701  1.00  0.00     0.060 A 
ATOM      6  C   UNL A   1      40.715  22.601  27.642  1.00  0.00     0.016 A 
ATOM      7  C   UNL A   1      39.129  23.595  26.174  1.00  0.00     0.016 A 
ATOM      8  C   UNL A   1      41.214  23.880  27.950  1.00  0.00     0.010 A 
ATOM      9  C   UNL A   1      39.659  24.872  26.445  1.00  0.00     0.010 A 
ATOM     10  C   UNL A   1      40.750  25.023  27.310  1.00  0.00    -0.014 A 
BRANCH  10  11
ATOM     11  C   UNL A   1      41.302  26.360  27.680  1.00  0.00     0.031 A 
ATOM     12  C   UNL A   1      42.749  26.595  27.431  1.00  0.00     0.074 A 
ATOM     13  C   UNL A   1      40.563  27.405  28.117  1.00  0.00     0.049 A 
ATOM     14  N   UNL A   1      43.441  27.673  27.660  1.00  0.00    -0.248 NA
ATOM     15  C   UNL A   1      43.487  25.511  26.766  1.00  0.00     0.031 C 
ATOM     16  C   UNL A   1      39.120  27.435  28.159  1.00  0.00     0.029 A 
ATOM     17  N   UNL A   1      40.898  28.638  28.632  1.00  0.00    -0.354 N 
ATOM     18  C   UNL A   1      44.687  27.420  27.125  1.00  0.00     0.074 A 
ATOM     19  C   UNL A   1      44.683  26.060  26.633  1.00  0.00     0.031 C 
ATOM     20  C   UNL A   1      38.678  28.520  28.813  1.00  0.00     0.029 A 
ATOM     21  C   UNL A   1      39.828  29.304  29.206  1.00  0.00     0.049 A 
ATOM     22  H   UNL A   1      41.810  29.010  28.595  1.00  0.00     0.167 HD
ATOM     23  C   UNL A   1      45.722  28.275  26.994  1.00  0.00     0.034 A 
ATOM     24  C   UNL A   1      39.768  30.413  29.969  1.00  0.00     0.034 A 
ATOM     25  C   UNL A   1      45.735  29.611  27.509  1.00  0.00     0.049 A 
ATOM     26  C   UNL A   1      41.014  31.240  30.054  1.00  0.00     0.074 A 
ATOM     27  C   UNL A   1      46.771  30.524  27.489  1.00  0.00     0.029 A 
ATOM     28  N   UNL A   1      44.675  30.219  28.167  1.00  0.00    -0.354 N 
ATOM     29  N   UNL A   1      42.176  31.006  29.496  1.00  0.00    -0.248 NA
ATOM     30  C   UNL A   1      40.927  32.522  30.762  1.00  0.00     0.031 C 
ATOM     31  C   UNL A   1      46.352  31.670  28.171  1.00  0.00     0.029 A 
ATOM     32  C   UNL A   1      45.040  31.488  28.579  1.00  0.00     0.049 A 
ATOM     33  H   UNL A   1      43.793  29.807  28.318  1.00  0.00     0.167 HD
ATOM     34  C   UNL A   1      42.929  32.147  29.705  1.00  0.00     0.074 A 
ATOM     35  C   UNL A   1      42.095  33.068  30.453  1.00  0.00     0.031 C 
ATOM     36  C   UNL A   1      44.192  32.409  29.294  1.00  0.00     0.034 A 
BRANCH  23  37
ATOM     37  C   UNL A   1      46.912  27.735  26.270  1.00  0.00     0.023 A 
ATOM     38  C   UNL A   1      46.982  27.839  24.865  1.00  0.00     0.012 A 
ATOM     39  C   UNL A   1      47.916  27.055  26.976  1.00  0.00     0.148 A 
ATOM     40  C   UNL A   1      48.022  27.230  24.168  1.00  0.00     0.002 A 
ATOM     41  C   UNL A   1      48.971  26.490  26.279  1.00  0.00     0.091 A 
ATOM     42  F   UNL A   1      47.795  26.942  28.306  1.00  0.00    -0.205 F 
ATOM     43  C   UNL A   1      49.018  26.562  24.875  1.00  0.00     0.022 A 
BRANCH  41  44
ATOM     44  S   UNL A   1      50.322  25.646  27.099  1.00  0.00     0.127 S 
ATOM     45  O   UNL A   1      50.713  26.629  28.110  1.00  0.00    -0.237 OA
ATOM     46  O   UNL A   1      49.654  24.457  27.627  1.00  0.00    -0.237 OA
ATOM     47  O   UNL A   1      51.322  25.387  26.072  1.00  0.00    -0.744 OA
ENDBRANCH  41  44
ENDBRANCH  23  37
BRANCH  24  48
ATOM     48  C   UNL A   1      38.509  30.851  30.650  1.00  0.00     0.023 A 
ATOM     49  C   UNL A   1      38.231  30.438  31.968  1.00  0.00     0.012 A 
ATOM     50  C   UNL A   1      37.541  31.610  29.957  1.00  0.00     0.148 A 
ATOM     51  C   UNL A   1      36.993  30.714  32.558  1.00  0.00     0.002 A 
ATOM     52  C   UNL A   1      36.322  31.907  30.561  1.00  0.00     0.091 A 
ATOM     53  F   UNL A   1      37.819  32.002  28.705  1.00  0.00    -0.205 F 
ATOM     54  C   UNL A   1      36.039  31.444  31.855  1.00  0.00     0.022 A 
BRANCH  52  55
ATOM     55  S   UNL A   1      35.052  32.893  29.755  1.00  0.00     0.127 S 
ATOM     56  O   UNL A   1      34.120  33.136  30.854  1.00  0.00    -0.237 OA
ATOM     57  O   UNL A   1      35.811  34.066  29.321  1.00  0.00    -0.237 OA
ATOM     58  O   UNL A   1      34.549  32.065  28.668  1.00  0.00    -0.744 OA
ENDBRANCH  52  55
ENDBRANCH  24  48
BRANCH  36  59
ATOM     59  C   UNL A   1      44.741  33.771  29.602  1.00  0.00     0.023 A 
ATOM     60  C   UNL A   1      45.469  33.988  30.788  1.00  0.00     0.012 A 
ATOM     61  C   UNL A   1      44.581  34.822  28.681  1.00  0.00     0.148 A 
ATOM     62  C   UNL A   1      45.998  35.245  31.069  1.00  0.00     0.002 A 
ATOM     63  C   UNL A   1      45.165  36.053  28.937  1.00  0.00     0.091 A 
ATOM     64  F   UNL A   1      43.858  34.599  27.573  1.00  0.00    -0.205 F 
ATOM     65  C   UNL A   1      45.860  36.271  30.138  1.00  0.00     0.022 A 
BRANCH  63  66
ATOM     66  S   UNL A   1      45.139  37.392  27.743  1.00  0.00     0.127 S 
ATOM     67  O   UNL A   1      45.845  36.794  26.611  1.00  0.00    -0.237 OA
ATOM     68  O   UNL A   1      43.703  37.588  27.533  1.00  0.00    -0.237 OA
ATOM     69  O   UNL A   1      45.815  38.513  28.380  1.00  0.00    -0.744 OA
ENDBRANCH  63  66
ENDBRANCH  36  59
ENDBRANCH  10  11
ENDBRANCH   3   5
ENDBRANCH   2   3
ENDBRANCH   1   2
BRANCH   1  70
ATOM     70  C   UNL A   1      36.228  21.971  24.210  1.00  0.00     0.274 C 
BRANCH  70  71
ATOM     71  O   UNL A   1      35.367  22.979  24.753  1.00  0.00    -0.462 OA
BRANCH  71  72
ATOM     72  C   UNL A   1      34.084  22.932  24.301  1.00  0.00     0.312 C 
ATOM     73  O   UNL A   1      33.734  22.383  23.269  1.00  0.00    -0.252 OA
BRANCH  72  74
ATOM     74  C   UNL A   1      33.101  23.640  25.186  1.00  0.00     0.147 C 
ATOM     75  C   UNL A   1      32.822  22.982  26.552  1.00  0.00     0.128 C 
ATOM     76  C   UNL A   1      31.704  23.748  24.583  1.00  0.00     0.157 C 
ATOM     77  C   UNL A   1      31.304  22.967  26.565  1.00  0.00     0.155 C 
ATOM     78  C   UNL A   1      30.891  24.799  25.270  1.00  0.00     0.004 C 
ATOM     79  O   UNL A   1      31.089  22.586  25.182  1.00  0.00    -0.365 OA
ATOM     80  C   UNL A   1      30.667  24.330  26.504  1.00  0.00     0.004 C 
BRANCH  75  81
ATOM     81  C   UNL A   1      33.539  21.667  26.905  1.00  0.00     0.227 C 
ATOM     82  O   UNL A   1      34.402  21.730  27.799  1.00  0.00    -0.275 OA
ATOM     83  N   UNL A   1      33.440  20.423  26.380  1.00  0.00    -0.352 N 
ATOM     84  H   UNL A   1      34.088  19.813  26.799  1.00  0.00     0.163 HD
BRANCH  83  85
ATOM     85  C   UNL A   1      32.650  19.725  25.370  1.00  0.00     0.151 C 
BRANCH  85  86
ATOM     86  C   UNL A   1      33.108  18.305  25.037  1.00  0.00    -0.026 A 
ATOM     87  C   UNL A   1      32.478  17.153  25.506  1.00  0.00     0.025 A 
ATOM     88  C   UNL A   1      34.255  18.105  24.251  1.00  0.00     0.025 A 
ATOM     89  C   UNL A   1      33.089  15.917  25.308  1.00  0.00     0.111 A 
ATOM     90  C   UNL A   1      34.819  16.841  24.140  1.00  0.00     0.111 A 
ATOM     91  N   UNL A   1      34.272  15.741  24.681  1.00  0.00    -0.265 NA
ENDBRANCH  85  86
ENDBRANCH  83  85
ENDBRANCH  75  81
ENDBRANCH  72  74
ENDBRANCH  71  72
ENDBRANCH  70  71
ENDBRANCH   1  70
TORSDOF 17
ENDMDL
MODEL 2
REMARK VINA RESULT:     -11.7      1.672      1.961
REMARK SMILES O=C(OCCOC(=O)[C@@H]1[C@H](C(=O)NCc2ccncc2)[C@H]2C=C[C@@H]1O2)c1ccc(-c2c3nc(c(-c4cccc(S(=O)(=O)[O-])c4F)c4ccc([nH]4)c(-c4cccc(S(=O)(=O)[O-])c4F)c4nc(c(-c5cccc(S(=O)(=O)[O-])c5F)c5ccc2[nH]5)C=C4)C=C3)cc1
REMARK SMILES IDX 4 1 3 2 2 3 1 4 26 5 27 6 88 7 28 8 87 9 29 10 30 11 31 12
REMARK SMILES IDX 81 13 32 14 86 15 80 16 82 17 33 18 85 19 79 20 78 21 34 23
REMARK SMILES IDX 66 24 46 25 65 26 47 27 50 28 64 29 83 30 48 31 49 32 63 34
REMARK SMILES IDX 84 35 51 36 35 37 36 38 44 39 37 40 39 41 45 42 38 43 40 44
REMARK SMILES IDX 41 45 42 46 43 47 67 48 68 49 76 50 69 51 71 52 77 53 70 54
REMARK SMILES IDX 72 55 73 56 74 57 75 58 52 59 53 60 61 61 54 62 56 63 62 64
REMARK SMILES IDX 55 65 57 66 58 67 59 68 60 69 5 70 6 71 7 72 8 73 9 74 10 75
REMARK SMILES IDX 24 76 21 77 23 78 25 79 22 80 11 81 12 82 13 83 14 85 15 86
REMARK SMILES IDX 16 87 20 88 17 89 19 90 18 91
REMARK H PARENT 82 22 50 33 13 84
REMARK Flexibility Score: inf
ROOT
ATOM      1  C   UNL A   1      37.739  20.204  24.638  1.00  0.00     0.275 C 
ENDROOT
BRANCH   1   2
ATOM      2  O   UNL A   1      38.584  19.841  25.750  1.00  0.00    -0.458 OA
BRANCH   2   3
ATOM      3  C   UNL A   1      39.846  20.186  26.099  1.00  0.00     0.338 C 
ATOM      4  O   UNL A   1      40.706  19.306  26.030  1.00  0.00    -0.246 OA
BRANCH   3   5
ATOM      5  C   UNL A   1      40.286  21.535  26.603  1.00  0.00     0.060 A 
ATOM      6  C   UNL A   1      41.255  21.780  27.569  1.00  0.00     0.016 A 
ATOM      7  C   UNL A   1      39.689  22.668  26.014  1.00  0.00     0.016 A 
ATOM      8  C   UNL A   1      41.703  23.085  27.845  1.00  0.00     0.010 A 
ATOM      9  C   UNL A   1      40.170  23.970  26.255  1.00  0.00     0.010 A 
ATOM     10  C   UNL A   1      41.225  24.189  27.149  1.00  0.00    -0.014 A 
BRANCH  10  11
ATOM     11  C   UNL A   1      41.722  25.555  27.487  1.00  0.00     0.031 A 
ATOM     12  C   UNL A   1      43.146  25.859  27.185  1.00  0.00     0.074 A 
ATOM     13  C   UNL A   1      40.947  26.567  27.940  1.00  0.00     0.049 A 
ATOM     14  N   UNL A   1      43.791  26.973  27.380  1.00  0.00    -0.248 NA
ATOM     15  C   UNL A   1      43.914  24.806  26.504  1.00  0.00     0.031 C 
ATOM     16  C   UNL A   1      39.506  26.526  28.032  1.00  0.00     0.029 A 
ATOM     17  N   UNL A   1      41.238  27.821  28.431  1.00  0.00    -0.354 N 
ATOM     18  C   UNL A   1      45.028  26.776  26.804  1.00  0.00     0.074 A 
ATOM     19  C   UNL A   1      45.075  25.412  26.325  1.00  0.00     0.031 C 
ATOM     20  C   UNL A   1      39.034  27.594  28.691  1.00  0.00     0.029 A 
ATOM     21  C   UNL A   1      40.156  28.439  29.036  1.00  0.00     0.049 A 
ATOM     22  H   UNL A   1      42.128  28.237  28.359  1.00  0.00     0.167 HD
ATOM     23  C   UNL A   1      46.015  27.679  26.629  1.00  0.00     0.034 A 
ATOM     24  C   UNL A   1      40.067  29.552  29.790  1.00  0.00     0.034 A 
ATOM     25  C   UNL A   1      45.978  29.021  27.131  1.00  0.00     0.049 A 
ATOM     26  C   UNL A   1      41.272  30.440  29.824  1.00  0.00     0.074 A 
ATOM     27  C   UNL A   1      46.966  29.983  27.065  1.00  0.00     0.029 A 
ATOM     28  N   UNL A   1      44.912  29.581  27.820  1.00  0.00    -0.354 N 
ATOM     29  N   UNL A   1      42.424  30.258  29.228  1.00  0.00    -0.248 NA
ATOM     30  C   UNL A   1      41.145  31.724  30.523  1.00  0.00     0.031 C 
ATOM     31  C   UNL A   1      46.514  31.115  27.751  1.00  0.00     0.029 A 
ATOM     32  C   UNL A   1      45.227  30.872  28.206  1.00  0.00     0.049 A 
ATOM     33  H   UNL A   1      44.058  29.128  28.005  1.00  0.00     0.167 HD
ATOM     34  C   UNL A   1      43.126  31.438  29.400  1.00  0.00     0.074 A 
ATOM     35  C   UNL A   1      42.274  32.324  30.168  1.00  0.00     0.031 C 
ATOM     36  C   UNL A   1      44.360  31.757  28.942  1.00  0.00     0.034 A 
BRANCH  23  37
ATOM     37  C   UNL A   1      47.205  27.192  25.868  1.00  0.00     0.023 A 
ATOM     38  C   UNL A   1      48.213  26.468  26.537  1.00  0.00     0.012 A 
ATOM     39  C   UNL A   1      47.358  27.525  24.514  1.00  0.00     0.148 A 
ATOM     40  C   UNL A   1      49.384  26.118  25.871  1.00  0.00     0.002 A 
ATOM     41  C   UNL A   1      48.506  27.134  23.846  1.00  0.00     0.091 A 
ATOM     42  F   UNL A   1      46.396  28.248  23.923  1.00  0.00    -0.205 F 
ATOM     43  C   UNL A   1      49.527  26.445  24.525  1.00  0.00     0.022 A 
BRANCH  41  44
ATOM     44  S   UNL A   1      48.766  27.471  22.105  1.00  0.00     0.127 S 
ATOM     45  O   UNL A   1      47.809  28.551  21.868  1.00  0.00    -0.237 OA
ATOM     46  O   UNL A   1      50.170  27.881  22.087  1.00  0.00    -0.237 OA
ATOM     47  O   UNL A   1      48.478  26.227  21.404  1.00  0.00    -0.744 OA
ENDBRANCH  41  44
ENDBRANCH  23  37
BRANCH  24  48
ATOM     48  C   UNL A   1      38.812  29.934  30.511  1.00  0.00     0.023 A 
ATOM     49  C   UNL A   1      38.493  29.343  31.749  1.00  0.00     0.012 A 
ATOM     50  C   UNL A   1      37.887  30.825  29.924  1.00  0.00     0.148 A 
ATOM     51  C   UNL A   1      37.255  29.577  32.356  1.00  0.00     0.002 A 
ATOM     52  C   UNL A   1      36.668  31.078  30.549  1.00  0.00     0.091 A 
ATOM     53  F   UNL A   1      38.204  31.386  28.749  1.00  0.00    -0.205 F 
ATOM     54  C   UNL A   1      36.342  30.440  31.757  1.00  0.00     0.022 A 
BRANCH  52  55
ATOM     55  S   UNL A   1      35.451  32.221  29.881  1.00  0.00     0.127 S 
ATOM     56  O   UNL A   1      34.497  32.320  30.982  1.00  0.00    -0.237 OA
ATOM     57  O   UNL A   1      36.257  33.421  29.655  1.00  0.00    -0.237 OA
ATOM     58  O   UNL A   1      34.955  31.593  28.664  1.00  0.00    -0.744 OA
ENDBRANCH  52  55
ENDBRANCH  24  48
BRANCH  36  59
ATOM     59  C   UNL A   1      44.850  33.148  29.219  1.00  0.00     0.023 A 
ATOM     60  C   UNL A   1      45.502  33.439  30.433  1.00  0.00     0.012 A 
ATOM     61  C   UNL A   1      44.712  34.153  28.243  1.00  0.00     0.148 A 
ATOM     62  C   UNL A   1      45.977  34.724  30.685  1.00  0.00     0.002 A 
ATOM     63  C   UNL A   1      45.245  35.412  28.475  1.00  0.00     0.091 A 
ATOM     64  F   UNL A   1      44.061  33.858  27.108  1.00  0.00    -0.205 F 
ATOM     65  C   UNL A   1      45.863  35.704  29.702  1.00  0.00     0.022 A 
BRANCH  63  66
ATOM     66  S   UNL A   1      45.247  36.695  27.222  1.00  0.00     0.127 S 
ATOM     67  O   UNL A   1      45.969  36.044  26.131  1.00  0.00    -0.237 OA
ATOM     68  O   UNL A   1      43.817  36.890  26.979  1.00  0.00    -0.237 OA
ATOM     69  O   UNL A   1      45.920  37.840  27.820  1.00  0.00    -0.744 OA
ENDBRANCH  63  66
ENDBRANCH  36  59
ENDBRANCH  10  11
ENDBRANCH   3   5
ENDBRANCH   2   3
ENDBRANCH   1   2
BRANCH   1  70
ATOM     70  C   UNL A   1      36.308  20.522  25.051  1.00  0.00     0.274 C 
BRANCH  70  71
ATOM     71  O   UNL A   1      35.799  21.686  24.389  1.00  0.00    -0.462 OA
BRANCH  71  72
ATOM     72  C   UNL A   1      35.606  22.760  25.203  1.00  0.00     0.312 C 
ATOM     73  O   UNL A   1      36.272  23.004  26.196  1.00  0.00    -0.252 OA
BRANCH  72  74
ATOM     74  C   UNL A   1      34.470  23.645  24.783  1.00  0.00     0.147 C 
ATOM     75  C   UNL A   1      33.064  23.203  25.233  1.00  0.00     0.128 C 
ATOM     76  C   UNL A   1      34.309  23.756  23.270  1.00  0.00     0.157 C 
ATOM     77  C   UNL A   1      32.297  23.286  23.926  1.00  0.00     0.155 C 
ATOM     78  C   UNL A   1      33.479  24.942  22.892  1.00  0.00     0.004 C 
ATOM     79  O   UNL A   1      33.315  22.730  23.054  1.00  0.00    -0.365 OA
ATOM     80  C   UNL A   1      32.241  24.664  23.322  1.00  0.00     0.004 C 
BRANCH  75  81
ATOM     81  C   UNL A   1      32.917  21.907  26.051  1.00  0.00     0.227 C 
ATOM     82  O   UNL A   1      33.037  22.014  27.284  1.00  0.00    -0.275 OA
ATOM     83  N   UNL A   1      32.722  20.623  25.669  1.00  0.00    -0.352 N 
ATOM     84  H   UNL A   1      32.732  20.021  26.446  1.00  0.00     0.163 HD
BRANCH  83  85
ATOM     85  C   UNL A   1      32.502  19.874  24.435  1.00  0.00     0.151 C 
BRANCH  85  86
ATOM     86  C   UNL A   1      32.840  18.384  24.497  1.00  0.00    -0.026 A 
ATOM     87  C   UNL A   1      32.582  17.572  25.600  1.00  0.00     0.025 A 
ATOM     88  C   UNL A   1      33.490  17.769  23.414  1.00  0.00     0.025 A 
ATOM     89  C   UNL A   1      33.106  16.281  25.629  1.00  0.00     0.111 A 
ATOM     90  C   UNL A   1      34.016  16.490  23.546  1.00  0.00     0.111 A 
ATOM     91  N   UNL A   1      33.861  15.741  24.649  1.00  0.00    -0.265 NA
ENDBRANCH  85  86
ENDBRANCH  83  85
ENDBRANCH  75  81
ENDBRANCH  72  74
ENDBRANCH  71  72
ENDBRANCH  70  71
ENDBRANCH   1  70
TORSDOF 17
ENDMDL
MODEL 3
REMARK VINA RESULT:     -11.6      5.606     10.838
REMARK SMILES O=C(OCCOC(=O)[C@@H]1[C@H](C(=O)NCc2ccncc2)[C@H]2C=C[C@@H]1O2)c1ccc(-c2c3nc(c(-c4cccc(S(=O)(=O)[O-])c4F)c4ccc([nH]4)c(-c4cccc(S(=O)(=O)[O-])c4F)c4nc(c(-c5cccc(S(=O)(=O)[O-])c5F)c5ccc2[nH]5)C=C4)C=C3)cc1
REMARK SMILES IDX 4 1 3 2 2 3 1 4 26 5 27 6 88 7 28 8 87 9 29 10 30 11 31 12
REMARK SMILES IDX 81 13 32 14 86 15 80 16 82 17 33 18 85 19 79 20 78 21 34 23
REMARK SMILES IDX 66 24 46 25 65 26 47 27 50 28 64 29 83 30 48 31 49 32 63 34
REMARK SMILES IDX 84 35 51 36 35 37 36 38 44 39 37 40 39 41 45 42 38 43 40 44
REMARK SMILES IDX 41 45 42 46 43 47 67 48 68 49 76 50 69 51 71 52 77 53 70 54
REMARK SMILES IDX 72 55 73 56 74 57 75 58 52 59 53 60 61 61 54 62 56 63 62 64
REMARK SMILES IDX 55 65 57 66 58 67 59 68 60 69 5 70 6 71 7 72 8 73 9 74 10 75
REMARK SMILES IDX 24 76 21 77 23 78 25 79 22 80 11 81 12 82 13 83 14 85 15 86
REMARK SMILES IDX 16 87 20 88 17 89 19 90 18 91
REMARK H PARENT 82 22 50 33 13 84
REMARK Flexibility Score: inf
ROOT
ATOM      1  C   UNL A   1      31.414  30.672  26.909  1.00  0.00     0.275 C 
ENDROOT
BRANCH   1   2
ATOM      2  O   UNL A   1      32.619  31.400  26.593  1.00  0.00    -0.458 OA
BRANCH   2   3
ATOM      3  C   UNL A   1      33.486  32.118  27.346  1.00  0.00     0.338 C 
ATOM      4  O   UNL A   1      33.187  33.291  27.577  1.00  0.00    -0.246 OA
BRANCH   3   5
ATOM      5  C   UNL A   1      34.800  31.626  27.892  1.00  0.00     0.060 A 
ATOM      6  C   UNL A   1      35.926  32.399  28.156  1.00  0.00     0.016 A 
ATOM      7  C   UNL A   1      34.894  30.255  28.207  1.00  0.00     0.016 A 
ATOM      8  C   UNL A   1      37.044  31.862  28.819  1.00  0.00     0.010 A 
ATOM      9  C   UNL A   1      35.993  29.729  28.913  1.00  0.00     0.010 A 
ATOM     10  C   UNL A   1      37.071  30.548  29.271  1.00  0.00    -0.014 A 
BRANCH  10  11
ATOM     11  C   UNL A   1      38.286  30.021  29.958  1.00  0.00     0.031 A 
ATOM     12  C   UNL A   1      38.623  30.594  31.289  1.00  0.00     0.074 A 
ATOM     13  C   UNL A   1      39.036  28.986  29.515  1.00  0.00     0.049 A 
ATOM     14  N   UNL A   1      39.616  30.287  32.071  1.00  0.00    -0.248 NA
ATOM     15  C   UNL A   1      37.676  31.575  31.841  1.00  0.00     0.031 C 
ATOM     16  C   UNL A   1      38.699  28.145  28.390  1.00  0.00     0.029 A 
ATOM     17  N   UNL A   1      40.243  28.462  29.922  1.00  0.00    -0.354 N 
ATOM     18  C   UNL A   1      39.393  30.999  33.231  1.00  0.00     0.074 A 
ATOM     19  C   UNL A   1      38.217  31.816  33.023  1.00  0.00     0.031 C 
ATOM     20  C   UNL A   1      39.717  27.331  28.073  1.00  0.00     0.029 A 
ATOM     21  C   UNL A   1      40.786  27.563  29.020  1.00  0.00     0.049 A 
ATOM     22  H   UNL A   1      40.677  28.703  30.773  1.00  0.00     0.167 HD
ATOM     23  C   UNL A   1      40.072  30.924  34.394  1.00  0.00     0.034 A 
ATOM     24  C   UNL A   1      42.003  26.991  28.946  1.00  0.00     0.034 A 
ATOM     25  C   UNL A   1      41.254  30.138  34.588  1.00  0.00     0.049 A 
ATOM     26  C   UNL A   1      42.888  27.136  30.146  1.00  0.00     0.074 A 
ATOM     27  C   UNL A   1      42.052  30.060  35.713  1.00  0.00     0.029 A 
ATOM     28  N   UNL A   1      41.829  29.318  33.628  1.00  0.00    -0.354 N 
ATOM     29  N   UNL A   1      42.635  27.777  31.260  1.00  0.00    -0.248 NA
ATOM     30  C   UNL A   1      44.158  26.402  30.141  1.00  0.00     0.031 C 
ATOM     31  C   UNL A   1      43.134  29.224  35.419  1.00  0.00     0.029 A 
ATOM     32  C   UNL A   1      42.986  28.747  34.126  1.00  0.00     0.049 A 
ATOM     33  H   UNL A   1      41.465  29.165  32.725  1.00  0.00     0.167 HD
ATOM     34  C   UNL A   1      43.668  27.451  32.122  1.00  0.00     0.074 A 
ATOM     35  C   UNL A   1      44.556  26.565  31.395  1.00  0.00     0.031 C 
ATOM     36  C   UNL A   1      43.846  27.841  33.406  1.00  0.00     0.034 A 
BRANCH  23  37
ATOM     37  C   UNL A   1      39.521  31.745  35.514  1.00  0.00     0.023 A 
ATOM     38  C   UNL A   1      38.465  31.239  36.298  1.00  0.00     0.012 A 
ATOM     39  C   UNL A   1      39.997  33.047  35.730  1.00  0.00     0.148 A 
ATOM     40  C   UNL A   1      37.859  32.042  37.261  1.00  0.00     0.002 A 
ATOM     41  C   UNL A   1      39.418  33.824  36.720  1.00  0.00     0.091 A 
ATOM     42  F   UNL A   1      40.976  33.508  34.938  1.00  0.00    -0.205 F 
ATOM     43  C   UNL A   1      38.340  33.331  37.475  1.00  0.00     0.022 A 
BRANCH  41  44
ATOM     44  S   UNL A   1      39.993  35.479  37.101  1.00  0.00     0.127 S 
ATOM     45  O   UNL A   1      41.426  35.257  37.293  1.00  0.00    -0.237 OA
ATOM     46  O   UNL A   1      39.643  36.203  35.880  1.00  0.00    -0.237 OA
ATOM     47  O   UNL A   1      39.268  35.895  38.294  1.00  0.00    -0.744 OA
ENDBRANCH  41  44
ENDBRANCH  23  37
BRANCH  24  48
ATOM     48  C   UNL A   1      42.443  26.189  27.762  1.00  0.00     0.023 A 
ATOM     49  C   UNL A   1      43.106  26.811  26.685  1.00  0.00     0.012 A 
ATOM     50  C   UNL A   1      42.126  24.816  27.663  1.00  0.00     0.148 A 
ATOM     51  C   UNL A   1      43.384  26.104  25.512  1.00  0.00     0.002 A 
ATOM     52  C   UNL A   1      42.434  24.110  26.502  1.00  0.00     0.091 A 
ATOM     53  F   UNL A   1      41.500  24.234  28.695  1.00  0.00    -0.205 F 
ATOM     54  C   UNL A   1      43.046  24.757  25.418  1.00  0.00     0.022 A 
BRANCH  52  55
ATOM     55  S   UNL A   1      42.088  22.355  26.311  1.00  0.00     0.127 S 
ATOM     56  O   UNL A   1      42.675  22.076  25.003  1.00  0.00    -0.237 OA
ATOM     57  O   UNL A   1      42.812  21.781  27.446  1.00  0.00    -0.237 OA
ATOM     58  O   UNL A   1      40.640  22.232  26.397  1.00  0.00    -0.744 OA
ENDBRANCH  52  55
ENDBRANCH  24  48
BRANCH  36  59
ATOM     59  C   UNL A   1      45.029  27.271  34.134  1.00  0.00     0.023 A 
ATOM     60  C   UNL A   1      46.251  27.971  34.152  1.00  0.00     0.012 A 
ATOM     61  C   UNL A   1      44.905  26.065  34.848  1.00  0.00     0.148 A 
ATOM     62  C   UNL A   1      47.345  27.457  34.843  1.00  0.00     0.002 A 
ATOM     63  C   UNL A   1      45.979  25.592  35.586  1.00  0.00     0.091 A 
ATOM     64  F   UNL A   1      43.740  25.402  34.789  1.00  0.00    -0.205 F 
ATOM     65  C   UNL A   1      47.205  26.278  35.571  1.00  0.00     0.022 A 
BRANCH  63  66
ATOM     66  S   UNL A   1      45.851  24.149  36.644  1.00  0.00     0.127 S 
ATOM     67  O   UNL A   1      45.586  23.090  35.672  1.00  0.00    -0.237 OA
ATOM     68  O   UNL A   1      47.179  24.099  37.257  1.00  0.00    -0.237 OA
ATOM     69  O   UNL A   1      44.766  24.428  37.575  1.00  0.00    -0.744 OA
ENDBRANCH  63  66
ENDBRANCH  36  59
ENDBRANCH  10  11
ENDBRANCH   3   5
ENDBRANCH   2   3
ENDBRANCH   1   2
BRANCH   1  70
ATOM     70  C   UNL A   1      31.656  29.187  27.150  1.00  0.00     0.274 C 
BRANCH  70  71
ATOM     71  O   UNL A   1      31.550  28.418  25.946  1.00  0.00    -0.462 OA
BRANCH  71  72
ATOM     72  C   UNL A   1      32.640  27.652  25.666  1.00  0.00     0.312 C 
ATOM     73  O   UNL A   1      33.763  27.863  26.095  1.00  0.00    -0.252 OA
BRANCH  72  74
ATOM     74  C   UNL A   1      32.353  26.499  24.750  1.00  0.00     0.147 C 
ATOM     75  C   UNL A   1      32.065  26.855  23.279  1.00  0.00     0.128 C 
ATOM     76  C   UNL A   1      31.112  25.701  25.142  1.00  0.00     0.157 C 
ATOM     77  C   UNL A   1      30.788  26.074  23.032  1.00  0.00     0.155 C 
ATOM     78  C   UNL A   1      31.101  24.353  24.496  1.00  0.00     0.004 C 
ATOM     79  O   UNL A   1      30.132  26.345  24.298  1.00  0.00    -0.365 OA
ATOM     80  C   UNL A   1      30.928  24.583  23.188  1.00  0.00     0.004 C 
BRANCH  75  81
ATOM     81  C   UNL A   1      32.074  28.336  22.856  1.00  0.00     0.227 C 
ATOM     82  O   UNL A   1      33.170  28.802  22.497  1.00  0.00    -0.275 OA
ATOM     83  N   UNL A   1      31.095  29.271  22.845  1.00  0.00    -0.352 N 
ATOM     84  H   UNL A   1      31.451  30.146  22.570  1.00  0.00     0.163 HD
BRANCH  83  85
ATOM     85  C   UNL A   1      29.665  29.356  23.124  1.00  0.00     0.151 C 
BRANCH  85  86
ATOM     86  C   UNL A   1      28.960  30.602  22.589  1.00  0.00    -0.026 A 
ATOM     87  C   UNL A   1      28.466  30.722  21.290  1.00  0.00     0.025 A 
ATOM     88  C   UNL A   1      28.820  31.734  23.410  1.00  0.00     0.025 A 
ATOM     89  C   UNL A   1      28.021  31.965  20.846  1.00  0.00     0.111 A 
ATOM     90  C   UNL A   1      28.404  32.945  22.873  1.00  0.00     0.111 A 
ATOM     91  N   UNL A   1      28.027  33.090  21.592  1.00  0.00    -0.265 NA
ENDBRANCH  85  86
ENDBRANCH  83  85
ENDBRANCH  75  81
ENDBRANCH  72  74
ENDBRANCH  71  72
ENDBRANCH  70  71
ENDBRANCH   1  70
TORSDOF 17
ENDMDL
