MODEL 1
REMARK VINA RESULT:     -11.9      0.000      0.000
REMARK SMILES O=C(CCn1c(N2CC[NH2+]CC2)nc2ccccc2c1=O)OCCOC(=O)c1ccc(-c2c3nc(c(-c4cccc(S(=O)(=O)[O-])c4F)c4ccc([nH]4)c(-c4cccc(S(=O)(=O)[O-])c4F)c4nc(c(-c5cccc(S(=O)(=O)[O-])c5F)c5ccc2[nH]5)C=C4)C=C3)cc1
REMARK SMILES IDX 23 1 22 2 2 3 1 4 3 5 4 6 5 7 6 8 20 9 13 10 19 11 21 12
REMARK SMILES IDX 14 13 18 14 15 15 17 16 16 17 7 18 8 19 12 20 9 21 11 22
REMARK SMILES IDX 10 23 24 26 25 27 26 28 27 29 28 30 29 31 90 32 30 33 89 34
REMARK SMILES IDX 31 35 32 36 33 37 83 38 34 39 88 40 82 41 84 42 35 43 87 44
REMARK SMILES IDX 81 45 80 46 36 48 68 49 48 50 67 51 49 52 52 53 66 54 85 55
REMARK SMILES IDX 50 56 51 57 65 59 86 60 53 61 37 62 38 63 46 64 39 65 41 66
REMARK SMILES IDX 47 67 40 68 42 69 43 70 44 71 45 72 69 73 70 74 78 75 71 76
REMARK SMILES IDX 73 77 79 78 72 79 74 80 75 81 76 82 77 83 54 84 55 85 63 86
REMARK SMILES IDX 56 87 58 88 64 89 57 90 59 91 60 92 61 93 62 94
REMARK H PARENT 10 24 10 25 84 47 52 58
REMARK Flexibility Score: inf
ROOT
ATOM      1  C   UNL A   1      31.492  29.896  25.813  1.00  0.00     0.274 C 
ENDROOT
BRANCH   1   2
ATOM      2  O   UNL A   1      32.221  28.707  26.190  1.00  0.00    -0.462 OA
BRANCH   2   3
ATOM      3  C   UNL A   1      31.764  27.689  26.954  1.00  0.00     0.307 C 
ATOM      4  O   UNL A   1      31.152  27.924  27.995  1.00  0.00    -0.252 OA
BRANCH   3   5
ATOM      5  C   UNL A   1      32.003  26.266  26.519  1.00  0.00     0.145 C 
BRANCH   5   6
ATOM      6  C   UNL A   1      33.353  26.091  25.838  1.00  0.00     0.141 C 
BRANCH   6   7
ATOM      7  N   UNL A   1      33.322  25.032  24.825  1.00  0.00    -0.278 N 
ATOM      8  C   UNL A   1      32.850  25.230  23.524  1.00  0.00     0.209 A 
ATOM      9  C   UNL A   1      33.647  23.758  25.299  1.00  0.00     0.262 A 
ATOM     10  N   UNL A   1      32.583  24.218  22.743  1.00  0.00    -0.214 NA
ATOM     11  C   UNL A   1      33.218  22.627  24.474  1.00  0.00     0.066 A 
ATOM     12  O   UNL A   1      34.198  23.530  26.372  1.00  0.00    -0.269 OA
ATOM     13  C   UNL A   1      32.711  22.913  23.216  1.00  0.00     0.080 A 
ATOM     14  C   UNL A   1      33.223  21.321  24.981  1.00  0.00     0.016 A 
ATOM     15  C   UNL A   1      32.239  21.858  22.431  1.00  0.00     0.029 A 
ATOM     16  C   UNL A   1      32.724  20.280  24.201  1.00  0.00     0.001 A 
ATOM     17  C   UNL A   1      32.240  20.548  22.921  1.00  0.00     0.002 A 
BRANCH   8  18
ATOM     18  N   UNL A   1      32.561  26.496  23.047  1.00  0.00    -0.331 N 
ATOM     19  C   UNL A   1      31.237  26.736  22.431  1.00  0.00     0.181 C 
ATOM     20  C   UNL A   1      33.584  27.396  22.487  1.00  0.00     0.181 C 
ATOM     21  C   UNL A   1      30.829  28.217  22.568  1.00  0.00     0.282 C 
ATOM     22  C   UNL A   1      33.147  28.865  22.699  1.00  0.00     0.282 C 
ATOM     23  N   UNL A   1      31.841  29.171  22.077  1.00  0.00    -0.343 N 
ATOM     24  H   UNL A   1      31.560  30.119  22.323  1.00  0.00     0.346 HD
ATOM     25  H   UNL A   1      31.919  29.091  21.064  1.00  0.00     0.346 HD
ENDBRANCH   8  18
ENDBRANCH   6   7
ENDBRANCH   5   6
ENDBRANCH   3   5
ENDBRANCH   2   3
ENDBRANCH   1   2
BRANCH   1  26
ATOM     26  C   UNL A   1      31.894  31.089  26.678  1.00  0.00     0.275 C 
BRANCH  26  27
ATOM     27  O   UNL A   1      33.324  31.227  26.662  1.00  0.00    -0.458 OA
BRANCH  27  28
ATOM     28  C   UNL A   1      33.837  32.135  27.532  1.00  0.00     0.338 C 
ATOM     29  O   UNL A   1      33.291  33.146  27.929  1.00  0.00    -0.246 OA
BRANCH  28  30
ATOM     30  C   UNL A   1      35.102  31.594  28.081  1.00  0.00     0.060 A 
ATOM     31  C   UNL A   1      36.247  32.390  28.213  1.00  0.00     0.016 A 
ATOM     32  C   UNL A   1      35.148  30.236  28.417  1.00  0.00     0.016 A 
ATOM     33  C   UNL A   1      37.430  31.828  28.695  1.00  0.00     0.010 A 
ATOM     34  C   UNL A   1      36.332  29.676  28.901  1.00  0.00     0.010 A 
ATOM     35  C   UNL A   1      37.475  30.472  29.056  1.00  0.00    -0.014 A 
BRANCH  35  36
ATOM     36  C   UNL A   1      38.666  29.933  29.753  1.00  0.00     0.031 A 
ATOM     37  C   UNL A   1      39.531  28.874  29.145  1.00  0.00     0.074 A 
ATOM     38  C   UNL A   1      38.938  30.410  30.982  1.00  0.00     0.049 A 
ATOM     39  N   UNL A   1      40.641  28.363  29.611  1.00  0.00    -0.248 NA
ATOM     40  C   UNL A   1      39.105  28.316  27.854  1.00  0.00     0.031 C 
ATOM     41  C   UNL A   1      38.133  31.409  31.691  1.00  0.00     0.029 A 
ATOM     42  N   UNL A   1      39.952  30.115  31.856  1.00  0.00    -0.354 N 
ATOM     43  C   UNL A   1      41.052  27.425  28.676  1.00  0.00     0.074 A 
ATOM     44  C   UNL A   1      40.061  27.423  27.619  1.00  0.00     0.031 C 
ATOM     45  C   UNL A   1      38.684  31.641  32.891  1.00  0.00     0.029 A 
ATOM     46  C   UNL A   1      39.872  30.807  33.040  1.00  0.00     0.049 A 
ATOM     47  H   UNL A   1      40.668  29.470  31.654  1.00  0.00     0.167 HD
ATOM     48  C   UNL A   1      42.165  26.654  28.694  1.00  0.00     0.034 A 
ATOM     49  C   UNL A   1      40.669  30.779  34.124  1.00  0.00     0.034 A 
ATOM     50  C   UNL A   1      43.147  26.663  29.745  1.00  0.00     0.049 A 
ATOM     51  C   UNL A   1      41.888  29.907  34.121  1.00  0.00     0.074 A 
ATOM     52  C   UNL A   1      44.341  25.964  29.812  1.00  0.00     0.029 A 
ATOM     53  N   UNL A   1      43.045  27.388  30.923  1.00  0.00    -0.354 N 
ATOM     54  N   UNL A   1      42.343  29.140  33.160  1.00  0.00    -0.248 NA
ATOM     55  C   UNL A   1      42.719  29.915  35.333  1.00  0.00     0.031 C 
ATOM     56  C   UNL A   1      44.955  26.259  31.033  1.00  0.00     0.029 A 
ATOM     57  C   UNL A   1      44.145  27.143  31.727  1.00  0.00     0.049 A 
ATOM     58  H   UNL A   1      42.298  27.987  31.154  1.00  0.00     0.167 HD
ATOM     59  C   UNL A   1      43.520  28.585  33.644  1.00  0.00     0.074 A 
ATOM     60  C   UNL A   1      43.718  29.116  34.977  1.00  0.00     0.031 C 
ATOM     61  C   UNL A   1      44.351  27.701  33.038  1.00  0.00     0.034 A 
BRANCH  48  62
ATOM     62  C   UNL A   1      42.436  25.778  27.501  1.00  0.00     0.023 A 
ATOM     63  C   UNL A   1      43.222  26.292  26.451  1.00  0.00     0.012 A 
ATOM     64  C   UNL A   1      42.028  24.431  27.470  1.00  0.00     0.148 A 
ATOM     65  C   UNL A   1      43.595  25.480  25.382  1.00  0.00     0.002 A 
ATOM     66  C   UNL A   1      42.423  23.621  26.412  1.00  0.00     0.091 A 
ATOM     67  F   UNL A   1      41.272  23.971  28.477  1.00  0.00    -0.205 F 
ATOM     68  C   UNL A   1      43.204  24.144  25.368  1.00  0.00     0.022 A 
BRANCH  66  69
ATOM     69  S   UNL A   1      42.019  21.873  26.318  1.00  0.00     0.127 S 
ATOM     70  O   UNL A   1      42.407  21.411  27.650  1.00  0.00    -0.237 OA
ATOM     71  O   UNL A   1      40.575  21.904  26.080  1.00  0.00    -0.237 OA
ATOM     72  O   UNL A   1      42.808  21.336  25.219  1.00  0.00    -0.744 OA
ENDBRANCH  66  69
ENDBRANCH  48  62
BRANCH  49  73
ATOM     73  C   UNL A   1      40.359  31.681  35.264  1.00  0.00     0.023 A 
ATOM     74  C   UNL A   1      41.032  32.911  35.362  1.00  0.00     0.012 A 
ATOM     75  C   UNL A   1      39.336  31.372  36.181  1.00  0.00     0.148 A 
ATOM     76  C   UNL A   1      40.693  33.824  36.360  1.00  0.00     0.002 A 
ATOM     77  C   UNL A   1      38.978  32.301  37.149  1.00  0.00     0.091 A 
ATOM     78  F   UNL A   1      38.712  30.192  36.060  1.00  0.00    -0.205 F 
ATOM     79  C   UNL A   1      39.660  33.525  37.245  1.00  0.00     0.022 A 
BRANCH  77  80
ATOM     80  S   UNL A   1      37.592  32.056  38.265  1.00  0.00     0.127 S 
ATOM     81  O   UNL A   1      38.174  32.437  39.550  1.00  0.00    -0.237 OA
ATOM     82  O   UNL A   1      36.609  32.999  37.729  1.00  0.00    -0.237 OA
ATOM     83  O   UNL A   1      37.222  30.654  38.138  1.00  0.00    -0.744 OA
ENDBRANCH  77  80
ENDBRANCH  49  73
BRANCH  61  84
ATOM     84  C   UNL A   1      45.553  27.232  33.809  1.00  0.00     0.023 A 
ATOM     85  C   UNL A   1      46.745  27.979  33.736  1.00  0.00     0.012 A 
ATOM     86  C   UNL A   1      45.475  26.127  34.678  1.00  0.00     0.148 A 
ATOM     87  C   UNL A   1      47.848  27.627  34.514  1.00  0.00     0.002 A 
ATOM     88  C   UNL A   1      46.567  25.800  35.473  1.00  0.00     0.091 A 
ATOM     89  F   UNL A   1      44.332  25.427  34.718  1.00  0.00    -0.205 F 
ATOM     90  C   UNL A   1      47.754  26.547  35.389  1.00  0.00     0.022 A 
BRANCH  88  91
ATOM     91  S   UNL A   1      46.525  24.470  36.679  1.00  0.00     0.127 S 
ATOM     92  O   UNL A   1      46.345  23.298  35.824  1.00  0.00    -0.237 OA
ATOM     93  O   UNL A   1      47.845  24.575  37.301  1.00  0.00    -0.237 OA
ATOM     94  O   UNL A   1      45.409  24.767  37.569  1.00  0.00    -0.744 OA
ENDBRANCH  88  91
ENDBRANCH  61  84
ENDBRANCH  35  36
ENDBRANCH  28  30
ENDBRANCH  27  28
ENDBRANCH  26  27
ENDBRANCH   1  26
TORSDOF 17
ENDMDL
MODEL 2
REMARK VINA RESULT:     -11.9      5.160     10.237
REMARK SMILES O=C(CCn1c(N2CC[NH2+]CC2)nc2ccccc2c1=O)OCCOC(=O)c1ccc(-c2c3nc(c(-c4cccc(S(=O)(=O)[O-])c4F)c4ccc([nH]4)c(-c4cccc(S(=O)(=O)[O-])c4F)c4nc(c(-c5cccc(S(=O)(=O)[O-])c5F)c5ccc2[nH]5)C=C4)C=C3)cc1
REMARK SMILES IDX 23 1 22 2 2 3 1 4 3 5 4 6 5 7 6 8 20 9 13 10 19 11 21 12
REMARK SMILES IDX 14 13 18 14 15 15 17 16 16 17 7 18 8 19 12 20 9 21 11 22
REMARK SMILES IDX 10 23 24 26 25 27 26 28 27 29 28 30 29 31 90 32 30 33 89 34
REMARK SMILES IDX 31 35 32 36 33 37 83 38 34 39 88 40 82 41 84 42 35 43 87 44
REMARK SMILES IDX 81 45 80 46 36 48 68 49 48 50 67 51 49 52 52 53 66 54 85 55
REMARK SMILES IDX 50 56 51 57 65 59 86 60 53 61 37 62 38 63 46 64 39 65 41 66
REMARK SMILES IDX 47 67 40 68 42 69 43 70 44 71 45 72 69 73 70 74 78 75 71 76
REMARK SMILES IDX 73 77 79 78 72 79 74 80 75 81 76 82 77 83 54 84 55 85 63 86
REMARK SMILES IDX 56 87 58 88 64 89 57 90 59 91 60 92 61 93 62 94
REMARK H PARENT 10 24 10 25 84 47 52 58
REMARK Flexibility Score: inf
ROOT
ATOM      1  C   UNL A   1      37.122  21.046  24.246  1.00  0.00     0.274 C 
ENDROOT
BRANCH   1   2
ATOM      2  O   UNL A   1      36.497  21.967  25.167  1.00  0.00    -0.462 OA
BRANCH   2   3
ATOM      3  C   UNL A   1      36.173  23.257  24.923  1.00  0.00     0.307 C 
ATOM      4  O   UNL A   1      36.161  24.076  25.840  1.00  0.00    -0.252 OA
BRANCH   3   5
ATOM      5  C   UNL A   1      35.831  23.685  23.519  1.00  0.00     0.145 C 
BRANCH   5   6
ATOM      6  C   UNL A   1      34.423  23.269  23.116  1.00  0.00     0.141 C 
BRANCH   6   7
ATOM      7  N   UNL A   1      33.406  24.166  23.673  1.00  0.00    -0.278 N 
ATOM      8  C   UNL A   1      32.579  23.814  24.743  1.00  0.00     0.209 A 
ATOM      9  C   UNL A   1      33.206  25.345  22.951  1.00  0.00     0.262 A 
ATOM     10  N   UNL A   1      31.516  24.516  25.034  1.00  0.00    -0.214 NA
ATOM     11  C   UNL A   1      31.944  26.049  23.190  1.00  0.00     0.066 A 
ATOM     12  O   UNL A   1      33.974  25.783  22.099  1.00  0.00    -0.269 OA
ATOM     13  C   UNL A   1      31.156  25.603  24.239  1.00  0.00     0.080 A 
ATOM     14  C   UNL A   1      31.507  27.061  22.325  1.00  0.00     0.016 A 
ATOM     15  C   UNL A   1      29.919  26.217  24.451  1.00  0.00     0.029 A 
ATOM     16  C   UNL A   1      30.261  27.647  22.529  1.00  0.00     0.001 A 
ATOM     17  C   UNL A   1      29.470  27.231  23.600  1.00  0.00     0.002 A 
BRANCH   8  18
ATOM     18  N   UNL A   1      32.799  22.662  25.477  1.00  0.00    -0.331 N 
ATOM     19  C   UNL A   1      32.117  21.416  25.063  1.00  0.00     0.181 C 
ATOM     20  C   UNL A   1      33.064  22.672  26.927  1.00  0.00     0.181 C 
ATOM     21  C   UNL A   1      32.924  20.177  25.502  1.00  0.00     0.282 C 
ATOM     22  C   UNL A   1      33.918  21.437  27.301  1.00  0.00     0.282 C 
ATOM     23  N   UNL A   1      33.271  20.159  26.936  1.00  0.00    -0.343 N 
ATOM     24  H   UNL A   1      33.912  19.388  27.120  1.00  0.00     0.346 HD
ATOM     25  H   UNL A   1      32.424  20.036  27.489  1.00  0.00     0.346 HD
ENDBRANCH   8  18
ENDBRANCH   6   7
ENDBRANCH   5   6
ENDBRANCH   3   5
ENDBRANCH   2   3
ENDBRANCH   1   2
BRANCH   1  26
ATOM     26  C   UNL A   1      37.986  20.025  24.982  1.00  0.00     0.275 C 
BRANCH  26  27
ATOM     27  O   UNL A   1      38.451  20.599  26.215  1.00  0.00    -0.458 OA
BRANCH  27  28
ATOM     28  C   UNL A   1      39.795  20.556  26.412  1.00  0.00     0.338 C 
ATOM     29  O   UNL A   1      40.536  19.628  26.155  1.00  0.00    -0.246 OA
BRANCH  28  30
ATOM     30  C   UNL A   1      40.251  21.909  26.813  1.00  0.00     0.060 A 
ATOM     31  C   UNL A   1      41.183  22.096  27.841  1.00  0.00     0.016 A 
ATOM     32  C   UNL A   1      39.680  23.014  26.171  1.00  0.00     0.016 A 
ATOM     33  C   UNL A   1      41.552  23.390  28.214  1.00  0.00     0.010 A 
ATOM     34  C   UNL A   1      40.052  24.307  26.545  1.00  0.00     0.010 A 
ATOM     35  C   UNL A   1      41.001  24.502  27.558  1.00  0.00    -0.014 A 
BRANCH  35  36
ATOM     36  C   UNL A   1      41.544  25.855  27.817  1.00  0.00     0.031 A 
ATOM     37  C   UNL A   1      40.744  26.912  28.513  1.00  0.00     0.074 A 
ATOM     38  C   UNL A   1      42.788  26.123  27.377  1.00  0.00     0.049 A 
ATOM     39  N   UNL A   1      41.118  28.114  28.868  1.00  0.00    -0.248 NA
ATOM     40  C   UNL A   1      39.353  26.586  28.858  1.00  0.00     0.031 C 
ATOM     41  C   UNL A   1      43.637  25.182  26.643  1.00  0.00     0.029 A 
ATOM     42  N   UNL A   1      43.547  27.260  27.468  1.00  0.00    -0.354 N 
ATOM     43  C   UNL A   1      40.016  28.693  29.478  1.00  0.00     0.074 A 
ATOM     44  C   UNL A   1      38.948  27.714  29.432  1.00  0.00     0.031 C 
ATOM     45  C   UNL A   1      44.800  25.781  26.350  1.00  0.00     0.029 A 
ATOM     46  C   UNL A   1      44.776  27.146  26.866  1.00  0.00     0.049 A 
ATOM     47  H   UNL A   1      43.240  28.079  27.922  1.00  0.00     0.167 HD
ATOM     48  C   UNL A   1      39.916  29.920  30.042  1.00  0.00     0.034 A 
ATOM     49  C   UNL A   1      45.777  28.038  26.747  1.00  0.00     0.034 A 
ATOM     50  C   UNL A   1      40.982  30.885  30.087  1.00  0.00     0.049 A 
ATOM     51  C   UNL A   1      45.635  29.394  27.371  1.00  0.00     0.074 A 
ATOM     52  C   UNL A   1      40.990  32.128  30.700  1.00  0.00     0.029 A 
ATOM     53  N   UNL A   1      42.220  30.732  29.483  1.00  0.00    -0.354 N 
ATOM     54  N   UNL A   1      44.640  29.868  28.080  1.00  0.00    -0.248 NA
ATOM     55  C   UNL A   1      46.758  30.327  27.206  1.00  0.00     0.031 C 
ATOM     56  C   UNL A   1      42.229  32.729  30.457  1.00  0.00     0.029 A 
ATOM     57  C   UNL A   1      42.994  31.861  29.695  1.00  0.00     0.049 A 
ATOM     58  H   UNL A   1      42.507  29.938  28.976  1.00  0.00     0.167 HD
ATOM     59  C   UNL A   1      45.020  31.148  28.459  1.00  0.00     0.074 A 
ATOM     60  C   UNL A   1      46.345  31.370  27.915  1.00  0.00     0.031 C 
ATOM     61  C   UNL A   1      44.323  32.060  29.179  1.00  0.00     0.034 A 
BRANCH  48  62
ATOM     62  C   UNL A   1      38.629  30.277  30.733  1.00  0.00     0.023 A 
ATOM     63  C   UNL A   1      38.476  29.937  32.092  1.00  0.00     0.012 A 
ATOM     64  C   UNL A   1      37.638  31.043  30.091  1.00  0.00     0.148 A 
ATOM     65  C   UNL A   1      37.350  30.349  32.803  1.00  0.00     0.002 A 
ATOM     66  C   UNL A   1      36.529  31.470  30.812  1.00  0.00     0.091 A 
ATOM     67  F   UNL A   1      37.803  31.343  28.795  1.00  0.00    -0.205 F 
ATOM     68  C   UNL A   1      36.383  31.123  32.166  1.00  0.00     0.022 A 
BRANCH  66  69
ATOM     69  S   UNL A   1      35.248  32.512  30.106  1.00  0.00     0.127 S 
ATOM     70  O   UNL A   1      36.019  33.686  29.698  1.00  0.00    -0.237 OA
ATOM     71  O   UNL A   1      34.757  31.690  28.999  1.00  0.00    -0.237 OA
ATOM     72  O   UNL A   1      34.283  32.742  31.172  1.00  0.00    -0.744 OA
ENDBRANCH  66  69
ENDBRANCH  48  62
BRANCH  49  73
ATOM     73  C   UNL A   1      47.031  27.620  26.069  1.00  0.00     0.023 A 
ATOM     74  C   UNL A   1      47.964  26.843  26.779  1.00  0.00     0.012 A 
ATOM     75  C   UNL A   1      47.252  27.900  24.707  1.00  0.00     0.148 A 
ATOM     76  C   UNL A   1      49.102  26.349  26.142  1.00  0.00     0.002 A 
ATOM     77  C   UNL A   1      48.368  27.373  24.070  1.00  0.00     0.091 A 
ATOM     78  F   UNL A   1      46.344  28.642  24.058  1.00  0.00    -0.205 F 
ATOM     79  C   UNL A   1      49.298  26.604  24.787  1.00  0.00     0.022 A 
BRANCH  77  80
ATOM     80  S   UNL A   1      48.655  27.553  22.305  1.00  0.00     0.127 S 
ATOM     81  O   UNL A   1      49.935  28.258  22.282  1.00  0.00    -0.237 OA
ATOM     82  O   UNL A   1      48.711  26.157  21.870  1.00  0.00    -0.237 OA
ATOM     83  O   UNL A   1      47.519  28.305  21.793  1.00  0.00    -0.744 OA
ENDBRANCH  77  80
ENDBRANCH  49  73
BRANCH  61  84
ATOM     84  C   UNL A   1      44.965  33.398  29.421  1.00  0.00     0.023 A 
ATOM     85  C   UNL A   1      45.793  33.565  30.547  1.00  0.00     0.012 A 
ATOM     86  C   UNL A   1      44.838  34.445  28.488  1.00  0.00     0.148 A 
ATOM     87  C   UNL A   1      46.481  34.761  30.748  1.00  0.00     0.002 A 
ATOM     88  C   UNL A   1      45.550  35.624  28.678  1.00  0.00     0.091 A 
ATOM     89  F   UNL A   1      44.033  34.263  27.431  1.00  0.00    -0.205 F 
ATOM     90  C   UNL A   1      46.368  35.784  29.809  1.00  0.00     0.022 A 
BRANCH  88  91
ATOM     91  S   UNL A   1      45.525  36.973  27.492  1.00  0.00     0.127 S 
ATOM     92  O   UNL A   1      46.069  36.330  26.297  1.00  0.00    -0.237 OA
ATOM     93  O   UNL A   1      44.099  37.292  27.418  1.00  0.00    -0.237 OA
ATOM     94  O   UNL A   1      46.354  38.027  28.062  1.00  0.00    -0.744 OA
ENDBRANCH  88  91
ENDBRANCH  61  84
ENDBRANCH  35  36
ENDBRANCH  28  30
ENDBRANCH  27  28
ENDBRANCH  26  27
ENDBRANCH   1  26
TORSDOF 17
ENDMDL
MODEL 3
REMARK VINA RESULT:     -11.8      0.652      7.502
REMARK SMILES O=C(CCn1c(N2CC[NH2+]CC2)nc2ccccc2c1=O)OCCOC(=O)c1ccc(-c2c3nc(c(-c4cccc(S(=O)(=O)[O-])c4F)c4ccc([nH]4)c(-c4cccc(S(=O)(=O)[O-])c4F)c4nc(c(-c5cccc(S(=O)(=O)[O-])c5F)c5ccc2[nH]5)C=C4)C=C3)cc1
REMARK SMILES IDX 23 1 22 2 2 3 1 4 3 5 4 6 5 7 6 8 20 9 13 10 19 11 21 12
REMARK SMILES IDX 14 13 18 14 15 15 17 16 16 17 7 18 8 19 12 20 9 21 11 22
REMARK SMILES IDX 10 23 24 26 25 27 26 28 27 29 28 30 29 31 90 32 30 33 89 34
REMARK SMILES IDX 31 35 32 36 33 37 83 38 34 39 88 40 82 41 84 42 35 43 87 44
REMARK SMILES IDX 81 45 80 46 36 48 68 49 48 50 67 51 49 52 52 53 66 54 85 55
REMARK SMILES IDX 50 56 51 57 65 59 86 60 53 61 37 62 38 63 46 64 39 65 41 66
REMARK SMILES IDX 47 67 40 68 42 69 43 70 44 71 45 72 69 73 70 74 78 75 71 76
REMARK SMILES IDX 73 77 79 78 72 79 74 80 75 81 76 82 77 83 54 84 55 85 63 86
REMARK SMILES IDX 56 87 58 88 64 89 57 90 59 91 60 92 61 93 62 94
REMARK H PARENT 10 24 10 25 84 47 52 58
REMARK Flexibility Score: inf
ROOT
ATOM      1  C   UNL A   1      31.592  29.205  25.705  1.00  0.00     0.274 C 
ENDROOT
BRANCH   1   2
ATOM      2  O   UNL A   1      31.937  27.915  26.258  1.00  0.00    -0.462 OA
BRANCH   2   3
ATOM      3  C   UNL A   1      33.074  27.219  26.031  1.00  0.00     0.307 C 
ATOM      4  O   UNL A   1      34.124  27.812  25.785  1.00  0.00    -0.252 OA
BRANCH   3   5
ATOM      5  C   UNL A   1      33.049  25.713  26.089  1.00  0.00     0.145 C 
BRANCH   5   6
ATOM      6  C   UNL A   1      34.288  25.091  25.459  1.00  0.00     0.141 C 
BRANCH   6   7
ATOM      7  N   UNL A   1      33.954  23.946  24.609  1.00  0.00    -0.278 N 
ATOM      8  C   UNL A   1      33.107  24.036  23.501  1.00  0.00     0.209 A 
ATOM      9  C   UNL A   1      34.413  22.713  25.080  1.00  0.00     0.262 A 
ATOM     10  N   UNL A   1      32.618  22.964  22.936  1.00  0.00    -0.214 NA
ATOM     11  C   UNL A   1      33.757  21.522  24.535  1.00  0.00     0.066 A 
ATOM     12  O   UNL A   1      35.265  22.570  25.951  1.00  0.00    -0.269 OA
ATOM     13  C   UNL A   1      32.890  21.705  23.469  1.00  0.00     0.080 A 
ATOM     14  C   UNL A   1      33.921  20.268  25.137  1.00  0.00     0.016 A 
ATOM     15  C   UNL A   1      32.204  20.595  22.970  1.00  0.00     0.029 A 
ATOM     16  C   UNL A   1      33.213  19.174  24.649  1.00  0.00     0.001 A 
ATOM     17  C   UNL A   1      32.360  19.336  23.557  1.00  0.00     0.002 A 
BRANCH   8  18
ATOM     18  N   UNL A   1      32.680  25.260  23.016  1.00  0.00    -0.331 N 
ATOM     19  C   UNL A   1      31.237  25.455  22.755  1.00  0.00     0.181 C 
ATOM     20  C   UNL A   1      33.505  26.106  22.135  1.00  0.00     0.181 C 
ATOM     21  C   UNL A   1      30.854  26.944  22.875  1.00  0.00     0.282 C 
ATOM     22  C   UNL A   1      33.114  27.589  22.336  1.00  0.00     0.282 C 
ATOM     23  N   UNL A   1      31.686  27.850  22.059  1.00  0.00    -0.343 N 
ATOM     24  H   UNL A   1      31.464  28.817  22.293  1.00  0.00     0.346 HD
ATOM     25  H   UNL A   1      31.495  27.687  21.071  1.00  0.00     0.346 HD
ENDBRANCH   8  18
ENDBRANCH   6   7
ENDBRANCH   5   6
ENDBRANCH   3   5
ENDBRANCH   2   3
ENDBRANCH   1   2
BRANCH   1  26
ATOM     26  C   UNL A   1      31.869  30.327  26.702  1.00  0.00     0.275 C 
BRANCH  26  27
ATOM     27  O   UNL A   1      33.195  30.837  26.487  1.00  0.00    -0.458 OA
BRANCH  27  28
ATOM     28  C   UNL A   1      33.613  31.779  27.373  1.00  0.00     0.338 C 
ATOM     29  O   UNL A   1      32.978  32.739  27.764  1.00  0.00    -0.246 OA
BRANCH  28  30
ATOM     30  C   UNL A   1      34.908  31.340  27.945  1.00  0.00     0.060 A 
ATOM     31  C   UNL A   1      35.991  32.217  28.073  1.00  0.00     0.016 A 
ATOM     32  C   UNL A   1      35.046  29.995  28.309  1.00  0.00     0.016 A 
ATOM     33  C   UNL A   1      37.206  31.750  28.578  1.00  0.00     0.010 A 
ATOM     34  C   UNL A   1      36.261  29.530  28.816  1.00  0.00     0.010 A 
ATOM     35  C   UNL A   1      37.343  30.408  28.967  1.00  0.00    -0.014 A 
BRANCH  35  36
ATOM     36  C   UNL A   1      38.560  29.968  29.686  1.00  0.00     0.031 A 
ATOM     37  C   UNL A   1      38.924  30.507  31.035  1.00  0.00     0.074 A 
ATOM     38  C   UNL A   1      39.360  29.075  29.073  1.00  0.00     0.049 A 
ATOM     39  N   UNL A   1      39.920  30.160  31.808  1.00  0.00    -0.248 NA
ATOM     40  C   UNL A   1      38.070  31.566  31.589  1.00  0.00     0.031 C 
ATOM     41  C   UNL A   1      39.125  28.520  27.738  1.00  0.00     0.029 A 
ATOM     42  N   UNL A   1      40.529  28.488  29.480  1.00  0.00    -0.354 N 
ATOM     43  C   UNL A   1      39.818  30.952  32.942  1.00  0.00     0.074 A 
ATOM     44  C   UNL A   1      38.668  31.813  32.750  1.00  0.00     0.031 C 
ATOM     45  C   UNL A   1      40.121  27.675  27.436  1.00  0.00     0.029 A 
ATOM     46  C   UNL A   1      41.065  27.634  28.548  1.00  0.00     0.049 A 
ATOM     47  H   UNL A   1      40.945  28.663  30.356  1.00  0.00     0.167 HD
ATOM     48  C   UNL A   1      40.600  30.942  34.047  1.00  0.00     0.034 A 
ATOM     49  C   UNL A   1      42.188  26.893  28.585  1.00  0.00     0.034 A 
ATOM     50  C   UNL A   1      41.738  30.081  34.232  1.00  0.00     0.049 A 
ATOM     51  C   UNL A   1      43.042  26.910  29.817  1.00  0.00     0.074 A 
ATOM     52  C   UNL A   1      42.547  29.955  35.350  1.00  0.00     0.029 A 
ATOM     53  N   UNL A   1      42.244  29.214  33.276  1.00  0.00    -0.354 N 
ATOM     54  N   UNL A   1      42.843  27.551  30.943  1.00  0.00    -0.248 NA
ATOM     55  C   UNL A   1      44.258  26.084  29.799  1.00  0.00     0.031 C 
ATOM     56  C   UNL A   1      43.547  29.021  35.065  1.00  0.00     0.029 A 
ATOM     57  C   UNL A   1      43.360  28.562  33.771  1.00  0.00     0.049 A 
ATOM     58  H   UNL A   1      41.866  29.083  32.376  1.00  0.00     0.167 HD
ATOM     59  C   UNL A   1      43.897  27.197  31.773  1.00  0.00     0.074 A 
ATOM     60  C   UNL A   1      44.725  26.270  31.028  1.00  0.00     0.031 C 
ATOM     61  C   UNL A   1      44.160  27.617  33.035  1.00  0.00     0.034 A 
BRANCH  48  62
ATOM     62  C   UNL A   1      40.217  31.838  35.192  1.00  0.00     0.023 A 
ATOM     63  C   UNL A   1      40.747  33.143  35.234  1.00  0.00     0.012 A 
ATOM     64  C   UNL A   1      39.257  31.446  36.144  1.00  0.00     0.148 A 
ATOM     65  C   UNL A   1      40.331  34.046  36.211  1.00  0.00     0.002 A 
ATOM     66  C   UNL A   1      38.831  32.359  37.102  1.00  0.00     0.091 A 
ATOM     67  F   UNL A   1      38.778  30.196  36.089  1.00  0.00    -0.205 F 
ATOM     68  C   UNL A   1      39.367  33.657  37.137  1.00  0.00     0.022 A 
BRANCH  66  69
ATOM     69  S   UNL A   1      37.557  31.981  38.311  1.00  0.00     0.127 S 
ATOM     70  O   UNL A   1      38.269  32.214  39.568  1.00  0.00    -0.237 OA
ATOM     71  O   UNL A   1      36.531  32.976  37.999  1.00  0.00    -0.237 OA
ATOM     72  O   UNL A   1      37.165  30.601  38.065  1.00  0.00    -0.744 OA
ENDBRANCH  66  69
ENDBRANCH  48  62
BRANCH  49  73
ATOM     73  C   UNL A   1      42.504  26.013  27.430  1.00  0.00     0.023 A 
ATOM     74  C   UNL A   1      43.344  26.499  26.412  1.00  0.00     0.012 A 
ATOM     75  C   UNL A   1      42.064  24.676  27.390  1.00  0.00     0.148 A 
ATOM     76  C   UNL A   1      43.742  25.666  25.367  1.00  0.00     0.002 A 
ATOM     77  C   UNL A   1      42.495  23.842  26.367  1.00  0.00     0.091 A 
ATOM     78  F   UNL A   1      41.266  24.243  28.377  1.00  0.00    -0.205 F 
ATOM     79  C   UNL A   1      43.327  24.336  25.350  1.00  0.00     0.022 A 
BRANCH  77  80
ATOM     80  S   UNL A   1      42.106  22.088  26.314  1.00  0.00     0.127 S 
ATOM     81  O   UNL A   1      40.662  22.111  26.088  1.00  0.00    -0.237 OA
ATOM     82  O   UNL A   1      42.903  21.642  25.171  1.00  0.00    -0.237 OA
ATOM     83  O   UNL A   1      42.528  21.549  27.598  1.00  0.00    -0.744 OA
ENDBRANCH  77  80
ENDBRANCH  49  73
BRANCH  61  84
ATOM     84  C   UNL A   1      45.402  27.095  33.701  1.00  0.00     0.023 A 
ATOM     85  C   UNL A   1      46.585  27.856  33.633  1.00  0.00     0.012 A 
ATOM     86  C   UNL A   1      45.372  25.920  34.477  1.00  0.00     0.148 A 
ATOM     87  C   UNL A   1      47.727  27.449  34.321  1.00  0.00     0.002 A 
ATOM     88  C   UNL A   1      46.505  25.537  35.186  1.00  0.00     0.091 A 
ATOM     89  F   UNL A   1      44.236  25.209  34.515  1.00  0.00    -0.205 F 
ATOM     90  C   UNL A   1      47.683  26.298  35.105  1.00  0.00     0.022 A 
BRANCH  88  91
ATOM     91  S   UNL A   1      46.530  24.110  36.276  1.00  0.00     0.127 S 
ATOM     92  O   UNL A   1      47.857  24.219  36.879  1.00  0.00    -0.237 OA
ATOM     93  O   UNL A   1      45.421  24.398  37.186  1.00  0.00    -0.237 OA
ATOM     94  O   UNL A   1      46.328  22.947  35.423  1.00  0.00    -0.744 OA
ENDBRANCH  88  91
ENDBRANCH  61  84
ENDBRANCH  35  36
ENDBRANCH  28  30
ENDBRANCH  27  28
ENDBRANCH  26  27
ENDBRANCH   1  26
TORSDOF 17
ENDMDL
