MODEL 1
REMARK VINA RESULT:     -14.2      0.000      0.000
REMARK SMILES Cc1ccccc1C(=O)Nc1cc(C(=O)OCCOC(=O)c2ccc(-c3c4nc(c(-c5cccc(S(=O)(=O)[O-])c5F)c5ccc([nH]5)c(-c5cccc(S(=O)(=O)[O-])c5F)c5nc(c(-c6cccc(S(=O)(=O)[O-])c6F)c6ccc3[nH]6)C=C5)C=C4)cc2)ccc1N1CC[NH+](CC(=O)Nc2ccc(F)cc2)CC1
REMARK SMILES IDX 17 1 16 2 14 3 15 4 13 5 11 6 12 7 87 8 86 9 85 10 10 11
REMARK SMILES IDX 8 12 9 13 7 15 1 16 2 17 3 18 4 19 6 20 5 21 88 22 89 23
REMARK SMILES IDX 104 24 90 25 103 26 91 27 92 29 93 30 94 31 95 32 96 34
REMARK SMILES IDX 97 35 102 36 98 37 101 38 99 39 100 40 18 41 19 42 20 43
REMARK SMILES IDX 21 44 22 45 23 46 84 47 24 48 83 49 25 50 26 51 27 52 77 53
REMARK SMILES IDX 28 54 82 55 76 56 78 57 29 58 81 59 75 60 74 61 30 63 62 64
REMARK SMILES IDX 42 65 61 66 43 67 46 68 60 69 79 70 44 71 45 72 59 74 80 75
REMARK SMILES IDX 47 76 31 77 32 78 40 79 33 80 35 81 41 82 34 83 36 84 37 85
REMARK SMILES IDX 38 86 39 87 63 88 64 89 72 90 65 91 67 92 73 93 66 94 68 95
REMARK SMILES IDX 69 96 70 97 71 98 48 99 49 100 57 101 50 102 52 103 58 104
REMARK SMILES IDX 51 105 53 106 54 107 55 108 56 109
REMARK H PARENT 10 14 91 28 95 33 78 62 46 73
REMARK Flexibility Score: inf
ROOT
ATOM      1  C   UNL A   1      39.906  19.680  25.740  1.00  0.00     0.275 C 
ENDROOT
BRANCH   1   2
ATOM      2  O   UNL A   1      38.866  20.627  25.497  1.00  0.00    -0.458 OA
BRANCH   2   3
ATOM      3  C   UNL A   1      37.656  20.188  25.116  1.00  0.00     0.338 C 
ATOM      4  O   UNL A   1      37.313  19.036  24.899  1.00  0.00    -0.246 OA
BRANCH   3   5
ATOM      5  C   UNL A   1      36.779  21.356  24.994  1.00  0.00     0.062 A 
ATOM      6  C   UNL A   1      34.581  22.329  25.173  1.00  0.00     0.065 A 
ATOM      7  C   UNL A   1      35.427  21.228  25.314  1.00  0.00     0.044 A 
ATOM      8  C   UNL A   1      35.064  23.579  24.654  1.00  0.00     0.061 A 
ATOM      9  C   UNL A   1      36.446  23.666  24.401  1.00  0.00     0.029 A 
ATOM     10  C   UNL A   1      37.300  22.572  24.563  1.00  0.00     0.018 A 
BRANCH   6  11
ATOM     11  N   UNL A   1      33.221  22.189  25.511  1.00  0.00    -0.320 N 
ATOM     12  C   UNL A   1      32.261  21.229  25.232  1.00  0.00     0.255 C 
ATOM     13  O   UNL A   1      31.147  21.411  25.736  1.00  0.00    -0.269 OA
ATOM     14  H   UNL A   1      32.880  22.929  26.063  1.00  0.00     0.170 HD
BRANCH  12  15
ATOM     15  C   UNL A   1      32.483  20.004  24.404  1.00  0.00     0.043 A 
ATOM     16  C   UNL A   1      32.037  21.039  22.100  1.00  0.00     0.045 C 
ATOM     17  C   UNL A   1      32.220  19.878  23.034  1.00  0.00    -0.038 A 
ATOM     18  C   UNL A   1      32.252  18.594  22.466  1.00  0.00     0.004 A 
ATOM     19  C   UNL A   1      32.800  17.507  23.138  1.00  0.00     0.000 A 
ATOM     20  C   UNL A   1      33.090  18.912  25.061  1.00  0.00     0.014 A 
ATOM     21  C   UNL A   1      33.288  17.686  24.420  1.00  0.00     0.001 A 
ENDBRANCH  12  15
ENDBRANCH   6  11
BRANCH   8  22
ATOM     22  N   UNL A   1      34.249  24.684  24.429  1.00  0.00    -0.359 N 
ATOM     23  C   UNL A   1      33.822  25.147  23.082  1.00  0.00     0.178 C 
ATOM     24  C   UNL A   1      34.248  25.799  25.367  1.00  0.00     0.178 C 
ATOM     25  C   UNL A   1      32.530  26.052  23.158  1.00  0.00     0.284 C 
ATOM     26  C   UNL A   1      32.762  26.190  25.529  1.00  0.00     0.284 C 
ATOM     27  N   UNL A   1      32.283  26.891  24.351  1.00  0.00    -0.324 N 
ATOM     28  H   UNL A   1      31.270  27.002  24.327  1.00  0.00     0.348 HD
BRANCH  27  29
ATOM     29  C   UNL A   1      32.657  28.322  24.368  1.00  0.00     0.364 C 
BRANCH  29  30
ATOM     30  C   UNL A   1      31.897  29.311  25.255  1.00  0.00     0.279 C 
ATOM     31  O   UNL A   1      32.306  29.456  26.420  1.00  0.00    -0.268 OA
ATOM     32  N   UNL A   1      30.907  30.180  24.877  1.00  0.00    -0.321 N 
ATOM     33  H   UNL A   1      30.841  30.892  25.553  1.00  0.00     0.170 HD
BRANCH  32  34
ATOM     34  C   UNL A   1      29.940  30.426  23.863  1.00  0.00     0.041 A 
ATOM     35  C   UNL A   1      30.007  29.578  22.742  1.00  0.00     0.029 A 
ATOM     36  C   UNL A   1      29.031  31.475  23.765  1.00  0.00     0.029 A 
ATOM     37  C   UNL A   1      29.196  29.765  21.609  1.00  0.00     0.041 A 
ATOM     38  C   UNL A   1      28.241  31.703  22.623  1.00  0.00     0.041 A 
ATOM     39  C   UNL A   1      28.318  30.833  21.558  1.00  0.00     0.123 A 
ATOM     40  F   UNL A   1      27.551  31.027  20.480  1.00  0.00    -0.207 F 
ENDBRANCH  32  34
ENDBRANCH  29  30
ENDBRANCH  27  29
ENDBRANCH   8  22
ENDBRANCH   3   5
ENDBRANCH   2   3
ENDBRANCH   1   2
BRANCH   1  41
ATOM     41  C   UNL A   1      41.237  20.169  26.343  1.00  0.00     0.275 C 
BRANCH  41  42
ATOM     42  O   UNL A   1      42.493  20.262  25.603  1.00  0.00    -0.458 OA
BRANCH  42  43
ATOM     43  C   UNL A   1      43.496  21.167  25.646  1.00  0.00     0.338 C 
ATOM     44  O   UNL A   1      44.664  20.854  25.455  1.00  0.00    -0.246 OA
BRANCH  43  45
ATOM     45  C   UNL A   1      43.140  22.520  26.080  1.00  0.00     0.060 A 
ATOM     46  C   UNL A   1      43.449  23.638  25.292  1.00  0.00     0.016 A 
ATOM     47  C   UNL A   1      42.489  22.657  27.301  1.00  0.00     0.016 A 
ATOM     48  C   UNL A   1      43.109  24.913  25.741  1.00  0.00     0.010 A 
ATOM     49  C   UNL A   1      41.986  23.884  27.645  1.00  0.00     0.010 A 
ATOM     50  C   UNL A   1      42.400  25.024  26.933  1.00  0.00    -0.014 A 
BRANCH  50  51
ATOM     51  C   UNL A   1      42.367  26.219  27.783  1.00  0.00     0.031 A 
ATOM     52  C   UNL A   1      41.375  27.280  27.550  1.00  0.00     0.074 A 
ATOM     53  C   UNL A   1      43.086  25.988  28.898  1.00  0.00     0.049 A 
ATOM     54  N   UNL A   1      40.230  27.407  28.147  1.00  0.00    -0.248 NA
ATOM     55  C   UNL A   1      41.611  28.227  26.454  1.00  0.00     0.031 C 
ATOM     56  C   UNL A   1      43.043  26.549  30.227  1.00  0.00     0.029 A 
ATOM     57  N   UNL A   1      44.226  25.184  28.924  1.00  0.00    -0.354 N 
ATOM     58  C   UNL A   1      39.623  28.554  27.611  1.00  0.00     0.074 A 
ATOM     59  C   UNL A   1      40.449  28.886  26.439  1.00  0.00     0.031 C 
ATOM     60  C   UNL A   1      44.247  26.344  30.806  1.00  0.00     0.029 A 
ATOM     61  C   UNL A   1      45.135  25.748  29.800  1.00  0.00     0.049 A 
ATOM     62  H   UNL A   1      44.360  24.356  28.406  1.00  0.00     0.167 HD
ATOM     63  C   UNL A   1      39.404  29.626  28.428  1.00  0.00     0.034 A 
ATOM     64  C   UNL A   1      46.203  26.374  29.207  1.00  0.00     0.034 A 
ATOM     65  C   UNL A   1      40.492  29.834  29.364  1.00  0.00     0.049 A 
ATOM     66  C   UNL A   1      46.023  27.876  29.281  1.00  0.00     0.074 A 
ATOM     67  C   UNL A   1      40.755  29.357  30.632  1.00  0.00     0.029 A 
ATOM     68  N   UNL A   1      41.657  30.431  28.908  1.00  0.00    -0.354 N 
ATOM     69  N   UNL A   1      44.866  28.483  29.286  1.00  0.00    -0.248 NA
ATOM     70  C   UNL A   1      47.146  28.790  29.431  1.00  0.00     0.031 C 
ATOM     71  C   UNL A   1      42.132  29.590  30.896  1.00  0.00     0.029 A 
ATOM     72  C   UNL A   1      42.699  30.203  29.788  1.00  0.00     0.049 A 
ATOM     73  H   UNL A   1      41.733  30.946  28.072  1.00  0.00     0.167 HD
ATOM     74  C   UNL A   1      45.059  29.823  29.466  1.00  0.00     0.074 A 
ATOM     75  C   UNL A   1      46.505  29.963  29.560  1.00  0.00     0.031 C 
ATOM     76  C   UNL A   1      44.032  30.722  29.516  1.00  0.00     0.034 A 
BRANCH  63  77
ATOM     77  C   UNL A   1      37.998  30.157  28.556  1.00  0.00     0.023 A 
ATOM     78  C   UNL A   1      36.947  29.353  28.072  1.00  0.00     0.012 A 
ATOM     79  C   UNL A   1      37.652  31.412  29.121  1.00  0.00     0.148 A 
ATOM     80  C   UNL A   1      35.617  29.782  28.094  1.00  0.00     0.002 A 
ATOM     81  C   UNL A   1      36.320  31.843  29.139  1.00  0.00     0.091 A 
ATOM     82  F   UNL A   1      38.619  32.178  29.647  1.00  0.00    -0.205 F 
ATOM     83  C   UNL A   1      35.303  31.029  28.617  1.00  0.00     0.022 A 
BRANCH  81  84
ATOM     84  S   UNL A   1      35.790  33.447  29.769  1.00  0.00     0.127 S 
ATOM     85  O   UNL A   1      35.955  33.276  31.215  1.00  0.00    -0.237 OA
ATOM     86  O   UNL A   1      36.754  34.362  29.157  1.00  0.00    -0.237 OA
ATOM     87  O   UNL A   1      34.410  33.624  29.340  1.00  0.00    -0.744 OA
ENDBRANCH  81  84
ENDBRANCH  63  77
BRANCH  64  88
ATOM     88  C   UNL A   1      46.732  25.651  27.982  1.00  0.00     0.023 A 
ATOM     89  C   UNL A   1      46.403  24.276  27.833  1.00  0.00     0.012 A 
ATOM     90  C   UNL A   1      47.273  26.317  26.867  1.00  0.00     0.148 A 
ATOM     91  C   UNL A   1      46.470  23.635  26.592  1.00  0.00     0.002 A 
ATOM     92  C   UNL A   1      47.350  25.665  25.630  1.00  0.00     0.091 A 
ATOM     93  F   UNL A   1      47.680  27.586  27.002  1.00  0.00    -0.205 F 
ATOM     94  C   UNL A   1      46.923  24.337  25.484  1.00  0.00     0.022 A 
BRANCH  92  95
ATOM     95  S   UNL A   1      47.846  26.560  24.146  1.00  0.00     0.127 S 
ATOM     96  O   UNL A   1      49.072  27.216  24.591  1.00  0.00    -0.237 OA
ATOM     97  O   UNL A   1      48.042  25.490  23.164  1.00  0.00    -0.237 OA
ATOM     98  O   UNL A   1      46.711  27.426  23.851  1.00  0.00    -0.744 OA
ENDBRANCH  92  95
ENDBRANCH  64  88
BRANCH  76  99
ATOM     99  C   UNL A   1      44.232  32.207  29.340  1.00  0.00     0.023 A 
ATOM    100  C   UNL A   1      44.595  33.029  30.425  1.00  0.00     0.012 A 
ATOM    101  C   UNL A   1      44.240  32.801  28.055  1.00  0.00     0.148 A 
ATOM    102  C   UNL A   1      44.845  34.391  30.269  1.00  0.00     0.002 A 
ATOM    103  C   UNL A   1      44.626  34.125  27.890  1.00  0.00     0.091 A 
ATOM    104  F   UNL A   1      43.867  32.087  26.983  1.00  0.00    -0.205 F 
ATOM    105  C   UNL A   1      44.881  34.936  28.996  1.00  0.00     0.022 A 
BRANCH 103 106
ATOM    106  S   UNL A   1      45.001  34.775  26.257  1.00  0.00     0.127 S 
ATOM    107  O   UNL A   1      45.630  36.054  26.578  1.00  0.00    -0.237 OA
ATOM    108  O   UNL A   1      45.910  33.762  25.722  1.00  0.00    -0.237 OA
ATOM    109  O   UNL A   1      43.714  34.840  25.576  1.00  0.00    -0.744 OA
ENDBRANCH 103 106
ENDBRANCH  76  99
ENDBRANCH  50  51
ENDBRANCH  43  45
ENDBRANCH  42  43
ENDBRANCH  41  42
ENDBRANCH   1  41
TORSDOF 20
ENDMDL
MODEL 2
REMARK VINA RESULT:     -14.1      2.439      3.178
REMARK SMILES Cc1ccccc1C(=O)Nc1cc(C(=O)OCCOC(=O)c2ccc(-c3c4nc(c(-c5cccc(S(=O)(=O)[O-])c5F)c5ccc([nH]5)c(-c5cccc(S(=O)(=O)[O-])c5F)c5nc(c(-c6cccc(S(=O)(=O)[O-])c6F)c6ccc3[nH]6)C=C5)C=C4)cc2)ccc1N1CC[NH+](CC(=O)Nc2ccc(F)cc2)CC1
REMARK SMILES IDX 17 1 16 2 14 3 15 4 13 5 11 6 12 7 87 8 86 9 85 10 10 11
REMARK SMILES IDX 8 12 9 13 7 15 1 16 2 17 3 18 4 19 6 20 5 21 88 22 89 23
REMARK SMILES IDX 104 24 90 25 103 26 91 27 92 29 93 30 94 31 95 32 96 34
REMARK SMILES IDX 97 35 102 36 98 37 101 38 99 39 100 40 18 41 19 42 20 43
REMARK SMILES IDX 21 44 22 45 23 46 84 47 24 48 83 49 25 50 26 51 27 52 77 53
REMARK SMILES IDX 28 54 82 55 76 56 78 57 29 58 81 59 75 60 74 61 30 63 62 64
REMARK SMILES IDX 42 65 61 66 43 67 46 68 60 69 79 70 44 71 45 72 59 74 80 75
REMARK SMILES IDX 47 76 31 77 32 78 40 79 33 80 35 81 41 82 34 83 36 84 37 85
REMARK SMILES IDX 38 86 39 87 63 88 64 89 72 90 65 91 67 92 73 93 66 94 68 95
REMARK SMILES IDX 69 96 70 97 71 98 48 99 49 100 57 101 50 102 52 103 58 104
REMARK SMILES IDX 51 105 53 106 54 107 55 108 56 109
REMARK H PARENT 10 14 91 28 95 33 78 62 46 73
REMARK Flexibility Score: inf
ROOT
ATOM      1  C   UNL A   1      40.304  20.528  26.046  1.00  0.00     0.275 C 
ENDROOT
BRANCH   1   2
ATOM      2  O   UNL A   1      39.099  21.219  25.719  1.00  0.00    -0.458 OA
BRANCH   2   3
ATOM      3  C   UNL A   1      38.059  20.527  25.226  1.00  0.00     0.338 C 
ATOM      4  O   UNL A   1      37.967  19.319  25.083  1.00  0.00    -0.246 OA
BRANCH   3   5
ATOM      5  C   UNL A   1      37.014  21.492  24.870  1.00  0.00     0.062 A 
ATOM      6  C   UNL A   1      34.695  22.149  24.909  1.00  0.00     0.065 A 
ATOM      7  C   UNL A   1      35.700  21.250  25.270  1.00  0.00     0.044 A 
ATOM      8  C   UNL A   1      34.979  23.293  24.088  1.00  0.00     0.061 A 
ATOM      9  C   UNL A   1      36.330  23.517  23.761  1.00  0.00     0.029 A 
ATOM     10  C   UNL A   1      37.341  22.630  24.140  1.00  0.00     0.018 A 
BRANCH   6  11
ATOM     11  N   UNL A   1      33.375  21.898  25.331  1.00  0.00    -0.320 N 
ATOM     12  C   UNL A   1      32.474  20.874  25.090  1.00  0.00     0.255 C 
ATOM     13  O   UNL A   1      31.385  20.960  25.669  1.00  0.00    -0.269 OA
ATOM     14  H   UNL A   1      33.017  22.599  25.922  1.00  0.00     0.170 HD
BRANCH  12  15
ATOM     15  C   UNL A   1      32.732  19.686  24.219  1.00  0.00     0.043 A 
ATOM     16  C   UNL A   1      31.865  20.661  22.011  1.00  0.00     0.045 C 
ATOM     17  C   UNL A   1      32.308  19.530  22.893  1.00  0.00    -0.038 A 
ATOM     18  C   UNL A   1      32.421  18.260  22.304  1.00  0.00     0.004 A 
ATOM     19  C   UNL A   1      33.180  17.248  22.881  1.00  0.00     0.000 A 
ATOM     20  C   UNL A   1      33.548  18.676  24.773  1.00  0.00     0.014 A 
ATOM     21  C   UNL A   1      33.807  17.484  24.090  1.00  0.00     0.001 A 
ENDBRANCH  12  15
ENDBRANCH   6  11
BRANCH   8  22
ATOM     22  N   UNL A   1      34.004  24.181  23.644  1.00  0.00    -0.359 N 
ATOM     23  C   UNL A   1      33.247  24.024  22.374  1.00  0.00     0.178 C 
ATOM     24  C   UNL A   1      34.064  25.587  24.022  1.00  0.00     0.178 C 
ATOM     25  C   UNL A   1      31.899  24.845  22.391  1.00  0.00     0.284 C 
ATOM     26  C   UNL A   1      32.609  25.973  24.371  1.00  0.00     0.284 C 
ATOM     27  N   UNL A   1      31.808  26.102  23.166  1.00  0.00    -0.324 N 
ATOM     28  H   UNL A   1      30.807  26.168  23.348  1.00  0.00     0.348 HD
BRANCH  27  29
ATOM     29  C   UNL A   1      31.996  27.416  22.514  1.00  0.00     0.364 C 
BRANCH  29  30
ATOM     30  C   UNL A   1      31.081  28.592  22.861  1.00  0.00     0.279 C 
ATOM     31  O   UNL A   1      30.146  28.831  22.076  1.00  0.00    -0.268 OA
ATOM     32  N   UNL A   1      31.068  29.328  24.017  1.00  0.00    -0.321 N 
ATOM     33  H   UNL A   1      30.196  29.777  24.092  1.00  0.00     0.170 HD
BRANCH  32  34
ATOM     34  C   UNL A   1      31.856  29.676  25.148  1.00  0.00     0.041 A 
ATOM     35  C   UNL A   1      31.422  30.807  25.864  1.00  0.00     0.029 A 
ATOM     36  C   UNL A   1      33.071  29.139  25.561  1.00  0.00     0.029 A 
ATOM     37  C   UNL A   1      32.155  31.345  26.937  1.00  0.00     0.041 A 
ATOM     38  C   UNL A   1      33.840  29.687  26.604  1.00  0.00     0.041 A 
ATOM     39  C   UNL A   1      33.365  30.780  27.297  1.00  0.00     0.123 A 
ATOM     40  F   UNL A   1      34.077  31.290  28.307  1.00  0.00    -0.207 F 
ENDBRANCH  32  34
ENDBRANCH  29  30
ENDBRANCH  27  29
ENDBRANCH   8  22
ENDBRANCH   3   5
ENDBRANCH   2   3
ENDBRANCH   1   2
BRANCH   1  41
ATOM     41  C   UNL A   1      41.609  21.332  26.201  1.00  0.00     0.275 C 
BRANCH  41  42
ATOM     42  O   UNL A   1      42.876  20.978  25.566  1.00  0.00    -0.458 OA
BRANCH  42  43
ATOM     43  C   UNL A   1      43.848  21.739  25.014  1.00  0.00     0.338 C 
ATOM     44  O   UNL A   1      44.530  21.344  24.078  1.00  0.00    -0.246 OA
BRANCH  43  45
ATOM     45  C   UNL A   1      44.148  23.006  25.684  1.00  0.00     0.060 A 
ATOM     46  C   UNL A   1      44.676  23.030  26.983  1.00  0.00     0.016 A 
ATOM     47  C   UNL A   1      43.889  24.182  24.991  1.00  0.00     0.016 A 
ATOM     48  C   UNL A   1      44.937  24.253  27.599  1.00  0.00     0.010 A 
ATOM     49  C   UNL A   1      44.325  25.369  25.519  1.00  0.00     0.010 A 
ATOM     50  C   UNL A   1      44.732  25.417  26.864  1.00  0.00    -0.014 A 
BRANCH  50  51
ATOM     51  C   UNL A   1      44.494  26.744  27.442  1.00  0.00     0.031 A 
ATOM     52  C   UNL A   1      43.156  27.353  27.400  1.00  0.00     0.074 A 
ATOM     53  C   UNL A   1      45.526  27.068  28.244  1.00  0.00     0.049 A 
ATOM     54  N   UNL A   1      42.260  27.308  28.338  1.00  0.00    -0.248 NA
ATOM     55  C   UNL A   1      42.707  27.964  26.144  1.00  0.00     0.031 C 
ATOM     56  C   UNL A   1      45.648  27.954  29.376  1.00  0.00     0.029 A 
ATOM     57  N   UNL A   1      46.843  26.676  27.997  1.00  0.00    -0.354 N 
ATOM     58  C   UNL A   1      41.147  28.019  27.864  1.00  0.00     0.074 A 
ATOM     59  C   UNL A   1      41.428  28.221  26.434  1.00  0.00     0.031 C 
ATOM     60  C   UNL A   1      46.952  28.288  29.507  1.00  0.00     0.029 A 
ATOM     61  C   UNL A   1      47.681  27.712  28.371  1.00  0.00     0.049 A 
ATOM     62  H   UNL A   1      47.126  25.811  27.622  1.00  0.00     0.167 HD
ATOM     63  C   UNL A   1      40.780  29.170  28.502  1.00  0.00     0.034 A 
ATOM     64  C   UNL A   1      48.228  28.421  27.331  1.00  0.00     0.034 A 
ATOM     65  C   UNL A   1      41.926  29.950  28.929  1.00  0.00     0.049 A 
ATOM     66  C   UNL A   1      47.529  29.758  27.197  1.00  0.00     0.074 A 
ATOM     67  C   UNL A   1      42.689  29.962  30.078  1.00  0.00     0.029 A 
ATOM     68  N   UNL A   1      42.608  30.701  27.984  1.00  0.00    -0.354 N 
ATOM     69  N   UNL A   1      46.281  29.974  27.514  1.00  0.00    -0.248 NA
ATOM     70  C   UNL A   1      48.225  30.962  26.767  1.00  0.00     0.031 C 
ATOM     71  C   UNL A   1      43.894  30.652  29.780  1.00  0.00     0.029 A 
ATOM     72  C   UNL A   1      43.860  31.054  28.453  1.00  0.00     0.049 A 
ATOM     73  H   UNL A   1      42.251  30.948  27.100  1.00  0.00     0.167 HD
ATOM     74  C   UNL A   1      46.002  31.303  27.372  1.00  0.00     0.074 A 
ATOM     75  C   UNL A   1      47.256  31.880  26.909  1.00  0.00     0.031 C 
ATOM     76  C   UNL A   1      44.771  31.837  27.629  1.00  0.00     0.034 A 
BRANCH  63  77
ATOM     77  C   UNL A   1      39.373  29.280  29.034  1.00  0.00     0.023 A 
ATOM     78  C   UNL A   1      38.316  29.256  28.103  1.00  0.00     0.012 A 
ATOM     79  C   UNL A   1      39.031  29.415  30.405  1.00  0.00     0.148 A 
ATOM     80  C   UNL A   1      36.982  29.409  28.493  1.00  0.00     0.002 A 
ATOM     81  C   UNL A   1      37.696  29.573  30.794  1.00  0.00     0.091 A 
ATOM     82  F   UNL A   1      40.006  29.382  31.325  1.00  0.00    -0.205 F 
ATOM     83  C   UNL A   1      36.672  29.577  29.836  1.00  0.00     0.022 A 
BRANCH  81  84
ATOM     84  S   UNL A   1      37.169  29.821  32.501  1.00  0.00     0.127 S 
ATOM     85  O   UNL A   1      35.809  30.337  32.329  1.00  0.00    -0.237 OA
ATOM     86  O   UNL A   1      37.234  28.468  33.052  1.00  0.00    -0.237 OA
ATOM     87  O   UNL A   1      38.102  30.774  33.086  1.00  0.00    -0.744 OA
ENDBRANCH  81  84
ENDBRANCH  63  77
BRANCH  64  88
ATOM     88  C   UNL A   1      48.626  27.559  26.146  1.00  0.00     0.023 A 
ATOM     89  C   UNL A   1      47.611  27.209  25.213  1.00  0.00     0.012 A 
ATOM     90  C   UNL A   1      49.963  27.335  25.770  1.00  0.00     0.148 A 
ATOM     91  C   UNL A   1      47.919  26.793  23.914  1.00  0.00     0.002 A 
ATOM     92  C   UNL A   1      50.264  26.907  24.471  1.00  0.00     0.091 A 
ATOM     93  F   UNL A   1      50.936  27.568  26.661  1.00  0.00    -0.205 F 
ATOM     94  C   UNL A   1      49.249  26.665  23.535  1.00  0.00     0.022 A 
BRANCH  92  95
ATOM     95  S   UNL A   1      51.973  26.811  23.906  1.00  0.00     0.127 S 
ATOM     96  O   UNL A   1      52.493  28.113  24.311  1.00  0.00    -0.237 OA
ATOM     97  O   UNL A   1      52.507  25.673  24.659  1.00  0.00    -0.237 OA
ATOM     98  O   UNL A   1      51.866  26.568  22.472  1.00  0.00    -0.744 OA
ENDBRANCH  92  95
ENDBRANCH  64  88
BRANCH  76  99
ATOM     99  C   UNL A   1      44.345  33.197  27.134  1.00  0.00     0.023 A 
ATOM    100  C   UNL A   1      44.126  33.440  25.764  1.00  0.00     0.012 A 
ATOM    101  C   UNL A   1      43.977  34.225  28.035  1.00  0.00     0.148 A 
ATOM    102  C   UNL A   1      43.672  34.672  25.295  1.00  0.00     0.002 A 
ATOM    103  C   UNL A   1      43.394  35.397  27.571  1.00  0.00     0.091 A 
ATOM    104  F   UNL A   1      44.195  34.075  29.349  1.00  0.00    -0.205 F 
ATOM    105  C   UNL A   1      43.285  35.646  26.202  1.00  0.00     0.022 A 
BRANCH 103 106
ATOM    106  S   UNL A   1      42.587  36.533  28.705  1.00  0.00     0.127 S 
ATOM    107  O   UNL A   1      43.728  37.176  29.352  1.00  0.00    -0.237 OA
ATOM    108  O   UNL A   1      41.833  37.395  27.795  1.00  0.00    -0.237 OA
ATOM    109  O   UNL A   1      41.754  35.688  29.552  1.00  0.00    -0.744 OA
ENDBRANCH 103 106
ENDBRANCH  76  99
ENDBRANCH  50  51
ENDBRANCH  43  45
ENDBRANCH  42  43
ENDBRANCH  41  42
ENDBRANCH   1  41
TORSDOF 20
ENDMDL
MODEL 3
REMARK VINA RESULT:     -12.7      4.593      8.883
REMARK SMILES Cc1ccccc1C(=O)Nc1cc(C(=O)OCCOC(=O)c2ccc(-c3c4nc(c(-c5cccc(S(=O)(=O)[O-])c5F)c5ccc([nH]5)c(-c5cccc(S(=O)(=O)[O-])c5F)c5nc(c(-c6cccc(S(=O)(=O)[O-])c6F)c6ccc3[nH]6)C=C5)C=C4)cc2)ccc1N1CC[NH+](CC(=O)Nc2ccc(F)cc2)CC1
REMARK SMILES IDX 17 1 16 2 14 3 15 4 13 5 11 6 12 7 87 8 86 9 85 10 10 11
REMARK SMILES IDX 8 12 9 13 7 15 1 16 2 17 3 18 4 19 6 20 5 21 88 22 89 23
REMARK SMILES IDX 104 24 90 25 103 26 91 27 92 29 93 30 94 31 95 32 96 34
REMARK SMILES IDX 97 35 102 36 98 37 101 38 99 39 100 40 18 41 19 42 20 43
REMARK SMILES IDX 21 44 22 45 23 46 84 47 24 48 83 49 25 50 26 51 27 52 77 53
REMARK SMILES IDX 28 54 82 55 76 56 78 57 29 58 81 59 75 60 74 61 30 63 62 64
REMARK SMILES IDX 42 65 61 66 43 67 46 68 60 69 79 70 44 71 45 72 59 74 80 75
REMARK SMILES IDX 47 76 31 77 32 78 40 79 33 80 35 81 41 82 34 83 36 84 37 85
REMARK SMILES IDX 38 86 39 87 63 88 64 89 72 90 65 91 67 92 73 93 66 94 68 95
REMARK SMILES IDX 69 96 70 97 71 98 48 99 49 100 57 101 50 102 52 103 58 104
REMARK SMILES IDX 51 105 53 106 54 107 55 108 56 109
REMARK H PARENT 10 14 91 28 95 33 78 62 46 73
REMARK Flexibility Score: inf
ROOT
ATOM      1  C   UNL A   1      39.292  21.980  26.638  1.00  0.00     0.275 C 
ENDROOT
BRANCH   1   2
ATOM      2  O   UNL A   1      38.895  21.822  25.276  1.00  0.00    -0.458 OA
BRANCH   2   3
ATOM      3  C   UNL A   1      37.849  21.033  24.985  1.00  0.00     0.338 C 
ATOM      4  O   UNL A   1      37.810  19.813  24.986  1.00  0.00    -0.246 OA
BRANCH   3   5
ATOM      5  C   UNL A   1      36.717  21.903  24.650  1.00  0.00     0.062 A 
ATOM      6  C   UNL A   1      34.364  22.401  24.805  1.00  0.00     0.065 A 
ATOM      7  C   UNL A   1      35.451  21.593  25.144  1.00  0.00     0.044 A 
ATOM      8  C   UNL A   1      34.515  23.518  23.914  1.00  0.00     0.061 A 
ATOM      9  C   UNL A   1      35.825  23.817  23.491  1.00  0.00     0.029 A 
ATOM     10  C   UNL A   1      36.918  23.022  23.847  1.00  0.00     0.018 A 
BRANCH   6  11
ATOM     11  N   UNL A   1      33.093  22.083  25.321  1.00  0.00    -0.320 N 
ATOM     12  C   UNL A   1      32.265  20.978  25.208  1.00  0.00     0.255 C 
ATOM     13  O   UNL A   1      31.206  21.024  25.843  1.00  0.00    -0.269 OA
ATOM     14  H   UNL A   1      32.713  22.797  25.882  1.00  0.00     0.170 HD
BRANCH  12  15
ATOM     15  C   UNL A   1      32.571  19.751  24.409  1.00  0.00     0.043 A 
ATOM     16  C   UNL A   1      31.982  20.675  22.089  1.00  0.00     0.045 C 
ATOM     17  C   UNL A   1      32.286  19.562  23.050  1.00  0.00    -0.038 A 
ATOM     18  C   UNL A   1      32.413  18.269  22.518  1.00  0.00     0.004 A 
ATOM     19  C   UNL A   1      33.068  17.253  23.205  1.00  0.00     0.000 A 
ATOM     20  C   UNL A   1      33.284  18.735  25.080  1.00  0.00     0.014 A 
ATOM     21  C   UNL A   1      33.570  17.511  24.467  1.00  0.00     0.001 A 
ENDBRANCH  12  15
ENDBRANCH   6  11
BRANCH   8  22
ATOM     22  N   UNL A   1      33.454  24.312  23.490  1.00  0.00    -0.359 N 
ATOM     23  C   UNL A   1      33.588  25.446  22.537  1.00  0.00     0.178 C 
ATOM     24  C   UNL A   1      32.298  24.515  24.353  1.00  0.00     0.178 C 
ATOM     25  C   UNL A   1      32.209  25.804  21.858  1.00  0.00     0.284 C 
ATOM     26  C   UNL A   1      31.072  24.402  23.419  1.00  0.00     0.284 C 
ATOM     27  N   UNL A   1      30.944  25.589  22.593  1.00  0.00    -0.324 N 
ATOM     28  H   UNL A   1      30.271  25.487  21.834  1.00  0.00     0.348 HD
BRANCH  27  29
ATOM     29  C   UNL A   1      30.284  26.698  23.317  1.00  0.00     0.364 C 
BRANCH  29  30
ATOM     30  C   UNL A   1      30.586  28.153  22.950  1.00  0.00     0.279 C 
ATOM     31  O   UNL A   1      30.044  28.601  21.924  1.00  0.00    -0.268 OA
ATOM     32  N   UNL A   1      31.264  29.079  23.698  1.00  0.00    -0.321 N 
ATOM     33  H   UNL A   1      31.025  29.977  23.375  1.00  0.00     0.170 HD
BRANCH  32  34
ATOM     34  C   UNL A   1      32.185  29.215  24.773  1.00  0.00     0.041 A 
ATOM     35  C   UNL A   1      33.101  28.157  24.923  1.00  0.00     0.029 A 
ATOM     36  C   UNL A   1      32.215  30.178  25.777  1.00  0.00     0.029 A 
ATOM     37  C   UNL A   1      34.000  28.088  26.003  1.00  0.00     0.041 A 
ATOM     38  C   UNL A   1      33.077  30.105  26.886  1.00  0.00     0.041 A 
ATOM     39  C   UNL A   1      33.977  29.066  26.981  1.00  0.00     0.123 A 
ATOM     40  F   UNL A   1      34.819  29.004  28.019  1.00  0.00    -0.207 F 
ENDBRANCH  32  34
ENDBRANCH  29  30
ENDBRANCH  27  29
ENDBRANCH   8  22
ENDBRANCH   3   5
ENDBRANCH   2   3
ENDBRANCH   1   2
BRANCH   1  41
ATOM     41  C   UNL A   1      40.785  22.174  26.965  1.00  0.00     0.275 C 
BRANCH  41  42
ATOM     42  O   UNL A   1      41.450  23.472  27.048  1.00  0.00    -0.458 OA
BRANCH  42  43
ATOM     43  C   UNL A   1      41.246  24.537  27.856  1.00  0.00     0.338 C 
ATOM     44  O   UNL A   1      40.123  24.946  28.122  1.00  0.00    -0.246 OA
BRANCH  43  45
ATOM     45  C   UNL A   1      42.437  25.273  28.284  1.00  0.00     0.060 A 
ATOM     46  C   UNL A   1      42.685  26.576  27.829  1.00  0.00     0.016 A 
ATOM     47  C   UNL A   1      43.316  24.634  29.151  1.00  0.00     0.016 A 
ATOM     48  C   UNL A   1      43.836  27.244  28.244  1.00  0.00     0.010 A 
ATOM     49  C   UNL A   1      44.338  25.358  29.706  1.00  0.00     0.010 A 
ATOM     50  C   UNL A   1      44.669  26.612  29.163  1.00  0.00    -0.014 A 
BRANCH  50  51
ATOM     51  C   UNL A   1      46.092  26.911  29.350  1.00  0.00     0.031 A 
ATOM     52  C   UNL A   1      47.094  26.430  28.387  1.00  0.00     0.074 A 
ATOM     53  C   UNL A   1      46.220  27.904  30.252  1.00  0.00     0.049 A 
ATOM     54  N   UNL A   1      47.576  27.094  27.382  1.00  0.00    -0.248 NA
ATOM     55  C   UNL A   1      47.515  25.026  28.462  1.00  0.00     0.031 C 
ATOM     56  C   UNL A   1      47.247  28.890  30.486  1.00  0.00     0.029 A 
ATOM     57  N   UNL A   1      45.356  28.074  31.334  1.00  0.00    -0.354 N 
ATOM     58  C   UNL A   1      48.495  26.245  26.744  1.00  0.00     0.074 A 
ATOM     59  C   UNL A   1      48.253  24.927  27.352  1.00  0.00     0.031 C 
ATOM     60  C   UNL A   1      47.136  29.313  31.766  1.00  0.00     0.029 A 
ATOM     61  C   UNL A   1      46.099  28.505  32.419  1.00  0.00     0.049 A 
ATOM     62  H   UNL A   1      44.384  27.914  31.327  1.00  0.00     0.167 HD
ATOM     63  C   UNL A   1      49.816  26.592  26.736  1.00  0.00     0.034 A 
ATOM     64  C   UNL A   1      46.318  27.557  33.387  1.00  0.00     0.034 A 
ATOM     65  C   UNL A   1      50.234  27.192  27.989  1.00  0.00     0.049 A 
ATOM     66  C   UNL A   1      47.744  27.054  33.300  1.00  0.00     0.074 A 
ATOM     67  C   UNL A   1      50.250  28.489  28.460  1.00  0.00     0.029 A 
ATOM     68  N   UNL A   1      50.467  26.365  29.077  1.00  0.00    -0.354 N 
ATOM     69  N   UNL A   1      48.441  26.994  32.198  1.00  0.00    -0.248 NA
ATOM     70  C   UNL A   1      48.504  26.657  34.477  1.00  0.00     0.031 C 
ATOM     71  C   UNL A   1      50.398  28.426  29.871  1.00  0.00     0.029 A 
ATOM     72  C   UNL A   1      50.469  27.094  30.252  1.00  0.00     0.049 A 
ATOM     73  H   UNL A   1      50.610  25.392  29.022  1.00  0.00     0.167 HD
ATOM     74  C   UNL A   1      49.714  26.596  32.488  1.00  0.00     0.074 A 
ATOM     75  C   UNL A   1      49.705  26.405  33.931  1.00  0.00     0.031 C 
ATOM     76  C   UNL A   1      50.681  26.439  31.536  1.00  0.00     0.034 A 
BRANCH  63  77
ATOM     77  C   UNL A   1      50.520  26.711  25.408  1.00  0.00     0.023 A 
ATOM     78  C   UNL A   1      51.764  26.063  25.264  1.00  0.00     0.012 A 
ATOM     79  C   UNL A   1      50.029  27.434  24.290  1.00  0.00     0.148 A 
ATOM     80  C   UNL A   1      52.518  26.162  24.091  1.00  0.00     0.002 A 
ATOM     81  C   UNL A   1      50.787  27.537  23.118  1.00  0.00     0.091 A 
ATOM     82  F   UNL A   1      48.822  28.014  24.369  1.00  0.00    -0.205 F 
ATOM     83  C   UNL A   1      52.036  26.905  23.022  1.00  0.00     0.022 A 
BRANCH  81  84
ATOM     84  S   UNL A   1      50.281  28.489  21.673  1.00  0.00     0.127 S 
ATOM     85  O   UNL A   1      50.917  27.749  20.581  1.00  0.00    -0.237 OA
ATOM     86  O   UNL A   1      48.824  28.373  21.711  1.00  0.00    -0.237 OA
ATOM     87  O   UNL A   1      50.800  29.837  21.865  1.00  0.00    -0.744 OA
ENDBRANCH  81  84
ENDBRANCH  63  77
BRANCH  64  88
ATOM     88  C   UNL A   1      45.124  26.655  33.641  1.00  0.00     0.023 A 
ATOM     89  C   UNL A   1      45.176  25.330  33.129  1.00  0.00     0.012 A 
ATOM     90  C   UNL A   1      44.118  26.954  34.579  1.00  0.00     0.148 A 
ATOM     91  C   UNL A   1      44.360  24.314  33.636  1.00  0.00     0.002 A 
ATOM     92  C   UNL A   1      43.296  25.933  35.074  1.00  0.00     0.091 A 
ATOM     93  F   UNL A   1      43.984  28.215  35.010  1.00  0.00    -0.205 F 
ATOM     94  C   UNL A   1      43.434  24.612  34.627  1.00  0.00     0.022 A 
BRANCH  92  95
ATOM     95  S   UNL A   1      42.142  26.252  36.421  1.00  0.00     0.127 S 
ATOM     96  O   UNL A   1      41.933  24.911  36.957  1.00  0.00    -0.237 OA
ATOM     97  O   UNL A   1      42.896  27.154  37.296  1.00  0.00    -0.237 OA
ATOM     98  O   UNL A   1      40.998  26.883  35.774  1.00  0.00    -0.744 OA
ENDBRANCH  92  95
ENDBRANCH  64  88
BRANCH  76  99
ATOM     99  C   UNL A   1      51.951  25.660  31.774  1.00  0.00     0.023 A 
ATOM    100  C   UNL A   1      53.197  26.308  31.877  1.00  0.00     0.012 A 
ATOM    101  C   UNL A   1      51.918  24.279  32.082  1.00  0.00     0.148 A 
ATOM    102  C   UNL A   1      54.371  25.612  32.159  1.00  0.00     0.002 A 
ATOM    103  C   UNL A   1      53.068  23.620  32.500  1.00  0.00     0.091 A 
ATOM    104  F   UNL A   1      50.773  23.592  31.967  1.00  0.00    -0.205 F 
ATOM    105  C   UNL A   1      54.304  24.269  32.492  1.00  0.00     0.022 A 
BRANCH 103 106
ATOM    106  S   UNL A   1      52.972  21.988  33.245  1.00  0.00     0.127 S 
ATOM    107  O   UNL A   1      52.100  22.230  34.392  1.00  0.00    -0.237 OA
ATOM    108  O   UNL A   1      52.370  21.194  32.174  1.00  0.00    -0.237 OA
ATOM    109  O   UNL A   1      54.353  21.632  33.547  1.00  0.00    -0.744 OA
ENDBRANCH 103 106
ENDBRANCH  76  99
ENDBRANCH  50  51
ENDBRANCH  43  45
ENDBRANCH  42  43
ENDBRANCH  41  42
ENDBRANCH   1  41
TORSDOF 20
ENDMDL
