MODEL 1
REMARK VINA RESULT:     -10.2      0.000      0.000
REMARK SMILES CCCCCCCNC(=O)Oc1cccc(-c2ccc([C@@H](C)C(=O)OCCOC(=O)c3ccc(-c4c5nc(c(-c6cccc(S(=O)(=O)[O-])c6F)c6ccc([nH]6)c(-c6cccc(S(=O)(=O)[O-])c6F)c6nc(c(-c7cccc(S(=O)(=O)[O-])c7F)c7ccc4[nH]7)C=C6)C=C5)cc3)cc2F)c1
REMARK SMILES IDX 21 1 22 2 20 3 17 4 18 5 95 6 19 7 94 8 96 9 16 10 12 11
REMARK SMILES IDX 13 12 97 13 14 14 15 15 11 16 9 17 8 18 10 20 7 21 6 22 5 23
REMARK SMILES IDX 4 24 3 25 2 26 1 27 23 28 24 29 25 30 26 31 27 32 28 33
REMARK SMILES IDX 29 34 30 35 31 36 32 37 93 38 33 39 92 40 34 41 35 42 36 43
REMARK SMILES IDX 86 44 37 45 91 46 85 47 87 48 38 49 90 50 84 51 83 52 39 54
REMARK SMILES IDX 71 55 51 56 70 57 52 58 55 59 69 60 88 61 53 62 54 63 68 65
REMARK SMILES IDX 89 66 56 67 40 68 41 69 49 70 42 71 44 72 50 73 43 74 45 75
REMARK SMILES IDX 46 76 47 77 48 78 72 79 73 80 81 81 74 82 76 83 82 84 75 85
REMARK SMILES IDX 77 86 78 87 79 88 80 89 57 90 58 91 66 92 59 93 61 94 67 95
REMARK SMILES IDX 60 96 62 97 63 98 64 99 65 100
REMARK H PARENT 8 19 87 53 55 64
REMARK Flexibility Score: inf
ROOT
ATOM      1  C   UNL A   1      35.099  32.558  28.519  1.00  0.00     0.126 C 
ATOM      2  C   UNL A   1      36.600  32.516  28.242  1.00  0.00     0.025 C 
ENDROOT
BRANCH   1   3
ATOM      3  C   UNL A   1      34.367  31.377  27.899  1.00  0.00    -0.031 A 
ATOM      4  C   UNL A   1      32.939  29.189  26.757  1.00  0.00     0.018 A 
ATOM      5  C   UNL A   1      34.242  29.030  27.258  1.00  0.00     0.012 A 
ATOM      6  C   UNL A   1      32.380  30.471  26.826  1.00  0.00     0.131 A 
ATOM      7  C   UNL A   1      34.941  30.101  27.828  1.00  0.00     0.005 A 
ATOM      8  C   UNL A   1      33.073  31.547  27.385  1.00  0.00     0.044 A 
ATOM      9  F   UNL A   1      31.131  30.690  26.384  1.00  0.00    -0.206 F 
BRANCH   4  10
ATOM     10  C   UNL A   1      32.194  28.036  26.221  1.00  0.00    -0.012 A 
ATOM     11  C   UNL A   1      31.674  25.666  26.172  1.00  0.00     0.133 A 
ATOM     12  C   UNL A   1      30.768  25.855  25.130  1.00  0.00     0.047 A 
ATOM     13  C   UNL A   1      32.393  26.734  26.711  1.00  0.00     0.056 A 
ATOM     14  C   UNL A   1      30.560  27.137  24.635  1.00  0.00     0.004 A 
ATOM     15  C   UNL A   1      31.267  28.215  25.175  1.00  0.00     0.009 A 
BRANCH  11  16
ATOM     16  O   UNL A   1      31.920  24.336  26.552  1.00  0.00    -0.410 OA
BRANCH  16  17
ATOM     17  C   UNL A   1      30.840  23.473  26.668  1.00  0.00     0.412 C 
ATOM     18  N   UNL A   1      30.971  22.351  25.893  1.00  0.00    -0.321 N 
ATOM     19  H   UNL A   1      30.252  21.683  25.961  1.00  0.00     0.167 HD
ATOM     20  O   UNL A   1      29.839  23.657  27.348  1.00  0.00    -0.224 OA
BRANCH  18  21
ATOM     21  C   UNL A   1      32.058  22.046  24.983  1.00  0.00     0.119 C 
BRANCH  21  22
ATOM     22  C   UNL A   1      31.821  22.604  23.581  1.00  0.00     0.021 C 
BRANCH  22  23
ATOM     23  C   UNL A   1      33.036  23.289  22.942  1.00  0.00     0.002 C 
BRANCH  23  24
ATOM     24  C   UNL A   1      32.774  24.677  22.347  1.00  0.00     0.000 C 
BRANCH  24  25
ATOM     25  C   UNL A   1      33.656  25.805  22.894  1.00  0.00    -0.000 C 
BRANCH  25  26
ATOM     26  C   UNL A   1      33.504  27.157  22.191  1.00  0.00    -0.003 C 
ATOM     27  C   UNL A   1      34.050  28.324  23.000  1.00  0.00     0.004 C 
ENDBRANCH  25  26
ENDBRANCH  24  25
ENDBRANCH  23  24
ENDBRANCH  22  23
ENDBRANCH  21  22
ENDBRANCH  18  21
ENDBRANCH  16  17
ENDBRANCH  11  16
ENDBRANCH   4  10
ENDBRANCH   1   3
BRANCH   1  28
ATOM     28  C   UNL A   1      34.554  33.942  28.189  1.00  0.00     0.313 C 
ATOM     29  O   UNL A   1      34.869  34.535  27.162  1.00  0.00    -0.252 OA
BRANCH  28  30
ATOM     30  O   UNL A   1      33.666  34.418  29.100  1.00  0.00    -0.462 OA
BRANCH  30  31
ATOM     31  C   UNL A   1      33.400  35.833  29.074  1.00  0.00     0.274 C 
BRANCH  31  32
ATOM     32  C   UNL A   1      32.435  36.233  30.192  1.00  0.00     0.275 C 
BRANCH  32  33
ATOM     33  O   UNL A   1      33.125  36.409  31.441  1.00  0.00    -0.458 OA
BRANCH  33  34
ATOM     34  C   UNL A   1      32.948  35.415  32.340  1.00  0.00     0.338 C 
ATOM     35  O   UNL A   1      31.902  35.053  32.849  1.00  0.00    -0.246 OA
BRANCH  34  36
ATOM     36  C   UNL A   1      34.223  34.723  32.558  1.00  0.00     0.060 A 
ATOM     37  C   UNL A   1      34.230  33.549  33.316  1.00  0.00     0.016 A 
ATOM     38  C   UNL A   1      35.412  35.278  32.086  1.00  0.00     0.016 A 
ATOM     39  C   UNL A   1      35.437  32.926  33.624  1.00  0.00     0.010 A 
ATOM     40  C   UNL A   1      36.618  34.647  32.385  1.00  0.00     0.010 A 
ATOM     41  C   UNL A   1      36.639  33.479  33.169  1.00  0.00    -0.014 A 
BRANCH  41  42
ATOM     42  C   UNL A   1      37.940  32.878  33.539  1.00  0.00     0.031 A 
ATOM     43  C   UNL A   1      38.474  31.731  32.731  1.00  0.00     0.074 A 
ATOM     44  C   UNL A   1      38.593  33.313  34.631  1.00  0.00     0.049 A 
ATOM     45  N   UNL A   1      39.479  30.938  32.988  1.00  0.00    -0.248 NA
ATOM     46  C   UNL A   1      37.773  31.430  31.471  1.00  0.00     0.031 C 
ATOM     47  C   UNL A   1      38.172  34.431  35.477  1.00  0.00     0.029 A 
ATOM     48  N   UNL A   1      39.726  32.838  35.242  1.00  0.00    -0.354 N 
ATOM     49  C   UNL A   1      39.500  30.010  31.955  1.00  0.00     0.074 A 
ATOM     50  C   UNL A   1      38.414  30.345  31.060  1.00  0.00     0.031 C 
ATOM     51  C   UNL A   1      39.013  34.530  36.519  1.00  0.00     0.029 A 
ATOM     52  C   UNL A   1      40.001  33.459  36.437  1.00  0.00     0.049 A 
ATOM     53  H   UNL A   1      40.286  32.123  34.860  1.00  0.00     0.167 HD
ATOM     54  C   UNL A   1      40.354  28.976  31.770  1.00  0.00     0.034 A 
ATOM     55  C   UNL A   1      40.920  33.167  37.379  1.00  0.00     0.034 A 
ATOM     56  C   UNL A   1      41.454  28.680  32.646  1.00  0.00     0.049 A 
ATOM     57  C   UNL A   1      41.852  32.006  37.154  1.00  0.00     0.074 A 
ATOM     58  C   UNL A   1      42.405  27.683  32.527  1.00  0.00     0.029 A 
ATOM     59  N   UNL A   1      41.750  29.380  33.807  1.00  0.00    -0.354 N 
ATOM     60  N   UNL A   1      41.917  31.190  36.129  1.00  0.00    -0.248 NA
ATOM     61  C   UNL A   1      42.851  31.740  38.198  1.00  0.00     0.031 C 
ATOM     62  C   UNL A   1      43.269  27.773  33.622  1.00  0.00     0.029 A 
ATOM     63  C   UNL A   1      42.866  28.836  34.414  1.00  0.00     0.049 A 
ATOM     64  H   UNL A   1      41.239  30.150  34.147  1.00  0.00     0.167 HD
ATOM     65  C   UNL A   1      42.984  30.338  36.387  1.00  0.00     0.074 A 
ATOM     66  C   UNL A   1      43.545  30.744  37.661  1.00  0.00     0.031 C 
ATOM     67  C   UNL A   1      43.451  29.304  35.645  1.00  0.00     0.034 A 
BRANCH  54  68
ATOM     68  C   UNL A   1      40.150  28.104  30.561  1.00  0.00     0.023 A 
ATOM     69  C   UNL A   1      39.150  27.111  30.580  1.00  0.00     0.012 A 
ATOM     70  C   UNL A   1      40.904  28.305  29.389  1.00  0.00     0.148 A 
ATOM     71  C   UNL A   1      38.921  26.314  29.458  1.00  0.00     0.002 A 
ATOM     72  C   UNL A   1      40.646  27.531  28.263  1.00  0.00     0.091 A 
ATOM     73  F   UNL A   1      41.867  29.237  29.399  1.00  0.00    -0.205 F 
ATOM     74  C   UNL A   1      39.661  26.530  28.299  1.00  0.00     0.022 A 
BRANCH  72  75
ATOM     75  S   UNL A   1      41.498  27.784  26.702  1.00  0.00     0.127 S 
ATOM     76  O   UNL A   1      40.985  26.673  25.902  1.00  0.00    -0.237 OA
ATOM     77  O   UNL A   1      41.014  29.102  26.293  1.00  0.00    -0.237 OA
ATOM     78  O   UNL A   1      42.921  27.732  27.010  1.00  0.00    -0.744 OA
ENDBRANCH  72  75
ENDBRANCH  54  68
BRANCH  55  79
ATOM     79  C   UNL A   1      41.015  34.008  38.605  1.00  0.00     0.023 A 
ATOM     80  C   UNL A   1      41.948  35.061  38.647  1.00  0.00     0.012 A 
ATOM     81  C   UNL A   1      40.165  33.800  39.710  1.00  0.00     0.148 A 
ATOM     82  C   UNL A   1      42.047  35.879  39.772  1.00  0.00     0.002 A 
ATOM     83  C   UNL A   1      40.232  34.651  40.806  1.00  0.00     0.091 A 
ATOM     84  F   UNL A   1      39.297  32.780  39.661  1.00  0.00    -0.205 F 
ATOM     85  C   UNL A   1      41.183  35.684  40.846  1.00  0.00     0.022 A 
BRANCH  83  86
ATOM     86  S   UNL A   1      39.073  34.549  42.175  1.00  0.00     0.127 S 
ATOM     87  O   UNL A   1      39.502  35.663  43.016  1.00  0.00    -0.237 OA
ATOM     88  O   UNL A   1      37.788  34.745  41.502  1.00  0.00    -0.237 OA
ATOM     89  O   UNL A   1      39.254  33.219  42.740  1.00  0.00    -0.744 OA
ENDBRANCH  83  86
ENDBRANCH  55  79
BRANCH  67  90
ATOM     90  C   UNL A   1      44.657  28.561  36.152  1.00  0.00     0.023 A 
ATOM     91  C   UNL A   1      45.947  29.040  35.856  1.00  0.00     0.012 A 
ATOM     92  C   UNL A   1      44.505  27.460  37.019  1.00  0.00     0.148 A 
ATOM     93  C   UNL A   1      47.071  28.425  36.405  1.00  0.00     0.002 A 
ATOM     94  C   UNL A   1      45.627  26.880  37.596  1.00  0.00     0.091 A 
ATOM     95  F   UNL A   1      43.266  27.013  37.272  1.00  0.00    -0.205 F 
ATOM     96  C   UNL A   1      46.912  27.356  37.284  1.00  0.00     0.022 A 
BRANCH  94  97
ATOM     97  S   UNL A   1      45.514  25.562  38.812  1.00  0.00     0.127 S 
ATOM     98  O   UNL A   1      44.609  26.147  39.801  1.00  0.00    -0.237 OA
ATOM     99  O   UNL A   1      44.937  24.468  38.030  1.00  0.00    -0.237 OA
ATOM    100  O   UNL A   1      46.873  25.322  39.275  1.00  0.00    -0.744 OA
ENDBRANCH  94  97
ENDBRANCH  67  90
ENDBRANCH  41  42
ENDBRANCH  34  36
ENDBRANCH  33  34
ENDBRANCH  32  33
ENDBRANCH  31  32
ENDBRANCH  30  31
ENDBRANCH  28  30
ENDBRANCH   1  28
TORSDOF 24
ENDMDL
MODEL 2
REMARK VINA RESULT:     -10.1      1.329      7.753
REMARK SMILES CCCCCCCNC(=O)Oc1cccc(-c2ccc([C@@H](C)C(=O)OCCOC(=O)c3ccc(-c4c5nc(c(-c6cccc(S(=O)(=O)[O-])c6F)c6ccc([nH]6)c(-c6cccc(S(=O)(=O)[O-])c6F)c6nc(c(-c7cccc(S(=O)(=O)[O-])c7F)c7ccc4[nH]7)C=C6)C=C5)cc3)cc2F)c1
REMARK SMILES IDX 21 1 22 2 20 3 17 4 18 5 95 6 19 7 94 8 96 9 16 10 12 11
REMARK SMILES IDX 13 12 97 13 14 14 15 15 11 16 9 17 8 18 10 20 7 21 6 22 5 23
REMARK SMILES IDX 4 24 3 25 2 26 1 27 23 28 24 29 25 30 26 31 27 32 28 33
REMARK SMILES IDX 29 34 30 35 31 36 32 37 93 38 33 39 92 40 34 41 35 42 36 43
REMARK SMILES IDX 86 44 37 45 91 46 85 47 87 48 38 49 90 50 84 51 83 52 39 54
REMARK SMILES IDX 71 55 51 56 70 57 52 58 55 59 69 60 88 61 53 62 54 63 68 65
REMARK SMILES IDX 89 66 56 67 40 68 41 69 49 70 42 71 44 72 50 73 43 74 45 75
REMARK SMILES IDX 46 76 47 77 48 78 72 79 73 80 81 81 74 82 76 83 82 84 75 85
REMARK SMILES IDX 77 86 78 87 79 88 80 89 57 90 58 91 66 92 59 93 61 94 67 95
REMARK SMILES IDX 60 96 62 97 63 98 64 99 65 100
REMARK H PARENT 8 19 87 53 55 64
REMARK Flexibility Score: inf
ROOT
ATOM      1  C   UNL A   1      34.395  32.644  28.915  1.00  0.00     0.126 C 
ATOM      2  C   UNL A   1      35.858  32.933  29.246  1.00  0.00     0.025 C 
ENDROOT
BRANCH   1   3
ATOM      3  C   UNL A   1      34.239  31.417  28.029  1.00  0.00    -0.031 A 
ATOM      4  C   UNL A   1      33.880  29.120  26.378  1.00  0.00     0.018 A 
ATOM      5  C   UNL A   1      35.070  29.325  27.098  1.00  0.00     0.012 A 
ATOM      6  C   UNL A   1      32.888  30.101  26.491  1.00  0.00     0.131 A 
ATOM      7  C   UNL A   1      35.243  30.448  27.917  1.00  0.00     0.005 A 
ATOM      8  C   UNL A   1      33.055  31.228  27.298  1.00  0.00     0.044 A 
ATOM      9  F   UNL A   1      31.718  29.959  25.846  1.00  0.00    -0.206 F 
BRANCH   4  10
ATOM     10  C   UNL A   1      33.691  27.899  25.574  1.00  0.00    -0.012 A 
ATOM     11  C   UNL A   1      33.291  25.514  25.375  1.00  0.00     0.133 A 
ATOM     12  C   UNL A   1      33.373  25.585  23.986  1.00  0.00     0.047 A 
ATOM     13  C   UNL A   1      33.458  26.649  26.171  1.00  0.00     0.056 A 
ATOM     14  C   UNL A   1      33.601  26.815  23.380  1.00  0.00     0.004 A 
ATOM     15  C   UNL A   1      33.759  27.959  24.168  1.00  0.00     0.009 A 
BRANCH  11  16
ATOM     16  O   UNL A   1      33.167  24.229  25.928  1.00  0.00    -0.410 OA
BRANCH  16  17
ATOM     17  C   UNL A   1      31.934  23.844  26.434  1.00  0.00     0.412 C 
ATOM     18  N   UNL A   1      31.430  22.731  25.816  1.00  0.00    -0.321 N 
ATOM     19  H   UNL A   1      30.574  22.388  26.158  1.00  0.00     0.167 HD
ATOM     20  O   UNL A   1      31.306  24.417  27.314  1.00  0.00    -0.224 OA
BRANCH  18  21
ATOM     21  C   UNL A   1      32.026  22.005  24.712  1.00  0.00     0.119 C 
BRANCH  21  22
ATOM     22  C   UNL A   1      32.839  20.798  25.175  1.00  0.00     0.021 C 
BRANCH  22  23
ATOM     23  C   UNL A   1      32.890  19.631  24.182  1.00  0.00     0.002 C 
BRANCH  23  24
ATOM     24  C   UNL A   1      32.288  18.312  24.680  1.00  0.00     0.000 C 
BRANCH  24  25
ATOM     25  C   UNL A   1      33.297  17.284  25.203  1.00  0.00    -0.000 C 
BRANCH  25  26
ATOM     26  C   UNL A   1      34.552  17.101  24.345  1.00  0.00    -0.003 C 
ATOM     27  C   UNL A   1      34.257  16.605  22.938  1.00  0.00     0.004 C 
ENDBRANCH  25  26
ENDBRANCH  24  25
ENDBRANCH  23  24
ENDBRANCH  22  23
ENDBRANCH  21  22
ENDBRANCH  18  21
ENDBRANCH  16  17
ENDBRANCH  11  16
ENDBRANCH   4  10
ENDBRANCH   1   3
BRANCH   1  28
ATOM     28  C   UNL A   1      33.715  33.919  28.434  1.00  0.00     0.313 C 
ATOM     29  O   UNL A   1      32.628  33.899  27.863  1.00  0.00    -0.252 OA
BRANCH  28  30
ATOM     30  O   UNL A   1      34.393  35.056  28.741  1.00  0.00    -0.462 OA
BRANCH  30  31
ATOM     31  C   UNL A   1      33.677  36.298  28.608  1.00  0.00     0.274 C 
BRANCH  31  32
ATOM     32  C   UNL A   1      32.658  36.469  29.737  1.00  0.00     0.275 C 
BRANCH  32  33
ATOM     33  O   UNL A   1      33.308  36.633  31.008  1.00  0.00    -0.458 OA
BRANCH  33  34
ATOM     34  C   UNL A   1      32.939  35.746  31.960  1.00  0.00     0.338 C 
ATOM     35  O   UNL A   1      31.835  35.606  32.455  1.00  0.00    -0.246 OA
BRANCH  34  36
ATOM     36  C   UNL A   1      34.068  34.858  32.261  1.00  0.00     0.060 A 
ATOM     37  C   UNL A   1      33.806  33.597  32.802  1.00  0.00     0.016 A 
ATOM     38  C   UNL A   1      35.377  35.305  32.086  1.00  0.00     0.016 A 
ATOM     39  C   UNL A   1      34.860  32.774  33.191  1.00  0.00     0.010 A 
ATOM     40  C   UNL A   1      36.431  34.475  32.465  1.00  0.00     0.010 A 
ATOM     41  C   UNL A   1      36.179  33.214  33.034  1.00  0.00    -0.014 A 
BRANCH  41  42
ATOM     42  C   UNL A   1      37.315  32.390  33.502  1.00  0.00     0.031 A 
ATOM     43  C   UNL A   1      38.032  32.777  34.763  1.00  0.00     0.074 A 
ATOM     44  C   UNL A   1      37.740  31.351  32.760  1.00  0.00     0.049 A 
ATOM     45  N   UNL A   1      39.157  32.324  35.246  1.00  0.00    -0.248 NA
ATOM     46  C   UNL A   1      37.400  33.825  35.583  1.00  0.00     0.031 C 
ATOM     47  C   UNL A   1      37.108  30.879  31.528  1.00  0.00     0.029 A 
ATOM     48  N   UNL A   1      38.832  30.534  32.913  1.00  0.00    -0.354 N 
ATOM     49  C   UNL A   1      39.400  33.065  36.395  1.00  0.00     0.074 A 
ATOM     50  C   UNL A   1      38.299  33.992  36.544  1.00  0.00     0.031 C 
ATOM     51  C   UNL A   1      37.844  29.880  31.015  1.00  0.00     0.029 A 
ATOM     52  C   UNL A   1      39.020  29.675  31.856  1.00  0.00     0.049 A 
ATOM     53  H   UNL A   1      39.422  30.561  33.701  1.00  0.00     0.167 HD
ATOM     54  C   UNL A   1      40.447  32.975  37.248  1.00  0.00     0.034 A 
ATOM     55  C   UNL A   1      40.048  28.849  31.577  1.00  0.00     0.034 A 
ATOM     56  C   UNL A   1      41.512  32.021  37.110  1.00  0.00     0.049 A 
ATOM     57  C   UNL A   1      41.203  28.773  32.539  1.00  0.00     0.074 A 
ATOM     58  C   UNL A   1      42.597  31.815  37.944  1.00  0.00     0.029 A 
ATOM     59  N   UNL A   1      41.628  31.112  36.069  1.00  0.00    -0.354 N 
ATOM     60  N   UNL A   1      41.379  29.418  33.667  1.00  0.00    -0.248 NA
ATOM     61  C   UNL A   1      42.290  27.841  32.204  1.00  0.00     0.031 C 
ATOM     62  C   UNL A   1      43.376  30.789  37.399  1.00  0.00     0.029 A 
ATOM     63  C   UNL A   1      42.766  30.345  36.236  1.00  0.00     0.049 A 
ATOM     64  H   UNL A   1      40.994  31.026  35.321  1.00  0.00     0.167 HD
ATOM     65  C   UNL A   1      42.575  28.944  34.196  1.00  0.00     0.074 A 
ATOM     66  C   UNL A   1      43.076  27.950  33.268  1.00  0.00     0.031 C 
ATOM     67  C   UNL A   1      43.207  29.309  35.337  1.00  0.00     0.034 A 
BRANCH  54  68
ATOM     68  C   UNL A   1      40.477  33.913  38.423  1.00  0.00     0.023 A 
ATOM     69  C   UNL A   1      41.207  35.115  38.335  1.00  0.00     0.012 A 
ATOM     70  C   UNL A   1      39.739  33.636  39.590  1.00  0.00     0.148 A 
ATOM     71  C   UNL A   1      41.222  36.015  39.401  1.00  0.00     0.002 A 
ATOM     72  C   UNL A   1      39.729  34.555  40.633  1.00  0.00     0.091 A 
ATOM     73  F   UNL A   1      39.070  32.476  39.665  1.00  0.00    -0.205 F 
ATOM     74  C   UNL A   1      40.477  35.741  40.544  1.00  0.00     0.022 A 
BRANCH  72  75
ATOM     75  S   UNL A   1      38.741  34.322  42.116  1.00  0.00     0.127 S 
ATOM     76  O   UNL A   1      38.108  33.032  41.850  1.00  0.00    -0.237 OA
ATOM     77  O   UNL A   1      39.759  34.295  43.167  1.00  0.00    -0.237 OA
ATOM     78  O   UNL A   1      37.839  35.464  42.178  1.00  0.00    -0.744 OA
ENDBRANCH  72  75
ENDBRANCH  54  68
BRANCH  55  79
ATOM     79  C   UNL A   1      40.010  28.009  30.347  1.00  0.00     0.023 A 
ATOM     80  C   UNL A   1      39.176  26.875  30.312  1.00  0.00     0.012 A 
ATOM     81  C   UNL A   1      40.756  28.347  29.201  1.00  0.00     0.148 A 
ATOM     82  C   UNL A   1      39.103  26.081  29.168  1.00  0.00     0.002 A 
ATOM     83  C   UNL A   1      40.639  27.583  28.046  1.00  0.00     0.091 A 
ATOM     84  F   UNL A   1      41.560  29.419  29.258  1.00  0.00    -0.205 F 
ATOM     85  C   UNL A   1      39.823  26.440  28.032  1.00  0.00     0.022 A 
BRANCH  83  86
ATOM     86  S   UNL A   1      41.431  28.046  26.501  1.00  0.00     0.127 S 
ATOM     87  O   UNL A   1      41.190  26.867  25.675  1.00  0.00    -0.237 OA
ATOM     88  O   UNL A   1      40.671  29.236  26.114  1.00  0.00    -0.237 OA
ATOM     89  O   UNL A   1      42.822  28.312  26.842  1.00  0.00    -0.744 OA
ENDBRANCH  83  86
ENDBRANCH  55  79
BRANCH  67  90
ATOM     90  C   UNL A   1      44.488  28.602  35.689  1.00  0.00     0.023 A 
ATOM     91  C   UNL A   1      45.721  29.153  35.293  1.00  0.00     0.012 A 
ATOM     92  C   UNL A   1      44.470  27.458  36.513  1.00  0.00     0.148 A 
ATOM     93  C   UNL A   1      46.919  28.569  35.701  1.00  0.00     0.002 A 
ATOM     94  C   UNL A   1      45.667  26.906  36.951  1.00  0.00     0.091 A 
ATOM     95  F   UNL A   1      43.282  26.943  36.863  1.00  0.00    -0.205 F 
ATOM     96  C   UNL A   1      46.893  27.455  36.540  1.00  0.00     0.022 A 
BRANCH  94  97
ATOM     97  S   UNL A   1      45.729  25.534  38.108  1.00  0.00     0.127 S 
ATOM     98  O   UNL A   1      44.853  24.558  37.460  1.00  0.00    -0.237 OA
ATOM     99  O   UNL A   1      47.150  25.182  38.094  1.00  0.00    -0.237 OA
ATOM    100  O   UNL A   1      45.249  26.056  39.379  1.00  0.00    -0.744 OA
ENDBRANCH  94  97
ENDBRANCH  67  90
ENDBRANCH  41  42
ENDBRANCH  34  36
ENDBRANCH  33  34
ENDBRANCH  32  33
ENDBRANCH  31  32
ENDBRANCH  30  31
ENDBRANCH  28  30
ENDBRANCH   1  28
TORSDOF 24
ENDMDL
MODEL 3
REMARK VINA RESULT:      -9.8      1.301      7.705
REMARK SMILES CCCCCCCNC(=O)Oc1cccc(-c2ccc([C@@H](C)C(=O)OCCOC(=O)c3ccc(-c4c5nc(c(-c6cccc(S(=O)(=O)[O-])c6F)c6ccc([nH]6)c(-c6cccc(S(=O)(=O)[O-])c6F)c6nc(c(-c7cccc(S(=O)(=O)[O-])c7F)c7ccc4[nH]7)C=C6)C=C5)cc3)cc2F)c1
REMARK SMILES IDX 21 1 22 2 20 3 17 4 18 5 95 6 19 7 94 8 96 9 16 10 12 11
REMARK SMILES IDX 13 12 97 13 14 14 15 15 11 16 9 17 8 18 10 20 7 21 6 22 5 23
REMARK SMILES IDX 4 24 3 25 2 26 1 27 23 28 24 29 25 30 26 31 27 32 28 33
REMARK SMILES IDX 29 34 30 35 31 36 32 37 93 38 33 39 92 40 34 41 35 42 36 43
REMARK SMILES IDX 86 44 37 45 91 46 85 47 87 48 38 49 90 50 84 51 83 52 39 54
REMARK SMILES IDX 71 55 51 56 70 57 52 58 55 59 69 60 88 61 53 62 54 63 68 65
REMARK SMILES IDX 89 66 56 67 40 68 41 69 49 70 42 71 44 72 50 73 43 74 45 75
REMARK SMILES IDX 46 76 47 77 48 78 72 79 73 80 81 81 74 82 76 83 82 84 75 85
REMARK SMILES IDX 77 86 78 87 79 88 80 89 57 90 58 91 66 92 59 93 61 94 67 95
REMARK SMILES IDX 60 96 62 97 63 98 64 99 65 100
REMARK H PARENT 8 19 87 53 55 64
REMARK Flexibility Score: inf
ROOT
ATOM      1  C   UNL A   1      34.734  32.935  28.833  1.00  0.00     0.126 C 
ATOM      2  C   UNL A   1      36.230  33.228  28.739  1.00  0.00     0.025 C 
ENDROOT
BRANCH   1   3
ATOM      3  C   UNL A   1      34.367  31.612  28.177  1.00  0.00    -0.031 A 
ATOM      4  C   UNL A   1      33.614  29.143  26.965  1.00  0.00     0.018 A 
ATOM      5  C   UNL A   1      34.880  29.314  27.551  1.00  0.00     0.012 A 
ATOM      6  C   UNL A   1      32.747  30.242  26.985  1.00  0.00     0.131 A 
ATOM      7  C   UNL A   1      35.247  30.523  28.155  1.00  0.00     0.005 A 
ATOM      8  C   UNL A   1      33.107  31.454  27.578  1.00  0.00     0.044 A 
ATOM      9  F   UNL A   1      31.514  30.142  26.461  1.00  0.00    -0.206 F 
BRANCH   4  10
ATOM     10  C   UNL A   1      33.222  27.843  26.392  1.00  0.00    -0.012 A 
ATOM     11  C   UNL A   1      33.446  26.083  24.737  1.00  0.00     0.133 A 
ATOM     12  C   UNL A   1      32.402  25.364  25.315  1.00  0.00     0.047 A 
ATOM     13  C   UNL A   1      33.852  27.315  25.253  1.00  0.00     0.056 A 
ATOM     14  C   UNL A   1      31.769  25.872  26.443  1.00  0.00     0.004 A 
ATOM     15  C   UNL A   1      32.175  27.099  26.974  1.00  0.00     0.009 A 
BRANCH  11  16
ATOM     16  O   UNL A   1      33.970  25.570  23.539  1.00  0.00    -0.410 OA
BRANCH  16  17
ATOM     17  C   UNL A   1      33.236  24.612  22.854  1.00  0.00     0.412 C 
ATOM     18  N   UNL A   1      32.318  25.158  21.996  1.00  0.00    -0.321 N 
ATOM     19  H   UNL A   1      31.792  24.527  21.455  1.00  0.00     0.167 HD
ATOM     20  O   UNL A   1      33.333  23.399  22.986  1.00  0.00    -0.224 OA
BRANCH  18  21
ATOM     21  C   UNL A   1      32.042  26.568  21.803  1.00  0.00     0.119 C 
BRANCH  21  22
ATOM     22  C   UNL A   1      30.634  26.955  22.253  1.00  0.00     0.021 C 
BRANCH  22  23
ATOM     23  C   UNL A   1      30.574  27.858  23.491  1.00  0.00     0.002 C 
BRANCH  23  24
ATOM     24  C   UNL A   1      30.776  29.354  23.227  1.00  0.00     0.000 C 
BRANCH  24  25
ATOM     25  C   UNL A   1      29.608  30.259  23.636  1.00  0.00    -0.000 C 
BRANCH  25  26
ATOM     26  C   UNL A   1      28.251  29.892  23.030  1.00  0.00    -0.003 C 
ATOM     27  C   UNL A   1      28.142  30.219  21.548  1.00  0.00     0.004 C 
ENDBRANCH  25  26
ENDBRANCH  24  25
ENDBRANCH  23  24
ENDBRANCH  22  23
ENDBRANCH  21  22
ENDBRANCH  18  21
ENDBRANCH  16  17
ENDBRANCH  11  16
ENDBRANCH   4  10
ENDBRANCH   1   3
BRANCH   1  28
ATOM     28  C   UNL A   1      33.942  34.157  28.385  1.00  0.00     0.313 C 
ATOM     29  O   UNL A   1      32.754  34.086  28.086  1.00  0.00    -0.252 OA
BRANCH  28  30
ATOM     30  O   UNL A   1      34.656  35.312  28.399  1.00  0.00    -0.462 OA
BRANCH  30  31
ATOM     31  C   UNL A   1      33.905  36.542  28.401  1.00  0.00     0.274 C 
BRANCH  31  32
ATOM     32  C   UNL A   1      32.851  36.542  29.510  1.00  0.00     0.275 C 
BRANCH  32  33
ATOM     33  O   UNL A   1      33.461  36.583  30.811  1.00  0.00    -0.458 OA
BRANCH  33  34
ATOM     34  C   UNL A   1      32.971  35.693  31.703  1.00  0.00     0.338 C 
ATOM     35  O   UNL A   1      31.802  35.453  31.945  1.00  0.00    -0.246 OA
BRANCH  34  36
ATOM     36  C   UNL A   1      34.081  34.941  32.298  1.00  0.00     0.060 A 
ATOM     37  C   UNL A   1      35.391  35.321  31.993  1.00  0.00     0.016 A 
ATOM     38  C   UNL A   1      33.825  33.818  33.084  1.00  0.00     0.016 A 
ATOM     39  C   UNL A   1      36.462  34.565  32.463  1.00  0.00     0.010 A 
ATOM     40  C   UNL A   1      34.899  33.068  33.562  1.00  0.00     0.010 A 
ATOM     41  C   UNL A   1      36.221  33.427  33.241  1.00  0.00    -0.014 A 
BRANCH  41  42
ATOM     42  C   UNL A   1      37.335  32.566  33.694  1.00  0.00     0.031 A 
ATOM     43  C   UNL A   1      38.084  32.932  34.943  1.00  0.00     0.074 A 
ATOM     44  C   UNL A   1      37.713  31.512  32.949  1.00  0.00     0.049 A 
ATOM     45  N   UNL A   1      39.200  32.442  35.410  1.00  0.00    -0.248 NA
ATOM     46  C   UNL A   1      37.501  34.004  35.768  1.00  0.00     0.031 C 
ATOM     47  C   UNL A   1      37.047  31.058  31.729  1.00  0.00     0.029 A 
ATOM     48  N   UNL A   1      38.779  30.658  33.088  1.00  0.00    -0.354 N 
ATOM     49  C   UNL A   1      39.486  33.178  36.552  1.00  0.00     0.074 A 
ATOM     50  C   UNL A   1      38.420  34.142  36.715  1.00  0.00     0.031 C 
ATOM     51  C   UNL A   1      37.740  30.033  31.208  1.00  0.00     0.029 A 
ATOM     52  C   UNL A   1      38.921  29.790  32.031  1.00  0.00     0.049 A 
ATOM     53  H   UNL A   1      39.381  30.667  33.867  1.00  0.00     0.167 HD
ATOM     54  C   UNL A   1      40.542  33.054  37.390  1.00  0.00     0.034 A 
ATOM     55  C   UNL A   1      39.915  28.928  31.740  1.00  0.00     0.034 A 
ATOM     56  C   UNL A   1      41.572  32.064  37.239  1.00  0.00     0.049 A 
ATOM     57  C   UNL A   1      41.082  28.815  32.684  1.00  0.00     0.074 A 
ATOM     58  C   UNL A   1      42.662  31.823  38.057  1.00  0.00     0.029 A 
ATOM     59  N   UNL A   1      41.641  31.148  36.199  1.00  0.00    -0.354 N 
ATOM     60  N   UNL A   1      41.297  29.457  33.808  1.00  0.00    -0.248 NA
ATOM     61  C   UNL A   1      42.132  27.845  32.336  1.00  0.00     0.031 C 
ATOM     62  C   UNL A   1      43.396  30.770  37.504  1.00  0.00     0.029 A 
ATOM     63  C   UNL A   1      42.755  30.343  36.352  1.00  0.00     0.049 A 
ATOM     64  H   UNL A   1      40.992  31.082  35.461  1.00  0.00     0.167 HD
ATOM     65  C   UNL A   1      42.484  28.944  34.319  1.00  0.00     0.074 A 
ATOM     66  C   UNL A   1      42.937  27.930  33.388  1.00  0.00     0.031 C 
ATOM     67  C   UNL A   1      43.146  29.290  35.450  1.00  0.00     0.034 A 
BRANCH  54  68
ATOM     68  C   UNL A   1      40.622  33.994  38.562  1.00  0.00     0.023 A 
ATOM     69  C   UNL A   1      41.395  35.168  38.460  1.00  0.00     0.012 A 
ATOM     70  C   UNL A   1      39.889  33.748  39.739  1.00  0.00     0.148 A 
ATOM     71  C   UNL A   1      41.457  36.071  39.522  1.00  0.00     0.002 A 
ATOM     72  C   UNL A   1      39.927  34.670  40.779  1.00  0.00     0.091 A 
ATOM     73  F   UNL A   1      39.180  32.614  39.826  1.00  0.00    -0.205 F 
ATOM     74  C   UNL A   1      40.717  35.827  40.676  1.00  0.00     0.022 A 
BRANCH  72  75
ATOM     75  S   UNL A   1      38.951  34.478  42.275  1.00  0.00     0.127 S 
ATOM     76  O   UNL A   1      38.388  35.817  42.434  1.00  0.00    -0.237 OA
ATOM     77  O   UNL A   1      37.984  33.453  41.886  1.00  0.00    -0.237 OA
ATOM     78  O   UNL A   1      39.887  34.063  43.312  1.00  0.00    -0.744 OA
ENDBRANCH  72  75
ENDBRANCH  54  68
BRANCH  55  79
ATOM     79  C   UNL A   1      39.830  28.087  30.513  1.00  0.00     0.023 A 
ATOM     80  C   UNL A   1      38.986  26.960  30.508  1.00  0.00     0.012 A 
ATOM     81  C   UNL A   1      40.542  28.416  29.343  1.00  0.00     0.148 A 
ATOM     82  C   UNL A   1      38.868  26.165  29.368  1.00  0.00     0.002 A 
ATOM     83  C   UNL A   1      40.380  27.650  28.194  1.00  0.00     0.091 A 
ATOM     84  F   UNL A   1      41.356  29.480  29.372  1.00  0.00    -0.205 F 
ATOM     85  C   UNL A   1      39.554  26.515  28.209  1.00  0.00     0.022 A 
BRANCH  83  86
ATOM     86  S   UNL A   1      41.126  28.104  26.623  1.00  0.00     0.127 S 
ATOM     87  O   UNL A   1      40.272  29.207  26.193  1.00  0.00    -0.237 OA
ATOM     88  O   UNL A   1      42.478  28.493  27.028  1.00  0.00    -0.237 OA
ATOM     89  O   UNL A   1      41.072  26.899  25.805  1.00  0.00    -0.744 OA
ENDBRANCH  83  86
ENDBRANCH  55  79
BRANCH  67  90
ATOM     90  C   UNL A   1      44.407  28.541  35.785  1.00  0.00     0.023 A 
ATOM     91  C   UNL A   1      45.645  29.005  35.302  1.00  0.00     0.012 A 
ATOM     92  C   UNL A   1      44.374  27.448  36.675  1.00  0.00     0.148 A 
ATOM     93  C   UNL A   1      46.832  28.386  35.689  1.00  0.00     0.002 A 
ATOM     94  C   UNL A   1      45.563  26.863  37.090  1.00  0.00     0.091 A 
ATOM     95  F   UNL A   1      43.181  27.014  37.108  1.00  0.00    -0.205 F 
ATOM     96  C   UNL A   1      46.792  27.325  36.592  1.00  0.00     0.022 A 
BRANCH  94  97
ATOM     97  S   UNL A   1      45.615  25.557  38.322  1.00  0.00     0.127 S 
ATOM     98  O   UNL A   1      47.049  25.462  38.595  1.00  0.00    -0.237 OA
ATOM     99  O   UNL A   1      44.824  26.127  39.412  1.00  0.00    -0.237 OA
ATOM    100  O   UNL A   1      45.022  24.385  37.693  1.00  0.00    -0.744 OA
ENDBRANCH  94  97
ENDBRANCH  67  90
ENDBRANCH  41  42
ENDBRANCH  34  36
ENDBRANCH  33  34
ENDBRANCH  32  33
ENDBRANCH  31  32
ENDBRANCH  30  31
ENDBRANCH  28  30
ENDBRANCH   1  28
TORSDOF 24
ENDMDL
