MODEL 1
REMARK VINA RESULT:     -14.3      0.000      0.000
REMARK SMILES O=C(OCCOC(=O)c1ccc(-c2c3nc(c(-c4cccc(S(=O)(=O)[O-])c4F)c4ccc([nH]4)c(-c4cccc(S(=O)(=O)[O-])c4F)c4nc(c(-c5cccc(S(=O)(=O)[O-])c5F)c5ccc2[nH]5)C=C4)C=C3)cc1)C1=Cc2cc(Cl)c(Cl)c(Cl)c2O[C@@H]1C(F)(F)F
REMARK SMILES IDX 5 1 4 2 3 3 2 4 1 5 72 6 73 7 84 8 74 9 83 10 75 11 82 12
REMARK SMILES IDX 76 13 80 14 77 15 78 16 81 17 79 18 85 19 86 20 87 21 88 22
REMARK SMILES IDX 6 23 7 24 8 25 9 26 10 27 71 28 11 29 70 30 12 31 13 32
REMARK SMILES IDX 14 33 64 34 15 35 69 36 63 37 65 38 16 39 68 40 62 41 61 42
REMARK SMILES IDX 17 44 49 45 29 46 48 47 30 48 33 49 47 50 66 51 31 52 32 53
REMARK SMILES IDX 46 55 67 56 34 57 18 58 19 59 27 60 20 61 22 62 28 63 21 64
REMARK SMILES IDX 23 65 24 66 25 67 26 68 50 69 51 70 59 71 52 72 54 73 60 74
REMARK SMILES IDX 53 75 55 76 56 77 57 78 58 79 35 80 36 81 44 82 37 83 39 84
REMARK SMILES IDX 45 85 38 86 40 87 41 88 42 89 43 90
REMARK H PARENT 65 43 33 54
REMARK Flexibility Score: inf
ROOT
ATOM      1  C   UNL A   1      31.374  31.938  26.387  1.00  0.00     0.275 C 
ENDROOT
BRANCH   1   2
ATOM      2  C   UNL A   1      31.374  30.024  25.335  1.00  0.00     0.275 C 
BRANCH   2   3
ATOM      3  O   UNL A   1      31.744  28.673  25.900  1.00  0.00    -0.459 OA
BRANCH   3   4
ATOM      4  C   UNL A   1      31.520  27.690  25.025  1.00  0.00     0.338 C 
ATOM      5  O   UNL A   1      30.482  27.115  24.811  1.00  0.00    -0.246 OA
BRANCH   4   6
ATOM      6  C   UNL A   1      32.907  27.261  24.858  1.00  0.00     0.087 C 
ATOM      7  C   UNL A   1      33.384  26.269  25.789  1.00  0.00     0.027 C 
ATOM      8  C   UNL A   1      32.652  26.974  22.980  1.00  0.00     0.316 C 
ATOM      9  C   UNL A   1      33.570  24.547  25.417  1.00  0.00     0.020 A 
ATOM     10  O   UNL A   1      32.700  25.066  22.559  1.00  0.00    -0.474 OA
ATOM     11  C   UNL A   1      33.895  23.729  26.456  1.00  0.00     0.034 A 
ATOM     12  C   UNL A   1      33.126  23.864  23.891  1.00  0.00     0.148 A 
ATOM     13  C   UNL A   1      33.740  22.360  26.199  1.00  0.00     0.062 A 
ATOM     14  C   UNL A   1      32.979  22.511  23.727  1.00  0.00     0.103 A 
ATOM     15  Cl  UNL A   1      34.101  21.358  27.585  1.00  0.00    -0.083 Cl
ATOM     16  C   UNL A   1      33.274  21.774  24.924  1.00  0.00     0.082 A 
ATOM     17  Cl  UNL A   1      32.386  21.808  22.290  1.00  0.00    -0.079 Cl
ATOM     18  Cl  UNL A   1      32.997  20.041  24.926  1.00  0.00    -0.081 Cl
BRANCH   8  19
ATOM     19  C   UNL A   1      33.657  28.280  22.723  1.00  0.00     0.430 C 
ATOM     20  F   UNL A   1      34.263  28.187  21.535  1.00  0.00    -0.167 F 
ATOM     21  F   UNL A   1      32.929  29.436  22.579  1.00  0.00    -0.167 F 
ATOM     22  F   UNL A   1      34.519  28.633  23.692  1.00  0.00    -0.167 F 
ENDBRANCH   8  19
ENDBRANCH   4   6
ENDBRANCH   3   4
ENDBRANCH   2   3
ENDBRANCH   1   2
BRANCH   1  23
ATOM     23  O   UNL A   1      32.604  32.379  27.574  1.00  0.00    -0.458 OA
BRANCH  23  24
ATOM     24  C   UNL A   1      33.609  33.307  27.815  1.00  0.00     0.338 C 
ATOM     25  O   UNL A   1      33.523  34.451  28.231  1.00  0.00    -0.246 OA
BRANCH  24  26
ATOM     26  C   UNL A   1      34.892  32.542  27.950  1.00  0.00     0.060 A 
ATOM     27  C   UNL A   1      36.096  33.261  28.122  1.00  0.00     0.016 A 
ATOM     28  C   UNL A   1      34.837  31.193  28.294  1.00  0.00     0.016 A 
ATOM     29  C   UNL A   1      37.167  32.677  28.831  1.00  0.00     0.010 A 
ATOM     30  C   UNL A   1      35.887  30.630  29.027  1.00  0.00     0.010 A 
ATOM     31  C   UNL A   1      37.036  31.380  29.351  1.00  0.00    -0.014 A 
BRANCH  31  32
ATOM     32  C   UNL A   1      38.211  30.664  29.913  1.00  0.00     0.031 A 
ATOM     33  C   UNL A   1      38.528  31.044  31.329  1.00  0.00     0.074 A 
ATOM     34  C   UNL A   1      39.011  29.813  29.235  1.00  0.00     0.049 A 
ATOM     35  N   UNL A   1      39.515  30.678  32.096  1.00  0.00    -0.248 NA
ATOM     36  C   UNL A   1      37.610  32.023  31.943  1.00  0.00     0.031 C 
ATOM     37  C   UNL A   1      38.846  29.383  27.846  1.00  0.00     0.029 A 
ATOM     38  N   UNL A   1      40.159  29.164  29.640  1.00  0.00    -0.354 N 
ATOM     39  C   UNL A   1      39.349  31.411  33.262  1.00  0.00     0.074 A 
ATOM     40  C   UNL A   1      38.229  32.298  33.071  1.00  0.00     0.031 C 
ATOM     41  C   UNL A   1      39.853  28.545  27.518  1.00  0.00     0.029 A 
ATOM     42  C   UNL A   1      40.749  28.387  28.664  1.00  0.00     0.049 A 
ATOM     43  H   UNL A   1      40.529  29.248  30.549  1.00  0.00     0.167 HD
ATOM     44  C   UNL A   1      40.038  31.332  34.418  1.00  0.00     0.034 A 
ATOM     45  C   UNL A   1      41.874  27.636  28.707  1.00  0.00     0.034 A 
ATOM     46  C   UNL A   1      41.157  30.465  34.603  1.00  0.00     0.049 A 
ATOM     47  C   UNL A   1      42.658  27.578  30.003  1.00  0.00     0.074 A 
ATOM     48  C   UNL A   1      41.920  30.275  35.736  1.00  0.00     0.029 A 
ATOM     49  N   UNL A   1      41.691  29.662  33.606  1.00  0.00    -0.354 N 
ATOM     50  N   UNL A   1      42.415  28.174  31.147  1.00  0.00    -0.248 NA
ATOM     51  C   UNL A   1      43.852  26.716  30.028  1.00  0.00     0.031 C 
ATOM     52  C   UNL A   1      42.954  29.394  35.408  1.00  0.00     0.029 A 
ATOM     53  C   UNL A   1      42.788  28.982  34.094  1.00  0.00     0.049 A 
ATOM     54  H   UNL A   1      41.340  29.589  32.690  1.00  0.00     0.167 HD
ATOM     55  C   UNL A   1      43.382  27.717  32.038  1.00  0.00     0.074 A 
ATOM     56  C   UNL A   1      44.218  26.791  31.302  1.00  0.00     0.031 C 
ATOM     57  C   UNL A   1      43.566  28.027  33.347  1.00  0.00     0.034 A 
BRANCH  44  58
ATOM     58  C   UNL A   1      39.579  32.237  35.525  1.00  0.00     0.023 A 
ATOM     59  C   UNL A   1      38.567  31.810  36.415  1.00  0.00     0.012 A 
ATOM     60  C   UNL A   1      40.080  33.545  35.619  1.00  0.00     0.148 A 
ATOM     61  C   UNL A   1      38.007  32.701  37.328  1.00  0.00     0.002 A 
ATOM     62  C   UNL A   1      39.565  34.404  36.577  1.00  0.00     0.091 A 
ATOM     63  F   UNL A   1      41.011  33.937  34.739  1.00  0.00    -0.205 F 
ATOM     64  C   UNL A   1      38.511  33.995  37.412  1.00  0.00     0.022 A 
BRANCH  62  65
ATOM     65  S   UNL A   1      40.203  36.062  36.821  1.00  0.00     0.127 S 
ATOM     66  O   UNL A   1      39.430  36.508  37.979  1.00  0.00    -0.237 OA
ATOM     67  O   UNL A   1      41.616  35.801  37.092  1.00  0.00    -0.237 OA
ATOM     68  O   UNL A   1      39.941  36.782  35.583  1.00  0.00    -0.744 OA
ENDBRANCH  62  65
ENDBRANCH  44  58
BRANCH  45  69
ATOM     69  C   UNL A   1      42.315  26.814  27.532  1.00  0.00     0.023 A 
ATOM     70  C   UNL A   1      42.966  27.442  26.448  1.00  0.00     0.012 A 
ATOM     71  C   UNL A   1      42.063  25.430  27.456  1.00  0.00     0.148 A 
ATOM     72  C   UNL A   1      43.321  26.722  25.303  1.00  0.00     0.002 A 
ATOM     73  C   UNL A   1      42.461  24.707  26.332  1.00  0.00     0.091 A 
ATOM     74  F   UNL A   1      41.429  24.846  28.481  1.00  0.00    -0.205 F 
ATOM     75  C   UNL A   1      43.076  25.355  25.248  1.00  0.00     0.022 A 
BRANCH  73  76
ATOM     76  S   UNL A   1      42.268  22.925  26.196  1.00  0.00     0.127 S 
ATOM     77  O   UNL A   1      40.818  22.770  26.295  1.00  0.00    -0.237 OA
ATOM     78  O   UNL A   1      42.824  22.665  24.868  1.00  0.00    -0.237 OA
ATOM     79  O   UNL A   1      43.032  22.356  27.298  1.00  0.00    -0.744 OA
ENDBRANCH  73  76
ENDBRANCH  45  69
BRANCH  57  80
ATOM     80  C   UNL A   1      44.651  27.309  34.105  1.00  0.00     0.023 A 
ATOM     81  C   UNL A   1      45.963  27.817  34.137  1.00  0.00     0.012 A 
ATOM     82  C   UNL A   1      44.324  26.183  34.888  1.00  0.00     0.148 A 
ATOM     83  C   UNL A   1      46.941  27.193  34.912  1.00  0.00     0.002 A 
ATOM     84  C   UNL A   1      45.286  25.606  35.704  1.00  0.00     0.091 A 
ATOM     85  F   UNL A   1      43.070  25.710  34.833  1.00  0.00    -0.205 F 
ATOM     86  C   UNL A   1      46.599  26.100  35.706  1.00  0.00     0.022 A 
BRANCH  84  87
ATOM     87  S   UNL A   1      44.900  24.276  36.847  1.00  0.00     0.127 S 
ATOM     88  O   UNL A   1      43.863  24.887  37.675  1.00  0.00    -0.237 OA
ATOM     89  O   UNL A   1      44.424  23.225  35.948  1.00  0.00    -0.237 OA
ATOM     90  O   UNL A   1      46.144  23.961  37.538  1.00  0.00    -0.744 OA
ENDBRANCH  84  87
ENDBRANCH  57  80
ENDBRANCH  31  32
ENDBRANCH  24  26
ENDBRANCH  23  24
ENDBRANCH   1  23
TORSDOF 15
ENDMDL
MODEL 2
REMARK VINA RESULT:     -14.0      1.624      1.830
REMARK SMILES O=C(OCCOC(=O)c1ccc(-c2c3nc(c(-c4cccc(S(=O)(=O)[O-])c4F)c4ccc([nH]4)c(-c4cccc(S(=O)(=O)[O-])c4F)c4nc(c(-c5cccc(S(=O)(=O)[O-])c5F)c5ccc2[nH]5)C=C4)C=C3)cc1)C1=Cc2cc(Cl)c(Cl)c(Cl)c2O[C@@H]1C(F)(F)F
REMARK SMILES IDX 5 1 4 2 3 3 2 4 1 5 72 6 73 7 84 8 74 9 83 10 75 11 82 12
REMARK SMILES IDX 76 13 80 14 77 15 78 16 81 17 79 18 85 19 86 20 87 21 88 22
REMARK SMILES IDX 6 23 7 24 8 25 9 26 10 27 71 28 11 29 70 30 12 31 13 32
REMARK SMILES IDX 14 33 64 34 15 35 69 36 63 37 65 38 16 39 68 40 62 41 61 42
REMARK SMILES IDX 17 44 49 45 29 46 48 47 30 48 33 49 47 50 66 51 31 52 32 53
REMARK SMILES IDX 46 55 67 56 34 57 18 58 19 59 27 60 20 61 22 62 28 63 21 64
REMARK SMILES IDX 23 65 24 66 25 67 26 68 50 69 51 70 59 71 52 72 54 73 60 74
REMARK SMILES IDX 53 75 55 76 56 77 57 78 58 79 35 80 36 81 44 82 37 83 39 84
REMARK SMILES IDX 45 85 38 86 40 87 41 88 42 89 43 90
REMARK H PARENT 65 43 33 54
REMARK Flexibility Score: inf
ROOT
ATOM      1  C   UNL A   1      31.450  31.186  26.710  1.00  0.00     0.275 C 
ENDROOT
BRANCH   1   2
ATOM      2  C   UNL A   1      31.686  29.088  27.272  1.00  0.00     0.275 C 
BRANCH   2   3
ATOM      3  O   UNL A   1      32.730  28.121  26.767  1.00  0.00    -0.459 OA
BRANCH   3   4
ATOM      4  C   UNL A   1      32.182  27.000  26.292  1.00  0.00     0.338 C 
ATOM      5  O   UNL A   1      31.508  26.198  26.890  1.00  0.00    -0.246 OA
BRANCH   4   6
ATOM      6  C   UNL A   1      33.037  26.849  25.118  1.00  0.00     0.087 C 
ATOM      7  C   UNL A   1      34.289  26.166  25.324  1.00  0.00     0.027 C 
ATOM      8  C   UNL A   1      31.578  26.180  24.071  1.00  0.00     0.316 C 
ATOM      9  C   UNL A   1      34.604  24.482  24.868  1.00  0.00     0.020 A 
ATOM     10  O   UNL A   1      31.822  24.280  23.678  1.00  0.00    -0.474 OA
ATOM     11  C   UNL A   1      35.793  23.954  25.267  1.00  0.00     0.034 A 
ATOM     12  C   UNL A   1      33.395  23.457  24.177  1.00  0.00     0.148 A 
ATOM     13  C   UNL A   1      35.884  22.559  25.159  1.00  0.00     0.062 A 
ATOM     14  C   UNL A   1      33.554  22.096  24.123  1.00  0.00     0.103 A 
ATOM     15  Cl  UNL A   1      37.402  21.923  25.750  1.00  0.00    -0.083 Cl
ATOM     16  C   UNL A   1      34.818  21.667  24.652  1.00  0.00     0.082 A 
ATOM     17  Cl  UNL A   1      32.323  21.036  23.603  1.00  0.00    -0.079 Cl
ATOM     18  Cl  UNL A   1      35.124  19.945  24.790  1.00  0.00    -0.081 Cl
BRANCH   8  19
ATOM     19  C   UNL A   1      31.654  27.599  23.198  1.00  0.00     0.430 C 
ATOM     20  F   UNL A   1      32.832  27.713  22.576  1.00  0.00    -0.167 F 
ATOM     21  F   UNL A   1      30.778  27.569  22.140  1.00  0.00    -0.167 F 
ATOM     22  F   UNL A   1      31.299  28.747  23.798  1.00  0.00    -0.167 F 
ENDBRANCH   8  19
ENDBRANCH   4   6
ENDBRANCH   3   4
ENDBRANCH   2   3
ENDBRANCH   1   2
BRANCH   1  23
ATOM     23  O   UNL A   1      32.762  32.361  26.820  1.00  0.00    -0.458 OA
BRANCH  23  24
ATOM     24  C   UNL A   1      33.540  33.049  27.743  1.00  0.00     0.338 C 
ATOM     25  O   UNL A   1      33.200  33.856  28.592  1.00  0.00    -0.246 OA
BRANCH  24  26
ATOM     26  C   UNL A   1      34.829  32.294  27.881  1.00  0.00     0.060 A 
ATOM     27  C   UNL A   1      36.028  33.025  28.041  1.00  0.00     0.016 A 
ATOM     28  C   UNL A   1      34.787  30.948  28.237  1.00  0.00     0.016 A 
ATOM     29  C   UNL A   1      37.106  32.455  28.751  1.00  0.00     0.010 A 
ATOM     30  C   UNL A   1      35.844  30.401  28.971  1.00  0.00     0.010 A 
ATOM     31  C   UNL A   1      36.988  31.163  29.284  1.00  0.00    -0.014 A 
BRANCH  31  32
ATOM     32  C   UNL A   1      38.170  30.461  29.848  1.00  0.00     0.031 A 
ATOM     33  C   UNL A   1      38.482  30.846  31.264  1.00  0.00     0.074 A 
ATOM     34  C   UNL A   1      38.981  29.618  29.171  1.00  0.00     0.049 A 
ATOM     35  N   UNL A   1      39.472  30.493  32.031  1.00  0.00    -0.248 NA
ATOM     36  C   UNL A   1      37.552  31.815  31.875  1.00  0.00     0.031 C 
ATOM     37  C   UNL A   1      38.823  29.185  27.783  1.00  0.00     0.029 A 
ATOM     38  N   UNL A   1      40.137  28.984  29.578  1.00  0.00    -0.354 N 
ATOM     39  C   UNL A   1      39.297  31.225  33.196  1.00  0.00     0.074 A 
ATOM     40  C   UNL A   1      38.167  32.098  33.003  1.00  0.00     0.031 C 
ATOM     41  C   UNL A   1      39.839  28.359  27.456  1.00  0.00     0.029 A 
ATOM     42  C   UNL A   1      40.736  28.212  28.603  1.00  0.00     0.049 A 
ATOM     43  H   UNL A   1      40.504  29.073  30.487  1.00  0.00     0.167 HD
ATOM     44  C   UNL A   1      39.985  31.156  34.353  1.00  0.00     0.034 A 
ATOM     45  C   UNL A   1      41.870  27.475  28.648  1.00  0.00     0.034 A 
ATOM     46  C   UNL A   1      41.115  30.302  34.540  1.00  0.00     0.049 A 
ATOM     47  C   UNL A   1      42.654  27.428  29.945  1.00  0.00     0.074 A 
ATOM     48  C   UNL A   1      41.878  30.122  35.674  1.00  0.00     0.029 A 
ATOM     49  N   UNL A   1      41.659  29.504  33.545  1.00  0.00    -0.354 N 
ATOM     50  N   UNL A   1      42.402  28.022  31.088  1.00  0.00    -0.248 NA
ATOM     51  C   UNL A   1      43.858  26.579  29.972  1.00  0.00     0.031 C 
ATOM     52  C   UNL A   1      42.923  29.253  35.348  1.00  0.00     0.029 A 
ATOM     53  C   UNL A   1      42.763  28.837  34.034  1.00  0.00     0.049 A 
ATOM     54  H   UNL A   1      41.310  29.426  32.628  1.00  0.00     0.167 HD
ATOM     55  C   UNL A   1      43.374  27.577  31.981  1.00  0.00     0.074 A 
ATOM     56  C   UNL A   1      44.221  26.661  31.246  1.00  0.00     0.031 C 
ATOM     57  C   UNL A   1      43.553  27.891  33.289  1.00  0.00     0.034 A 
BRANCH  44  58
ATOM     58  C   UNL A   1      39.515  32.056  35.459  1.00  0.00     0.023 A 
ATOM     59  C   UNL A   1      40.000  33.380  35.549  1.00  0.00     0.012 A 
ATOM     60  C   UNL A   1      38.671  31.556  36.463  1.00  0.00     0.148 A 
ATOM     61  C   UNL A   1      39.715  34.163  36.665  1.00  0.00     0.002 A 
ATOM     62  C   UNL A   1      38.335  32.366  37.536  1.00  0.00     0.091 A 
ATOM     63  F   UNL A   1      38.255  30.285  36.374  1.00  0.00    -0.205 F 
ATOM     64  C   UNL A   1      38.878  33.658  37.655  1.00  0.00     0.022 A 
BRANCH  62  65
ATOM     65  S   UNL A   1      37.199  31.838  38.819  1.00  0.00     0.127 S 
ATOM     66  O   UNL A   1      36.052  32.711  38.576  1.00  0.00    -0.237 OA
ATOM     67  O   UNL A   1      36.984  30.435  38.468  1.00  0.00    -0.237 OA
ATOM     68  O   UNL A   1      37.888  32.053  40.083  1.00  0.00    -0.744 OA
ENDBRANCH  62  65
ENDBRANCH  44  58
BRANCH  45  69
ATOM     69  C   UNL A   1      42.321  26.657  27.475  1.00  0.00     0.023 A 
ATOM     70  C   UNL A   1      42.997  27.286  26.406  1.00  0.00     0.012 A 
ATOM     71  C   UNL A   1      42.055  25.276  27.384  1.00  0.00     0.148 A 
ATOM     72  C   UNL A   1      43.364  26.570  25.262  1.00  0.00     0.002 A 
ATOM     73  C   UNL A   1      42.465  24.557  26.261  1.00  0.00     0.091 A 
ATOM     74  F   UNL A   1      41.398  24.691  28.394  1.00  0.00    -0.205 F 
ATOM     75  C   UNL A   1      43.104  25.206  25.192  1.00  0.00     0.022 A 
BRANCH  73  76
ATOM     76  S   UNL A   1      42.254  22.778  26.108  1.00  0.00     0.127 S 
ATOM     77  O   UNL A   1      40.800  22.641  26.159  1.00  0.00    -0.237 OA
ATOM     78  O   UNL A   1      42.851  22.518  24.799  1.00  0.00    -0.237 OA
ATOM     79  O   UNL A   1      42.974  22.194  27.232  1.00  0.00    -0.744 OA
ENDBRANCH  73  76
ENDBRANCH  45  69
BRANCH  57  80
ATOM     80  C   UNL A   1      44.646  27.187  34.049  1.00  0.00     0.023 A 
ATOM     81  C   UNL A   1      45.933  27.748  34.145  1.00  0.00     0.012 A 
ATOM     82  C   UNL A   1      44.345  26.014  34.771  1.00  0.00     0.148 A 
ATOM     83  C   UNL A   1      46.914  27.133  34.922  1.00  0.00     0.002 A 
ATOM     84  C   UNL A   1      45.307  25.443  35.591  1.00  0.00     0.091 A 
ATOM     85  F   UNL A   1      43.116  25.490  34.656  1.00  0.00    -0.205 F 
ATOM     86  C   UNL A   1      46.597  25.992  35.656  1.00  0.00     0.022 A 
BRANCH  84  87
ATOM     87  S   UNL A   1      44.948  24.046  36.662  1.00  0.00     0.127 S 
ATOM     88  O   UNL A   1      44.190  24.685  37.737  1.00  0.00    -0.237 OA
ATOM     89  O   UNL A   1      44.156  23.182  35.787  1.00  0.00    -0.237 OA
ATOM     90  O   UNL A   1      46.237  23.492  37.053  1.00  0.00    -0.744 OA
ENDBRANCH  84  87
ENDBRANCH  57  80
ENDBRANCH  31  32
ENDBRANCH  24  26
ENDBRANCH  23  24
ENDBRANCH   1  23
TORSDOF 15
ENDMDL
MODEL 3
REMARK VINA RESULT:     -13.8      5.109     10.294
REMARK SMILES O=C(OCCOC(=O)c1ccc(-c2c3nc(c(-c4cccc(S(=O)(=O)[O-])c4F)c4ccc([nH]4)c(-c4cccc(S(=O)(=O)[O-])c4F)c4nc(c(-c5cccc(S(=O)(=O)[O-])c5F)c5ccc2[nH]5)C=C4)C=C3)cc1)C1=Cc2cc(Cl)c(Cl)c(Cl)c2O[C@@H]1C(F)(F)F
REMARK SMILES IDX 5 1 4 2 3 3 2 4 1 5 72 6 73 7 84 8 74 9 83 10 75 11 82 12
REMARK SMILES IDX 76 13 80 14 77 15 78 16 81 17 79 18 85 19 86 20 87 21 88 22
REMARK SMILES IDX 6 23 7 24 8 25 9 26 10 27 71 28 11 29 70 30 12 31 13 32
REMARK SMILES IDX 14 33 64 34 15 35 69 36 63 37 65 38 16 39 68 40 62 41 61 42
REMARK SMILES IDX 17 44 49 45 29 46 48 47 30 48 33 49 47 50 66 51 31 52 32 53
REMARK SMILES IDX 46 55 67 56 34 57 18 58 19 59 27 60 20 61 22 62 28 63 21 64
REMARK SMILES IDX 23 65 24 66 25 67 26 68 50 69 51 70 59 71 52 72 54 73 60 74
REMARK SMILES IDX 53 75 55 76 56 77 57 78 58 79 35 80 36 81 44 82 37 83 39 84
REMARK SMILES IDX 45 85 38 86 40 87 41 88 42 89 43 90
REMARK H PARENT 65 43 33 54
REMARK Flexibility Score: inf
ROOT
ATOM      1  C   UNL A   1      37.587  20.628  24.615  1.00  0.00     0.275 C 
ENDROOT
BRANCH   1   2
ATOM      2  C   UNL A   1      37.002  22.463  23.585  1.00  0.00     0.275 C 
BRANCH   2   3
ATOM      3  O   UNL A   1      36.146  23.582  24.131  1.00  0.00    -0.459 OA
BRANCH   3   4
ATOM      4  C   UNL A   1      34.884  23.495  23.705  1.00  0.00     0.338 C 
ATOM      5  O   UNL A   1      34.474  23.630  22.578  1.00  0.00    -0.246 OA
BRANCH   4   6
ATOM      6  C   UNL A   1      34.231  23.703  24.995  1.00  0.00     0.087 C 
ATOM      7  C   UNL A   1      34.436  24.988  25.615  1.00  0.00     0.027 C 
ATOM      8  C   UNL A   1      32.556  23.065  24.313  1.00  0.00     0.316 C 
ATOM      9  C   UNL A   1      33.248  26.303  25.623  1.00  0.00     0.020 A 
ATOM     10  O   UNL A   1      31.267  24.528  24.167  1.00  0.00    -0.474 OA
ATOM     11  C   UNL A   1      33.663  27.497  26.128  1.00  0.00     0.034 A 
ATOM     12  C   UNL A   1      31.723  26.193  24.815  1.00  0.00     0.148 A 
ATOM     13  C   UNL A   1      32.819  28.580  25.847  1.00  0.00     0.062 A 
ATOM     14  C   UNL A   1      30.962  27.306  24.564  1.00  0.00     0.103 A 
ATOM     15  Cl  UNL A   1      33.430  30.101  26.455  1.00  0.00    -0.083 Cl
ATOM     16  C   UNL A   1      31.557  28.508  25.079  1.00  0.00     0.082 A 
ATOM     17  Cl  UNL A   1      29.536  27.265  23.630  1.00  0.00    -0.079 Cl
ATOM     18  Cl  UNL A   1      30.784  30.041  24.719  1.00  0.00    -0.081 Cl
BRANCH   8  19
ATOM     19  C   UNL A   1      32.747  21.737  25.303  1.00  0.00     0.430 C 
ATOM     20  F   UNL A   1      32.698  22.091  26.591  1.00  0.00    -0.167 F 
ATOM     21  F   UNL A   1      31.668  20.893  25.202  1.00  0.00    -0.167 F 
ATOM     22  F   UNL A   1      33.763  20.891  25.061  1.00  0.00    -0.167 F 
ENDBRANCH   8  19
ENDBRANCH   4   6
ENDBRANCH   3   4
ENDBRANCH   2   3
ENDBRANCH   1   2
BRANCH   1  23
ATOM     23  O   UNL A   1      38.659  20.616  26.017  1.00  0.00    -0.458 OA
BRANCH  23  24
ATOM     24  C   UNL A   1      39.991  20.780  26.377  1.00  0.00     0.338 C 
ATOM     25  O   UNL A   1      40.985  20.229  25.934  1.00  0.00    -0.246 OA
BRANCH  24  26
ATOM     26  C   UNL A   1      40.099  22.104  27.072  1.00  0.00     0.060 A 
ATOM     27  C   UNL A   1      41.126  22.288  28.025  1.00  0.00     0.016 A 
ATOM     28  C   UNL A   1      39.473  23.214  26.507  1.00  0.00     0.016 A 
ATOM     29  C   UNL A   1      41.656  23.577  28.245  1.00  0.00     0.010 A 
ATOM     30  C   UNL A   1      40.025  24.484  26.701  1.00  0.00     0.010 A 
ATOM     31  C   UNL A   1      41.153  24.672  27.525  1.00  0.00    -0.014 A 
BRANCH  31  32
ATOM     32  C   UNL A   1      41.542  26.061  27.883  1.00  0.00     0.031 A 
ATOM     33  C   UNL A   1      42.936  26.425  27.466  1.00  0.00     0.074 A 
ATOM     34  C   UNL A   1      40.791  26.927  28.597  1.00  0.00     0.049 A 
ATOM     35  N   UNL A   1      43.620  27.511  27.680  1.00  0.00    -0.248 NA
ATOM     36  C   UNL A   1      43.673  25.374  26.738  1.00  0.00     0.031 C 
ATOM     37  C   UNL A   1      39.437  26.696  29.101  1.00  0.00     0.029 A 
ATOM     38  N   UNL A   1      41.089  28.198  29.045  1.00  0.00    -0.354 N 
ATOM     39  C   UNL A   1      44.873  27.254  27.145  1.00  0.00     0.074 A 
ATOM     40  C   UNL A   1      44.882  25.890  26.677  1.00  0.00     0.031 C 
ATOM     41  C   UNL A   1      39.025  27.785  29.785  1.00  0.00     0.029 A 
ATOM     42  C   UNL A   1      40.087  28.791  29.787  1.00  0.00     0.049 A 
ATOM     43  H   UNL A   1      41.945  28.645  28.852  1.00  0.00     0.167 HD
ATOM     44  C   UNL A   1      45.924  28.086  27.007  1.00  0.00     0.034 A 
ATOM     45  C   UNL A   1      40.045  30.004  30.384  1.00  0.00     0.034 A 
ATOM     46  C   UNL A   1      45.922  29.433  27.483  1.00  0.00     0.049 A 
ATOM     47  C   UNL A   1      41.244  30.922  30.249  1.00  0.00     0.074 A 
ATOM     48  C   UNL A   1      46.915  30.383  27.380  1.00  0.00     0.029 A 
ATOM     49  N   UNL A   1      44.873  30.007  28.186  1.00  0.00    -0.354 N 
ATOM     50  N   UNL A   1      42.379  30.716  29.621  1.00  0.00    -0.248 NA
ATOM     51  C   UNL A   1      41.146  32.253  30.873  1.00  0.00     0.031 C 
ATOM     52  C   UNL A   1      46.487  31.520  28.070  1.00  0.00     0.029 A 
ATOM     53  C   UNL A   1      45.200  31.300  28.537  1.00  0.00     0.049 A 
ATOM     54  H   UNL A   1      44.023  29.559  28.400  1.00  0.00     0.167 HD
ATOM     55  C   UNL A   1      43.100  31.903  29.722  1.00  0.00     0.074 A 
ATOM     56  C   UNL A   1      42.274  32.826  30.472  1.00  0.00     0.031 C 
ATOM     57  C   UNL A   1      44.331  32.210  29.239  1.00  0.00     0.034 A 
BRANCH  44  58
ATOM     58  C   UNL A   1      47.139  27.514  26.334  1.00  0.00     0.023 A 
ATOM     59  C   UNL A   1      47.271  27.588  24.929  1.00  0.00     0.012 A 
ATOM     60  C   UNL A   1      48.097  26.816  27.086  1.00  0.00     0.148 A 
ATOM     61  C   UNL A   1      48.297  26.906  24.279  1.00  0.00     0.002 A 
ATOM     62  C   UNL A   1      49.154  26.198  26.436  1.00  0.00     0.091 A 
ATOM     63  F   UNL A   1      47.929  26.727  28.413  1.00  0.00    -0.205 F 
ATOM     64  C   UNL A   1      49.241  26.217  25.034  1.00  0.00     0.022 A 
BRANCH  62  65
ATOM     65  S   UNL A   1      50.465  25.357  27.323  1.00  0.00     0.127 S 
ATOM     66  O   UNL A   1      50.903  26.394  28.257  1.00  0.00    -0.237 OA
ATOM     67  O   UNL A   1      49.743  24.245  27.940  1.00  0.00    -0.237 OA
ATOM     68  O   UNL A   1      51.447  24.967  26.321  1.00  0.00    -0.744 OA
ENDBRANCH  62  65
ENDBRANCH  44  58
BRANCH  45  69
ATOM     69  C   UNL A   1      38.820  30.481  31.107  1.00  0.00     0.023 A 
ATOM     70  C   UNL A   1      38.675  30.210  32.485  1.00  0.00     0.012 A 
ATOM     71  C   UNL A   1      37.781  31.161  30.442  1.00  0.00     0.148 A 
ATOM     72  C   UNL A   1      37.513  30.570  33.174  1.00  0.00     0.002 A 
ATOM     73  C   UNL A   1      36.644  31.561  31.144  1.00  0.00     0.091 A 
ATOM     74  F   UNL A   1      37.919  31.399  29.130  1.00  0.00    -0.205 F 
ATOM     75  C   UNL A   1      36.501  31.251  32.506  1.00  0.00     0.022 A 
BRANCH  73  76
ATOM     76  S   UNL A   1      35.319  32.519  30.397  1.00  0.00     0.127 S 
ATOM     77  O   UNL A   1      36.014  33.745  30.011  1.00  0.00    -0.237 OA
ATOM     78  O   UNL A   1      34.923  31.661  29.281  1.00  0.00    -0.237 OA
ATOM     79  O   UNL A   1      34.308  32.676  31.434  1.00  0.00    -0.744 OA
ENDBRANCH  73  76
ENDBRANCH  45  69
BRANCH  57  80
ATOM     80  C   UNL A   1      44.840  33.615  29.420  1.00  0.00     0.023 A 
ATOM     81  C   UNL A   1      45.603  33.964  30.549  1.00  0.00     0.012 A 
ATOM     82  C   UNL A   1      44.651  34.560  28.391  1.00  0.00     0.148 A 
ATOM     83  C   UNL A   1      46.143  35.245  30.666  1.00  0.00     0.002 A 
ATOM     84  C   UNL A   1      45.244  35.811  28.485  1.00  0.00     0.091 A 
ATOM     85  F   UNL A   1      43.911  34.209  27.329  1.00  0.00    -0.205 F 
ATOM     86  C   UNL A   1      45.977  36.161  29.629  1.00  0.00     0.022 A 
BRANCH  84  87
ATOM     87  S   UNL A   1      45.183  37.004  27.144  1.00  0.00     0.127 S 
ATOM     88  O   UNL A   1      45.881  38.146  27.732  1.00  0.00    -0.237 OA
ATOM     89  O   UNL A   1      45.921  36.316  26.086  1.00  0.00    -0.237 OA
ATOM     90  O   UNL A   1      43.771  37.218  26.855  1.00  0.00    -0.744 OA
ENDBRANCH  84  87
ENDBRANCH  57  80
ENDBRANCH  31  32
ENDBRANCH  24  26
ENDBRANCH  23  24
ENDBRANCH   1  23
TORSDOF 15
ENDMDL
