MODEL 1
REMARK VINA RESULT:     -13.3      0.000      0.000
REMARK SMILES CC(=O)Nc1cnc(N2CC=C(c3ccccc3C)CC2)c(C(=O)OCCOC(=O)c2ccc(-c3c4nc(c(-c5cccc(S(=O)(=O)[O-])c5F)c5ccc([nH]5)c(-c5cccc(S(=O)(=O)[O-])c5F)c5nc(c(-c6cccc(S(=O)(=O)[O-])c6F)c6ccc3[nH]6)C=C5)C=C4)cc2)c1
REMARK SMILES IDX 27 1 26 2 25 3 23 4 24 5 22 6 5 7 6 8 94 9 7 10 8 11 4 12
REMARK SMILES IDX 1 13 2 14 3 15 9 17 10 18 21 19 11 20 20 21 12 22 13 23
REMARK SMILES IDX 14 24 18 25 15 26 17 27 19 28 16 29 28 30 29 31 30 32 31 33
REMARK SMILES IDX 32 34 93 35 33 36 92 37 34 38 35 39 36 40 86 41 37 42 91 43
REMARK SMILES IDX 85 44 87 45 38 46 90 47 84 48 83 49 39 51 71 52 51 53 70 54
REMARK SMILES IDX 52 55 55 56 69 57 88 58 53 59 54 60 68 62 89 63 56 64 40 65
REMARK SMILES IDX 41 66 49 67 42 68 44 69 50 70 43 71 45 72 46 73 47 74 48 75
REMARK SMILES IDX 72 76 73 77 81 78 74 79 76 80 82 81 75 82 77 83 78 84 79 85
REMARK SMILES IDX 80 86 57 87 58 88 66 89 59 90 61 91 67 92 60 93 62 94 63 95
REMARK SMILES IDX 64 96 65 97
REMARK H PARENT 4 16 87 50 55 61
REMARK Flexibility Score: inf
ROOT
ATOM      1  C   UNL A   1      39.485  20.250  26.023  1.00  0.00     0.275 C 
ENDROOT
BRANCH   1   2
ATOM      2  C   UNL A   1      38.648  21.492  25.646  1.00  0.00     0.275 C 
BRANCH   2   3
ATOM      3  O   UNL A   1      37.210  21.460  25.678  1.00  0.00    -0.458 OA
BRANCH   3   4
ATOM      4  C   UNL A   1      36.466  21.730  24.579  1.00  0.00     0.342 C 
ATOM      5  O   UNL A   1      36.891  22.258  23.570  1.00  0.00    -0.246 OA
BRANCH   4   6
ATOM      6  C   UNL A   1      35.106  21.141  24.763  1.00  0.00     0.104 A 
ATOM      7  C   UNL A   1      33.893  19.030  25.018  1.00  0.00     0.060 A 
ATOM      8  C   UNL A   1      32.749  19.757  24.791  1.00  0.00     0.139 A 
ATOM      9  C   UNL A   1      35.090  19.733  24.986  1.00  0.00     0.047 A 
ATOM     10  N   UNL A   1      32.732  21.095  24.624  1.00  0.00    -0.236 NA
ATOM     11  C   UNL A   1      33.881  21.827  24.667  1.00  0.00     0.143 A 
BRANCH   7  12
ATOM     12  N   UNL A   1      33.798  17.635  25.099  1.00  0.00    -0.325 N 
ATOM     13  C   UNL A   1      33.963  17.025  22.708  1.00  0.00     0.114 C 
ATOM     14  C   UNL A   1      33.592  16.696  24.128  1.00  0.00     0.221 C 
ATOM     15  O   UNL A   1      33.205  15.576  24.464  1.00  0.00    -0.275 OA
ATOM     16  H   UNL A   1      33.896  17.269  26.008  1.00  0.00     0.169 HD
ENDBRANCH   7  12
BRANCH  11  17
ATOM     17  N   UNL A   1      33.634  23.194  24.703  1.00  0.00    -0.352 N 
ATOM     18  C   UNL A   1      33.614  23.690  26.105  1.00  0.00     0.146 C 
ATOM     19  C   UNL A   1      33.945  24.142  23.645  1.00  0.00     0.123 C 
ATOM     20  C   UNL A   1      33.332  25.162  26.213  1.00  0.00    -0.002 C 
ATOM     21  C   UNL A   1      33.182  25.465  23.780  1.00  0.00     0.057 C 
ATOM     22  C   UNL A   1      33.135  25.988  25.180  1.00  0.00    -0.041 C 
BRANCH  22  23
ATOM     23  C   UNL A   1      32.777  27.402  25.377  1.00  0.00    -0.020 A 
ATOM     24  C   UNL A   1      33.718  28.298  25.906  1.00  0.00     0.008 A 
ATOM     25  C   UNL A   1      31.507  27.878  24.997  1.00  0.00    -0.044 A 
ATOM     26  C   UNL A   1      33.435  29.665  25.977  1.00  0.00     0.001 A 
ATOM     27  C   UNL A   1      31.248  29.255  25.043  1.00  0.00     0.004 A 
ATOM     28  C   UNL A   1      30.429  26.934  24.539  1.00  0.00     0.045 C 
ATOM     29  C   UNL A   1      32.211  30.145  25.520  1.00  0.00     0.000 A 
ENDBRANCH  22  23
ENDBRANCH  11  17
ENDBRANCH   4   6
ENDBRANCH   3   4
ENDBRANCH   2   3
ENDBRANCH   1   2
BRANCH   1  30
ATOM     30  O   UNL A   1      40.809  20.259  26.620  1.00  0.00    -0.458 OA
BRANCH  30  31
ATOM     31  C   UNL A   1      41.993  20.570  26.038  1.00  0.00     0.338 C 
ATOM     32  O   UNL A   1      42.614  19.815  25.334  1.00  0.00    -0.246 OA
BRANCH  31  33
ATOM     33  C   UNL A   1      42.541  21.846  26.489  1.00  0.00     0.060 A 
ATOM     34  C   UNL A   1      42.774  22.060  27.855  1.00  0.00     0.016 A 
ATOM     35  C   UNL A   1      42.862  22.788  25.516  1.00  0.00     0.016 A 
ATOM     36  C   UNL A   1      43.361  23.230  28.276  1.00  0.00     0.010 A 
ATOM     37  C   UNL A   1      43.489  23.933  25.918  1.00  0.00     0.010 A 
ATOM     38  C   UNL A   1      43.607  24.177  27.300  1.00  0.00    -0.014 A 
BRANCH  38  39
ATOM     39  C   UNL A   1      43.483  25.579  27.628  1.00  0.00     0.031 A 
ATOM     40  C   UNL A   1      42.184  26.237  27.541  1.00  0.00     0.074 A 
ATOM     41  C   UNL A   1      44.601  25.992  28.271  1.00  0.00     0.049 A 
ATOM     42  N   UNL A   1      42.049  27.508  27.446  1.00  0.00    -0.248 NA
ATOM     43  C   UNL A   1      40.915  25.510  27.451  1.00  0.00     0.031 C 
ATOM     44  C   UNL A   1      44.740  26.891  29.394  1.00  0.00     0.029 A 
ATOM     45  N   UNL A   1      45.916  25.554  28.019  1.00  0.00    -0.354 N 
ATOM     46  C   UNL A   1      40.715  27.766  27.677  1.00  0.00     0.074 A 
ATOM     47  C   UNL A   1      40.030  26.515  27.469  1.00  0.00     0.031 C 
ATOM     48  C   UNL A   1      46.054  27.087  29.632  1.00  0.00     0.029 A 
ATOM     49  C   UNL A   1      46.814  26.487  28.537  1.00  0.00     0.049 A 
ATOM     50  H   UNL A   1      46.160  24.722  27.553  1.00  0.00     0.167 HD
ATOM     51  C   UNL A   1      40.377  28.917  28.322  1.00  0.00     0.034 A 
ATOM     52  C   UNL A   1      47.755  27.122  27.770  1.00  0.00     0.034 A 
ATOM     53  C   UNL A   1      41.604  29.619  28.730  1.00  0.00     0.049 A 
ATOM     54  C   UNL A   1      47.312  28.581  27.585  1.00  0.00     0.074 A 
ATOM     55  C   UNL A   1      42.344  29.541  29.901  1.00  0.00     0.029 A 
ATOM     56  N   UNL A   1      42.445  30.174  27.773  1.00  0.00    -0.354 N 
ATOM     57  N   UNL A   1      46.144  29.047  27.934  1.00  0.00    -0.248 NA
ATOM     58  C   UNL A   1      48.121  29.591  26.908  1.00  0.00     0.031 C 
ATOM     59  C   UNL A   1      43.655  30.006  29.626  1.00  0.00     0.029 A 
ATOM     60  C   UNL A   1      43.718  30.373  28.294  1.00  0.00     0.049 A 
ATOM     61  H   UNL A   1      42.176  30.395  26.853  1.00  0.00     0.167 HD
ATOM     62  C   UNL A   1      45.968  30.299  27.415  1.00  0.00     0.074 A 
ATOM     63  C   UNL A   1      47.254  30.612  26.817  1.00  0.00     0.031 C 
ATOM     64  C   UNL A   1      44.767  30.953  27.461  1.00  0.00     0.034 A 
BRANCH  51  65
ATOM     65  C   UNL A   1      39.027  29.166  28.963  1.00  0.00     0.023 A 
ATOM     66  C   UNL A   1      37.930  29.358  28.092  1.00  0.00     0.012 A 
ATOM     67  C   UNL A   1      38.751  29.240  30.348  1.00  0.00     0.148 A 
ATOM     68  C   UNL A   1      36.651  29.680  28.548  1.00  0.00     0.002 A 
ATOM     69  C   UNL A   1      37.476  29.604  30.806  1.00  0.00     0.091 A 
ATOM     70  F   UNL A   1      39.707  28.913  31.228  1.00  0.00    -0.205 F 
ATOM     71  C   UNL A   1      36.427  29.826  29.905  1.00  0.00     0.022 A 
BRANCH  69  72
ATOM     72  S   UNL A   1      37.099  29.892  32.545  1.00  0.00     0.127 S 
ATOM     73  O   UNL A   1      38.165  30.814  32.945  1.00  0.00    -0.237 OA
ATOM     74  O   UNL A   1      35.771  30.497  32.485  1.00  0.00    -0.237 OA
ATOM     75  O   UNL A   1      37.174  28.588  33.190  1.00  0.00    -0.744 OA
ENDBRANCH  69  72
ENDBRANCH  51  65
BRANCH  52  76
ATOM     76  C   UNL A   1      48.308  26.305  26.615  1.00  0.00     0.023 A 
ATOM     77  C   UNL A   1      47.804  26.519  25.310  1.00  0.00     0.012 A 
ATOM     78  C   UNL A   1      49.604  25.808  26.739  1.00  0.00     0.148 A 
ATOM     79  C   UNL A   1      48.684  26.561  24.223  1.00  0.00     0.002 A 
ATOM     80  C   UNL A   1      50.504  26.025  25.721  1.00  0.00     0.091 A 
ATOM     81  F   UNL A   1      49.986  25.210  27.867  1.00  0.00    -0.205 F 
ATOM     82  C   UNL A   1      50.053  26.417  24.458  1.00  0.00     0.022 A 
BRANCH  80  83
ATOM     83  S   UNL A   1      52.225  26.235  26.206  1.00  0.00     0.127 S 
ATOM     84  O   UNL A   1      52.131  27.008  27.437  1.00  0.00    -0.237 OA
ATOM     85  O   UNL A   1      52.622  24.844  26.385  1.00  0.00    -0.237 OA
ATOM     86  O   UNL A   1      52.845  26.956  25.103  1.00  0.00    -0.744 OA
ENDBRANCH  80  83
ENDBRANCH  52  76
BRANCH  64  87
ATOM     87  C   UNL A   1      44.481  32.250  26.743  1.00  0.00     0.023 A 
ATOM     88  C   UNL A   1      44.358  32.323  25.345  1.00  0.00     0.012 A 
ATOM     89  C   UNL A   1      44.192  33.427  27.478  1.00  0.00     0.148 A 
ATOM     90  C   UNL A   1      44.087  33.531  24.697  1.00  0.00     0.002 A 
ATOM     91  C   UNL A   1      43.776  34.586  26.836  1.00  0.00     0.091 A 
ATOM     92  F   UNL A   1      44.343  33.443  28.811  1.00  0.00    -0.205 F 
ATOM     93  C   UNL A   1      43.776  34.660  25.444  1.00  0.00     0.022 A 
BRANCH  91  94
ATOM     94  S   UNL A   1      43.069  35.947  27.771  1.00  0.00     0.127 S 
ATOM     95  O   UNL A   1      42.568  36.817  26.710  1.00  0.00    -0.237 OA
ATOM     96  O   UNL A   1      42.027  35.281  28.555  1.00  0.00    -0.237 OA
ATOM     97  O   UNL A   1      44.169  36.472  28.569  1.00  0.00    -0.744 OA
ENDBRANCH  91  94
ENDBRANCH  64  87
ENDBRANCH  38  39
ENDBRANCH  31  33
ENDBRANCH  30  31
ENDBRANCH   1  30
TORSDOF 17
ENDMDL
MODEL 2
REMARK VINA RESULT:     -13.2      4.904     10.879
REMARK SMILES CC(=O)Nc1cnc(N2CC=C(c3ccccc3C)CC2)c(C(=O)OCCOC(=O)c2ccc(-c3c4nc(c(-c5cccc(S(=O)(=O)[O-])c5F)c5ccc([nH]5)c(-c5cccc(S(=O)(=O)[O-])c5F)c5nc(c(-c6cccc(S(=O)(=O)[O-])c6F)c6ccc3[nH]6)C=C5)C=C4)cc2)c1
REMARK SMILES IDX 27 1 26 2 25 3 23 4 24 5 22 6 5 7 6 8 94 9 7 10 8 11 4 12
REMARK SMILES IDX 1 13 2 14 3 15 9 17 10 18 21 19 11 20 20 21 12 22 13 23
REMARK SMILES IDX 14 24 18 25 15 26 17 27 19 28 16 29 28 30 29 31 30 32 31 33
REMARK SMILES IDX 32 34 93 35 33 36 92 37 34 38 35 39 36 40 86 41 37 42 91 43
REMARK SMILES IDX 85 44 87 45 38 46 90 47 84 48 83 49 39 51 71 52 51 53 70 54
REMARK SMILES IDX 52 55 55 56 69 57 88 58 53 59 54 60 68 62 89 63 56 64 40 65
REMARK SMILES IDX 41 66 49 67 42 68 44 69 50 70 43 71 45 72 46 73 47 74 48 75
REMARK SMILES IDX 72 76 73 77 81 78 74 79 76 80 82 81 75 82 77 83 78 84 79 85
REMARK SMILES IDX 80 86 57 87 58 88 66 89 59 90 61 91 67 92 60 93 62 94 63 95
REMARK SMILES IDX 64 96 65 97
REMARK H PARENT 4 16 87 50 55 61
REMARK Flexibility Score: inf
ROOT
ATOM      1  C   UNL A   1      33.996  30.533  27.139  1.00  0.00     0.275 C 
ENDROOT
BRANCH   1   2
ATOM      2  C   UNL A   1      33.793  29.015  27.337  1.00  0.00     0.275 C 
BRANCH   2   3
ATOM      3  O   UNL A   1      33.196  28.202  26.311  1.00  0.00    -0.458 OA
BRANCH   3   4
ATOM      4  C   UNL A   1      31.896  27.826  26.364  1.00  0.00     0.342 C 
ATOM      5  O   UNL A   1      31.280  27.613  27.390  1.00  0.00    -0.246 OA
BRANCH   4   6
ATOM      6  C   UNL A   1      31.326  27.871  24.984  1.00  0.00     0.104 A 
ATOM      7  C   UNL A   1      30.408  29.369  23.280  1.00  0.00     0.060 A 
ATOM      8  C   UNL A   1      29.977  28.234  22.635  1.00  0.00     0.139 A 
ATOM      9  C   UNL A   1      31.079  29.182  24.481  1.00  0.00     0.047 A 
ATOM     10  N   UNL A   1      30.237  26.984  23.065  1.00  0.00    -0.236 NA
ATOM     11  C   UNL A   1      30.962  26.762  24.198  1.00  0.00     0.143 A 
BRANCH   7  12
ATOM     12  N   UNL A   1      30.011  30.617  22.783  1.00  0.00    -0.325 N 
ATOM     13  C   UNL A   1      27.641  30.657  23.490  1.00  0.00     0.114 C 
ATOM     14  C   UNL A   1      28.768  31.162  22.631  1.00  0.00     0.221 C 
ATOM     15  O   UNL A   1      28.633  32.118  21.866  1.00  0.00    -0.275 OA
ATOM     16  H   UNL A   1      30.751  31.199  22.497  1.00  0.00     0.169 HD
ENDBRANCH   7  12
BRANCH  11  17
ATOM     17  N   UNL A   1      31.314  25.426  24.346  1.00  0.00    -0.352 N 
ATOM     18  C   UNL A   1      32.573  25.128  23.612  1.00  0.00     0.146 C 
ATOM     19  C   UNL A   1      30.955  24.570  25.466  1.00  0.00     0.123 C 
ATOM     20  C   UNL A   1      32.998  23.690  23.717  1.00  0.00    -0.002 C 
ATOM     21  C   UNL A   1      31.103  23.077  25.154  1.00  0.00     0.057 C 
ATOM     22  C   UNL A   1      32.356  22.743  24.407  1.00  0.00    -0.041 C 
BRANCH  22  23
ATOM     23  C   UNL A   1      32.793  21.339  24.386  1.00  0.00    -0.020 A 
ATOM     24  C   UNL A   1      32.139  20.411  23.561  1.00  0.00     0.008 A 
ATOM     25  C   UNL A   1      33.896  20.921  25.155  1.00  0.00    -0.044 A 
ATOM     26  C   UNL A   1      32.625  19.107  23.434  1.00  0.00     0.001 A 
ATOM     27  C   UNL A   1      34.394  19.620  24.994  1.00  0.00     0.004 A 
ATOM     28  C   UNL A   1      34.551  21.850  26.141  1.00  0.00     0.045 C 
ATOM     29  C   UNL A   1      33.768  18.721  24.129  1.00  0.00     0.000 A 
ENDBRANCH  22  23
ENDBRANCH  11  17
ENDBRANCH   4   6
ENDBRANCH   3   4
ENDBRANCH   2   3
ENDBRANCH   1   2
BRANCH   1  30
ATOM     30  O   UNL A   1      33.340  31.589  27.889  1.00  0.00    -0.458 OA
BRANCH  30  31
ATOM     31  C   UNL A   1      33.829  32.805  28.235  1.00  0.00     0.338 C 
ATOM     32  O   UNL A   1      33.291  33.848  27.964  1.00  0.00    -0.246 OA
BRANCH  31  33
ATOM     33  C   UNL A   1      35.168  32.746  28.816  1.00  0.00     0.060 A 
ATOM     34  C   UNL A   1      36.237  33.376  28.164  1.00  0.00     0.016 A 
ATOM     35  C   UNL A   1      35.311  32.098  30.039  1.00  0.00     0.016 A 
ATOM     36  C   UNL A   1      37.483  33.388  28.745  1.00  0.00     0.010 A 
ATOM     37  C   UNL A   1      36.533  32.144  30.648  1.00  0.00     0.010 A 
ATOM     38  C   UNL A   1      37.616  32.680  29.925  1.00  0.00    -0.014 A 
BRANCH  38  39
ATOM     39  C   UNL A   1      38.860  32.001  30.206  1.00  0.00     0.031 A 
ATOM     40  C   UNL A   1      39.127  30.693  29.618  1.00  0.00     0.074 A 
ATOM     41  C   UNL A   1      39.733  32.873  30.765  1.00  0.00     0.049 A 
ATOM     42  N   UNL A   1      39.996  29.877  30.091  1.00  0.00    -0.248 NA
ATOM     43  C   UNL A   1      38.361  30.140  28.497  1.00  0.00     0.031 C 
ATOM     44  C   UNL A   1      41.155  33.017  30.553  1.00  0.00     0.029 A 
ATOM     45  N   UNL A   1      39.411  33.916  31.654  1.00  0.00    -0.354 N 
ATOM     46  C   UNL A   1      40.168  28.905  29.128  1.00  0.00     0.074 A 
ATOM     47  C   UNL A   1      39.009  28.989  28.273  1.00  0.00     0.031 C 
ATOM     48  C   UNL A   1      41.627  33.953  31.404  1.00  0.00     0.029 A 
ATOM     49  C   UNL A   1      40.561  34.297  32.345  1.00  0.00     0.049 A 
ATOM     50  H   UNL A   1      38.518  34.314  31.768  1.00  0.00     0.167 HD
ATOM     51  C   UNL A   1      41.403  28.357  28.971  1.00  0.00     0.034 A 
ATOM     52  C   UNL A   1      40.656  34.268  33.711  1.00  0.00     0.034 A 
ATOM     53  C   UNL A   1      42.352  29.042  29.863  1.00  0.00     0.049 A 
ATOM     54  C   UNL A   1      41.567  33.093  34.099  1.00  0.00     0.074 A 
ATOM     55  C   UNL A   1      43.154  30.153  29.649  1.00  0.00     0.029 A 
ATOM     56  N   UNL A   1      42.250  28.894  31.241  1.00  0.00    -0.354 N 
ATOM     57  N   UNL A   1      41.991  32.182  33.265  1.00  0.00    -0.248 NA
ATOM     58  C   UNL A   1      41.983  32.812  35.470  1.00  0.00     0.031 C 
ATOM     59  C   UNL A   1      43.491  30.705  30.911  1.00  0.00     0.029 A 
ATOM     60  C   UNL A   1      42.903  29.931  31.896  1.00  0.00     0.049 A 
ATOM     61  H   UNL A   1      41.779  28.157  31.691  1.00  0.00     0.167 HD
ATOM     62  C   UNL A   1      42.564  31.151  33.954  1.00  0.00     0.074 A 
ATOM     63  C   UNL A   1      42.573  31.614  35.331  1.00  0.00     0.031 C 
ATOM     64  C   UNL A   1      42.927  29.975  33.355  1.00  0.00     0.034 A 
BRANCH  51  65
ATOM     65  C   UNL A   1      41.833  27.569  27.750  1.00  0.00     0.023 A 
ATOM     66  C   UNL A   1      41.879  28.267  26.521  1.00  0.00     0.012 A 
ATOM     67  C   UNL A   1      42.183  26.199  27.709  1.00  0.00     0.148 A 
ATOM     68  C   UNL A   1      42.175  27.643  25.309  1.00  0.00     0.002 A 
ATOM     69  C   UNL A   1      42.441  25.562  26.486  1.00  0.00     0.091 A 
ATOM     70  F   UNL A   1      42.315  25.519  28.856  1.00  0.00    -0.205 F 
ATOM     71  C   UNL A   1      42.434  26.284  25.286  1.00  0.00     0.022 A 
BRANCH  69  72
ATOM     72  S   UNL A   1      42.717  23.787  26.340  1.00  0.00     0.127 S 
ATOM     73  O   UNL A   1      42.887  23.618  24.894  1.00  0.00    -0.237 OA
ATOM     74  O   UNL A   1      43.938  23.591  27.117  1.00  0.00    -0.237 OA
ATOM     75  O   UNL A   1      41.517  23.152  26.870  1.00  0.00    -0.744 OA
ENDBRANCH  69  72
ENDBRANCH  51  65
BRANCH  52  76
ATOM     76  C   UNL A   1      39.364  34.552  34.456  1.00  0.00     0.023 A 
ATOM     77  C   UNL A   1      38.320  33.597  34.426  1.00  0.00     0.012 A 
ATOM     78  C   UNL A   1      39.427  35.413  35.550  1.00  0.00     0.148 A 
ATOM     79  C   UNL A   1      37.609  33.307  35.595  1.00  0.00     0.002 A 
ATOM     80  C   UNL A   1      38.871  35.018  36.745  1.00  0.00     0.091 A 
ATOM     81  F   UNL A   1      40.095  36.563  35.460  1.00  0.00    -0.205 F 
ATOM     82  C   UNL A   1      37.968  33.952  36.780  1.00  0.00     0.022 A 
BRANCH  80  83
ATOM     83  S   UNL A   1      39.691  35.598  38.240  1.00  0.00     0.127 S 
ATOM     84  O   UNL A   1      39.013  34.861  39.297  1.00  0.00    -0.237 OA
ATOM     85  O   UNL A   1      41.059  35.169  37.975  1.00  0.00    -0.237 OA
ATOM     86  O   UNL A   1      39.450  37.034  38.272  1.00  0.00    -0.744 OA
ENDBRANCH  80  83
ENDBRANCH  52  76
BRANCH  64  87
ATOM     87  C   UNL A   1      43.389  28.749  34.104  1.00  0.00     0.023 A 
ATOM     88  C   UNL A   1      44.747  28.482  34.345  1.00  0.00     0.012 A 
ATOM     89  C   UNL A   1      42.445  27.883  34.710  1.00  0.00     0.148 A 
ATOM     90  C   UNL A   1      45.156  27.344  35.045  1.00  0.00     0.002 A 
ATOM     91  C   UNL A   1      42.855  26.840  35.530  1.00  0.00     0.091 A 
ATOM     92  F   UNL A   1      41.133  28.046  34.477  1.00  0.00    -0.205 F 
ATOM     93  C   UNL A   1      44.209  26.533  35.656  1.00  0.00     0.022 A 
BRANCH  91  94
ATOM     94  S   UNL A   1      41.675  25.980  36.577  1.00  0.00     0.127 S 
ATOM     95  O   UNL A   1      42.548  25.133  37.386  1.00  0.00    -0.237 OA
ATOM     96  O   UNL A   1      41.045  27.081  37.310  1.00  0.00    -0.237 OA
ATOM     97  O   UNL A   1      40.782  25.291  35.656  1.00  0.00    -0.744 OA
ENDBRANCH  91  94
ENDBRANCH  64  87
ENDBRANCH  38  39
ENDBRANCH  31  33
ENDBRANCH  30  31
ENDBRANCH   1  30
TORSDOF 17
ENDMDL
MODEL 3
REMARK VINA RESULT:     -13.1      5.101     10.912
REMARK SMILES CC(=O)Nc1cnc(N2CC=C(c3ccccc3C)CC2)c(C(=O)OCCOC(=O)c2ccc(-c3c4nc(c(-c5cccc(S(=O)(=O)[O-])c5F)c5ccc([nH]5)c(-c5cccc(S(=O)(=O)[O-])c5F)c5nc(c(-c6cccc(S(=O)(=O)[O-])c6F)c6ccc3[nH]6)C=C5)C=C4)cc2)c1
REMARK SMILES IDX 27 1 26 2 25 3 23 4 24 5 22 6 5 7 6 8 94 9 7 10 8 11 4 12
REMARK SMILES IDX 1 13 2 14 3 15 9 17 10 18 21 19 11 20 20 21 12 22 13 23
REMARK SMILES IDX 14 24 18 25 15 26 17 27 19 28 16 29 28 30 29 31 30 32 31 33
REMARK SMILES IDX 32 34 93 35 33 36 92 37 34 38 35 39 36 40 86 41 37 42 91 43
REMARK SMILES IDX 85 44 87 45 38 46 90 47 84 48 83 49 39 51 71 52 51 53 70 54
REMARK SMILES IDX 52 55 55 56 69 57 88 58 53 59 54 60 68 62 89 63 56 64 40 65
REMARK SMILES IDX 41 66 49 67 42 68 44 69 50 70 43 71 45 72 46 73 47 74 48 75
REMARK SMILES IDX 72 76 73 77 81 78 74 79 76 80 82 81 75 82 77 83 78 84 79 85
REMARK SMILES IDX 80 86 57 87 58 88 66 89 59 90 61 91 67 92 60 93 62 94 63 95
REMARK SMILES IDX 64 96 65 97
REMARK H PARENT 4 16 87 50 55 61
REMARK Flexibility Score: inf
ROOT
ATOM      1  C   UNL A   1      34.245  30.574  27.534  1.00  0.00     0.275 C 
ENDROOT
BRANCH   1   2
ATOM      2  C   UNL A   1      33.561  29.405  26.791  1.00  0.00     0.275 C 
BRANCH   2   3
ATOM      3  O   UNL A   1      32.130  29.264  26.780  1.00  0.00    -0.458 OA
BRANCH   3   4
ATOM      4  C   UNL A   1      31.529  28.123  26.364  1.00  0.00     0.342 C 
ATOM      5  O   UNL A   1      31.042  27.289  27.102  1.00  0.00    -0.246 OA
BRANCH   4   6
ATOM      6  C   UNL A   1      31.435  28.147  24.874  1.00  0.00     0.104 A 
ATOM      7  C   UNL A   1      30.476  29.367  22.981  1.00  0.00     0.060 A 
ATOM      8  C   UNL A   1      30.824  28.281  22.212  1.00  0.00     0.139 A 
ATOM      9  C   UNL A   1      30.773  29.289  24.335  1.00  0.00     0.047 A 
ATOM     10  N   UNL A   1      31.491  27.211  22.688  1.00  0.00    -0.236 NA
ATOM     11  C   UNL A   1      31.869  27.137  23.996  1.00  0.00     0.143 A 
BRANCH   7  12
ATOM     12  N   UNL A   1      29.714  30.387  22.396  1.00  0.00    -0.325 N 
ATOM     13  C   UNL A   1      27.428  29.513  22.751  1.00  0.00     0.114 C 
ATOM     14  C   UNL A   1      28.394  30.429  22.050  1.00  0.00     0.221 C 
ATOM     15  O   UNL A   1      28.021  31.285  21.247  1.00  0.00    -0.275 OA
ATOM     16  H   UNL A   1      30.214  31.213  22.203  1.00  0.00     0.169 HD
ENDBRANCH   7  12
BRANCH  11  17
ATOM     17  N   UNL A   1      32.735  26.077  24.235  1.00  0.00    -0.352 N 
ATOM     18  C   UNL A   1      32.968  25.295  22.990  1.00  0.00     0.146 C 
ATOM     19  C   UNL A   1      33.749  26.024  25.276  1.00  0.00     0.123 C 
ATOM     20  C   UNL A   1      33.884  24.120  23.187  1.00  0.00    -0.002 C 
ATOM     21  C   UNL A   1      34.237  24.601  25.570  1.00  0.00     0.057 C 
ATOM     22  C   UNL A   1      34.472  23.784  24.340  1.00  0.00    -0.041 C 
BRANCH  22  23
ATOM     23  C   UNL A   1      35.286  22.565  24.466  1.00  0.00    -0.020 A 
ATOM     24  C   UNL A   1      36.685  22.641  24.378  1.00  0.00     0.008 A 
ATOM     25  C   UNL A   1      34.677  21.321  24.722  1.00  0.00    -0.044 A 
ATOM     26  C   UNL A   1      37.474  21.515  24.624  1.00  0.00     0.001 A 
ATOM     27  C   UNL A   1      35.481  20.206  25.000  1.00  0.00     0.004 A 
ATOM     28  C   UNL A   1      33.180  21.172  24.706  1.00  0.00     0.045 C 
ATOM     29  C   UNL A   1      36.873  20.305  24.963  1.00  0.00     0.000 A 
ENDBRANCH  22  23
ENDBRANCH  11  17
ENDBRANCH   4   6
ENDBRANCH   3   4
ENDBRANCH   2   3
ENDBRANCH   1   2
BRANCH   1  30
ATOM     30  O   UNL A   1      33.733  31.928  27.653  1.00  0.00    -0.458 OA
BRANCH  30  31
ATOM     31  C   UNL A   1      34.182  32.931  28.446  1.00  0.00     0.338 C 
ATOM     32  O   UNL A   1      33.664  34.016  28.515  1.00  0.00    -0.246 OA
BRANCH  31  33
ATOM     33  C   UNL A   1      35.465  32.638  29.079  1.00  0.00     0.060 A 
ATOM     34  C   UNL A   1      36.653  33.092  28.488  1.00  0.00     0.016 A 
ATOM     35  C   UNL A   1      35.443  31.952  30.290  1.00  0.00     0.016 A 
ATOM     36  C   UNL A   1      37.856  32.885  29.120  1.00  0.00     0.010 A 
ATOM     37  C   UNL A   1      36.628  31.782  30.949  1.00  0.00     0.010 A 
ATOM     38  C   UNL A   1      37.816  32.143  30.286  1.00  0.00    -0.014 A 
BRANCH  38  39
ATOM     39  C   UNL A   1      38.916  31.259  30.600  1.00  0.00     0.031 A 
ATOM     40  C   UNL A   1      39.047  29.982  29.907  1.00  0.00     0.074 A 
ATOM     41  C   UNL A   1      39.846  31.935  31.316  1.00  0.00     0.049 A 
ATOM     42  N   UNL A   1      39.739  29.005  30.366  1.00  0.00    -0.248 NA
ATOM     43  C   UNL A   1      38.324  29.653  28.675  1.00  0.00     0.031 C 
ATOM     44  C   UNL A   1      41.288  31.879  31.240  1.00  0.00     0.029 A 
ATOM     45  N   UNL A   1      39.592  32.934  32.276  1.00  0.00    -0.354 N 
ATOM     46  C   UNL A   1      39.863  28.107  29.328  1.00  0.00     0.074 A 
ATOM     47  C   UNL A   1      38.818  28.441  28.392  1.00  0.00     0.031 C 
ATOM     48  C   UNL A   1      41.803  32.653  32.218  1.00  0.00     0.029 A 
ATOM     49  C   UNL A   1      40.711  33.072  33.096  1.00  0.00     0.049 A 
ATOM     50  H   UNL A   1      38.758  33.451  32.354  1.00  0.00     0.167 HD
ATOM     51  C   UNL A   1      41.016  27.392  29.220  1.00  0.00     0.034 A 
ATOM     52  C   UNL A   1      40.666  32.909  34.455  1.00  0.00     0.034 A 
ATOM     53  C   UNL A   1      41.961  27.843  30.254  1.00  0.00     0.049 A 
ATOM     54  C   UNL A   1      41.355  31.579  34.798  1.00  0.00     0.074 A 
ATOM     55  C   UNL A   1      42.933  28.833  30.221  1.00  0.00     0.029 A 
ATOM     56  N   UNL A   1      41.704  27.592  31.596  1.00  0.00    -0.354 N 
ATOM     57  N   UNL A   1      41.724  30.691  33.914  1.00  0.00    -0.248 NA
ATOM     58  C   UNL A   1      41.590  31.119  36.163  1.00  0.00     0.031 C 
ATOM     59  C   UNL A   1      43.219  29.214  31.557  1.00  0.00     0.029 A 
ATOM     60  C   UNL A   1      42.432  28.456  32.405  1.00  0.00     0.049 A 
ATOM     61  H   UNL A   1      41.090  26.899  31.928  1.00  0.00     0.167 HD
ATOM     62  C   UNL A   1      42.072  29.528  34.541  1.00  0.00     0.074 A 
ATOM     63  C   UNL A   1      42.013  29.862  35.953  1.00  0.00     0.031 C 
ATOM     64  C   UNL A   1      42.320  28.368  33.858  1.00  0.00     0.034 A 
BRANCH  51  65
ATOM     65  C   UNL A   1      41.446  26.658  27.966  1.00  0.00     0.023 A 
ATOM     66  C   UNL A   1      41.530  27.417  26.776  1.00  0.00     0.012 A 
ATOM     67  C   UNL A   1      41.762  25.283  27.859  1.00  0.00     0.148 A 
ATOM     68  C   UNL A   1      41.830  26.850  25.538  1.00  0.00     0.002 A 
ATOM     69  C   UNL A   1      42.023  24.704  26.608  1.00  0.00     0.091 A 
ATOM     70  F   UNL A   1      41.857  24.541  28.970  1.00  0.00    -0.205 F 
ATOM     71  C   UNL A   1      42.055  25.488  25.448  1.00  0.00     0.022 A 
BRANCH  69  72
ATOM     72  S   UNL A   1      42.256  22.932  26.372  1.00  0.00     0.127 S 
ATOM     73  O   UNL A   1      43.321  22.629  27.332  1.00  0.00    -0.237 OA
ATOM     74  O   UNL A   1      40.948  22.390  26.733  1.00  0.00    -0.237 OA
ATOM     75  O   UNL A   1      42.651  22.764  24.980  1.00  0.00    -0.744 OA
ENDBRANCH  69  72
ENDBRANCH  51  65
BRANCH  52  76
ATOM     76  C   UNL A   1      39.362  33.321  35.114  1.00  0.00     0.023 A 
ATOM     77  C   UNL A   1      38.384  32.337  35.396  1.00  0.00     0.012 A 
ATOM     78  C   UNL A   1      39.372  34.471  35.901  1.00  0.00     0.148 A 
ATOM     79  C   UNL A   1      37.700  32.365  36.615  1.00  0.00     0.002 A 
ATOM     80  C   UNL A   1      38.850  34.416  37.173  1.00  0.00     0.091 A 
ATOM     81  F   UNL A   1      39.961  35.581  35.456  1.00  0.00    -0.205 F 
ATOM     82  C   UNL A   1      38.021  33.355  37.546  1.00  0.00     0.022 A 
BRANCH  80  83
ATOM     83  S   UNL A   1      39.637  35.466  38.406  1.00  0.00     0.127 S 
ATOM     84  O   UNL A   1      39.025  35.029  39.653  1.00  0.00    -0.237 OA
ATOM     85  O   UNL A   1      41.031  35.074  38.238  1.00  0.00    -0.237 OA
ATOM     86  O   UNL A   1      39.289  36.827  38.024  1.00  0.00    -0.744 OA
ENDBRANCH  80  83
ENDBRANCH  52  76
BRANCH  64  87
ATOM     87  C   UNL A   1      42.524  27.024  34.515  1.00  0.00     0.023 A 
ATOM     88  C   UNL A   1      41.472  26.318  35.124  1.00  0.00     0.012 A 
ATOM     89  C   UNL A   1      43.774  26.364  34.421  1.00  0.00     0.148 A 
ATOM     90  C   UNL A   1      41.678  25.073  35.723  1.00  0.00     0.002 A 
ATOM     91  C   UNL A   1      43.932  25.065  34.885  1.00  0.00     0.091 A 
ATOM     92  F   UNL A   1      44.835  27.001  33.902  1.00  0.00    -0.205 F 
ATOM     93  C   UNL A   1      42.904  24.436  35.586  1.00  0.00     0.022 A 
BRANCH  91  94
ATOM     94  S   UNL A   1      45.387  24.107  34.446  1.00  0.00     0.127 S 
ATOM     95  O   UNL A   1      44.968  22.747  34.777  1.00  0.00    -0.237 OA
ATOM     96  O   UNL A   1      45.516  24.371  33.011  1.00  0.00    -0.237 OA
ATOM     97  O   UNL A   1      46.465  24.663  35.252  1.00  0.00    -0.744 OA
ENDBRANCH  91  94
ENDBRANCH  64  87
ENDBRANCH  38  39
ENDBRANCH  31  33
ENDBRANCH  30  31
ENDBRANCH   1  30
TORSDOF 17
ENDMDL
