MODEL 1
REMARK VINA RESULT:      -9.5      0.000      0.000
REMARK SMILES C[C@H]([NH2+]C[C@@]1(C)CCCO1)C(=O)OCCOC(=O)c1ccc(-c2c3nc(c(-c4cccc(S(=O)(=O)[O-])c4F)c4ccc([nH]4)c(-c4cccc(S(=O)(=O)[O-])c4F)c4nc(c(-c5cccc(S(=O)(=O)[O-])c5F)c5ccc2[nH]5)C=C4)C=C3)cc1
REMARK SMILES IDX 14 1 13 2 11 3 12 4 2 5 1 6 3 7 4 10 5 11 6 12 7 13 10 14
REMARK SMILES IDX 8 15 9 16 15 17 16 18 17 19 18 20 19 21 20 22 81 23 21 24
REMARK SMILES IDX 80 25 22 26 23 27 24 28 74 29 25 30 79 31 73 32 75 33 26 34
REMARK SMILES IDX 78 35 72 36 71 37 27 39 59 40 39 41 58 42 40 43 43 44 57 45
REMARK SMILES IDX 76 46 41 47 42 48 56 50 77 51 44 52 28 53 29 54 37 55 30 56
REMARK SMILES IDX 32 57 38 58 31 59 33 60 34 61 35 62 36 63 60 64 61 65 69 66
REMARK SMILES IDX 62 67 64 68 70 69 63 70 65 71 66 72 67 73 68 74 45 75 46 76
REMARK SMILES IDX 54 77 47 78 49 79 55 80 48 81 50 82 51 83 52 84 53 85
REMARK H PARENT 3 8 3 9 75 38 43 49
REMARK Flexibility Score: inf
ROOT
ATOM      1  C   UNL A   1      42.158  19.321  26.417  1.00  0.00     0.274 C 
ENDROOT
BRANCH   1   2
ATOM      2  O   UNL A   1      42.709  19.296  25.087  1.00  0.00    -0.458 OA
BRANCH   2   3
ATOM      3  C   UNL A   1      44.050  19.088  24.990  1.00  0.00     0.364 C 
ATOM      4  O   UNL A   1      44.612  18.058  25.347  1.00  0.00    -0.245 OA
BRANCH   3   5
ATOM      5  C   UNL A   1      44.815  20.271  24.376  1.00  0.00     0.290 C 
ATOM      6  C   UNL A   1      46.234  20.331  24.934  1.00  0.00     0.088 C 
BRANCH   5   7
ATOM      7  N   UNL A   1      44.079  21.555  24.363  1.00  0.00    -0.332 N 
ATOM      8  H   UNL A   1      43.614  21.653  25.267  1.00  0.00     0.347 HD
ATOM      9  H   UNL A   1      43.447  21.494  23.565  1.00  0.00     0.347 HD
BRANCH   7  10
ATOM     10  C   UNL A   1      44.873  22.765  24.138  1.00  0.00     0.296 C 
BRANCH  10  11
ATOM     11  C   UNL A   1      44.850  23.776  25.324  1.00  0.00     0.114 C 
ATOM     12  C   UNL A   1      44.021  25.028  25.013  1.00  0.00     0.048 C 
ATOM     13  C   UNL A   1      44.347  23.083  26.598  1.00  0.00     0.043 C 
ATOM     14  O   UNL A   1      46.195  24.208  25.633  1.00  0.00    -0.369 OA
ATOM     15  C   UNL A   1      45.118  23.774  27.695  1.00  0.00     0.032 C 
ATOM     16  C   UNL A   1      46.447  24.044  27.031  1.00  0.00     0.161 C 
ENDBRANCH  10  11
ENDBRANCH   7  10
ENDBRANCH   5   7
ENDBRANCH   3   5
ENDBRANCH   2   3
ENDBRANCH   1   2
BRANCH   1  17
ATOM     17  C   UNL A   1      40.908  20.205  26.465  1.00  0.00     0.275 C 
BRANCH  17  18
ATOM     18  O   UNL A   1      41.237  21.605  26.504  1.00  0.00    -0.458 OA
BRANCH  18  19
ATOM     19  C   UNL A   1      40.174  22.447  26.489  1.00  0.00     0.338 C 
ATOM     20  O   UNL A   1      39.005  22.145  26.315  1.00  0.00    -0.246 OA
BRANCH  19  21
ATOM     21  C   UNL A   1      40.603  23.806  26.864  1.00  0.00     0.060 A 
ATOM     22  C   UNL A   1      41.164  23.983  28.132  1.00  0.00     0.016 A 
ATOM     23  C   UNL A   1      40.402  24.902  26.022  1.00  0.00     0.016 A 
ATOM     24  C   UNL A   1      41.530  25.252  28.566  1.00  0.00     0.010 A 
ATOM     25  C   UNL A   1      40.761  26.181  26.464  1.00  0.00     0.010 A 
ATOM     26  C   UNL A   1      41.318  26.364  27.743  1.00  0.00    -0.014 A 
BRANCH  26  27
ATOM     27  C   UNL A   1      41.637  27.718  28.254  1.00  0.00     0.031 A 
ATOM     28  C   UNL A   1      43.061  28.193  28.272  1.00  0.00     0.074 A 
ATOM     29  C   UNL A   1      40.647  28.521  28.683  1.00  0.00     0.049 A 
ATOM     30  N   UNL A   1      43.547  29.328  28.705  1.00  0.00    -0.248 NA
ATOM     31  C   UNL A   1      44.075  27.272  27.732  1.00  0.00     0.031 C 
ATOM     32  C   UNL A   1      39.227  28.171  28.701  1.00  0.00     0.029 A 
ATOM     33  N   UNL A   1      40.686  29.793  29.199  1.00  0.00    -0.354 N 
ATOM     34  C   UNL A   1      44.922  29.245  28.526  1.00  0.00     0.074 A 
ATOM     35  C   UNL A   1      45.196  27.947  27.947  1.00  0.00     0.031 C 
ATOM     36  C   UNL A   1      38.530  29.197  29.216  1.00  0.00     0.029 A 
ATOM     37  C   UNL A   1      39.456  30.263  29.593  1.00  0.00     0.049 A 
ATOM     38  H   UNL A   1      41.516  30.317  29.278  1.00  0.00     0.167 HD
ATOM     39  C   UNL A   1      45.868  30.172  28.805  1.00  0.00     0.034 A 
ATOM     40  C   UNL A   1      39.117  31.414  30.205  1.00  0.00     0.034 A 
ATOM     41  C   UNL A   1      45.587  31.476  29.344  1.00  0.00     0.049 A 
ATOM     42  C   UNL A   1      40.190  32.425  30.508  1.00  0.00     0.074 A 
ATOM     43  C   UNL A   1      46.474  32.502  29.622  1.00  0.00     0.029 A 
ATOM     44  N   UNL A   1      44.325  31.935  29.692  1.00  0.00    -0.354 N 
ATOM     45  N   UNL A   1      41.473  32.372  30.240  1.00  0.00    -0.248 NA
ATOM     46  C   UNL A   1      39.767  33.666  31.174  1.00  0.00     0.031 C 
ATOM     47  C   UNL A   1      45.749  33.575  30.151  1.00  0.00     0.029 A 
ATOM     48  C   UNL A   1      44.410  33.224  30.188  1.00  0.00     0.049 A 
ATOM     49  H   UNL A   1      43.493  31.418  29.598  1.00  0.00     0.167 HD
ATOM     50  C   UNL A   1      42.004  33.580  30.677  1.00  0.00     0.074 A 
ATOM     51  C   UNL A   1      40.900  34.354  31.207  1.00  0.00     0.031 C 
ATOM     52  C   UNL A   1      43.293  34.002  30.661  1.00  0.00     0.034 A 
BRANCH  39  53
ATOM     53  C   UNL A   1      47.300  29.822  28.502  1.00  0.00     0.023 A 
ATOM     54  C   UNL A   1      47.860  30.193  27.263  1.00  0.00     0.012 A 
ATOM     55  C   UNL A   1      48.106  29.176  29.460  1.00  0.00     0.148 A 
ATOM     56  C   UNL A   1      49.192  29.903  26.971  1.00  0.00     0.002 A 
ATOM     57  C   UNL A   1      49.444  28.924  29.176  1.00  0.00     0.091 A 
ATOM     58  F   UNL A   1      47.548  28.808  30.622  1.00  0.00    -0.205 F 
ATOM     59  C   UNL A   1      49.986  29.279  27.931  1.00  0.00     0.022 A 
BRANCH  57  60
ATOM     60  S   UNL A   1      50.561  28.186  30.374  1.00  0.00     0.127 S 
ATOM     61  O   UNL A   1      50.476  29.137  31.482  1.00  0.00    -0.237 OA
ATOM     62  O   UNL A   1      49.928  26.892  30.633  1.00  0.00    -0.237 OA
ATOM     63  O   UNL A   1      51.857  28.104  29.716  1.00  0.00    -0.744 OA
ENDBRANCH  57  60
ENDBRANCH  39  53
BRANCH  40  64
ATOM     64  C   UNL A   1      37.690  31.685  30.537  1.00  0.00     0.023 A 
ATOM     65  C   UNL A   1      37.177  31.270  31.781  1.00  0.00     0.012 A 
ATOM     66  C   UNL A   1      36.850  32.381  29.645  1.00  0.00     0.148 A 
ATOM     67  C   UNL A   1      35.847  31.524  32.121  1.00  0.00     0.002 A 
ATOM     68  C   UNL A   1      35.544  32.677  30.013  1.00  0.00     0.091 A 
ATOM     69  F   UNL A   1      37.350  32.747  28.456  1.00  0.00    -0.205 F 
ATOM     70  C   UNL A   1      35.035  32.237  31.243  1.00  0.00     0.022 A 
BRANCH  68  71
ATOM     71  S   UNL A   1      34.474  33.704  28.996  1.00  0.00     0.127 S 
ATOM     72  O   UNL A   1      34.023  32.755  27.982  1.00  0.00    -0.237 OA
ATOM     73  O   UNL A   1      33.446  34.116  29.954  1.00  0.00    -0.237 OA
ATOM     74  O   UNL A   1      35.317  34.792  28.521  1.00  0.00    -0.744 OA
ENDBRANCH  68  71
ENDBRANCH  40  64
BRANCH  52  75
ATOM     75  C   UNL A   1      43.585  35.373  31.212  1.00  0.00     0.023 A 
ATOM     76  C   UNL A   1      43.877  35.524  32.582  1.00  0.00     0.012 A 
ATOM     77  C   UNL A   1      43.644  36.497  30.363  1.00  0.00     0.148 A 
ATOM     78  C   UNL A   1      44.199  36.776  33.105  1.00  0.00     0.002 A 
ATOM     79  C   UNL A   1      44.008  37.734  30.884  1.00  0.00     0.091 A 
ATOM     80  F   UNL A   1      43.342  36.337  29.067  1.00  0.00    -0.205 F 
ATOM     81  C   UNL A   1      44.275  37.877  32.255  1.00  0.00     0.022 A 
BRANCH  79  82
ATOM     82  S   UNL A   1      44.219  39.185  29.846  1.00  0.00     0.127 S 
ATOM     83  O   UNL A   1      45.257  38.739  28.918  1.00  0.00    -0.237 OA
ATOM     84  O   UNL A   1      42.892  39.339  29.248  1.00  0.00    -0.237 OA
ATOM     85  O   UNL A   1      44.601  40.265  30.745  1.00  0.00    -0.744 OA
ENDBRANCH  79  82
ENDBRANCH  52  75
ENDBRANCH  26  27
ENDBRANCH  19  21
ENDBRANCH  18  19
ENDBRANCH  17  18
ENDBRANCH   1  17
TORSDOF 17
ENDMDL
MODEL 2
REMARK VINA RESULT:      -9.3      4.485     12.155
REMARK SMILES C[C@H]([NH2+]C[C@@]1(C)CCCO1)C(=O)OCCOC(=O)c1ccc(-c2c3nc(c(-c4cccc(S(=O)(=O)[O-])c4F)c4ccc([nH]4)c(-c4cccc(S(=O)(=O)[O-])c4F)c4nc(c(-c5cccc(S(=O)(=O)[O-])c5F)c5ccc2[nH]5)C=C4)C=C3)cc1
REMARK SMILES IDX 14 1 13 2 11 3 12 4 2 5 1 6 3 7 4 10 5 11 6 12 7 13 10 14
REMARK SMILES IDX 8 15 9 16 15 17 16 18 17 19 18 20 19 21 20 22 81 23 21 24
REMARK SMILES IDX 80 25 22 26 23 27 24 28 74 29 25 30 79 31 73 32 75 33 26 34
REMARK SMILES IDX 78 35 72 36 71 37 27 39 59 40 39 41 58 42 40 43 43 44 57 45
REMARK SMILES IDX 76 46 41 47 42 48 56 50 77 51 44 52 28 53 29 54 37 55 30 56
REMARK SMILES IDX 32 57 38 58 31 59 33 60 34 61 35 62 36 63 60 64 61 65 69 66
REMARK SMILES IDX 62 67 64 68 70 69 63 70 65 71 66 72 67 73 68 74 45 75 46 76
REMARK SMILES IDX 54 77 47 78 49 79 55 80 48 81 50 82 51 83 52 84 53 85
REMARK H PARENT 3 8 3 9 75 38 43 49
REMARK Flexibility Score: inf
ROOT
ATOM      1  C   UNL A   1      33.820  33.963  29.168  1.00  0.00     0.274 C 
ENDROOT
BRANCH   1   2
ATOM      2  O   UNL A   1      32.711  34.860  29.360  1.00  0.00    -0.458 OA
BRANCH   2   3
ATOM      3  C   UNL A   1      32.938  35.943  30.152  1.00  0.00     0.364 C 
ATOM      4  O   UNL A   1      32.981  37.097  29.741  1.00  0.00    -0.245 OA
BRANCH   3   5
ATOM      5  C   UNL A   1      33.132  35.591  31.636  1.00  0.00     0.290 C 
ATOM      6  C   UNL A   1      31.977  36.145  32.466  1.00  0.00     0.088 C 
BRANCH   5   7
ATOM      7  N   UNL A   1      34.486  35.854  32.171  1.00  0.00    -0.332 N 
ATOM      8  H   UNL A   1      34.609  36.866  32.219  1.00  0.00     0.347 HD
ATOM      9  H   UNL A   1      35.124  35.378  31.533  1.00  0.00     0.347 HD
BRANCH   7  10
ATOM     10  C   UNL A   1      34.786  35.308  33.497  1.00  0.00     0.296 C 
BRANCH  10  11
ATOM     11  C   UNL A   1      35.807  34.130  33.489  1.00  0.00     0.114 C 
ATOM     12  C   UNL A   1      36.415  33.871  34.873  1.00  0.00     0.048 C 
ATOM     13  C   UNL A   1      35.144  32.862  32.931  1.00  0.00     0.043 C 
ATOM     14  O   UNL A   1      36.894  34.421  32.581  1.00  0.00    -0.369 OA
ATOM     15  C   UNL A   1      36.277  32.165  32.218  1.00  0.00     0.032 C 
ATOM     16  C   UNL A   1      37.079  33.327  31.681  1.00  0.00     0.161 C 
ENDBRANCH  10  11
ENDBRANCH   7  10
ENDBRANCH   5   7
ENDBRANCH   3   5
ENDBRANCH   2   3
ENDBRANCH   1   2
BRANCH   1  17
ATOM     17  C   UNL A   1      33.556  33.026  27.985  1.00  0.00     0.275 C 
BRANCH  17  18
ATOM     18  O   UNL A   1      34.746  32.334  27.567  1.00  0.00    -0.458 OA
BRANCH  18  19
ATOM     19  C   UNL A   1      34.693  30.984  27.668  1.00  0.00     0.338 C 
ATOM     20  O   UNL A   1      33.836  30.250  27.203  1.00  0.00    -0.246 OA
BRANCH  19  21
ATOM     21  C   UNL A   1      35.919  30.478  28.311  1.00  0.00     0.060 A 
ATOM     22  C   UNL A   1      37.137  30.735  27.677  1.00  0.00     0.016 A 
ATOM     23  C   UNL A   1      35.877  29.710  29.477  1.00  0.00     0.016 A 
ATOM     24  C   UNL A   1      38.321  30.229  28.202  1.00  0.00     0.010 A 
ATOM     25  C   UNL A   1      37.068  29.193  30.000  1.00  0.00     0.010 A 
ATOM     26  C   UNL A   1      38.296  29.441  29.359  1.00  0.00    -0.014 A 
BRANCH  26  27
ATOM     27  C   UNL A   1      39.556  28.843  29.858  1.00  0.00     0.031 A 
ATOM     28  C   UNL A   1      40.213  29.400  31.088  1.00  0.00     0.074 A 
ATOM     29  C   UNL A   1      40.097  27.791  29.216  1.00  0.00     0.049 A 
ATOM     30  N   UNL A   1      41.330  29.036  31.664  1.00  0.00    -0.248 NA
ATOM     31  C   UNL A   1      39.525  30.514  31.760  1.00  0.00     0.031 C 
ATOM     32  C   UNL A   1      39.543  27.159  28.019  1.00  0.00     0.029 A 
ATOM     33  N   UNL A   1      41.241  27.078  29.473  1.00  0.00    -0.354 N 
ATOM     34  C   UNL A   1      41.498  29.896  32.741  1.00  0.00     0.074 A 
ATOM     35  C   UNL A   1      40.370  30.803  32.740  1.00  0.00     0.031 C 
ATOM     36  C   UNL A   1      40.354  26.160  27.636  1.00  0.00     0.029 A 
ATOM     37  C   UNL A   1      41.501  26.102  28.540  1.00  0.00     0.049 A 
ATOM     38  H   UNL A   1      41.820  27.249  30.251  1.00  0.00     0.167 HD
ATOM     39  C   UNL A   1      42.495  29.917  33.658  1.00  0.00     0.034 A 
ATOM     40  C   UNL A   1      42.552  25.269  28.417  1.00  0.00     0.034 A 
ATOM     41  C   UNL A   1      43.593  28.988  33.680  1.00  0.00     0.049 A 
ATOM     42  C   UNL A   1      43.648  25.319  29.448  1.00  0.00     0.074 A 
ATOM     43  C   UNL A   1      44.629  28.902  34.593  1.00  0.00     0.029 A 
ATOM     44  N   UNL A   1      43.801  27.986  32.744  1.00  0.00    -0.354 N 
ATOM     45  N   UNL A   1      43.742  26.070  30.518  1.00  0.00    -0.248 NA
ATOM     46  C   UNL A   1      44.772  24.386  29.270  1.00  0.00     0.031 C 
ATOM     47  C   UNL A   1      45.473  27.857  34.200  1.00  0.00     0.029 A 
ATOM     48  C   UNL A   1      44.952  27.282  33.052  1.00  0.00     0.049 A 
ATOM     49  H   UNL A   1      43.215  27.803  31.974  1.00  0.00     0.167 HD
ATOM     50  C   UNL A   1      44.915  25.685  31.155  1.00  0.00     0.074 A 
ATOM     51  C   UNL A   1      45.488  24.615  30.362  1.00  0.00     0.031 C 
ATOM     52  C   UNL A   1      45.479  26.184  32.282  1.00  0.00     0.034 A 
BRANCH  39  53
ATOM     53  C   UNL A   1      42.427  30.963  34.739  1.00  0.00     0.023 A 
ATOM     54  C   UNL A   1      41.845  30.643  35.982  1.00  0.00     0.012 A 
ATOM     55  C   UNL A   1      42.987  32.241  34.546  1.00  0.00     0.148 A 
ATOM     56  C   UNL A   1      41.796  31.587  37.007  1.00  0.00     0.002 A 
ATOM     57  C   UNL A   1      42.968  33.165  35.585  1.00  0.00     0.091 A 
ATOM     58  F   UNL A   1      43.513  32.535  33.348  1.00  0.00    -0.205 F 
ATOM     59  C   UNL A   1      42.366  32.843  36.812  1.00  0.00     0.022 A 
BRANCH  57  60
ATOM     60  S   UNL A   1      43.737  34.782  35.450  1.00  0.00     0.127 S 
ATOM     61  O   UNL A   1      42.960  35.390  34.371  1.00  0.00    -0.237 OA
ATOM     62  O   UNL A   1      43.491  35.355  36.775  1.00  0.00    -0.237 OA
ATOM     63  O   UNL A   1      45.141  34.534  35.150  1.00  0.00    -0.744 OA
ENDBRANCH  57  60
ENDBRANCH  39  53
BRANCH  40  64
ATOM     64  C   UNL A   1      42.598  24.293  27.292  1.00  0.00     0.023 A 
ATOM     65  C   UNL A   1      43.267  24.636  26.102  1.00  0.00     0.012 A 
ATOM     66  C   UNL A   1      42.013  23.016  27.408  1.00  0.00     0.148 A 
ATOM     67  C   UNL A   1      43.335  23.733  25.040  1.00  0.00     0.002 A 
ATOM     68  C   UNL A   1      42.131  22.103  26.368  1.00  0.00     0.091 A 
ATOM     69  F   UNL A   1      41.359  22.716  28.540  1.00  0.00    -0.205 F 
ATOM     70  C   UNL A   1      42.778  22.465  25.176  1.00  0.00     0.022 A 
BRANCH  68  71
ATOM     71  S   UNL A   1      41.558  20.406  26.514  1.00  0.00     0.127 S 
ATOM     72  O   UNL A   1      42.141  20.002  27.790  1.00  0.00    -0.237 OA
ATOM     73  O   UNL A   1      40.103  20.575  26.528  1.00  0.00    -0.237 OA
ATOM     74  O   UNL A   1      42.067  19.721  25.334  1.00  0.00    -0.744 OA
ENDBRANCH  68  71
ENDBRANCH  40  64
BRANCH  52  75
ATOM     75  C   UNL A   1      46.774  25.568  32.746  1.00  0.00     0.023 A 
ATOM     76  C   UNL A   1      47.996  26.073  32.260  1.00  0.00     0.012 A 
ATOM     77  C   UNL A   1      46.783  24.546  33.715  1.00  0.00     0.148 A 
ATOM     78  C   UNL A   1      49.208  25.553  32.713  1.00  0.00     0.002 A 
ATOM     79  C   UNL A   1      47.995  24.061  34.193  1.00  0.00     0.091 A 
ATOM     80  F   UNL A   1      45.609  24.063  34.149  1.00  0.00    -0.205 F 
ATOM     81  C   UNL A   1      49.208  24.557  33.686  1.00  0.00     0.022 A 
BRANCH  79  82
ATOM     82  S   UNL A   1      48.087  22.844  35.512  1.00  0.00     0.127 S 
ATOM     83  O   UNL A   1      47.514  23.579  36.637  1.00  0.00    -0.237 OA
ATOM     84  O   UNL A   1      47.246  21.762  34.998  1.00  0.00    -0.237 OA
ATOM     85  O   UNL A   1      49.497  22.500  35.638  1.00  0.00    -0.744 OA
ENDBRANCH  79  82
ENDBRANCH  52  75
ENDBRANCH  26  27
ENDBRANCH  19  21
ENDBRANCH  18  19
ENDBRANCH  17  18
ENDBRANCH   1  17
TORSDOF 17
ENDMDL
MODEL 3
REMARK VINA RESULT:      -8.8      5.248     10.926
REMARK SMILES C[C@H]([NH2+]C[C@@]1(C)CCCO1)C(=O)OCCOC(=O)c1ccc(-c2c3nc(c(-c4cccc(S(=O)(=O)[O-])c4F)c4ccc([nH]4)c(-c4cccc(S(=O)(=O)[O-])c4F)c4nc(c(-c5cccc(S(=O)(=O)[O-])c5F)c5ccc2[nH]5)C=C4)C=C3)cc1
REMARK SMILES IDX 14 1 13 2 11 3 12 4 2 5 1 6 3 7 4 10 5 11 6 12 7 13 10 14
REMARK SMILES IDX 8 15 9 16 15 17 16 18 17 19 18 20 19 21 20 22 81 23 21 24
REMARK SMILES IDX 80 25 22 26 23 27 24 28 74 29 25 30 79 31 73 32 75 33 26 34
REMARK SMILES IDX 78 35 72 36 71 37 27 39 59 40 39 41 58 42 40 43 43 44 57 45
REMARK SMILES IDX 76 46 41 47 42 48 56 50 77 51 44 52 28 53 29 54 37 55 30 56
REMARK SMILES IDX 32 57 38 58 31 59 33 60 34 61 35 62 36 63 60 64 61 65 69 66
REMARK SMILES IDX 62 67 64 68 70 69 63 70 65 71 66 72 67 73 68 74 45 75 46 76
REMARK SMILES IDX 54 77 47 78 49 79 55 80 48 81 50 82 51 83 52 84 53 85
REMARK H PARENT 3 8 3 9 75 38 43 49
REMARK Flexibility Score: inf
ROOT
ATOM      1  C   UNL A   1      32.198  29.063  25.067  1.00  0.00     0.274 C 
ENDROOT
BRANCH   1   2
ATOM      2  O   UNL A   1      32.666  28.099  26.027  1.00  0.00    -0.458 OA
BRANCH   2   3
ATOM      3  C   UNL A   1      31.863  27.022  26.245  1.00  0.00     0.364 C 
ATOM      4  O   UNL A   1      30.810  27.067  26.871  1.00  0.00    -0.245 OA
BRANCH   3   5
ATOM      5  C   UNL A   1      32.394  25.721  25.621  1.00  0.00     0.290 C 
ATOM      6  C   UNL A   1      32.300  24.576  26.625  1.00  0.00     0.088 C 
BRANCH   5   7
ATOM      7  N   UNL A   1      33.689  25.847  24.916  1.00  0.00    -0.332 N 
ATOM      8  H   UNL A   1      34.192  26.632  25.331  1.00  0.00     0.347 HD
ATOM      9  H   UNL A   1      33.448  25.970  23.932  1.00  0.00     0.347 HD
BRANCH   7  10
ATOM     10  C   UNL A   1      34.574  24.681  24.954  1.00  0.00     0.296 C 
BRANCH  10  11
ATOM     11  C   UNL A   1      34.536  23.805  23.666  1.00  0.00     0.114 C 
ATOM     12  C   UNL A   1      35.883  23.133  23.372  1.00  0.00     0.048 C 
ATOM     13  C   UNL A   1      33.412  22.765  23.769  1.00  0.00     0.043 C 
ATOM     14  O   UNL A   1      34.196  24.620  22.521  1.00  0.00    -0.369 OA
ATOM     15  C   UNL A   1      32.942  22.620  22.342  1.00  0.00     0.032 C 
ATOM     16  C   UNL A   1      33.111  24.023  21.806  1.00  0.00     0.161 C 
ENDBRANCH  10  11
ENDBRANCH   7  10
ENDBRANCH   5   7
ENDBRANCH   3   5
ENDBRANCH   2   3
ENDBRANCH   1   2
BRANCH   1  17
ATOM     17  C   UNL A   1      31.820  30.375  25.762  1.00  0.00     0.275 C 
BRANCH  17  18
ATOM     18  O   UNL A   1      32.416  30.486  27.067  1.00  0.00    -0.458 OA
BRANCH  18  19
ATOM     19  C   UNL A   1      33.158  31.602  27.269  1.00  0.00     0.338 C 
ATOM     20  O   UNL A   1      32.790  32.758  27.139  1.00  0.00    -0.246 OA
BRANCH  19  21
ATOM     21  C   UNL A   1      34.475  31.238  27.822  1.00  0.00     0.060 A 
ATOM     22  C   UNL A   1      34.678  29.905  28.190  1.00  0.00     0.016 A 
ATOM     23  C   UNL A   1      35.473  32.190  28.039  1.00  0.00     0.016 A 
ATOM     24  C   UNL A   1      35.876  29.514  28.776  1.00  0.00     0.010 A 
ATOM     25  C   UNL A   1      36.676  31.797  28.638  1.00  0.00     0.010 A 
ATOM     26  C   UNL A   1      36.880  30.459  29.019  1.00  0.00    -0.014 A 
BRANCH  26  27
ATOM     27  C   UNL A   1      38.118  30.040  29.718  1.00  0.00     0.031 A 
ATOM     28  C   UNL A   1      38.397  30.539  31.106  1.00  0.00     0.074 A 
ATOM     29  C   UNL A   1      38.976  29.200  29.112  1.00  0.00     0.049 A 
ATOM     30  N   UNL A   1      39.434  30.312  31.872  1.00  0.00    -0.248 NA
ATOM     31  C   UNL A   1      37.378  31.410  31.716  1.00  0.00     0.031 C 
ATOM     32  C   UNL A   1      38.803  28.642  27.771  1.00  0.00     0.029 A 
ATOM     33  N   UNL A   1      40.172  28.680  29.541  1.00  0.00    -0.354 N 
ATOM     34  C   UNL A   1      39.212  31.037  33.035  1.00  0.00     0.074 A 
ATOM     35  C   UNL A   1      37.943  31.715  32.876  1.00  0.00     0.031 C 
ATOM     36  C   UNL A   1      39.861  27.868  27.479  1.00  0.00     0.029 A 
ATOM     37  C   UNL A   1      40.800  27.901  28.598  1.00  0.00     0.049 A 
ATOM     38  H   UNL A   1      40.543  28.848  30.437  1.00  0.00     0.167 HD
ATOM     39  C   UNL A   1      39.988  31.118  34.142  1.00  0.00     0.034 A 
ATOM     40  C   UNL A   1      42.005  27.298  28.627  1.00  0.00     0.034 A 
ATOM     41  C   UNL A   1      41.229  30.411  34.311  1.00  0.00     0.049 A 
ATOM     42  C   UNL A   1      42.849  27.409  29.868  1.00  0.00     0.074 A 
ATOM     43  C   UNL A   1      42.067  30.395  35.413  1.00  0.00     0.029 A 
ATOM     44  N   UNL A   1      41.814  29.597  33.353  1.00  0.00    -0.354 N 
ATOM     45  N   UNL A   1      42.579  28.016  30.998  1.00  0.00    -0.248 NA
ATOM     46  C   UNL A   1      44.153  26.729  29.849  1.00  0.00     0.031 C 
ATOM     47  C   UNL A   1      43.167  29.583  35.115  1.00  0.00     0.029 A 
ATOM     48  C   UNL A   1      43.005  29.080  33.834  1.00  0.00     0.049 A 
ATOM     49  H   UNL A   1      41.437  29.414  32.463  1.00  0.00     0.167 HD
ATOM     50  C   UNL A   1      43.662  27.770  31.833  1.00  0.00     0.074 A 
ATOM     51  C   UNL A   1      44.584  26.938  31.086  1.00  0.00     0.031 C 
ATOM     52  C   UNL A   1      43.885  28.209  33.096  1.00  0.00     0.034 A 
BRANCH  39  53
ATOM     53  C   UNL A   1      39.501  31.981  35.275  1.00  0.00     0.023 A 
ATOM     54  C   UNL A   1      38.633  31.435  36.242  1.00  0.00     0.012 A 
ATOM     55  C   UNL A   1      39.943  33.311  35.415  1.00  0.00     0.148 A 
ATOM     56  C   UNL A   1      38.190  32.207  37.315  1.00  0.00     0.002 A 
ATOM     57  C   UNL A   1      39.528  34.063  36.508  1.00  0.00     0.091 A 
ATOM     58  F   UNL A   1      40.748  33.820  34.471  1.00  0.00    -0.205 F 
ATOM     59  C   UNL A   1      38.646  33.517  37.454  1.00  0.00     0.022 A 
BRANCH  57  60
ATOM     60  S   UNL A   1      40.115  35.734  36.807  1.00  0.00     0.127 S 
ATOM     61  O   UNL A   1      39.482  36.045  38.088  1.00  0.00    -0.237 OA
ATOM     62  O   UNL A   1      41.565  35.547  36.873  1.00  0.00    -0.237 OA
ATOM     63  O   UNL A   1      39.660  36.527  35.673  1.00  0.00    -0.744 OA
ENDBRANCH  57  60
ENDBRANCH  39  53
BRANCH  40  64
ATOM     64  C   UNL A   1      42.465  26.504  27.453  1.00  0.00     0.023 A 
ATOM     65  C   UNL A   1      43.235  27.128  26.453  1.00  0.00     0.012 A 
ATOM     66  C   UNL A   1      42.173  25.130  27.339  1.00  0.00     0.148 A 
ATOM     67  C   UNL A   1      43.689  26.403  25.350  1.00  0.00     0.002 A 
ATOM     68  C   UNL A   1      42.675  24.403  26.266  1.00  0.00     0.091 A 
ATOM     69  F   UNL A   1      41.418  24.559  28.288  1.00  0.00    -0.205 F 
ATOM     70  C   UNL A   1      43.419  25.040  25.263  1.00  0.00     0.022 A 
BRANCH  68  71
ATOM     71  S   UNL A   1      42.484  22.619  26.148  1.00  0.00     0.127 S 
ATOM     72  O   UNL A   1      41.032  22.476  26.097  1.00  0.00    -0.237 OA
ATOM     73  O   UNL A   1      43.176  22.321  24.893  1.00  0.00    -0.237 OA
ATOM     74  O   UNL A   1      43.137  22.079  27.332  1.00  0.00    -0.744 OA
ENDBRANCH  68  71
ENDBRANCH  40  64
BRANCH  52  75
ATOM     75  C   UNL A   1      45.165  27.784  33.767  1.00  0.00     0.023 A 
ATOM     76  C   UNL A   1      46.303  28.610  33.679  1.00  0.00     0.012 A 
ATOM     77  C   UNL A   1      45.220  26.611  34.545  1.00  0.00     0.148 A 
ATOM     78  C   UNL A   1      47.484  28.262  34.333  1.00  0.00     0.002 A 
ATOM     79  C   UNL A   1      46.388  26.292  35.230  1.00  0.00     0.091 A 
ATOM     80  F   UNL A   1      44.133  25.827  34.600  1.00  0.00    -0.205 F 
ATOM     81  C   UNL A   1      47.523  27.111  35.116  1.00  0.00     0.022 A 
BRANCH  79  82
ATOM     82  S   UNL A   1      46.496  24.879  36.333  1.00  0.00     0.127 S 
ATOM     83  O   UNL A   1      46.106  23.781  35.451  1.00  0.00    -0.237 OA
ATOM     84  O   UNL A   1      47.910  24.884  36.712  1.00  0.00    -0.237 OA
ATOM     85  O   UNL A   1      45.580  25.160  37.431  1.00  0.00    -0.744 OA
ENDBRANCH  79  82
ENDBRANCH  52  75
ENDBRANCH  26  27
ENDBRANCH  19  21
ENDBRANCH  18  19
ENDBRANCH  17  18
ENDBRANCH   1  17
TORSDOF 17
ENDMDL
