MODEL 1
REMARK VINA RESULT:     -10.5      0.000      0.000
REMARK SMILES C[C@@H](CC[NH+](C)C)NC(=O)Cn1cccc1C(=O)OCCOC(=O)c1ccc(-c2c3nc(c(-c4cccc(S(=O)(=O)[O-])c4F)c4ccc([nH]4)c(-c4cccc(S(=O)(=O)[O-])c4F)c4nc(c(-c5cccc(S(=O)(=O)[O-])c5F)c5ccc2[nH]5)C=C4)C=C3)cc1
REMARK SMILES IDX 19 1 17 2 18 3 16 4 12 5 13 6 14 7 15 8 11 9 9 10 8 11 10 13
REMARK SMILES IDX 2 14 1 15 3 16 4 17 5 18 6 19 7 20 20 22 21 23 22 24 23 25
REMARK SMILES IDX 24 26 25 27 26 28 87 29 27 30 86 31 28 32 29 33 30 34 80 35
REMARK SMILES IDX 31 36 85 37 79 38 81 39 32 40 84 41 78 42 77 43 33 45 65 46
REMARK SMILES IDX 45 47 64 48 46 49 49 50 63 51 82 52 47 53 48 54 62 56 83 57
REMARK SMILES IDX 50 58 34 59 35 60 43 61 36 62 38 63 44 64 37 65 39 66 40 67
REMARK SMILES IDX 41 68 42 69 66 70 67 71 75 72 68 73 70 74 76 75 69 76 71 77
REMARK SMILES IDX 72 78 73 79 74 80 51 81 52 82 60 83 53 84 55 85 61 86 54 87
REMARK SMILES IDX 56 88 57 89 58 90 59 91
REMARK H PARENT 8 12 5 21 81 44 49 55
REMARK Flexibility Score: inf
ROOT
ATOM      1  O   UNL A   1      34.508  34.005  29.258  1.00  0.00    -0.457 OA
ENDROOT
BRANCH   1   2
ATOM      2  C   UNL A   1      33.478  34.875  29.470  1.00  0.00     0.355 C 
ATOM      3  O   UNL A   1      32.477  34.919  28.758  1.00  0.00    -0.244 OA
BRANCH   2   4
ATOM      4  C   UNL A   1      33.625  35.661  30.693  1.00  0.00     0.128 A 
ATOM      5  N   UNL A   1      34.383  35.460  31.837  1.00  0.00    -0.333 N 
ATOM      6  C   UNL A   1      34.235  36.544  32.686  1.00  0.00     0.087 A 
ATOM      7  C   UNL A   1      33.295  37.390  32.159  1.00  0.00     0.020 A 
ATOM      8  C   UNL A   1      32.914  36.840  30.920  1.00  0.00     0.035 A 
BRANCH   5   9
ATOM      9  C   UNL A   1      35.361  34.419  32.127  1.00  0.00     0.222 C 
BRANCH   9  10
ATOM     10  C   UNL A   1      34.962  33.325  33.082  1.00  0.00     0.240 C 
ATOM     11  N   UNL A   1      35.950  32.723  33.809  1.00  0.00    -0.352 N 
ATOM     12  H   UNL A   1      36.087  33.039  34.731  1.00  0.00     0.163 HD
ATOM     13  O   UNL A   1      33.785  32.969  33.150  1.00  0.00    -0.273 OA
BRANCH  11  14
ATOM     14  C   UNL A   1      36.814  31.654  33.337  1.00  0.00     0.084 C 
ATOM     15  C   UNL A   1      36.258  31.050  32.043  1.00  0.00     0.031 C 
BRANCH  14  16
ATOM     16  C   UNL A   1      38.290  32.080  33.194  1.00  0.00     0.086 C 
BRANCH  16  17
ATOM     17  C   UNL A   1      39.367  31.302  33.992  1.00  0.00     0.263 C 
BRANCH  17  18
ATOM     18  N   UNL A   1      40.257  30.395  33.234  1.00  0.00    -0.340 N 
ATOM     19  C   UNL A   1      41.499  30.182  33.988  1.00  0.00     0.332 C 
ATOM     20  C   UNL A   1      39.636  29.100  32.981  1.00  0.00     0.332 C 
ATOM     21  H   UNL A   1      40.449  30.836  32.335  1.00  0.00     0.347 HD
ENDBRANCH  17  18
ENDBRANCH  16  17
ENDBRANCH  14  16
ENDBRANCH  11  14
ENDBRANCH   9  10
ENDBRANCH   5   9
ENDBRANCH   2   4
ENDBRANCH   1   2
BRANCH   1  22
ATOM     22  C   UNL A   1      34.305  33.051  28.186  1.00  0.00     0.275 C 
BRANCH  22  23
ATOM     23  C   UNL A   1      34.908  31.642  28.385  1.00  0.00     0.275 C 
BRANCH  23  24
ATOM     24  O   UNL A   1      35.728  31.132  27.325  1.00  0.00    -0.458 OA
BRANCH  24  25
ATOM     25  C   UNL A   1      36.155  29.889  27.606  1.00  0.00     0.338 C 
ATOM     26  O   UNL A   1      35.457  28.885  27.637  1.00  0.00    -0.246 OA
BRANCH  25  27
ATOM     27  C   UNL A   1      37.482  29.761  28.166  1.00  0.00     0.060 A 
ATOM     28  C   UNL A   1      38.525  29.785  27.228  1.00  0.00     0.016 A 
ATOM     29  C   UNL A   1      37.562  29.042  29.358  1.00  0.00     0.016 A 
ATOM     30  C   UNL A   1      39.629  28.983  27.436  1.00  0.00     0.010 A 
ATOM     31  C   UNL A   1      38.659  28.225  29.553  1.00  0.00     0.010 A 
ATOM     32  C   UNL A   1      39.682  28.196  28.594  1.00  0.00    -0.014 A 
BRANCH  32  33
ATOM     33  C   UNL A   1      40.980  27.606  28.952  1.00  0.00     0.031 A 
ATOM     34  C   UNL A   1      40.957  26.093  28.517  1.00  0.00     0.074 A 
ATOM     35  C   UNL A   1      41.878  28.450  29.565  1.00  0.00     0.049 A 
ATOM     36  N   UNL A   1      41.637  25.070  28.940  1.00  0.00    -0.248 NA
ATOM     37  C   UNL A   1      39.937  25.633  27.514  1.00  0.00     0.031 C 
ATOM     38  C   UNL A   1      41.679  29.900  29.842  1.00  0.00     0.029 A 
ATOM     39  N   UNL A   1      43.148  28.280  30.074  1.00  0.00    -0.354 N 
ATOM     40  C   UNL A   1      41.335  23.971  28.084  1.00  0.00     0.074 A 
ATOM     41  C   UNL A   1      40.179  24.335  27.338  1.00  0.00     0.031 C 
ATOM     42  C   UNL A   1      42.724  30.424  30.532  1.00  0.00     0.029 A 
ATOM     43  C   UNL A   1      43.727  29.396  30.749  1.00  0.00     0.049 A 
ATOM     44  H   UNL A   1      43.633  27.429  29.975  1.00  0.00     0.167 HD
ATOM     45  C   UNL A   1      42.154  22.888  27.926  1.00  0.00     0.034 A 
ATOM     46  C   UNL A   1      44.913  29.444  31.451  1.00  0.00     0.034 A 
ATOM     47  C   UNL A   1      43.287  23.048  28.773  1.00  0.00     0.049 A 
ATOM     48  C   UNL A   1      45.547  28.161  31.132  1.00  0.00     0.074 A 
ATOM     49  C   UNL A   1      43.428  22.929  30.128  1.00  0.00     0.029 A 
ATOM     50  N   UNL A   1      44.310  23.803  28.252  1.00  0.00    -0.354 N 
ATOM     51  N   UNL A   1      46.035  27.862  29.966  1.00  0.00    -0.248 NA
ATOM     52  C   UNL A   1      45.499  27.085  32.127  1.00  0.00     0.031 C 
ATOM     53  C   UNL A   1      44.218  24.051  30.441  1.00  0.00     0.029 A 
ATOM     54  C   UNL A   1      44.763  24.600  29.271  1.00  0.00     0.049 A 
ATOM     55  H   UNL A   1      44.650  23.779  27.328  1.00  0.00     0.167 HD
ATOM     56  C   UNL A   1      45.989  26.493  29.984  1.00  0.00     0.074 A 
ATOM     57  C   UNL A   1      45.989  26.102  31.379  1.00  0.00     0.031 C 
ATOM     58  C   UNL A   1      45.458  25.814  28.933  1.00  0.00     0.034 A 
BRANCH  45  59
ATOM     59  C   UNL A   1      42.228  21.739  26.948  1.00  0.00     0.023 A 
ATOM     60  C   UNL A   1      41.224  20.741  27.116  1.00  0.00     0.012 A 
ATOM     61  C   UNL A   1      43.332  21.413  26.144  1.00  0.00     0.148 A 
ATOM     62  C   UNL A   1      41.370  19.441  26.640  1.00  0.00     0.002 A 
ATOM     63  C   UNL A   1      43.452  20.116  25.626  1.00  0.00     0.091 A 
ATOM     64  F   UNL A   1      44.295  22.321  25.952  1.00  0.00    -0.205 F 
ATOM     65  C   UNL A   1      42.498  19.124  25.908  1.00  0.00     0.022 A 
BRANCH  63  66
ATOM     66  S   UNL A   1      44.823  19.586  24.593  1.00  0.00     0.127 S 
ATOM     67  O   UNL A   1      44.685  18.132  24.626  1.00  0.00    -0.237 OA
ATOM     68  O   UNL A   1      44.480  20.195  23.304  1.00  0.00    -0.237 OA
ATOM     69  O   UNL A   1      46.020  20.137  25.209  1.00  0.00    -0.744 OA
ENDBRANCH  63  66
ENDBRANCH  45  59
BRANCH  46  70
ATOM     70  C   UNL A   1      45.663  30.316  32.451  1.00  0.00     0.023 A 
ATOM     71  C   UNL A   1      45.611  30.165  33.843  1.00  0.00     0.012 A 
ATOM     72  C   UNL A   1      46.599  31.300  31.978  1.00  0.00     0.148 A 
ATOM     73  C   UNL A   1      46.505  30.867  34.691  1.00  0.00     0.002 A 
ATOM     74  C   UNL A   1      47.563  31.885  32.796  1.00  0.00     0.091 A 
ATOM     75  F   UNL A   1      46.545  31.712  30.706  1.00  0.00    -0.205 F 
ATOM     76  C   UNL A   1      47.512  31.680  34.167  1.00  0.00     0.022 A 
BRANCH  74  77
ATOM     77  S   UNL A   1      48.986  32.776  32.119  1.00  0.00     0.127 S 
ATOM     78  O   UNL A   1      49.776  33.064  33.315  1.00  0.00    -0.237 OA
ATOM     79  O   UNL A   1      49.565  31.768  31.231  1.00  0.00    -0.237 OA
ATOM     80  O   UNL A   1      48.453  33.947  31.436  1.00  0.00    -0.744 OA
ENDBRANCH  74  77
ENDBRANCH  46  70
BRANCH  58  81
ATOM     81  C   UNL A   1      45.450  26.560  27.589  1.00  0.00     0.023 A 
ATOM     82  C   UNL A   1      44.217  27.117  27.192  1.00  0.00     0.012 A 
ATOM     83  C   UNL A   1      46.522  26.680  26.666  1.00  0.00     0.148 A 
ATOM     84  C   UNL A   1      44.042  27.738  25.952  1.00  0.00     0.002 A 
ATOM     85  C   UNL A   1      46.344  27.290  25.412  1.00  0.00     0.091 A 
ATOM     86  F   UNL A   1      47.716  26.203  27.002  1.00  0.00    -0.205 F 
ATOM     87  C   UNL A   1      45.102  27.823  25.060  1.00  0.00     0.022 A 
BRANCH  85  88
ATOM     88  S   UNL A   1      47.626  27.419  24.142  1.00  0.00     0.127 S 
ATOM     89  O   UNL A   1      46.976  28.242  23.119  1.00  0.00    -0.237 OA
ATOM     90  O   UNL A   1      48.706  28.097  24.855  1.00  0.00    -0.237 OA
ATOM     91  O   UNL A   1      47.921  26.059  23.714  1.00  0.00    -0.744 OA
ENDBRANCH  85  88
ENDBRANCH  58  81
ENDBRANCH  32  33
ENDBRANCH  25  27
ENDBRANCH  24  25
ENDBRANCH  23  24
ENDBRANCH  22  23
ENDBRANCH   1  22
TORSDOF 20
ENDMDL
MODEL 2
REMARK VINA RESULT:     -10.3      3.693      5.962
REMARK SMILES C[C@@H](CC[NH+](C)C)NC(=O)Cn1cccc1C(=O)OCCOC(=O)c1ccc(-c2c3nc(c(-c4cccc(S(=O)(=O)[O-])c4F)c4ccc([nH]4)c(-c4cccc(S(=O)(=O)[O-])c4F)c4nc(c(-c5cccc(S(=O)(=O)[O-])c5F)c5ccc2[nH]5)C=C4)C=C3)cc1
REMARK SMILES IDX 19 1 17 2 18 3 16 4 12 5 13 6 14 7 15 8 11 9 9 10 8 11 10 13
REMARK SMILES IDX 2 14 1 15 3 16 4 17 5 18 6 19 7 20 20 22 21 23 22 24 23 25
REMARK SMILES IDX 24 26 25 27 26 28 87 29 27 30 86 31 28 32 29 33 30 34 80 35
REMARK SMILES IDX 31 36 85 37 79 38 81 39 32 40 84 41 78 42 77 43 33 45 65 46
REMARK SMILES IDX 45 47 64 48 46 49 49 50 63 51 82 52 47 53 48 54 62 56 83 57
REMARK SMILES IDX 50 58 34 59 35 60 43 61 36 62 38 63 44 64 37 65 39 66 40 67
REMARK SMILES IDX 41 68 42 69 66 70 67 71 75 72 68 73 70 74 76 75 69 76 71 77
REMARK SMILES IDX 72 78 73 79 74 80 51 81 52 82 60 83 53 84 55 85 61 86 54 87
REMARK SMILES IDX 56 88 57 89 58 90 59 91
REMARK H PARENT 8 12 5 21 81 44 49 55
REMARK Flexibility Score: inf
ROOT
ATOM      1  O   UNL A   1      33.650  29.722  25.728  1.00  0.00    -0.457 OA
ENDROOT
BRANCH   1   2
ATOM      2  C   UNL A   1      33.638  28.358  25.731  1.00  0.00     0.355 C 
ATOM      3  O   UNL A   1      33.665  27.687  26.760  1.00  0.00    -0.244 OA
BRANCH   2   4
ATOM      4  C   UNL A   1      33.468  27.776  24.401  1.00  0.00     0.128 A 
ATOM      5  N   UNL A   1      32.821  26.627  23.969  1.00  0.00    -0.333 N 
ATOM      6  C   UNL A   1      32.876  26.557  22.588  1.00  0.00     0.087 A 
ATOM      7  C   UNL A   1      33.656  27.584  22.126  1.00  0.00     0.020 A 
ATOM      8  C   UNL A   1      34.025  28.342  23.254  1.00  0.00     0.035 A 
BRANCH   5   9
ATOM      9  C   UNL A   1      32.015  25.680  24.729  1.00  0.00     0.222 C 
BRANCH   9  10
ATOM     10  C   UNL A   1      30.728  26.175  25.333  1.00  0.00     0.240 C 
ATOM     11  N   UNL A   1      29.618  26.200  24.536  1.00  0.00    -0.352 N 
ATOM     12  H   UNL A   1      28.992  25.445  24.615  1.00  0.00     0.163 HD
ATOM     13  O   UNL A   1      30.714  26.588  26.494  1.00  0.00    -0.273 OA
BRANCH  11  14
ATOM     14  C   UNL A   1      29.284  27.245  23.585  1.00  0.00     0.084 C 
ATOM     15  C   UNL A   1      27.767  27.453  23.532  1.00  0.00     0.031 C 
BRANCH  14  16
ATOM     16  C   UNL A   1      30.045  28.565  23.834  1.00  0.00     0.086 C 
BRANCH  16  17
ATOM     17  C   UNL A   1      30.400  29.456  22.619  1.00  0.00     0.263 C 
BRANCH  17  18
ATOM     18  N   UNL A   1      29.597  30.682  22.410  1.00  0.00    -0.340 N 
ATOM     19  C   UNL A   1      28.494  30.395  21.485  1.00  0.00     0.332 C 
ATOM     20  C   UNL A   1      29.039  31.192  23.657  1.00  0.00     0.332 C 
ATOM     21  H   UNL A   1      30.218  31.392  22.026  1.00  0.00     0.347 HD
ENDBRANCH  17  18
ENDBRANCH  16  17
ENDBRANCH  14  16
ENDBRANCH  11  14
ENDBRANCH   9  10
ENDBRANCH   5   9
ENDBRANCH   2   4
ENDBRANCH   1   2
BRANCH   1  22
ATOM     22  C   UNL A   1      33.383  30.348  27.007  1.00  0.00     0.275 C 
BRANCH  22  23
ATOM     23  C   UNL A   1      34.610  30.840  27.810  1.00  0.00     0.275 C 
BRANCH  23  24
ATOM     24  O   UNL A   1      35.506  29.834  28.303  1.00  0.00    -0.458 OA
BRANCH  24  25
ATOM     25  C   UNL A   1      36.782  30.247  28.215  1.00  0.00     0.338 C 
ATOM     26  O   UNL A   1      37.148  31.370  27.902  1.00  0.00    -0.246 OA
BRANCH  25  27
ATOM     27  C   UNL A   1      37.807  29.226  28.240  1.00  0.00     0.060 A 
ATOM     28  C   UNL A   1      38.032  28.644  29.497  1.00  0.00     0.016 A 
ATOM     29  C   UNL A   1      38.815  29.366  27.287  1.00  0.00     0.016 A 
ATOM     30  C   UNL A   1      39.320  28.294  29.849  1.00  0.00     0.010 A 
ATOM     31  C   UNL A   1      40.105  29.034  27.651  1.00  0.00     0.010 A 
ATOM     32  C   UNL A   1      40.352  28.505  28.927  1.00  0.00    -0.014 A 
BRANCH  32  33
ATOM     33  C   UNL A   1      41.639  27.844  29.188  1.00  0.00     0.031 A 
ATOM     34  C   UNL A   1      41.492  26.329  28.780  1.00  0.00     0.074 A 
ATOM     35  C   UNL A   1      42.631  28.639  29.711  1.00  0.00     0.049 A 
ATOM     36  N   UNL A   1      42.145  25.273  29.164  1.00  0.00    -0.248 NA
ATOM     37  C   UNL A   1      40.369  25.919  27.871  1.00  0.00     0.031 C 
ATOM     38  C   UNL A   1      42.540  30.102  29.980  1.00  0.00     0.029 A 
ATOM     39  N   UNL A   1      43.927  28.401  30.118  1.00  0.00    -0.354 N 
ATOM     40  C   UNL A   1      41.710  24.184  28.352  1.00  0.00     0.074 A 
ATOM     41  C   UNL A   1      40.520  24.607  27.697  1.00  0.00     0.031 C 
ATOM     42  C   UNL A   1      43.666  30.572  30.575  1.00  0.00     0.029 A 
ATOM     43  C   UNL A   1      44.623  29.489  30.726  1.00  0.00     0.049 A 
ATOM     44  H   UNL A   1      44.352  27.522  29.994  1.00  0.00     0.167 HD
ATOM     45  C   UNL A   1      42.450  23.053  28.147  1.00  0.00     0.034 A 
ATOM     46  C   UNL A   1      45.863  29.474  31.329  1.00  0.00     0.034 A 
ATOM     47  C   UNL A   1      43.655  23.155  28.895  1.00  0.00     0.049 A 
ATOM     48  C   UNL A   1      46.394  28.152  30.980  1.00  0.00     0.074 A 
ATOM     49  C   UNL A   1      43.900  23.044  30.237  1.00  0.00     0.029 A 
ATOM     50  N   UNL A   1      44.674  23.843  28.281  1.00  0.00    -0.354 N 
ATOM     51  N   UNL A   1      46.766  27.812  29.783  1.00  0.00    -0.248 NA
ATOM     52  C   UNL A   1      46.365  27.093  31.993  1.00  0.00     0.031 C 
ATOM     53  C   UNL A   1      44.777  24.121  30.466  1.00  0.00     0.029 A 
ATOM     54  C   UNL A   1      45.254  24.623  29.247  1.00  0.00     0.049 A 
ATOM     55  H   UNL A   1      44.935  23.788  27.333  1.00  0.00     0.167 HD
ATOM     56  C   UNL A   1      46.643  26.449  29.827  1.00  0.00     0.074 A 
ATOM     57  C   UNL A   1      46.734  26.074  31.224  1.00  0.00     0.031 C 
ATOM     58  C   UNL A   1      45.988  25.790  28.834  1.00  0.00     0.034 A 
BRANCH  45  59
ATOM     59  C   UNL A   1      42.376  21.891  27.184  1.00  0.00     0.023 A 
ATOM     60  C   UNL A   1      41.380  20.918  27.491  1.00  0.00     0.012 A 
ATOM     61  C   UNL A   1      43.365  21.529  26.255  1.00  0.00     0.148 A 
ATOM     62  C   UNL A   1      41.438  19.609  27.021  1.00  0.00     0.002 A 
ATOM     63  C   UNL A   1      43.390  20.223  25.745  1.00  0.00     0.091 A 
ATOM     64  F   UNL A   1      44.315  22.412  25.930  1.00  0.00    -0.205 F 
ATOM     65  C   UNL A   1      42.458  19.257  26.159  1.00  0.00     0.022 A 
BRANCH  63  66
ATOM     66  S   UNL A   1      44.611  19.648  24.558  1.00  0.00     0.127 S 
ATOM     67  O   UNL A   1      44.489  20.639  23.492  1.00  0.00    -0.237 OA
ATOM     68  O   UNL A   1      45.851  19.746  25.333  1.00  0.00    -0.237 OA
ATOM     69  O   UNL A   1      44.227  18.285  24.223  1.00  0.00    -0.744 OA
ENDBRANCH  63  66
ENDBRANCH  45  59
BRANCH  46  70
ATOM     70  C   UNL A   1      46.742  30.312  32.250  1.00  0.00     0.023 A 
ATOM     71  C   UNL A   1      46.266  31.148  33.269  1.00  0.00     0.012 A 
ATOM     72  C   UNL A   1      48.173  30.177  32.189  1.00  0.00     0.148 A 
ATOM     73  C   UNL A   1      47.149  31.717  34.222  1.00  0.00     0.002 A 
ATOM     74  C   UNL A   1      49.021  30.624  33.200  1.00  0.00     0.091 A 
ATOM     75  F   UNL A   1      48.742  29.627  31.111  1.00  0.00    -0.205 F 
ATOM     76  C   UNL A   1      48.512  31.413  34.221  1.00  0.00     0.022 A 
BRANCH  74  77
ATOM     77  S   UNL A   1      50.742  30.077  33.322  1.00  0.00     0.127 S 
ATOM     78  O   UNL A   1      51.191  30.722  34.555  1.00  0.00    -0.237 OA
ATOM     79  O   UNL A   1      50.581  28.627  33.413  1.00  0.00    -0.237 OA
ATOM     80  O   UNL A   1      51.407  30.536  32.110  1.00  0.00    -0.744 OA
ENDBRANCH  74  77
ENDBRANCH  46  70
BRANCH  58  81
ATOM     81  C   UNL A   1      45.913  26.520  27.483  1.00  0.00     0.023 A 
ATOM     82  C   UNL A   1      44.663  27.075  27.143  1.00  0.00     0.012 A 
ATOM     83  C   UNL A   1      46.937  26.627  26.505  1.00  0.00     0.148 A 
ATOM     84  C   UNL A   1      44.426  27.681  25.905  1.00  0.00     0.002 A 
ATOM     85  C   UNL A   1      46.697  27.222  25.254  1.00  0.00     0.091 A 
ATOM     86  F   UNL A   1      48.147  26.150  26.786  1.00  0.00    -0.205 F 
ATOM     87  C   UNL A   1      45.440  27.754  24.960  1.00  0.00     0.022 A 
BRANCH  85  88
ATOM     88  S   UNL A   1      47.913  27.332  23.920  1.00  0.00     0.127 S 
ATOM     89  O   UNL A   1      47.205  28.127  22.913  1.00  0.00    -0.237 OA
ATOM     90  O   UNL A   1      49.021  28.034  24.562  1.00  0.00    -0.237 OA
ATOM     91  O   UNL A   1      48.198  25.965  23.507  1.00  0.00    -0.744 OA
ENDBRANCH  85  88
ENDBRANCH  58  81
ENDBRANCH  32  33
ENDBRANCH  25  27
ENDBRANCH  24  25
ENDBRANCH  23  24
ENDBRANCH  22  23
ENDBRANCH   1  22
TORSDOF 20
ENDMDL
MODEL 3
REMARK VINA RESULT:     -10.2      1.690      2.059
REMARK SMILES C[C@@H](CC[NH+](C)C)NC(=O)Cn1cccc1C(=O)OCCOC(=O)c1ccc(-c2c3nc(c(-c4cccc(S(=O)(=O)[O-])c4F)c4ccc([nH]4)c(-c4cccc(S(=O)(=O)[O-])c4F)c4nc(c(-c5cccc(S(=O)(=O)[O-])c5F)c5ccc2[nH]5)C=C4)C=C3)cc1
REMARK SMILES IDX 19 1 17 2 18 3 16 4 12 5 13 6 14 7 15 8 11 9 9 10 8 11 10 13
REMARK SMILES IDX 2 14 1 15 3 16 4 17 5 18 6 19 7 20 20 22 21 23 22 24 23 25
REMARK SMILES IDX 24 26 25 27 26 28 87 29 27 30 86 31 28 32 29 33 30 34 80 35
REMARK SMILES IDX 31 36 85 37 79 38 81 39 32 40 84 41 78 42 77 43 33 45 65 46
REMARK SMILES IDX 45 47 64 48 46 49 49 50 63 51 82 52 47 53 48 54 62 56 83 57
REMARK SMILES IDX 50 58 34 59 35 60 43 61 36 62 38 63 44 64 37 65 39 66 40 67
REMARK SMILES IDX 41 68 42 69 66 70 67 71 75 72 68 73 70 74 76 75 69 76 71 77
REMARK SMILES IDX 72 78 73 79 74 80 51 81 52 82 60 83 53 84 55 85 61 86 54 87
REMARK SMILES IDX 56 88 57 89 58 90 59 91
REMARK H PARENT 8 12 5 21 81 44 49 55
REMARK Flexibility Score: inf
ROOT
ATOM      1  O   UNL A   1      34.632  33.857  29.487  1.00  0.00    -0.457 OA
ENDROOT
BRANCH   1   2
ATOM      2  C   UNL A   1      33.590  34.653  29.862  1.00  0.00     0.355 C 
ATOM      3  O   UNL A   1      32.555  34.759  29.207  1.00  0.00    -0.244 OA
BRANCH   2   4
ATOM      4  C   UNL A   1      33.772  35.270  31.174  1.00  0.00     0.128 A 
ATOM      5  N   UNL A   1      34.033  34.727  32.424  1.00  0.00    -0.333 N 
ATOM      6  C   UNL A   1      34.200  35.747  33.345  1.00  0.00     0.087 A 
ATOM      7  C   UNL A   1      33.930  36.943  32.732  1.00  0.00     0.020 A 
ATOM      8  C   UNL A   1      33.662  36.646  31.382  1.00  0.00     0.035 A 
BRANCH   5   9
ATOM      9  C   UNL A   1      34.304  33.343  32.792  1.00  0.00     0.222 C 
BRANCH   9  10
ATOM     10  C   UNL A   1      35.740  32.896  32.844  1.00  0.00     0.240 C 
ATOM     11  N   UNL A   1      36.325  32.773  34.073  1.00  0.00    -0.352 N 
ATOM     12  H   UNL A   1      36.364  31.871  34.464  1.00  0.00     0.163 HD
ATOM     13  O   UNL A   1      36.361  32.704  31.797  1.00  0.00    -0.273 OA
BRANCH  11  14
ATOM     14  C   UNL A   1      36.896  33.860  34.850  1.00  0.00     0.084 C 
ATOM     15  C   UNL A   1      36.739  33.584  36.349  1.00  0.00     0.031 C 
BRANCH  14  16
ATOM     16  C   UNL A   1      38.355  34.185  34.466  1.00  0.00     0.086 C 
BRANCH  16  17
ATOM     17  C   UNL A   1      39.112  33.206  33.534  1.00  0.00     0.263 C 
BRANCH  17  18
ATOM     18  N   UNL A   1      39.860  33.786  32.396  1.00  0.00    -0.340 N 
ATOM     19  C   UNL A   1      40.414  32.706  31.571  1.00  0.00     0.332 C 
ATOM     20  C   UNL A   1      39.017  34.630  31.557  1.00  0.00     0.332 C 
ATOM     21  H   UNL A   1      40.604  34.365  32.784  1.00  0.00     0.347 HD
ENDBRANCH  17  18
ENDBRANCH  16  17
ENDBRANCH  14  16
ENDBRANCH  11  14
ENDBRANCH   9  10
ENDBRANCH   5   9
ENDBRANCH   2   4
ENDBRANCH   1   2
BRANCH   1  22
ATOM     22  C   UNL A   1      34.373  32.984  28.359  1.00  0.00     0.275 C 
BRANCH  22  23
ATOM     23  C   UNL A   1      34.919  31.540  28.458  1.00  0.00     0.275 C 
BRANCH  23  24
ATOM     24  O   UNL A   1      35.945  31.171  27.527  1.00  0.00    -0.458 OA
BRANCH  24  25
ATOM     25  C   UNL A   1      36.368  29.916  27.755  1.00  0.00     0.338 C 
ATOM     26  O   UNL A   1      35.664  28.917  27.769  1.00  0.00    -0.246 OA
BRANCH  25  27
ATOM     27  C   UNL A   1      37.708  29.759  28.279  1.00  0.00     0.060 A 
ATOM     28  C   UNL A   1      38.725  29.768  27.312  1.00  0.00     0.016 A 
ATOM     29  C   UNL A   1      37.806  29.032  29.464  1.00  0.00     0.016 A 
ATOM     30  C   UNL A   1      39.819  28.943  27.487  1.00  0.00     0.010 A 
ATOM     31  C   UNL A   1      38.891  28.194  29.626  1.00  0.00     0.010 A 
ATOM     32  C   UNL A   1      39.887  28.150  28.639  1.00  0.00    -0.014 A 
BRANCH  32  33
ATOM     33  C   UNL A   1      41.183  27.533  28.960  1.00  0.00     0.031 A 
ATOM     34  C   UNL A   1      41.127  26.029  28.494  1.00  0.00     0.074 A 
ATOM     35  C   UNL A   1      42.105  28.349  29.570  1.00  0.00     0.049 A 
ATOM     36  N   UNL A   1      41.799  24.987  28.884  1.00  0.00    -0.248 NA
ATOM     37  C   UNL A   1      40.080  25.606  27.503  1.00  0.00     0.031 C 
ATOM     38  C   UNL A   1      41.935  29.797  29.880  1.00  0.00     0.029 A 
ATOM     39  N   UNL A   1      43.383  28.150  30.050  1.00  0.00    -0.354 N 
ATOM     40  C   UNL A   1      41.462  23.910  28.011  1.00  0.00     0.074 A 
ATOM     41  C   UNL A   1      40.298  24.307  27.297  1.00  0.00     0.031 C 
ATOM     42  C   UNL A   1      43.002  30.291  30.560  1.00  0.00     0.029 A 
ATOM     43  C   UNL A   1      43.992  29.244  30.736  1.00  0.00     0.049 A 
ATOM     44  H   UNL A   1      43.852  27.294  29.925  1.00  0.00     0.167 HD
ATOM     45  C   UNL A   1      42.261  22.818  27.816  1.00  0.00     0.034 A 
ATOM     46  C   UNL A   1      45.192  29.258  31.414  1.00  0.00     0.034 A 
ATOM     47  C   UNL A   1      43.413  22.944  28.642  1.00  0.00     0.049 A 
ATOM     48  C   UNL A   1      45.800  27.972  31.058  1.00  0.00     0.074 A 
ATOM     49  C   UNL A   1      43.579  22.796  29.992  1.00  0.00     0.029 A 
ATOM     50  N   UNL A   1      44.437  23.694  28.116  1.00  0.00    -0.354 N 
ATOM     51  N   UNL A   1      46.260  27.690  29.875  1.00  0.00    -0.248 NA
ATOM     52  C   UNL A   1      45.755  26.878  32.031  1.00  0.00     0.031 C 
ATOM     53  C   UNL A   1      44.393  23.898  30.311  1.00  0.00     0.029 A 
ATOM     54  C   UNL A   1      44.923  24.462  29.141  1.00  0.00     0.049 A 
ATOM     55  H   UNL A   1      44.758  23.683  27.186  1.00  0.00     0.167 HD
ATOM     56  C   UNL A   1      46.193  26.322  29.868  1.00  0.00     0.074 A 
ATOM     57  C   UNL A   1      46.214  25.902  31.254  1.00  0.00     0.031 C 
ATOM     58  C   UNL A   1      45.630  25.672  28.814  1.00  0.00     0.034 A 
BRANCH  45  59
ATOM     59  C   UNL A   1      42.298  21.689  26.814  1.00  0.00     0.023 A 
ATOM     60  C   UNL A   1      41.236  20.744  26.933  1.00  0.00     0.012 A 
ATOM     61  C   UNL A   1      43.403  21.319  26.030  1.00  0.00     0.148 A 
ATOM     62  C   UNL A   1      41.323  19.449  26.432  1.00  0.00     0.002 A 
ATOM     63  C   UNL A   1      43.464  20.029  25.485  1.00  0.00     0.091 A 
ATOM     64  F   UNL A   1      44.418  22.176  25.883  1.00  0.00    -0.205 F 
ATOM     65  C   UNL A   1      42.450  19.086  25.721  1.00  0.00     0.022 A 
BRANCH  63  66
ATOM     66  S   UNL A   1      44.831  19.446  24.475  1.00  0.00     0.127 S 
ATOM     67  O   UNL A   1      44.264  19.507  23.131  1.00  0.00    -0.237 OA
ATOM     68  O   UNL A   1      45.856  20.459  24.744  1.00  0.00    -0.237 OA
ATOM     69  O   UNL A   1      45.160  18.121  24.979  1.00  0.00    -0.744 OA
ENDBRANCH  63  66
ENDBRANCH  45  59
BRANCH  46  70
ATOM     70  C   UNL A   1      45.976  30.099  32.417  1.00  0.00     0.023 A 
ATOM     71  C   UNL A   1      47.003  30.992  32.083  1.00  0.00     0.012 A 
ATOM     72  C   UNL A   1      45.590  30.101  33.802  1.00  0.00     0.148 A 
ATOM     73  C   UNL A   1      47.527  31.896  33.041  1.00  0.00     0.002 A 
ATOM     74  C   UNL A   1      46.008  31.077  34.705  1.00  0.00     0.091 A 
ATOM     75  F   UNL A   1      44.818  29.118  34.278  1.00  0.00    -0.205 F 
ATOM     76  C   UNL A   1      46.995  31.977  34.330  1.00  0.00     0.022 A 
BRANCH  74  77
ATOM     77  S   UNL A   1      45.193  31.321  36.302  1.00  0.00     0.127 S 
ATOM     78  O   UNL A   1      43.831  31.679  35.910  1.00  0.00    -0.237 OA
ATOM     79  O   UNL A   1      45.329  29.995  36.904  1.00  0.00    -0.237 OA
ATOM     80  O   UNL A   1      45.934  32.373  36.986  1.00  0.00    -0.744 OA
ENDBRANCH  74  77
ENDBRANCH  46  70
BRANCH  58  81
ATOM     81  C   UNL A   1      45.607  26.445  27.486  1.00  0.00     0.023 A 
ATOM     82  C   UNL A   1      44.371  27.013  27.115  1.00  0.00     0.012 A 
ATOM     83  C   UNL A   1      46.668  26.583  26.552  1.00  0.00     0.148 A 
ATOM     84  C   UNL A   1      44.182  27.659  25.890  1.00  0.00     0.002 A 
ATOM     85  C   UNL A   1      46.477  27.218  25.313  1.00  0.00     0.091 A 
ATOM     86  F   UNL A   1      47.866  26.096  26.863  1.00  0.00    -0.205 F 
ATOM     87  C   UNL A   1      45.231  27.761  24.988  1.00  0.00     0.022 A 
BRANCH  85  88
ATOM     88  S   UNL A   1      47.743  27.370  24.030  1.00  0.00     0.127 S 
ATOM     89  O   UNL A   1      48.817  28.079  24.730  1.00  0.00    -0.237 OA
ATOM     90  O   UNL A   1      48.049  25.975  23.725  1.00  0.00    -0.237 OA
ATOM     91  O   UNL A   1      47.140  28.127  22.942  1.00  0.00    -0.744 OA
ENDBRANCH  85  88
ENDBRANCH  58  81
ENDBRANCH  32  33
ENDBRANCH  25  27
ENDBRANCH  24  25
ENDBRANCH  23  24
ENDBRANCH  22  23
ENDBRANCH   1  22
TORSDOF 20
ENDMDL
