MODEL 1
REMARK VINA RESULT:     -12.3      0.000      0.000
REMARK SMILES Cc1ccc([C@@H](C)Nc2ccc(N)cc2C(=O)OCCOC(=O)c2ccc(-c3c4nc(c(-c5cccc(S(=O)(=O)[O-])c5F)c5ccc([nH]5)c(-c5cccc(S(=O)(=O)[O-])c5F)c5nc(c(-c6cccc(S(=O)(=O)[O-])c6F)c6ccc3[nH]6)C=C5)C=C4)cc2)cc1F
REMARK SMILES IDX 19 1 18 2 16 3 17 4 15 5 9 6 10 7 11 8 14 9 12 10 8 11 6 13
REMARK SMILES IDX 7 14 5 15 1 16 2 17 3 18 88 19 4 20 87 21 89 22 13 23 20 26
REMARK SMILES IDX 21 27 22 28 23 29 24 30 25 31 86 32 26 33 85 34 27 35 28 36
REMARK SMILES IDX 29 37 79 38 30 39 84 40 78 41 80 42 31 43 83 44 77 45 76 46
REMARK SMILES IDX 32 48 64 49 44 50 63 51 45 52 48 53 62 54 81 55 46 56 47 57
REMARK SMILES IDX 61 59 82 60 49 61 33 62 34 63 42 64 35 65 37 66 43 67 36 68
REMARK SMILES IDX 38 69 39 70 40 71 41 72 65 73 66 74 74 75 67 76 69 77 75 78
REMARK SMILES IDX 68 79 70 80 71 81 72 82 73 83 50 84 51 85 59 86 52 87 54 88
REMARK SMILES IDX 60 89 53 90 55 91 56 92 57 93 58 94
REMARK H PARENT 8 12 13 24 13 25 80 47 48 58
REMARK Flexibility Score: inf
ROOT
ATOM      1  C   UNL A   1      33.129  30.687  26.637  1.00  0.00     0.275 C 
ENDROOT
BRANCH   1   2
ATOM      2  O   UNL A   1      33.201  29.264  26.408  1.00  0.00    -0.458 OA
BRANCH   2   3
ATOM      3  C   UNL A   1      32.044  28.545  26.518  1.00  0.00     0.340 C 
ATOM      4  O   UNL A   1      31.383  28.380  27.520  1.00  0.00    -0.246 OA
BRANCH   3   5
ATOM      5  C   UNL A   1      31.630  28.061  25.181  1.00  0.00     0.085 A 
ATOM      6  C   UNL A   1      31.285  26.739  24.877  1.00  0.00     0.049 A 
ATOM      7  C   UNL A   1      30.886  26.510  23.535  1.00  0.00     0.029 A 
ATOM      8  C   UNL A   1      30.857  27.507  22.552  1.00  0.00     0.027 A 
ATOM      9  C   UNL A   1      31.559  29.076  24.184  1.00  0.00     0.043 A 
ATOM     10  C   UNL A   1      31.236  28.801  22.857  1.00  0.00     0.032 A 
BRANCH   6  11
ATOM     11  N   UNL A   1      31.163  25.641  25.704  1.00  0.00    -0.378 N 
ATOM     12  H   UNL A   1      30.910  25.895  26.621  1.00  0.00     0.161 HD
BRANCH  11  13
ATOM     13  C   UNL A   1      31.315  24.193  25.558  1.00  0.00     0.106 C 
ATOM     14  C   UNL A   1      30.628  23.349  26.629  1.00  0.00     0.036 C 
BRANCH  13  15
ATOM     15  C   UNL A   1      32.685  23.760  25.051  1.00  0.00    -0.023 A 
ATOM     16  C   UNL A   1      36.619  23.030  23.359  1.00  0.00     0.047 C 
ATOM     17  C   UNL A   1      35.259  23.302  23.926  1.00  0.00    -0.015 A 
ATOM     18  C   UNL A   1      34.102  22.976  23.213  1.00  0.00     0.007 A 
ATOM     19  C   UNL A   1      35.116  23.811  25.215  1.00  0.00     0.126 A 
ATOM     20  C   UNL A   1      32.834  23.218  23.761  1.00  0.00     0.006 A 
ATOM     21  C   UNL A   1      33.858  24.025  25.777  1.00  0.00     0.045 A 
ATOM     22  F   UNL A   1      36.198  24.168  25.923  1.00  0.00    -0.207 F 
ENDBRANCH  13  15
ENDBRANCH  11  13
ENDBRANCH   6  11
BRANCH  10  23
ATOM     23  N   UNL A   1      31.144  29.809  21.909  1.00  0.00    -0.399 N 
ATOM     24  H   UNL A   1      30.323  30.349  21.841  1.00  0.00     0.156 HD
ATOM     25  H   UNL A   1      31.901  29.987  21.305  1.00  0.00     0.156 HD
ENDBRANCH  10  23
ENDBRANCH   3   5
ENDBRANCH   2   3
ENDBRANCH   1   2
BRANCH   1  26
ATOM     26  C   UNL A   1      33.675  31.102  27.998  1.00  0.00     0.275 C 
BRANCH  26  27
ATOM     27  O   UNL A   1      34.941  31.781  27.896  1.00  0.00    -0.458 OA
BRANCH  27  28
ATOM     28  C   UNL A   1      35.808  31.359  28.838  1.00  0.00     0.338 C 
ATOM     29  O   UNL A   1      36.430  32.048  29.630  1.00  0.00    -0.246 OA
BRANCH  28  30
ATOM     30  C   UNL A   1      36.291  29.991  28.602  1.00  0.00     0.060 A 
ATOM     31  C   UNL A   1      36.761  29.422  29.801  1.00  0.00     0.016 A 
ATOM     32  C   UNL A   1      37.007  29.884  27.407  1.00  0.00     0.016 A 
ATOM     33  C   UNL A   1      38.111  29.160  29.899  1.00  0.00     0.010 A 
ATOM     34  C   UNL A   1      38.349  29.609  27.504  1.00  0.00     0.010 A 
ATOM     35  C   UNL A   1      38.901  29.327  28.758  1.00  0.00    -0.014 A 
BRANCH  35  36
ATOM     36  C   UNL A   1      40.288  28.936  28.756  1.00  0.00     0.031 A 
ATOM     37  C   UNL A   1      40.527  27.510  28.508  1.00  0.00     0.074 A 
ATOM     38  C   UNL A   1      41.293  29.805  28.960  1.00  0.00     0.049 A 
ATOM     39  N   UNL A   1      41.456  26.804  29.051  1.00  0.00    -0.248 NA
ATOM     40  C   UNL A   1      39.586  26.726  27.705  1.00  0.00     0.031 C 
ATOM     41  C   UNL A   1      42.707  29.560  28.727  1.00  0.00     0.029 A 
ATOM     42  N   UNL A   1      41.245  31.012  29.652  1.00  0.00    -0.354 N 
ATOM     43  C   UNL A   1      41.465  25.615  28.363  1.00  0.00     0.074 A 
ATOM     44  C   UNL A   1      40.176  25.532  27.717  1.00  0.00     0.031 C 
ATOM     45  C   UNL A   1      43.420  30.439  29.447  1.00  0.00     0.029 A 
ATOM     46  C   UNL A   1      42.491  31.163  30.297  1.00  0.00     0.049 A 
ATOM     47  H   UNL A   1      40.487  31.639  29.685  1.00  0.00     0.167 HD
ATOM     48  C   UNL A   1      42.639  24.944  28.194  1.00  0.00     0.034 A 
ATOM     49  C   UNL A   1      42.564  31.243  31.661  1.00  0.00     0.034 A 
ATOM     50  C   UNL A   1      43.743  25.644  28.848  1.00  0.00     0.049 A 
ATOM     51  C   UNL A   1      43.308  30.096  32.297  1.00  0.00     0.074 A 
ATOM     52  C   UNL A   1      44.750  26.474  28.376  1.00  0.00     0.029 A 
ATOM     53  N   UNL A   1      43.712  25.841  30.219  1.00  0.00    -0.354 N 
ATOM     54  N   UNL A   1      43.723  29.048  31.640  1.00  0.00    -0.248 NA
ATOM     55  C   UNL A   1      43.569  29.984  33.730  1.00  0.00     0.031 C 
ATOM     56  C   UNL A   1      45.344  27.141  29.482  1.00  0.00     0.029 A 
ATOM     57  C   UNL A   1      44.705  26.712  30.629  1.00  0.00     0.049 A 
ATOM     58  H   UNL A   1      43.065  25.415  30.825  1.00  0.00     0.167 HD
ATOM     59  C   UNL A   1      44.309  28.160  32.497  1.00  0.00     0.074 A 
ATOM     60  C   UNL A   1      44.152  28.774  33.804  1.00  0.00     0.031 C 
ATOM     61  C   UNL A   1      44.851  26.987  32.052  1.00  0.00     0.034 A 
BRANCH  48  62
ATOM     62  C   UNL A   1      42.788  23.885  27.122  1.00  0.00     0.023 A 
ATOM     63  C   UNL A   1      43.606  24.072  25.985  1.00  0.00     0.012 A 
ATOM     64  C   UNL A   1      42.165  22.627  27.231  1.00  0.00     0.148 A 
ATOM     65  C   UNL A   1      43.952  23.023  25.124  1.00  0.00     0.002 A 
ATOM     66  C   UNL A   1      42.462  21.595  26.338  1.00  0.00     0.091 A 
ATOM     67  F   UNL A   1      41.269  22.398  28.198  1.00  0.00    -0.205 F 
ATOM     68  C   UNL A   1      43.389  21.771  25.311  1.00  0.00     0.022 A 
BRANCH  66  69
ATOM     69  S   UNL A   1      41.619  20.022  26.519  1.00  0.00     0.127 S 
ATOM     70  O   UNL A   1      42.117  19.252  25.385  1.00  0.00    -0.237 OA
ATOM     71  O   UNL A   1      42.030  19.583  27.848  1.00  0.00    -0.237 OA
ATOM     72  O   UNL A   1      40.204  20.390  26.423  1.00  0.00    -0.744 OA
ENDBRANCH  66  69
ENDBRANCH  48  62
BRANCH  49  73
ATOM     73  C   UNL A   1      41.404  31.983  32.243  1.00  0.00     0.023 A 
ATOM     74  C   UNL A   1      41.546  33.319  32.655  1.00  0.00     0.012 A 
ATOM     75  C   UNL A   1      40.442  31.169  32.877  1.00  0.00     0.148 A 
ATOM     76  C   UNL A   1      40.848  33.778  33.780  1.00  0.00     0.002 A 
ATOM     77  C   UNL A   1      39.869  31.588  34.071  1.00  0.00     0.091 A 
ATOM     78  F   UNL A   1      40.287  29.905  32.448  1.00  0.00    -0.205 F 
ATOM     79  C   UNL A   1      40.050  32.899  34.521  1.00  0.00     0.022 A 
BRANCH  77  80
ATOM     80  S   UNL A   1      39.349  30.297  35.215  1.00  0.00     0.127 S 
ATOM     81  O   UNL A   1      40.516  29.431  35.326  1.00  0.00    -0.237 OA
ATOM     82  O   UNL A   1      39.005  31.074  36.407  1.00  0.00    -0.237 OA
ATOM     83  O   UNL A   1      38.189  29.683  34.568  1.00  0.00    -0.744 OA
ENDBRANCH  77  80
ENDBRANCH  49  73
BRANCH  61  84
ATOM     84  C   UNL A   1      45.507  25.940  32.917  1.00  0.00     0.023 A 
ATOM     85  C   UNL A   1      46.923  25.850  32.922  1.00  0.00     0.012 A 
ATOM     86  C   UNL A   1      44.824  25.071  33.776  1.00  0.00     0.148 A 
ATOM     87  C   UNL A   1      47.615  24.886  33.653  1.00  0.00     0.002 A 
ATOM     88  C   UNL A   1      45.510  24.063  34.455  1.00  0.00     0.091 A 
ATOM     89  F   UNL A   1      43.512  25.237  33.995  1.00  0.00    -0.205 F 
ATOM     90  C   UNL A   1      46.904  23.963  34.398  1.00  0.00     0.022 A 
BRANCH  88  91
ATOM     91  S   UNL A   1      44.561  22.813  35.319  1.00  0.00     0.127 S 
ATOM     92  O   UNL A   1      43.230  23.401  35.409  1.00  0.00    -0.237 OA
ATOM     93  O   UNL A   1      44.702  21.649  34.446  1.00  0.00    -0.237 OA
ATOM     94  O   UNL A   1      45.257  22.686  36.601  1.00  0.00    -0.744 OA
ENDBRANCH  88  91
ENDBRANCH  61  84
ENDBRANCH  35  36
ENDBRANCH  28  30
ENDBRANCH  27  28
ENDBRANCH  26  27
ENDBRANCH   1  26
TORSDOF 18
ENDMDL
MODEL 2
REMARK VINA RESULT:     -11.7      2.138      2.750
REMARK SMILES Cc1ccc([C@@H](C)Nc2ccc(N)cc2C(=O)OCCOC(=O)c2ccc(-c3c4nc(c(-c5cccc(S(=O)(=O)[O-])c5F)c5ccc([nH]5)c(-c5cccc(S(=O)(=O)[O-])c5F)c5nc(c(-c6cccc(S(=O)(=O)[O-])c6F)c6ccc3[nH]6)C=C5)C=C4)cc2)cc1F
REMARK SMILES IDX 19 1 18 2 16 3 17 4 15 5 9 6 10 7 11 8 14 9 12 10 8 11 6 13
REMARK SMILES IDX 7 14 5 15 1 16 2 17 3 18 88 19 4 20 87 21 89 22 13 23 20 26
REMARK SMILES IDX 21 27 22 28 23 29 24 30 25 31 86 32 26 33 85 34 27 35 28 36
REMARK SMILES IDX 29 37 79 38 30 39 84 40 78 41 80 42 31 43 83 44 77 45 76 46
REMARK SMILES IDX 32 48 64 49 44 50 63 51 45 52 48 53 62 54 81 55 46 56 47 57
REMARK SMILES IDX 61 59 82 60 49 61 33 62 34 63 42 64 35 65 37 66 43 67 36 68
REMARK SMILES IDX 38 69 39 70 40 71 41 72 65 73 66 74 74 75 67 76 69 77 75 78
REMARK SMILES IDX 68 79 70 80 71 81 72 82 73 83 50 84 51 85 59 86 52 87 54 88
REMARK SMILES IDX 60 89 53 90 55 91 56 92 57 93 58 94
REMARK H PARENT 8 12 13 24 13 25 80 47 48 58
REMARK Flexibility Score: inf
ROOT
ATOM      1  C   UNL A   1      32.546  30.962  26.917  1.00  0.00     0.275 C 
ENDROOT
BRANCH   1   2
ATOM      2  O   UNL A   1      32.732  29.714  26.218  1.00  0.00    -0.458 OA
BRANCH   2   3
ATOM      3  C   UNL A   1      31.833  28.713  26.458  1.00  0.00     0.340 C 
ATOM      4  O   UNL A   1      31.420  28.351  27.539  1.00  0.00    -0.246 OA
BRANCH   3   5
ATOM      5  C   UNL A   1      31.331  28.176  25.173  1.00  0.00     0.085 A 
ATOM      6  C   UNL A   1      30.869  26.869  24.975  1.00  0.00     0.049 A 
ATOM      7  C   UNL A   1      30.402  26.584  23.665  1.00  0.00     0.029 A 
ATOM      8  C   UNL A   1      30.416  27.511  22.617  1.00  0.00     0.027 A 
ATOM      9  C   UNL A   1      31.303  29.123  24.110  1.00  0.00     0.043 A 
ATOM     10  C   UNL A   1      30.909  28.787  22.817  1.00  0.00     0.032 A 
BRANCH   6  11
ATOM     11  N   UNL A   1      30.691  25.843  25.881  1.00  0.00    -0.378 N 
ATOM     12  H   UNL A   1      30.571  26.178  26.798  1.00  0.00     0.161 HD
BRANCH  11  13
ATOM     13  C   UNL A   1      30.636  24.383  25.817  1.00  0.00     0.106 C 
ATOM     14  C   UNL A   1      29.786  23.710  26.892  1.00  0.00     0.036 C 
BRANCH  13  15
ATOM     15  C   UNL A   1      31.948  23.728  25.404  1.00  0.00    -0.023 A 
ATOM     16  C   UNL A   1      35.600  21.501  24.648  1.00  0.00     0.047 C 
ATOM     17  C   UNL A   1      34.339  22.258  24.933  1.00  0.00    -0.015 A 
ATOM     18  C   UNL A   1      34.333  23.345  25.811  1.00  0.00     0.007 A 
ATOM     19  C   UNL A   1      33.157  21.946  24.263  1.00  0.00     0.126 A 
ATOM     20  C   UNL A   1      33.150  24.058  26.056  1.00  0.00     0.006 A 
ATOM     21  C   UNL A   1      31.986  22.671  24.480  1.00  0.00     0.045 A 
ATOM     22  F   UNL A   1      33.109  20.892  23.435  1.00  0.00    -0.207 F 
ENDBRANCH  13  15
ENDBRANCH  11  13
ENDBRANCH   6  11
BRANCH  10  23
ATOM     23  N   UNL A   1      30.862  29.734  21.804  1.00  0.00    -0.399 N 
ATOM     24  H   UNL A   1      31.233  30.634  21.953  1.00  0.00     0.156 HD
ATOM     25  H   UNL A   1      30.459  29.506  20.936  1.00  0.00     0.156 HD
ENDBRANCH  10  23
ENDBRANCH   3   5
ENDBRANCH   2   3
ENDBRANCH   1   2
BRANCH   1  26
ATOM     26  C   UNL A   1      33.655  31.256  27.921  1.00  0.00     0.275 C 
BRANCH  26  27
ATOM     27  O   UNL A   1      34.963  31.221  27.319  1.00  0.00    -0.458 OA
BRANCH  27  28
ATOM     28  C   UNL A   1      35.709  30.211  27.808  1.00  0.00     0.338 C 
ATOM     29  O   UNL A   1      35.641  29.031  27.507  1.00  0.00    -0.246 OA
BRANCH  28  30
ATOM     30  C   UNL A   1      36.381  30.553  29.070  1.00  0.00     0.060 A 
ATOM     31  C   UNL A   1      37.341  31.562  28.858  1.00  0.00     0.016 A 
ATOM     32  C   UNL A   1      36.661  29.423  29.842  1.00  0.00     0.016 A 
ATOM     33  C   UNL A   1      38.668  31.228  29.024  1.00  0.00     0.010 A 
ATOM     34  C   UNL A   1      37.984  29.098  30.019  1.00  0.00     0.010 A 
ATOM     35  C   UNL A   1      38.972  29.965  29.539  1.00  0.00    -0.014 A 
BRANCH  35  36
ATOM     36  C   UNL A   1      40.329  29.608  29.869  1.00  0.00     0.031 A 
ATOM     37  C   UNL A   1      40.870  28.473  29.114  1.00  0.00     0.074 A 
ATOM     38  C   UNL A   1      41.052  30.262  30.795  1.00  0.00     0.049 A 
ATOM     39  N   UNL A   1      41.675  27.584  29.579  1.00  0.00    -0.248 NA
ATOM     40  C   UNL A   1      40.387  28.179  27.763  1.00  0.00     0.031 C 
ATOM     41  C   UNL A   1      42.485  30.145  31.012  1.00  0.00     0.029 A 
ATOM     42  N   UNL A   1      40.579  30.990  31.883  1.00  0.00    -0.354 N 
ATOM     43  C   UNL A   1      42.107  26.870  28.487  1.00  0.00     0.074 A 
ATOM     44  C   UNL A   1      41.132  27.120  27.452  1.00  0.00     0.031 C 
ATOM     45  C   UNL A   1      42.766  30.564  32.255  1.00  0.00     0.029 A 
ATOM     46  C   UNL A   1      41.503  30.801  32.932  1.00  0.00     0.049 A 
ATOM     47  H   UNL A   1      39.759  31.532  31.914  1.00  0.00     0.167 HD
ATOM     48  C   UNL A   1      43.366  26.351  28.478  1.00  0.00     0.034 A 
ATOM     49  C   UNL A   1      41.114  30.217  34.107  1.00  0.00     0.034 A 
ATOM     50  C   UNL A   1      44.064  26.640  29.730  1.00  0.00     0.049 A 
ATOM     51  C   UNL A   1      41.791  28.897  34.382  1.00  0.00     0.074 A 
ATOM     52  C   UNL A   1      45.016  27.585  30.087  1.00  0.00     0.029 A 
ATOM     53  N   UNL A   1      43.556  26.156  30.924  1.00  0.00    -0.354 N 
ATOM     54  N   UNL A   1      42.566  28.289  33.527  1.00  0.00    -0.248 NA
ATOM     55  C   UNL A   1      41.586  28.110  35.595  1.00  0.00     0.031 C 
ATOM     56  C   UNL A   1      45.097  27.633  31.506  1.00  0.00     0.029 A 
ATOM     57  C   UNL A   1      44.200  26.714  32.013  1.00  0.00     0.049 A 
ATOM     58  H   UNL A   1      42.827  25.498  30.990  1.00  0.00     0.167 HD
ATOM     59  C   UNL A   1      42.980  27.092  34.041  1.00  0.00     0.074 A 
ATOM     60  C   UNL A   1      42.306  27.006  35.325  1.00  0.00     0.031 C 
ATOM     61  C   UNL A   1      43.826  26.271  33.350  1.00  0.00     0.034 A 
BRANCH  48  62
ATOM     62  C   UNL A   1      44.031  25.933  27.183  1.00  0.00     0.023 A 
ATOM     63  C   UNL A   1      44.870  26.804  26.451  1.00  0.00     0.012 A 
ATOM     64  C   UNL A   1      43.899  24.630  26.668  1.00  0.00     0.148 A 
ATOM     65  C   UNL A   1      45.685  26.361  25.401  1.00  0.00     0.002 A 
ATOM     66  C   UNL A   1      44.667  24.202  25.583  1.00  0.00     0.091 A 
ATOM     67  F   UNL A   1      43.026  23.774  27.211  1.00  0.00    -0.205 F 
ATOM     68  C   UNL A   1      45.595  25.046  24.975  1.00  0.00     0.022 A 
BRANCH  66  69
ATOM     69  S   UNL A   1      44.435  22.535  24.961  1.00  0.00     0.127 S 
ATOM     70  O   UNL A   1      43.011  22.497  24.649  1.00  0.00    -0.237 OA
ATOM     71  O   UNL A   1      45.361  22.476  23.835  1.00  0.00    -0.237 OA
ATOM     72  O   UNL A   1      44.825  21.698  26.098  1.00  0.00    -0.744 OA
ENDBRANCH  66  69
ENDBRANCH  48  62
BRANCH  49  73
ATOM     73  C   UNL A   1      39.720  30.598  34.489  1.00  0.00     0.023 A 
ATOM     74  C   UNL A   1      38.620  30.039  33.816  1.00  0.00     0.012 A 
ATOM     75  C   UNL A   1      39.596  31.881  35.061  1.00  0.00     0.148 A 
ATOM     76  C   UNL A   1      37.476  30.817  33.591  1.00  0.00     0.002 A 
ATOM     77  C   UNL A   1      38.520  32.687  34.708  1.00  0.00     0.091 A 
ATOM     78  F   UNL A   1      40.641  32.388  35.736  1.00  0.00    -0.205 F 
ATOM     79  C   UNL A   1      37.445  32.158  33.990  1.00  0.00     0.022 A 
BRANCH  77  80
ATOM     80  S   UNL A   1      38.795  34.467  34.756  1.00  0.00     0.127 S 
ATOM     81  O   UNL A   1      40.067  34.648  34.066  1.00  0.00    -0.237 OA
ATOM     82  O   UNL A   1      37.607  34.971  34.064  1.00  0.00    -0.237 OA
ATOM     83  O   UNL A   1      38.819  34.794  36.181  1.00  0.00    -0.744 OA
ENDBRANCH  77  80
ENDBRANCH  49  73
BRANCH  61  84
ATOM     84  C   UNL A   1      44.330  24.931  33.824  1.00  0.00     0.023 A 
ATOM     85  C   UNL A   1      43.488  23.797  33.685  1.00  0.00     0.012 A 
ATOM     86  C   UNL A   1      45.607  24.698  34.349  1.00  0.00     0.148 A 
ATOM     87  C   UNL A   1      43.849  22.529  34.135  1.00  0.00     0.002 A 
ATOM     88  C   UNL A   1      45.944  23.445  34.861  1.00  0.00     0.091 A 
ATOM     89  F   UNL A   1      46.534  25.666  34.311  1.00  0.00    -0.205 F 
ATOM     90  C   UNL A   1      45.072  22.357  34.760  1.00  0.00     0.022 A 
BRANCH  88  91
ATOM     91  S   UNL A   1      47.481  23.274  35.766  1.00  0.00     0.127 S 
ATOM     92  O   UNL A   1      47.399  24.326  36.773  1.00  0.00    -0.237 OA
ATOM     93  O   UNL A   1      47.410  21.898  36.253  1.00  0.00    -0.237 OA
ATOM     94  O   UNL A   1      48.504  23.493  34.741  1.00  0.00    -0.744 OA
ENDBRANCH  88  91
ENDBRANCH  61  84
ENDBRANCH  35  36
ENDBRANCH  28  30
ENDBRANCH  27  28
ENDBRANCH  26  27
ENDBRANCH   1  26
TORSDOF 18
ENDMDL
MODEL 3
REMARK VINA RESULT:     -11.7      4.111      9.403
REMARK SMILES Cc1ccc([C@@H](C)Nc2ccc(N)cc2C(=O)OCCOC(=O)c2ccc(-c3c4nc(c(-c5cccc(S(=O)(=O)[O-])c5F)c5ccc([nH]5)c(-c5cccc(S(=O)(=O)[O-])c5F)c5nc(c(-c6cccc(S(=O)(=O)[O-])c6F)c6ccc3[nH]6)C=C5)C=C4)cc2)cc1F
REMARK SMILES IDX 19 1 18 2 16 3 17 4 15 5 9 6 10 7 11 8 14 9 12 10 8 11 6 13
REMARK SMILES IDX 7 14 5 15 1 16 2 17 3 18 88 19 4 20 87 21 89 22 13 23 20 26
REMARK SMILES IDX 21 27 22 28 23 29 24 30 25 31 86 32 26 33 85 34 27 35 28 36
REMARK SMILES IDX 29 37 79 38 30 39 84 40 78 41 80 42 31 43 83 44 77 45 76 46
REMARK SMILES IDX 32 48 64 49 44 50 63 51 45 52 48 53 62 54 81 55 46 56 47 57
REMARK SMILES IDX 61 59 82 60 49 61 33 62 34 63 42 64 35 65 37 66 43 67 36 68
REMARK SMILES IDX 38 69 39 70 40 71 41 72 65 73 66 74 74 75 67 76 69 77 75 78
REMARK SMILES IDX 68 79 70 80 71 81 72 82 73 83 50 84 51 85 59 86 52 87 54 88
REMARK SMILES IDX 60 89 53 90 55 91 56 92 57 93 58 94
REMARK H PARENT 8 12 13 24 13 25 80 47 48 58
REMARK Flexibility Score: inf
ROOT
ATOM      1  C   UNL A   1      38.147  22.582  25.762  1.00  0.00     0.275 C 
ENDROOT
BRANCH   1   2
ATOM      2  O   UNL A   1      36.864  21.928  25.676  1.00  0.00    -0.458 OA
BRANCH   2   3
ATOM      3  C   UNL A   1      35.790  22.687  25.302  1.00  0.00     0.340 C 
ATOM      4  O   UNL A   1      35.751  23.894  25.207  1.00  0.00    -0.246 OA
BRANCH   3   5
ATOM      5  C   UNL A   1      34.668  21.803  24.914  1.00  0.00     0.085 A 
ATOM      6  C   UNL A   1      33.408  22.244  24.489  1.00  0.00     0.049 A 
ATOM      7  C   UNL A   1      32.495  21.217  24.135  1.00  0.00     0.029 A 
ATOM      8  C   UNL A   1      32.791  19.851  24.218  1.00  0.00     0.027 A 
ATOM      9  C   UNL A   1      34.971  20.412  24.957  1.00  0.00     0.043 A 
ATOM     10  C   UNL A   1      34.026  19.430  24.674  1.00  0.00     0.032 A 
BRANCH   6  11
ATOM     11  N   UNL A   1      32.949  23.524  24.255  1.00  0.00    -0.378 N 
ATOM     12  H   UNL A   1      33.501  23.999  23.593  1.00  0.00     0.161 HD
BRANCH  11  13
ATOM     13  C   UNL A   1      31.844  24.350  24.743  1.00  0.00     0.106 C 
ATOM     14  C   UNL A   1      30.647  24.467  23.803  1.00  0.00     0.036 C 
BRANCH  13  15
ATOM     15  C   UNL A   1      32.286  25.580  25.524  1.00  0.00    -0.023 A 
ATOM     16  C   UNL A   1      33.360  29.390  27.314  1.00  0.00     0.047 C 
ATOM     17  C   UNL A   1      32.987  28.089  26.673  1.00  0.00    -0.015 A 
ATOM     18  C   UNL A   1      33.893  27.400  25.861  1.00  0.00     0.007 A 
ATOM     19  C   UNL A   1      31.757  27.492  26.940  1.00  0.00     0.126 A 
ATOM     20  C   UNL A   1      33.539  26.173  25.280  1.00  0.00     0.006 A 
ATOM     21  C   UNL A   1      31.413  26.257  26.391  1.00  0.00     0.045 A 
ATOM     22  F   UNL A   1      30.845  28.132  27.688  1.00  0.00    -0.207 F 
ENDBRANCH  13  15
ENDBRANCH  11  13
ENDBRANCH   6  11
BRANCH  10  23
ATOM     23  N   UNL A   1      34.352  18.081  24.695  1.00  0.00    -0.399 N 
ATOM     24  H   UNL A   1      35.292  17.800  24.606  1.00  0.00     0.156 HD
ATOM     25  H   UNL A   1      33.645  17.405  24.801  1.00  0.00     0.156 HD
ENDBRANCH  10  23
ENDBRANCH   3   5
ENDBRANCH   2   3
ENDBRANCH   1   2
BRANCH   1  26
ATOM     26  C   UNL A   1      39.285  21.625  26.100  1.00  0.00     0.275 C 
BRANCH  26  27
ATOM     27  O   UNL A   1      40.510  22.317  26.408  1.00  0.00    -0.458 OA
BRANCH  27  28
ATOM     28  C   UNL A   1      41.583  21.513  26.269  1.00  0.00     0.338 C 
ATOM     29  O   UNL A   1      41.586  20.336  25.950  1.00  0.00    -0.246 OA
BRANCH  28  30
ATOM     30  C   UNL A   1      42.786  22.043  26.929  1.00  0.00     0.060 A 
ATOM     31  C   UNL A   1      42.640  21.992  28.328  1.00  0.00     0.016 A 
ATOM     32  C   UNL A   1      43.286  23.176  26.282  1.00  0.00     0.016 A 
ATOM     33  C   UNL A   1      42.561  23.189  29.008  1.00  0.00     0.010 A 
ATOM     34  C   UNL A   1      43.219  24.366  26.965  1.00  0.00     0.010 A 
ATOM     35  C   UNL A   1      42.784  24.370  28.294  1.00  0.00    -0.014 A 
BRANCH  35  36
ATOM     36  C   UNL A   1      42.856  25.640  28.971  1.00  0.00     0.031 A 
ATOM     37  C   UNL A   1      41.674  26.493  28.811  1.00  0.00     0.074 A 
ATOM     38  C   UNL A   1      43.921  26.021  29.698  1.00  0.00     0.049 A 
ATOM     39  N   UNL A   1      41.688  27.776  28.711  1.00  0.00    -0.248 NA
ATOM     40  C   UNL A   1      40.352  25.901  28.591  1.00  0.00     0.031 C 
ATOM     41  C   UNL A   1      43.983  27.151  30.611  1.00  0.00     0.029 A 
ATOM     42  N   UNL A   1      45.238  25.590  29.567  1.00  0.00    -0.354 N 
ATOM     43  C   UNL A   1      40.376  28.169  28.823  1.00  0.00     0.074 A 
ATOM     44  C   UNL A   1      39.593  26.993  28.523  1.00  0.00     0.031 C 
ATOM     45  C   UNL A   1      45.268  27.488  30.791  1.00  0.00     0.029 A 
ATOM     46  C   UNL A   1      46.061  26.696  29.867  1.00  0.00     0.049 A 
ATOM     47  H   UNL A   1      45.537  24.688  29.313  1.00  0.00     0.167 HD
ATOM     48  C   UNL A   1      40.079  29.364  29.405  1.00  0.00     0.034 A 
ATOM     49  C   UNL A   1      46.919  27.200  28.928  1.00  0.00     0.034 A 
ATOM     50  C   UNL A   1      41.294  30.073  29.801  1.00  0.00     0.049 A 
ATOM     51  C   UNL A   1      46.593  28.610  28.503  1.00  0.00     0.074 A 
ATOM     52  C   UNL A   1      41.944  30.232  31.017  1.00  0.00     0.029 A 
ATOM     53  N   UNL A   1      42.219  30.438  28.836  1.00  0.00    -0.354 N 
ATOM     54  N   UNL A   1      45.519  29.249  28.876  1.00  0.00    -0.248 NA
ATOM     55  C   UNL A   1      47.393  29.385  27.558  1.00  0.00     0.031 C 
ATOM     56  C   UNL A   1      43.252  30.731  30.770  1.00  0.00     0.029 A 
ATOM     57  C   UNL A   1      43.398  30.882  29.405  1.00  0.00     0.049 A 
ATOM     58  H   UNL A   1      42.057  30.387  27.867  1.00  0.00     0.167 HD
ATOM     59  C   UNL A   1      45.477  30.480  28.282  1.00  0.00     0.074 A 
ATOM     60  C   UNL A   1      46.655  30.503  27.433  1.00  0.00     0.031 C 
ATOM     61  C   UNL A   1      44.461  31.359  28.531  1.00  0.00     0.034 A 
BRANCH  48  62
ATOM     62  C   UNL A   1      38.687  29.657  29.926  1.00  0.00     0.023 A 
ATOM     63  C   UNL A   1      38.091  28.895  30.957  1.00  0.00     0.012 A 
ATOM     64  C   UNL A   1      37.931  30.746  29.451  1.00  0.00     0.148 A 
ATOM     65  C   UNL A   1      36.926  29.301  31.618  1.00  0.00     0.002 A 
ATOM     66  C   UNL A   1      36.737  31.119  30.071  1.00  0.00     0.091 A 
ATOM     67  F   UNL A   1      38.347  31.445  28.390  1.00  0.00    -0.205 F 
ATOM     68  C   UNL A   1      36.252  30.431  31.182  1.00  0.00     0.022 A 
BRANCH  66  69
ATOM     69  S   UNL A   1      35.810  32.503  29.405  1.00  0.00     0.127 S 
ATOM     70  O   UNL A   1      36.649  33.649  29.738  1.00  0.00    -0.237 OA
ATOM     71  O   UNL A   1      35.686  32.163  27.992  1.00  0.00    -0.237 OA
ATOM     72  O   UNL A   1      34.548  32.446  30.146  1.00  0.00    -0.744 OA
ENDBRANCH  66  69
ENDBRANCH  48  62
BRANCH  49  73
ATOM     73  C   UNL A   1      47.509  26.127  28.072  1.00  0.00     0.023 A 
ATOM     74  C   UNL A   1      48.738  25.538  28.416  1.00  0.00     0.012 A 
ATOM     75  C   UNL A   1      47.129  26.179  26.715  1.00  0.00     0.148 A 
ATOM     76  C   UNL A   1      49.629  25.152  27.406  1.00  0.00     0.002 A 
ATOM     77  C   UNL A   1      48.075  25.929  25.728  1.00  0.00     0.091 A 
ATOM     78  F   UNL A   1      45.934  26.708  26.402  1.00  0.00    -0.205 F 
ATOM     79  C   UNL A   1      49.322  25.395  26.063  1.00  0.00     0.022 A 
BRANCH  77  80
ATOM     80  S   UNL A   1      47.835  26.763  24.149  1.00  0.00     0.127 S 
ATOM     81  O   UNL A   1      48.175  25.749  23.158  1.00  0.00    -0.237 OA
ATOM     82  O   UNL A   1      46.424  27.146  24.225  1.00  0.00    -0.237 OA
ATOM     83  O   UNL A   1      48.750  27.903  24.198  1.00  0.00    -0.744 OA
ENDBRANCH  77  80
ENDBRANCH  49  73
BRANCH  61  84
ATOM     84  C   UNL A   1      44.320  32.731  27.920  1.00  0.00     0.023 A 
ATOM     85  C   UNL A   1      44.157  32.838  26.514  1.00  0.00     0.012 A 
ATOM     86  C   UNL A   1      44.276  33.928  28.645  1.00  0.00     0.148 A 
ATOM     87  C   UNL A   1      44.064  34.063  25.856  1.00  0.00     0.002 A 
ATOM     88  C   UNL A   1      44.252  35.156  27.982  1.00  0.00     0.091 A 
ATOM     89  F   UNL A   1      44.203  33.899  29.983  1.00  0.00    -0.205 F 
ATOM     90  C   UNL A   1      44.147  35.232  26.590  1.00  0.00     0.022 A 
BRANCH  88  91
ATOM     91  S   UNL A   1      44.476  36.652  28.943  1.00  0.00     0.127 S 
ATOM     92  O   UNL A   1      45.669  36.370  29.733  1.00  0.00    -0.237 OA
ATOM     93  O   UNL A   1      44.606  37.676  27.908  1.00  0.00    -0.237 OA
ATOM     94  O   UNL A   1      43.239  36.743  29.722  1.00  0.00    -0.744 OA
ENDBRANCH  88  91
ENDBRANCH  61  84
ENDBRANCH  35  36
ENDBRANCH  28  30
ENDBRANCH  27  28
ENDBRANCH  26  27
ENDBRANCH   1  26
TORSDOF 18
ENDMDL
