MODEL 1
REMARK VINA RESULT:     -10.7      0.000      0.000
REMARK SMILES O=C(Cc1cccn(C(F)F)c1=O)OCCOC(=O)c1ccc(-c2c3nc(c(-c4cccc(S(=O)(=O)[O-])c4F)c4ccc([nH]4)c(-c4cccc(S(=O)(=O)[O-])c4F)c4nc(c(-c5cccc(S(=O)(=O)[O-])c5F)c5ccc2[nH]5)C=C4)C=C3)cc1
REMARK SMILES IDX 16 1 15 2 14 3 2 4 1 5 3 6 4 7 5 8 12 9 6 10 8 11 13 12 7 13
REMARK SMILES IDX 9 14 10 15 11 16 17 17 18 18 19 19 20 20 21 21 82 22 22 23
REMARK SMILES IDX 81 24 23 25 24 26 25 27 75 28 26 29 80 30 74 31 76 32 27 33
REMARK SMILES IDX 79 34 73 35 72 36 28 38 60 39 40 40 59 41 41 42 44 43 58 44
REMARK SMILES IDX 77 45 42 46 43 47 57 49 78 50 45 51 29 52 30 53 38 54 31 55
REMARK SMILES IDX 33 56 39 57 32 58 34 59 35 60 36 61 37 62 61 63 62 64 70 65
REMARK SMILES IDX 63 66 65 67 71 68 64 69 66 70 67 71 68 72 69 73 46 74 47 75
REMARK SMILES IDX 55 76 48 77 50 78 56 79 49 80 51 81 52 82 53 83 54 84
REMARK H PARENT 76 37 44 48
REMARK Flexibility Score: inf
ROOT
ATOM      1  C   UNL A   1      33.185  34.026  27.992  1.00  0.00     0.275 C 
ENDROOT
BRANCH   1   2
ATOM      2  C   UNL A   1      33.630  35.272  28.761  1.00  0.00     0.274 C 
BRANCH   2   3
ATOM      3  O   UNL A   1      32.587  35.737  29.643  1.00  0.00    -0.462 OA
BRANCH   3   4
ATOM      4  C   UNL A   1      32.755  36.299  30.861  1.00  0.00     0.310 C 
ATOM      5  O   UNL A   1      32.939  37.513  30.951  1.00  0.00    -0.252 OA
BRANCH   4   6
ATOM      6  C   UNL A   1      32.781  35.420  32.101  1.00  0.00     0.164 C 
BRANCH   6   7
ATOM      7  C   UNL A   1      33.937  34.491  32.299  1.00  0.00     0.029 A 
ATOM      8  C   UNL A   1      33.975  33.268  31.735  1.00  0.00     0.011 A 
ATOM      9  C   UNL A   1      35.108  34.953  33.108  1.00  0.00     0.258 A 
ATOM     10  C   UNL A   1      35.119  32.410  31.884  1.00  0.00     0.019 A 
ATOM     11  N   UNL A   1      36.173  34.074  33.192  1.00  0.00    -0.258 N 
ATOM     12  O   UNL A   1      35.086  36.045  33.663  1.00  0.00    -0.269 OA
ATOM     13  C   UNL A   1      36.174  32.831  32.589  1.00  0.00     0.095 A 
BRANCH  11  14
ATOM     14  C   UNL A   1      37.324  34.500  33.946  1.00  0.00     0.451 C 
ATOM     15  F   UNL A   1      37.781  33.456  34.692  1.00  0.00    -0.185 F 
ATOM     16  F   UNL A   1      38.334  34.824  33.096  1.00  0.00    -0.185 F 
ENDBRANCH  11  14
ENDBRANCH   6   7
ENDBRANCH   4   6
ENDBRANCH   3   4
ENDBRANCH   2   3
ENDBRANCH   1   2
BRANCH   1  17
ATOM     17  O   UNL A   1      34.346  33.255  27.642  1.00  0.00    -0.458 OA
BRANCH  17  18
ATOM     18  C   UNL A   1      34.233  31.905  27.735  1.00  0.00     0.338 C 
ATOM     19  O   UNL A   1      33.339  31.217  27.281  1.00  0.00    -0.246 OA
BRANCH  18  20
ATOM     20  C   UNL A   1      35.508  31.385  28.286  1.00  0.00     0.060 A 
ATOM     21  C   UNL A   1      36.639  32.205  28.398  1.00  0.00     0.016 A 
ATOM     22  C   UNL A   1      35.597  30.021  28.590  1.00  0.00     0.016 A 
ATOM     23  C   UNL A   1      37.853  31.657  28.817  1.00  0.00     0.010 A 
ATOM     24  C   UNL A   1      36.813  29.476  29.015  1.00  0.00     0.010 A 
ATOM     25  C   UNL A   1      37.946  30.293  29.141  1.00  0.00    -0.014 A 
BRANCH  25  26
ATOM     26  C   UNL A   1      39.176  29.783  29.793  1.00  0.00     0.031 A 
ATOM     27  C   UNL A   1      39.669  30.304  31.109  1.00  0.00     0.074 A 
ATOM     28  C   UNL A   1      39.861  28.817  29.151  1.00  0.00     0.049 A 
ATOM     29  N   UNL A   1      40.664  29.861  31.835  1.00  0.00    -0.248 NA
ATOM     30  C   UNL A   1      38.966  31.457  31.690  1.00  0.00     0.031 C 
ATOM     31  C   UNL A   1      39.509  28.277  27.836  1.00  0.00     0.029 A 
ATOM     32  N   UNL A   1      40.990  28.127  29.508  1.00  0.00    -0.354 N 
ATOM     33  C   UNL A   1      40.712  30.675  32.959  1.00  0.00     0.074 A 
ATOM     34  C   UNL A   1      39.653  31.651  32.813  1.00  0.00     0.031 C 
ATOM     35  C   UNL A   1      40.404  27.339  27.496  1.00  0.00     0.029 A 
ATOM     36  C   UNL A   1      41.393  27.214  28.564  1.00  0.00     0.049 A 
ATOM     37  H   UNL A   1      41.465  28.270  30.358  1.00  0.00     0.167 HD
ATOM     38  C   UNL A   1      41.550  30.593  34.019  1.00  0.00     0.034 A 
ATOM     39  C   UNL A   1      42.436  26.362  28.554  1.00  0.00     0.034 A 
ATOM     40  C   UNL A   1      42.598  29.615  34.161  1.00  0.00     0.049 A 
ATOM     41  C   UNL A   1      43.340  26.288  29.747  1.00  0.00     0.074 A 
ATOM     42  C   UNL A   1      43.445  29.419  35.239  1.00  0.00     0.029 A 
ATOM     43  N   UNL A   1      42.956  28.685  33.200  1.00  0.00    -0.354 N 
ATOM     44  N   UNL A   1      43.265  26.953  30.872  1.00  0.00    -0.248 NA
ATOM     45  C   UNL A   1      44.449  25.324  29.688  1.00  0.00     0.031 C 
ATOM     46  C   UNL A   1      44.320  28.376  34.927  1.00  0.00     0.029 A 
ATOM     47  C   UNL A   1      44.016  27.919  33.656  1.00  0.00     0.049 A 
ATOM     48  H   UNL A   1      42.523  28.584  32.321  1.00  0.00     0.167 HD
ATOM     49  C   UNL A   1      44.305  26.481  31.662  1.00  0.00     0.074 A 
ATOM     50  C   UNL A   1      44.987  25.460  30.894  1.00  0.00     0.031 C 
ATOM     51  C   UNL A   1      44.666  26.875  32.907  1.00  0.00     0.034 A 
BRANCH  38  52
ATOM     52  C   UNL A   1      41.335  31.527  35.178  1.00  0.00     0.023 A 
ATOM     53  C   UNL A   1      42.198  32.633  35.317  1.00  0.00     0.012 A 
ATOM     54  C   UNL A   1      40.203  31.419  36.009  1.00  0.00     0.148 A 
ATOM     55  C   UNL A   1      41.936  33.622  36.264  1.00  0.00     0.002 A 
ATOM     56  C   UNL A   1      39.937  32.420  36.936  1.00  0.00     0.091 A 
ATOM     57  F   UNL A   1      39.400  30.357  35.857  1.00  0.00    -0.205 F 
ATOM     58  C   UNL A   1      40.801  33.521  37.065  1.00  0.00     0.022 A 
BRANCH  56  59
ATOM     59  S   UNL A   1      38.471  32.426  37.976  1.00  0.00     0.127 S 
ATOM     60  O   UNL A   1      37.753  31.253  37.478  1.00  0.00    -0.237 OA
ATOM     61  O   UNL A   1      39.043  32.269  39.313  1.00  0.00    -0.237 OA
ATOM     62  O   UNL A   1      37.811  33.702  37.737  1.00  0.00    -0.744 OA
ENDBRANCH  56  59
ENDBRANCH  38  52
BRANCH  39  63
ATOM     63  C   UNL A   1      42.612  25.464  27.385  1.00  0.00     0.023 A 
ATOM     64  C   UNL A   1      43.390  25.899  26.295  1.00  0.00     0.012 A 
ATOM     65  C   UNL A   1      42.105  24.151  27.399  1.00  0.00     0.148 A 
ATOM     66  C   UNL A   1      43.658  25.037  25.233  1.00  0.00     0.002 A 
ATOM     67  C   UNL A   1      42.410  23.286  26.356  1.00  0.00     0.091 A 
ATOM     68  F   UNL A   1      41.368  23.768  28.451  1.00  0.00    -0.205 F 
ATOM     69  C   UNL A   1      43.178  23.730  25.268  1.00  0.00     0.022 A 
BRANCH  67  70
ATOM     70  S   UNL A   1      41.939  21.553  26.368  1.00  0.00     0.127 S 
ATOM     71  O   UNL A   1      42.801  21.004  25.324  1.00  0.00    -0.237 OA
ATOM     72  O   UNL A   1      42.294  21.157  27.731  1.00  0.00    -0.237 OA
ATOM     73  O   UNL A   1      40.512  21.528  26.084  1.00  0.00    -0.744 OA
ENDBRANCH  67  70
ENDBRANCH  39  63
BRANCH  51  74
ATOM     74  C   UNL A   1      45.858  26.217  33.540  1.00  0.00     0.023 A 
ATOM     75  C   UNL A   1      47.117  26.841  33.442  1.00  0.00     0.012 A 
ATOM     76  C   UNL A   1      45.712  25.065  34.338  1.00  0.00     0.148 A 
ATOM     77  C   UNL A   1      48.216  26.325  34.127  1.00  0.00     0.002 A 
ATOM     78  C   UNL A   1      46.805  24.575  35.042  1.00  0.00     0.091 A 
ATOM     79  F   UNL A   1      44.502  24.491  34.410  1.00  0.00    -0.205 F 
ATOM     80  C   UNL A   1      48.058  25.201  34.934  1.00  0.00     0.022 A 
BRANCH  78  81
ATOM     81  S   UNL A   1      46.693  23.174  36.161  1.00  0.00     0.127 S 
ATOM     82  O   UNL A   1      46.877  22.046  35.248  1.00  0.00    -0.237 OA
ATOM     83  O   UNL A   1      47.814  23.415  37.069  1.00  0.00    -0.237 OA
ATOM     84  O   UNL A   1      45.376  23.253  36.780  1.00  0.00    -0.744 OA
ENDBRANCH  78  81
ENDBRANCH  51  74
ENDBRANCH  25  26
ENDBRANCH  18  20
ENDBRANCH  17  18
ENDBRANCH   1  17
TORSDOF 16
ENDMDL
MODEL 2
REMARK VINA RESULT:     -10.4      5.789     11.625
REMARK SMILES O=C(Cc1cccn(C(F)F)c1=O)OCCOC(=O)c1ccc(-c2c3nc(c(-c4cccc(S(=O)(=O)[O-])c4F)c4ccc([nH]4)c(-c4cccc(S(=O)(=O)[O-])c4F)c4nc(c(-c5cccc(S(=O)(=O)[O-])c5F)c5ccc2[nH]5)C=C4)C=C3)cc1
REMARK SMILES IDX 16 1 15 2 14 3 2 4 1 5 3 6 4 7 5 8 12 9 6 10 8 11 13 12 7 13
REMARK SMILES IDX 9 14 10 15 11 16 17 17 18 18 19 19 20 20 21 21 82 22 22 23
REMARK SMILES IDX 81 24 23 25 24 26 25 27 75 28 26 29 80 30 74 31 76 32 27 33
REMARK SMILES IDX 79 34 73 35 72 36 28 38 60 39 40 40 59 41 41 42 44 43 58 44
REMARK SMILES IDX 77 45 42 46 43 47 57 49 78 50 45 51 29 52 30 53 38 54 31 55
REMARK SMILES IDX 33 56 39 57 32 58 34 59 35 60 36 61 37 62 61 63 62 64 70 65
REMARK SMILES IDX 63 66 65 67 71 68 64 69 66 70 67 71 68 72 69 73 46 74 47 75
REMARK SMILES IDX 55 76 48 77 50 78 56 79 49 80 51 81 52 82 53 83 54 84
REMARK H PARENT 76 37 44 48
REMARK Flexibility Score: inf
ROOT
ATOM      1  C   UNL A   1      37.660  20.620  24.888  1.00  0.00     0.275 C 
ENDROOT
BRANCH   1   2
ATOM      2  C   UNL A   1      36.138  20.764  24.829  1.00  0.00     0.274 C 
BRANCH   2   3
ATOM      3  O   UNL A   1      35.753  22.149  24.710  1.00  0.00    -0.462 OA
BRANCH   3   4
ATOM      4  C   UNL A   1      35.576  22.840  23.561  1.00  0.00     0.310 C 
ATOM      5  O   UNL A   1      36.518  22.969  22.779  1.00  0.00    -0.252 OA
BRANCH   4   6
ATOM      6  C   UNL A   1      34.238  23.503  23.277  1.00  0.00     0.164 C 
BRANCH   6   7
ATOM      7  C   UNL A   1      33.973  24.859  23.848  1.00  0.00     0.029 A 
ATOM      8  C   UNL A   1      33.974  25.087  25.176  1.00  0.00     0.011 A 
ATOM      9  C   UNL A   1      33.748  26.008  22.916  1.00  0.00     0.258 A 
ATOM     10  C   UNL A   1      33.778  26.408  25.709  1.00  0.00     0.019 A 
ATOM     11  N   UNL A   1      33.580  27.247  23.508  1.00  0.00    -0.258 N 
ATOM     12  O   UNL A   1      33.705  25.824  21.705  1.00  0.00    -0.269 OA
ATOM     13  C   UNL A   1      33.598  27.438  24.876  1.00  0.00     0.095 A 
BRANCH  11  14
ATOM     14  C   UNL A   1      33.383  28.376  22.635  1.00  0.00     0.451 C 
ATOM     15  F   UNL A   1      32.390  29.161  23.136  1.00  0.00    -0.185 F 
ATOM     16  F   UNL A   1      34.502  29.147  22.625  1.00  0.00    -0.185 F 
ENDBRANCH  11  14
ENDBRANCH   6   7
ENDBRANCH   4   6
ENDBRANCH   3   4
ENDBRANCH   2   3
ENDBRANCH   1   2
BRANCH   1  17
ATOM     17  O   UNL A   1      38.183  21.573  25.828  1.00  0.00    -0.458 OA
BRANCH  17  18
ATOM     18  C   UNL A   1      39.434  21.340  26.301  1.00  0.00     0.338 C 
ATOM     19  O   UNL A   1      40.075  20.312  26.189  1.00  0.00    -0.246 OA
BRANCH  18  20
ATOM     20  C   UNL A   1      39.982  22.634  26.776  1.00  0.00     0.060 A 
ATOM     21  C   UNL A   1      40.965  22.684  27.773  1.00  0.00     0.016 A 
ATOM     22  C   UNL A   1      39.417  23.819  26.287  1.00  0.00     0.016 A 
ATOM     23  C   UNL A   1      41.380  23.919  28.275  1.00  0.00     0.010 A 
ATOM     24  C   UNL A   1      39.838  25.054  26.788  1.00  0.00     0.010 A 
ATOM     25  C   UNL A   1      40.829  25.113  27.778  1.00  0.00    -0.014 A 
BRANCH  25  26
ATOM     26  C   UNL A   1      41.439  26.409  28.161  1.00  0.00     0.031 A 
ATOM     27  C   UNL A   1      42.869  26.749  27.866  1.00  0.00     0.074 A 
ATOM     28  C   UNL A   1      40.655  27.295  28.804  1.00  0.00     0.049 A 
ATOM     29  N   UNL A   1      43.485  27.889  28.047  1.00  0.00    -0.248 NA
ATOM     30  C   UNL A   1      43.716  25.690  27.297  1.00  0.00     0.031 C 
ATOM     31  C   UNL A   1      39.266  27.049  29.199  1.00  0.00     0.029 A 
ATOM     32  N   UNL A   1      40.909  28.569  29.243  1.00  0.00    -0.354 N 
ATOM     33  C   UNL A   1      44.790  27.693  27.616  1.00  0.00     0.074 A 
ATOM     34  C   UNL A   1      44.883  26.316  27.176  1.00  0.00     0.031 C 
ATOM     35  C   UNL A   1      38.790  28.137  29.822  1.00  0.00     0.029 A 
ATOM     36  C   UNL A   1      39.838  29.152  29.874  1.00  0.00     0.049 A 
ATOM     37  H   UNL A   1      41.775  29.020  29.118  1.00  0.00     0.167 HD
ATOM     38  C   UNL A   1      45.803  28.590  27.572  1.00  0.00     0.034 A 
ATOM     39  C   UNL A   1      39.703  30.372  30.430  1.00  0.00     0.034 A 
ATOM     40  C   UNL A   1      45.703  29.961  28.004  1.00  0.00     0.049 A 
ATOM     41  C   UNL A   1      40.839  31.347  30.357  1.00  0.00     0.074 A 
ATOM     42  C   UNL A   1      46.663  30.955  27.925  1.00  0.00     0.029 A 
ATOM     43  N   UNL A   1      44.593  30.527  28.608  1.00  0.00    -0.354 N 
ATOM     44  N   UNL A   1      42.012  31.194  29.793  1.00  0.00    -0.248 NA
ATOM     45  C   UNL A   1      40.627  32.670  30.961  1.00  0.00     0.031 C 
ATOM     46  C   UNL A   1      46.137  32.121  28.489  1.00  0.00     0.029 A 
ATOM     47  C   UNL A   1      44.847  31.853  28.914  1.00  0.00     0.049 A 
ATOM     48  H   UNL A   1      43.748  30.056  28.793  1.00  0.00     0.167 HD
ATOM     49  C   UNL A   1      42.673  32.405  29.960  1.00  0.00     0.074 A 
ATOM     50  C   UNL A   1      41.764  33.287  30.663  1.00  0.00     0.031 C 
ATOM     51  C   UNL A   1      43.927  32.741  29.576  1.00  0.00     0.034 A 
BRANCH  38  52
ATOM     52  C   UNL A   1      47.109  28.169  26.956  1.00  0.00     0.023 A 
ATOM     53  C   UNL A   1      48.129  27.693  27.804  1.00  0.00     0.012 A 
ATOM     54  C   UNL A   1      47.268  28.079  25.559  1.00  0.00     0.148 A 
ATOM     55  C   UNL A   1      49.287  27.128  27.273  1.00  0.00     0.002 A 
ATOM     56  C   UNL A   1      48.415  27.493  25.037  1.00  0.00     0.091 A 
ATOM     57  F   UNL A   1      46.283  28.541  24.775  1.00  0.00    -0.205 F 
ATOM     58  C   UNL A   1      49.425  27.018  25.892  1.00  0.00     0.022 A 
BRANCH  56  59
ATOM     59  S   UNL A   1      48.672  27.243  23.276  1.00  0.00     0.127 S 
ATOM     60  O   UNL A   1      47.880  28.332  22.706  1.00  0.00    -0.237 OA
ATOM     61  O   UNL A   1      50.120  27.411  23.150  1.00  0.00    -0.237 OA
ATOM     62  O   UNL A   1      48.182  25.904  22.983  1.00  0.00    -0.744 OA
ENDBRANCH  56  59
ENDBRANCH  38  52
BRANCH  39  63
ATOM     63  C   UNL A   1      38.398  30.740  31.033  1.00  0.00     0.023 A 
ATOM     64  C   UNL A   1      38.178  30.492  32.401  1.00  0.00     0.012 A 
ATOM     65  C   UNL A   1      37.423  31.428  30.284  1.00  0.00     0.148 A 
ATOM     66  C   UNL A   1      37.003  30.923  33.015  1.00  0.00     0.002 A 
ATOM     67  C   UNL A   1      36.274  31.889  30.913  1.00  0.00     0.091 A 
ATOM     68  F   UNL A   1      37.663  31.647  28.984  1.00  0.00    -0.205 F 
ATOM     69  C   UNL A   1      36.057  31.630  32.276  1.00  0.00     0.022 A 
BRANCH  67  70
ATOM     70  S   UNL A   1      35.057  32.909  30.074  1.00  0.00     0.127 S 
ATOM     71  O   UNL A   1      34.533  31.982  29.072  1.00  0.00    -0.237 OA
ATOM     72  O   UNL A   1      34.132  33.226  31.162  1.00  0.00    -0.237 OA
ATOM     73  O   UNL A   1      35.790  34.052  29.551  1.00  0.00    -0.744 OA
ENDBRANCH  67  70
ENDBRANCH  39  63
BRANCH  51  74
ATOM     74  C   UNL A   1      44.420  34.122  29.902  1.00  0.00     0.023 A 
ATOM     75  C   UNL A   1      45.214  34.312  31.050  1.00  0.00     0.012 A 
ATOM     76  C   UNL A   1      44.216  35.194  29.012  1.00  0.00     0.148 A 
ATOM     77  C   UNL A   1      45.795  35.552  31.310  1.00  0.00     0.002 A 
ATOM     78  C   UNL A   1      44.823  36.419  29.262  1.00  0.00     0.091 A 
ATOM     79  F   UNL A   1      43.454  34.985  27.928  1.00  0.00    -0.205 F 
ATOM     80  C   UNL A   1      45.609  36.600  30.412  1.00  0.00     0.022 A 
BRANCH  78  81
ATOM     81  S   UNL A   1      44.703  37.813  28.134  1.00  0.00     0.127 S 
ATOM     82  O   UNL A   1      43.369  38.330  28.440  1.00  0.00    -0.237 OA
ATOM     83  O   UNL A   1      45.805  38.665  28.580  1.00  0.00    -0.237 OA
ATOM     84  O   UNL A   1      44.856  37.265  26.793  1.00  0.00    -0.744 OA
ENDBRANCH  78  81
ENDBRANCH  51  74
ENDBRANCH  25  26
ENDBRANCH  18  20
ENDBRANCH  17  18
ENDBRANCH   1  17
TORSDOF 16
ENDMDL
MODEL 3
REMARK VINA RESULT:     -10.4      1.577      1.818
REMARK SMILES O=C(Cc1cccn(C(F)F)c1=O)OCCOC(=O)c1ccc(-c2c3nc(c(-c4cccc(S(=O)(=O)[O-])c4F)c4ccc([nH]4)c(-c4cccc(S(=O)(=O)[O-])c4F)c4nc(c(-c5cccc(S(=O)(=O)[O-])c5F)c5ccc2[nH]5)C=C4)C=C3)cc1
REMARK SMILES IDX 16 1 15 2 14 3 2 4 1 5 3 6 4 7 5 8 12 9 6 10 8 11 13 12 7 13
REMARK SMILES IDX 9 14 10 15 11 16 17 17 18 18 19 19 20 20 21 21 82 22 22 23
REMARK SMILES IDX 81 24 23 25 24 26 25 27 75 28 26 29 80 30 74 31 76 32 27 33
REMARK SMILES IDX 79 34 73 35 72 36 28 38 60 39 40 40 59 41 41 42 44 43 58 44
REMARK SMILES IDX 77 45 42 46 43 47 57 49 78 50 45 51 29 52 30 53 38 54 31 55
REMARK SMILES IDX 33 56 39 57 32 58 34 59 35 60 36 61 37 62 61 63 62 64 70 65
REMARK SMILES IDX 63 66 65 67 71 68 64 69 66 70 67 71 68 72 69 73 46 74 47 75
REMARK SMILES IDX 55 76 48 77 50 78 56 79 49 80 51 81 52 82 53 83 54 84
REMARK H PARENT 76 37 44 48
REMARK Flexibility Score: inf
ROOT
ATOM      1  C   UNL A   1      33.252  33.962  27.970  1.00  0.00     0.275 C 
ENDROOT
BRANCH   1   2
ATOM      2  C   UNL A   1      33.646  35.203  28.772  1.00  0.00     0.274 C 
BRANCH   2   3
ATOM      3  O   UNL A   1      32.627  35.542  29.736  1.00  0.00    -0.462 OA
BRANCH   3   4
ATOM      4  C   UNL A   1      32.821  36.119  30.944  1.00  0.00     0.310 C 
ATOM      5  O   UNL A   1      32.945  37.340  31.021  1.00  0.00    -0.252 OA
BRANCH   4   6
ATOM      6  C   UNL A   1      32.952  35.248  32.183  1.00  0.00     0.164 C 
BRANCH   6   7
ATOM      7  C   UNL A   1      34.141  34.350  32.309  1.00  0.00     0.029 A 
ATOM      8  C   UNL A   1      34.178  33.130  31.739  1.00  0.00     0.011 A 
ATOM      9  C   UNL A   1      35.346  34.841  33.049  1.00  0.00     0.258 A 
ATOM     10  C   UNL A   1      35.352  32.302  31.817  1.00  0.00     0.019 A 
ATOM     11  N   UNL A   1      36.436  33.991  33.066  1.00  0.00    -0.258 N 
ATOM     12  O   UNL A   1      35.327  35.932  33.608  1.00  0.00    -0.269 OA
ATOM     13  C   UNL A   1      36.435  32.750  32.459  1.00  0.00     0.095 A 
BRANCH  11  14
ATOM     14  C   UNL A   1      37.618  34.446  33.752  1.00  0.00     0.451 C 
ATOM     15  F   UNL A   1      38.132  33.420  34.486  1.00  0.00    -0.185 F 
ATOM     16  F   UNL A   1      38.576  34.774  32.845  1.00  0.00    -0.185 F 
ENDBRANCH  11  14
ENDBRANCH   6   7
ENDBRANCH   4   6
ENDBRANCH   3   4
ENDBRANCH   2   3
ENDBRANCH   1   2
BRANCH   1  17
ATOM     17  O   UNL A   1      34.427  33.171  27.727  1.00  0.00    -0.458 OA
BRANCH  17  18
ATOM     18  C   UNL A   1      34.296  31.826  27.856  1.00  0.00     0.338 C 
ATOM     19  O   UNL A   1      33.361  31.147  27.476  1.00  0.00    -0.246 OA
BRANCH  18  20
ATOM     20  C   UNL A   1      35.594  31.292  28.334  1.00  0.00     0.060 A 
ATOM     21  C   UNL A   1      36.747  32.087  28.345  1.00  0.00     0.016 A 
ATOM     22  C   UNL A   1      35.674  29.934  28.670  1.00  0.00     0.016 A 
ATOM     23  C   UNL A   1      37.975  31.523  28.697  1.00  0.00     0.010 A 
ATOM     24  C   UNL A   1      36.904  29.373  29.027  1.00  0.00     0.010 A 
ATOM     25  C   UNL A   1      38.060  30.166  29.052  1.00  0.00    -0.014 A 
BRANCH  25  26
ATOM     26  C   UNL A   1      39.322  29.645  29.633  1.00  0.00     0.031 A 
ATOM     27  C   UNL A   1      39.963  30.249  30.846  1.00  0.00     0.074 A 
ATOM     28  C   UNL A   1      39.894  28.590  29.023  1.00  0.00     0.049 A 
ATOM     29  N   UNL A   1      41.000  29.815  31.516  1.00  0.00    -0.248 NA
ATOM     30  C   UNL A   1      39.375  31.486  31.381  1.00  0.00     0.031 C 
ATOM     31  C   UNL A   1      39.393  27.959  27.800  1.00  0.00     0.029 A 
ATOM     32  N   UNL A   1      41.017  27.870  29.337  1.00  0.00    -0.354 N 
ATOM     33  C   UNL A   1      41.195  30.719  32.551  1.00  0.00     0.074 A 
ATOM     34  C   UNL A   1      40.174  31.737  32.414  1.00  0.00     0.031 C 
ATOM     35  C   UNL A   1      40.204  26.946  27.467  1.00  0.00     0.029 A 
ATOM     36  C   UNL A   1      41.283  26.858  28.448  1.00  0.00     0.049 A 
ATOM     37  H   UNL A   1      41.578  28.060  30.123  1.00  0.00     0.167 HD
ATOM     38  C   UNL A   1      42.125  30.681  33.534  1.00  0.00     0.034 A 
ATOM     39  C   UNL A   1      42.278  25.951  28.420  1.00  0.00     0.034 A 
ATOM     40  C   UNL A   1      43.133  29.661  33.669  1.00  0.00     0.049 A 
ATOM     41  C   UNL A   1      43.288  25.928  29.528  1.00  0.00     0.074 A 
ATOM     42  C   UNL A   1      44.069  29.512  34.679  1.00  0.00     0.029 A 
ATOM     43  N   UNL A   1      43.352  28.633  32.768  1.00  0.00    -0.354 N 
ATOM     44  N   UNL A   1      43.353  26.692  30.590  1.00  0.00    -0.248 NA
ATOM     45  C   UNL A   1      44.338  24.902  29.456  1.00  0.00     0.031 C 
ATOM     46  C   UNL A   1      44.858  28.397  34.385  1.00  0.00     0.029 A 
ATOM     47  C   UNL A   1      44.412  27.850  33.195  1.00  0.00     0.049 A 
ATOM     48  H   UNL A   1      42.832  28.481  31.946  1.00  0.00     0.167 HD
ATOM     49  C   UNL A   1      44.440  26.231  31.322  1.00  0.00     0.074 A 
ATOM     50  C   UNL A   1      44.995  25.111  30.592  1.00  0.00     0.031 C 
ATOM     51  C   UNL A   1      44.936  26.711  32.487  1.00  0.00     0.034 A 
BRANCH  38  52
ATOM     52  C   UNL A   1      42.067  31.723  34.617  1.00  0.00     0.023 A 
ATOM     53  C   UNL A   1      42.888  32.863  34.497  1.00  0.00     0.012 A 
ATOM     54  C   UNL A   1      41.101  31.667  35.640  1.00  0.00     0.148 A 
ATOM     55  C   UNL A   1      42.745  33.935  35.376  1.00  0.00     0.002 A 
ATOM     56  C   UNL A   1      40.949  32.750  36.499  1.00  0.00     0.091 A 
ATOM     57  F   UNL A   1      40.334  30.571  35.733  1.00  0.00    -0.205 F 
ATOM     58  C   UNL A   1      41.770  33.883  36.368  1.00  0.00     0.022 A 
BRANCH  56  59
ATOM     59  S   UNL A   1      39.685  32.818  37.773  1.00  0.00     0.127 S 
ATOM     60  O   UNL A   1      38.723  31.829  37.287  1.00  0.00    -0.237 OA
ATOM     61  O   UNL A   1      40.428  32.411  38.966  1.00  0.00    -0.237 OA
ATOM     62  O   UNL A   1      39.202  34.192  37.791  1.00  0.00    -0.744 OA
ENDBRANCH  56  59
ENDBRANCH  38  52
BRANCH  39  63
ATOM     63  C   UNL A   1      42.298  24.947  27.327  1.00  0.00     0.023 A 
ATOM     64  C   UNL A   1      43.199  25.112  26.258  1.00  0.00     0.012 A 
ATOM     65  C   UNL A   1      41.509  23.783  27.400  1.00  0.00     0.148 A 
ATOM     66  C   UNL A   1      43.312  24.131  25.274  1.00  0.00     0.002 A 
ATOM     67  C   UNL A   1      41.656  22.792  26.437  1.00  0.00     0.091 A 
ATOM     68  F   UNL A   1      40.661  23.656  28.430  1.00  0.00    -0.205 F 
ATOM     69  C   UNL A   1      42.550  22.968  25.369  1.00  0.00     0.022 A 
BRANCH  67  70
ATOM     70  S   UNL A   1      40.809  21.212  26.539  1.00  0.00     0.127 S 
ATOM     71  O   UNL A   1      39.500  21.541  25.980  1.00  0.00    -0.237 OA
ATOM     72  O   UNL A   1      41.648  20.368  25.688  1.00  0.00    -0.237 OA
ATOM     73  O   UNL A   1      40.818  20.847  27.948  1.00  0.00    -0.744 OA
ENDBRANCH  67  70
ENDBRANCH  39  63
BRANCH  51  74
ATOM     74  C   UNL A   1      46.151  26.043  33.067  1.00  0.00     0.023 A 
ATOM     75  C   UNL A   1      45.981  25.049  34.051  1.00  0.00     0.012 A 
ATOM     76  C   UNL A   1      47.435  26.297  32.548  1.00  0.00     0.148 A 
ATOM     77  C   UNL A   1      47.075  24.320  34.514  1.00  0.00     0.002 A 
ATOM     78  C   UNL A   1      48.516  25.545  32.993  1.00  0.00     0.091 A 
ATOM     79  F   UNL A   1      47.567  27.250  31.614  1.00  0.00    -0.205 F 
ATOM     80  C   UNL A   1      48.338  24.560  33.978  1.00  0.00     0.022 A 
BRANCH  78  81
ATOM     81  S   UNL A   1      50.171  25.728  32.320  1.00  0.00     0.127 S 
ATOM     82  O   UNL A   1      50.463  27.129  32.621  1.00  0.00    -0.237 OA
ATOM     83  O   UNL A   1      50.934  24.762  33.110  1.00  0.00    -0.237 OA
ATOM     84  O   UNL A   1      50.069  25.414  30.900  1.00  0.00    -0.744 OA
ENDBRANCH  78  81
ENDBRANCH  51  74
ENDBRANCH  25  26
ENDBRANCH  18  20
ENDBRANCH  17  18
ENDBRANCH   1  17
TORSDOF 16
ENDMDL
