MODEL 1
REMARK VINA RESULT:     -10.7      0.000      0.000
REMARK SMILES CC(C)(O)C#Cc1ccc(C(=O)N[C@@H](CC2=c3ccccc3=NC2)C(=O)OCCOC(=O)c2ccc(-c3c4nc(c(-c5cccc(S(=O)(=O)[O-])c5F)c5ccc([nH]5)c(-c5cccc(S(=O)(=O)[O-])c5F)c5nc(c(-c6cccc(S(=O)(=O)[O-])c6F)c6ccc3[nH]6)C=C5)C=C4)cc2)s1
REMARK SMILES IDX 28 1 27 2 25 3 26 4 14 5 13 6 11 7 12 8 10 10 7 11 8 12
REMARK SMILES IDX 96 13 9 14 6 15 5 16 2 17 1 18 3 19 4 20 15 22 16 23 17 24
REMARK SMILES IDX 24 25 18 26 22 27 23 28 19 29 21 30 20 31 29 32 30 33 31 34
REMARK SMILES IDX 32 35 33 36 34 37 95 38 35 39 94 40 36 41 37 42 38 43 88 44
REMARK SMILES IDX 39 45 93 46 87 47 89 48 40 49 92 50 86 51 85 52 41 54 73 55
REMARK SMILES IDX 53 56 72 57 54 58 57 59 71 60 90 61 55 62 56 63 70 65 91 66
REMARK SMILES IDX 58 67 42 68 43 69 51 70 44 71 46 72 52 73 45 74 47 75 48 76
REMARK SMILES IDX 49 77 50 78 74 79 75 80 83 81 76 82 78 83 84 84 77 85 79 86
REMARK SMILES IDX 80 87 81 88 82 89 59 90 60 91 68 92 61 93 63 94 69 95 62 96
REMARK SMILES IDX 64 97 65 98 66 99 67 100
REMARK H PARENT 13 9 4 21 89 53 57 64
REMARK Flexibility Score: inf
ROOT
ATOM      1  C   UNL A   1      44.483  23.320  31.294  1.00  0.00     0.274 C 
ENDROOT
BRANCH   1   2
ATOM      2  O   UNL A   1      43.681  24.311  30.599  1.00  0.00    -0.461 OA
BRANCH   2   3
ATOM      3  C   UNL A   1      43.673  24.230  29.233  1.00  0.00     0.329 C 
ATOM      4  O   UNL A   1      43.922  23.205  28.607  1.00  0.00    -0.250 OA
BRANCH   3   5
ATOM      5  C   UNL A   1      43.328  25.577  28.537  1.00  0.00     0.196 C 
BRANCH   5   6
ATOM      6  N   UNL A   1      44.454  26.530  28.438  1.00  0.00    -0.338 N 
ATOM      7  C   UNL A   1      45.661  26.550  27.767  1.00  0.00     0.262 C 
ATOM      8  O   UNL A   1      46.359  27.545  27.994  1.00  0.00    -0.268 OA
ATOM      9  H   UNL A   1      44.309  27.341  28.977  1.00  0.00     0.164 HD
BRANCH   7  10
ATOM     10  C   UNL A   1      46.037  25.587  26.743  1.00  0.00     0.093 A 
ATOM     11  C   UNL A   1      46.094  23.426  25.654  1.00  0.00     0.078 A 
ATOM     12  C   UNL A   1      45.831  24.410  24.729  1.00  0.00     0.030 A 
ATOM     13  S   UNL A   1      46.945  24.154  26.982  1.00  0.00    -0.121 S 
ATOM     14  C   UNL A   1      45.813  25.695  25.372  1.00  0.00     0.027 A 
BRANCH  11  15
ATOM     15  C   UNL A   1      45.727  22.034  25.598  1.00  0.00    -0.053 C 
ATOM     16  C   UNL A   1      45.118  20.891  25.451  1.00  0.00    -0.063 C 
BRANCH  16  17
ATOM     17  C   UNL A   1      44.407  19.558  25.281  1.00  0.00     0.120 C 
ATOM     18  C   UNL A   1      45.296  19.304  23.871  1.00  0.00     0.056 C 
ATOM     19  C   UNL A   1      42.279  19.214  25.940  1.00  0.00     0.056 C 
BRANCH  17  20
ATOM     20  O   UNL A   1      45.597  18.665  25.939  1.00  0.00    -0.378 OA
ATOM     21  H   UNL A   1      45.570  17.769  25.571  1.00  0.00     0.212 HD
ENDBRANCH  17  20
ENDBRANCH  16  17
ENDBRANCH  11  15
ENDBRANCH   7  10
ENDBRANCH   5   6
BRANCH   5  22
ATOM     22  C   UNL A   1      42.663  25.300  27.170  1.00  0.00     0.070 C 
BRANCH  22  23
ATOM     23  C   UNL A   1      41.950  26.497  26.642  1.00  0.00    -0.037 C 
ATOM     24  C   UNL A   1      40.824  27.007  27.122  1.00  0.00     0.001 A 
ATOM     25  C   UNL A   1      42.548  27.393  25.599  1.00  0.00     0.174 C 
ATOM     26  C   UNL A   1      39.916  26.615  28.147  1.00  0.00     0.010 A 
ATOM     27  C   UNL A   1      40.791  28.331  26.496  1.00  0.00     0.065 A 
ATOM     28  N   UNL A   1      41.707  28.619  25.621  1.00  0.00    -0.280 NA
ATOM     29  C   UNL A   1      39.036  27.518  28.598  1.00  0.00     0.001 A 
ATOM     30  C   UNL A   1      39.747  29.248  26.997  1.00  0.00     0.028 A 
ATOM     31  C   UNL A   1      38.953  28.844  28.006  1.00  0.00     0.002 A 
ENDBRANCH  22  23
ENDBRANCH   5  22
ENDBRANCH   3   5
ENDBRANCH   2   3
ENDBRANCH   1   2
BRANCH   1  32
ATOM     32  C   UNL A   1      44.132  23.271  32.789  1.00  0.00     0.275 C 
BRANCH  32  33
ATOM     33  O   UNL A   1      44.395  24.552  33.388  1.00  0.00    -0.458 OA
BRANCH  33  34
ATOM     34  C   UNL A   1      43.660  24.822  34.490  1.00  0.00     0.338 C 
ATOM     35  O   UNL A   1      43.818  24.375  35.614  1.00  0.00    -0.246 OA
BRANCH  34  36
ATOM     36  C   UNL A   1      43.021  26.111  34.187  1.00  0.00     0.060 A 
ATOM     37  C   UNL A   1      41.972  26.745  34.855  1.00  0.00     0.016 A 
ATOM     38  C   UNL A   1      43.494  26.674  33.041  1.00  0.00     0.016 A 
ATOM     39  C   UNL A   1      41.274  27.832  34.244  1.00  0.00     0.010 A 
ATOM     40  C   UNL A   1      42.828  27.773  32.543  1.00  0.00     0.010 A 
ATOM     41  C   UNL A   1      41.642  28.312  32.985  1.00  0.00    -0.014 A 
BRANCH  41  42
ATOM     42  C   UNL A   1      41.161  29.593  32.312  1.00  0.00     0.031 A 
ATOM     43  C   UNL A   1      42.636  30.435  31.967  1.00  0.00     0.074 A 
ATOM     44  C   UNL A   1      39.772  29.822  31.880  1.00  0.00     0.049 A 
ATOM     45  N   UNL A   1      42.477  32.020  31.746  1.00  0.00    -0.248 NA
ATOM     46  C   UNL A   1      44.286  29.839  30.907  1.00  0.00     0.031 C 
ATOM     47  C   UNL A   1      38.616  28.886  32.107  1.00  0.00     0.029 A 
ATOM     48  N   UNL A   1      38.991  30.804  31.125  1.00  0.00    -0.354 N 
ATOM     49  C   UNL A   1      43.608  32.675  30.450  1.00  0.00     0.074 A 
ATOM     50  C   UNL A   1      44.734  31.178  29.957  1.00  0.00     0.031 C 
ATOM     51  C   UNL A   1      37.476  29.196  31.411  1.00  0.00     0.029 A 
ATOM     52  C   UNL A   1      37.601  30.464  30.711  1.00  0.00     0.049 A 
ATOM     53  H   UNL A   1      39.380  31.678  30.893  1.00  0.00     0.167 HD
ATOM     54  C   UNL A   1      43.247  33.936  30.012  1.00  0.00     0.034 A 
ATOM     55  C   UNL A   1      36.612  31.145  29.952  1.00  0.00     0.034 A 
ATOM     56  C   UNL A   1      42.337  34.501  31.037  1.00  0.00     0.049 A 
ATOM     57  C   UNL A   1      37.002  32.553  30.058  1.00  0.00     0.074 A 
ATOM     58  C   UNL A   1      42.490  34.744  32.396  1.00  0.00     0.029 A 
ATOM     59  N   UNL A   1      40.970  34.456  30.809  1.00  0.00    -0.354 N 
ATOM     60  N   UNL A   1      36.929  33.240  31.153  1.00  0.00    -0.248 NA
ATOM     61  C   UNL A   1      37.634  33.206  28.929  1.00  0.00     0.031 C 
ATOM     62  C   UNL A   1      41.209  34.626  32.998  1.00  0.00     0.029 A 
ATOM     63  C   UNL A   1      40.255  34.488  32.002  1.00  0.00     0.049 A 
ATOM     64  H   UNL A   1      40.557  34.409  29.917  1.00  0.00     0.167 HD
ATOM     65  C   UNL A   1      38.036  34.039  31.034  1.00  0.00     0.074 A 
ATOM     66  C   UNL A   1      38.305  34.136  29.605  1.00  0.00     0.031 C 
ATOM     67  C   UNL A   1      38.836  34.207  32.115  1.00  0.00     0.034 A 
BRANCH  54  68
ATOM     68  C   UNL A   1      43.424  34.685  28.685  1.00  0.00     0.023 A 
ATOM     69  C   UNL A   1      42.314  35.436  28.250  1.00  0.00     0.012 A 
ATOM     70  C   UNL A   1      44.403  34.432  27.689  1.00  0.00     0.148 A 
ATOM     71  C   UNL A   1      42.154  35.834  26.913  1.00  0.00     0.002 A 
ATOM     72  C   UNL A   1      44.154  34.663  26.332  1.00  0.00     0.091 A 
ATOM     73  F   UNL A   1      45.650  34.110  28.042  1.00  0.00    -0.205 F 
ATOM     74  C   UNL A   1      43.039  35.391  25.940  1.00  0.00     0.022 A 
BRANCH  72  75
ATOM     75  S   UNL A   1      45.136  33.868  25.033  1.00  0.00     0.127 S 
ATOM     76  O   UNL A   1      46.444  34.504  25.200  1.00  0.00    -0.237 OA
ATOM     77  O   UNL A   1      45.081  32.464  25.428  1.00  0.00    -0.237 OA
ATOM     78  O   UNL A   1      44.455  34.211  23.791  1.00  0.00    -0.744 OA
ENDBRANCH  72  75
ENDBRANCH  54  68
BRANCH  55  79
ATOM     79  C   UNL A   1      35.235  31.073  29.127  1.00  0.00     0.023 A 
ATOM     80  C   UNL A   1      34.446  32.274  28.910  1.00  0.00     0.012 A 
ATOM     81  C   UNL A   1      34.913  30.023  28.240  1.00  0.00     0.148 A 
ATOM     82  C   UNL A   1      33.527  32.451  27.839  1.00  0.00     0.002 A 
ATOM     83  C   UNL A   1      33.983  30.204  27.169  1.00  0.00     0.091 A 
ATOM     84  F   UNL A   1      35.561  28.863  28.391  1.00  0.00    -0.205 F 
ATOM     85  C   UNL A   1      33.318  31.420  26.947  1.00  0.00     0.022 A 
BRANCH  83  86
ATOM     86  S   UNL A   1      33.622  28.918  25.945  1.00  0.00     0.127 S 
ATOM     87  O   UNL A   1      34.948  28.606  25.405  1.00  0.00    -0.237 OA
ATOM     88  O   UNL A   1      33.046  27.859  26.770  1.00  0.00    -0.237 OA
ATOM     89  O   UNL A   1      32.722  29.548  24.989  1.00  0.00    -0.744 OA
ENDBRANCH  83  86
ENDBRANCH  55  79
BRANCH  67  90
ATOM     90  C   UNL A   1      38.207  33.947  33.489  1.00  0.00     0.023 A 
ATOM     91  C   UNL A   1      37.133  34.691  34.036  1.00  0.00     0.012 A 
ATOM     92  C   UNL A   1      38.698  32.868  34.243  1.00  0.00     0.148 A 
ATOM     93  C   UNL A   1      36.548  34.348  35.266  1.00  0.00     0.002 A 
ATOM     94  C   UNL A   1      38.090  32.500  35.441  1.00  0.00     0.091 A 
ATOM     95  F   UNL A   1      39.757  32.201  33.762  1.00  0.00    -0.205 F 
ATOM     96  C   UNL A   1      37.011  33.235  35.958  1.00  0.00     0.022 A 
BRANCH  94  97
ATOM     97  S   UNL A   1      38.594  31.039  36.352  1.00  0.00     0.127 S 
ATOM     98  O   UNL A   1      37.596  30.976  37.418  1.00  0.00    -0.237 OA
ATOM     99  O   UNL A   1      38.473  29.991  35.338  1.00  0.00    -0.237 OA
ATOM    100  O   UNL A   1      39.959  31.290  36.799  1.00  0.00    -0.744 OA
ENDBRANCH  94  97
ENDBRANCH  67  90
ENDBRANCH  41  42
ENDBRANCH  34  36
ENDBRANCH  33  34
ENDBRANCH  32  33
ENDBRANCH   1  32
TORSDOF 21
ENDMDL
MODEL 2
REMARK VINA RESULT:     -10.6      6.694     14.316
REMARK SMILES CC(C)(O)C#Cc1ccc(C(=O)N[C@@H](CC2=c3ccccc3=NC2)C(=O)OCCOC(=O)c2ccc(-c3c4nc(c(-c5cccc(S(=O)(=O)[O-])c5F)c5ccc([nH]5)c(-c5cccc(S(=O)(=O)[O-])c5F)c5nc(c(-c6cccc(S(=O)(=O)[O-])c6F)c6ccc3[nH]6)C=C5)C=C4)cc2)s1
REMARK SMILES IDX 28 1 27 2 25 3 26 4 14 5 13 6 11 7 12 8 10 10 7 11 8 12
REMARK SMILES IDX 96 13 9 14 6 15 5 16 2 17 1 18 3 19 4 20 15 22 16 23 17 24
REMARK SMILES IDX 24 25 18 26 22 27 23 28 19 29 21 30 20 31 29 32 30 33 31 34
REMARK SMILES IDX 32 35 33 36 34 37 95 38 35 39 94 40 36 41 37 42 38 43 88 44
REMARK SMILES IDX 39 45 93 46 87 47 89 48 40 49 92 50 86 51 85 52 41 54 73 55
REMARK SMILES IDX 53 56 72 57 54 58 57 59 71 60 90 61 55 62 56 63 70 65 91 66
REMARK SMILES IDX 58 67 42 68 43 69 51 70 44 71 46 72 52 73 45 74 47 75 48 76
REMARK SMILES IDX 49 77 50 78 74 79 75 80 83 81 76 82 78 83 84 84 77 85 79 86
REMARK SMILES IDX 80 87 81 88 82 89 59 90 60 91 68 92 61 93 63 94 69 95 62 96
REMARK SMILES IDX 64 97 65 98 66 99 67 100
REMARK H PARENT 13 9 4 21 89 53 57 64
REMARK Flexibility Score: inf
ROOT
ATOM      1  C   UNL A   1      45.473  39.907  26.187  1.00  0.00     0.274 C 
ENDROOT
BRANCH   1   2
ATOM      2  O   UNL A   1      45.367  40.808  25.054  1.00  0.00    -0.461 OA
BRANCH   2   3
ATOM      3  C   UNL A   1      44.640  41.950  25.257  1.00  0.00     0.329 C 
ATOM      4  O   UNL A   1      44.332  42.377  26.365  1.00  0.00    -0.250 OA
BRANCH   3   5
ATOM      5  C   UNL A   1      44.223  42.658  23.937  1.00  0.00     0.196 C 
BRANCH   5   6
ATOM      6  N   UNL A   1      42.792  42.530  23.590  1.00  0.00    -0.338 N 
ATOM      7  C   UNL A   1      42.038  42.754  22.454  1.00  0.00     0.262 C 
ATOM      8  O   UNL A   1      40.825  42.561  22.596  1.00  0.00    -0.268 OA
ATOM      9  H   UNL A   1      42.248  42.210  24.346  1.00  0.00     0.164 HD
BRANCH   7  10
ATOM     10  C   UNL A   1      42.607  43.025  21.143  1.00  0.00     0.093 A 
ATOM     11  C   UNL A   1      43.280  44.397  19.266  1.00  0.00     0.078 A 
ATOM     12  C   UNL A   1      44.297  43.533  19.603  1.00  0.00     0.030 A 
ATOM     13  S   UNL A   1      41.784  43.696  19.799  1.00  0.00    -0.121 S 
ATOM     14  C   UNL A   1      43.892  42.708  20.707  1.00  0.00     0.027 A 
BRANCH  11  15
ATOM     15  C   UNL A   1      43.384  45.678  18.616  1.00  0.00    -0.053 C 
ATOM     16  C   UNL A   1      43.739  46.862  18.202  1.00  0.00    -0.063 C 
BRANCH  16  17
ATOM     17  C   UNL A   1      44.153  48.244  17.721  1.00  0.00     0.120 C 
ATOM     18  C   UNL A   1      45.498  47.546  16.982  1.00  0.00     0.056 C 
ATOM     19  C   UNL A   1      43.743  50.123  18.898  1.00  0.00     0.056 C 
BRANCH  17  20
ATOM     20  O   UNL A   1      43.516  48.085  16.233  1.00  0.00    -0.378 OA
ATOM     21  H   UNL A   1      42.681  47.596  16.289  1.00  0.00     0.212 HD
ENDBRANCH  17  20
ENDBRANCH  16  17
ENDBRANCH  11  15
ENDBRANCH   7  10
ENDBRANCH   5   6
BRANCH   5  22
ATOM     22  C   UNL A   1      44.698  44.128  23.964  1.00  0.00     0.070 C 
BRANCH  22  23
ATOM     23  C   UNL A   1      45.932  44.332  23.153  1.00  0.00    -0.037 C 
ATOM     24  C   UNL A   1      46.126  45.293  22.261  1.00  0.00     0.001 A 
ATOM     25  C   UNL A   1      47.195  43.564  23.405  1.00  0.00     0.174 C 
ATOM     26  C   UNL A   1      45.308  46.328  21.725  1.00  0.00     0.010 A 
ATOM     27  C   UNL A   1      47.578  45.245  22.063  1.00  0.00     0.065 A 
ATOM     28  N   UNL A   1      48.246  44.300  22.652  1.00  0.00    -0.280 NA
ATOM     29  C   UNL A   1      45.902  47.332  21.066  1.00  0.00     0.001 A 
ATOM     30  C   UNL A   1      48.150  46.349  21.266  1.00  0.00     0.028 A 
ATOM     31  C   UNL A   1      47.337  47.331  20.834  1.00  0.00     0.002 A 
ENDBRANCH  22  23
ENDBRANCH   5  22
ENDBRANCH   3   5
ENDBRANCH   2   3
ENDBRANCH   1   2
BRANCH   1  32
ATOM     32  C   UNL A   1      46.429  38.743  25.885  1.00  0.00     0.275 C 
BRANCH  32  33
ATOM     33  O   UNL A   1      45.867  37.517  26.385  1.00  0.00    -0.458 OA
BRANCH  33  34
ATOM     34  C   UNL A   1      46.575  36.405  26.081  1.00  0.00     0.338 C 
ATOM     35  O   UNL A   1      47.683  36.348  25.575  1.00  0.00    -0.246 OA
BRANCH  34  36
ATOM     36  C   UNL A   1      45.996  35.366  26.945  1.00  0.00     0.060 A 
ATOM     37  C   UNL A   1      46.650  34.479  27.803  1.00  0.00     0.016 A 
ATOM     38  C   UNL A   1      44.652  35.235  26.780  1.00  0.00     0.016 A 
ATOM     39  C   UNL A   1      45.966  33.339  28.325  1.00  0.00     0.010 A 
ATOM     40  C   UNL A   1      44.033  34.158  27.377  1.00  0.00     0.010 A 
ATOM     41  C   UNL A   1      44.625  33.098  28.023  1.00  0.00    -0.014 A 
BRANCH  41  42
ATOM     42  C   UNL A   1      43.703  32.074  28.679  1.00  0.00     0.031 A 
ATOM     43  C   UNL A   1      43.851  30.692  27.644  1.00  0.00     0.074 A 
ATOM     44  C   UNL A   1      43.096  32.249  30.009  1.00  0.00     0.049 A 
ATOM     45  N   UNL A   1      42.638  29.641  27.739  1.00  0.00    -0.248 NA
ATOM     46  C   UNL A   1      45.513  29.645  27.058  1.00  0.00     0.031 C 
ATOM     47  C   UNL A   1      43.217  33.473  30.875  1.00  0.00     0.029 A 
ATOM     48  N   UNL A   1      42.312  31.484  30.980  1.00  0.00    -0.354 N 
ATOM     49  C   UNL A   1      43.194  27.893  27.575  1.00  0.00     0.074 A 
ATOM     50  C   UNL A   1      45.080  28.001  27.148  1.00  0.00     0.031 C 
ATOM     51  C   UNL A   1      42.771  33.316  32.163  1.00  0.00     0.029 A 
ATOM     52  C   UNL A   1      42.141  32.021  32.360  1.00  0.00     0.049 A 
ATOM     53  H   UNL A   1      41.902  30.626  30.726  1.00  0.00     0.167 HD
ATOM     54  C   UNL A   1      42.239  26.986  27.994  1.00  0.00     0.034 A 
ATOM     55  C   UNL A   1      41.501  31.529  33.529  1.00  0.00     0.034 A 
ATOM     56  C   UNL A   1      40.945  27.709  28.023  1.00  0.00     0.049 A 
ATOM     57  C   UNL A   1      40.527  30.565  33.011  1.00  0.00     0.074 A 
ATOM     58  C   UNL A   1      40.228  28.390  27.048  1.00  0.00     0.029 A 
ATOM     59  N   UNL A   1      40.472  28.177  29.240  1.00  0.00    -0.354 N 
ATOM     60  N   UNL A   1      39.479  30.897  32.328  1.00  0.00    -0.248 NA
ATOM     61  C   UNL A   1      40.790  29.146  33.137  1.00  0.00     0.031 C 
ATOM     62  C   UNL A   1      39.489  29.414  27.697  1.00  0.00     0.029 A 
ATOM     63  C   UNL A   1      39.608  29.253  29.069  1.00  0.00     0.049 A 
ATOM     64  H   UNL A   1      40.716  27.795  30.114  1.00  0.00     0.167 HD
ATOM     65  C   UNL A   1      39.398  29.849  31.449  1.00  0.00     0.074 A 
ATOM     66  C   UNL A   1      40.066  28.731  32.100  1.00  0.00     0.031 C 
ATOM     67  C   UNL A   1      39.148  30.114  30.143  1.00  0.00     0.034 A 
BRANCH  54  68
ATOM     68  C   UNL A   1      42.312  25.574  28.587  1.00  0.00     0.023 A 
ATOM     69  C   UNL A   1      43.440  25.300  29.387  1.00  0.00     0.012 A 
ATOM     70  C   UNL A   1      41.597  24.428  28.151  1.00  0.00     0.148 A 
ATOM     71  C   UNL A   1      43.867  23.990  29.661  1.00  0.00     0.002 A 
ATOM     72  C   UNL A   1      42.124  23.137  28.265  1.00  0.00     0.091 A 
ATOM     73  F   UNL A   1      40.326  24.542  27.756  1.00  0.00    -0.205 F 
ATOM     74  C   UNL A   1      43.250  22.910  29.045  1.00  0.00     0.022 A 
BRANCH  72  75
ATOM     75  S   UNL A   1      41.509  21.762  27.260  1.00  0.00     0.127 S 
ATOM     76  O   UNL A   1      42.228  20.619  27.825  1.00  0.00    -0.237 OA
ATOM     77  O   UNL A   1      40.078  21.791  27.549  1.00  0.00    -0.237 OA
ATOM     78  O   UNL A   1      41.892  22.098  25.895  1.00  0.00    -0.744 OA
ENDBRANCH  72  75
ENDBRANCH  54  68
BRANCH  55  79
ATOM     79  C   UNL A   1      41.307  31.624  35.121  1.00  0.00     0.023 A 
ATOM     80  C   UNL A   1      42.338  31.129  36.017  1.00  0.00     0.012 A 
ATOM     81  C   UNL A   1      40.403  32.512  35.743  1.00  0.00     0.148 A 
ATOM     82  C   UNL A   1      42.525  31.576  37.354  1.00  0.00     0.002 A 
ATOM     83  C   UNL A   1      40.590  32.952  37.091  1.00  0.00     0.091 A 
ATOM     84  F   UNL A   1      39.394  32.988  35.006  1.00  0.00    -0.205 F 
ATOM     85  C   UNL A   1      41.663  32.514  37.883  1.00  0.00     0.022 A 
BRANCH  83  86
ATOM     86  S   UNL A   1      39.517  34.172  37.891  1.00  0.00     0.127 S 
ATOM     87  O   UNL A   1      40.333  34.629  39.019  1.00  0.00    -0.237 OA
ATOM     88  O   UNL A   1      39.343  35.168  36.836  1.00  0.00    -0.237 OA
ATOM     89  O   UNL A   1      38.325  33.433  38.277  1.00  0.00    -0.744 OA
ENDBRANCH  83  86
ENDBRANCH  55  79
BRANCH  67  90
ATOM     90  C   UNL A   1      38.472  31.452  29.824  1.00  0.00     0.023 A 
ATOM     91  C   UNL A   1      39.127  32.709  29.842  1.00  0.00     0.012 A 
ATOM     92  C   UNL A   1      37.120  31.432  29.445  1.00  0.00     0.148 A 
ATOM     93  C   UNL A   1      38.469  33.890  29.460  1.00  0.00     0.002 A 
ATOM     94  C   UNL A   1      36.480  32.596  29.023  1.00  0.00     0.091 A 
ATOM     95  F   UNL A   1      36.477  30.257  29.490  1.00  0.00    -0.205 F 
ATOM     96  C   UNL A   1      37.151  33.829  29.026  1.00  0.00     0.022 A 
BRANCH  94  97
ATOM     97  S   UNL A   1      34.801  32.579  28.390  1.00  0.00     0.127 S 
ATOM     98  O   UNL A   1      34.006  32.673  29.613  1.00  0.00    -0.237 OA
ATOM     99  O   UNL A   1      34.779  33.779  27.553  1.00  0.00    -0.237 OA
ATOM    100  O   UNL A   1      34.656  31.329  27.655  1.00  0.00    -0.744 OA
ENDBRANCH  94  97
ENDBRANCH  67  90
ENDBRANCH  41  42
ENDBRANCH  34  36
ENDBRANCH  33  34
ENDBRANCH  32  33
ENDBRANCH   1  32
TORSDOF 21
ENDMDL
MODEL 3
REMARK VINA RESULT:     -10.0      4.482      9.345
REMARK SMILES CC(C)(O)C#Cc1ccc(C(=O)N[C@@H](CC2=c3ccccc3=NC2)C(=O)OCCOC(=O)c2ccc(-c3c4nc(c(-c5cccc(S(=O)(=O)[O-])c5F)c5ccc([nH]5)c(-c5cccc(S(=O)(=O)[O-])c5F)c5nc(c(-c6cccc(S(=O)(=O)[O-])c6F)c6ccc3[nH]6)C=C5)C=C4)cc2)s1
REMARK SMILES IDX 28 1 27 2 25 3 26 4 14 5 13 6 11 7 12 8 10 10 7 11 8 12
REMARK SMILES IDX 96 13 9 14 6 15 5 16 2 17 1 18 3 19 4 20 15 22 16 23 17 24
REMARK SMILES IDX 24 25 18 26 22 27 23 28 19 29 21 30 20 31 29 32 30 33 31 34
REMARK SMILES IDX 32 35 33 36 34 37 95 38 35 39 94 40 36 41 37 42 38 43 88 44
REMARK SMILES IDX 39 45 93 46 87 47 89 48 40 49 92 50 86 51 85 52 41 54 73 55
REMARK SMILES IDX 53 56 72 57 54 58 57 59 71 60 90 61 55 62 56 63 70 65 91 66
REMARK SMILES IDX 58 67 42 68 43 69 51 70 44 71 46 72 52 73 45 74 47 75 48 76
REMARK SMILES IDX 49 77 50 78 74 79 75 80 83 81 76 82 78 83 84 84 77 85 79 86
REMARK SMILES IDX 80 87 81 88 82 89 59 90 60 91 68 92 61 93 63 94 69 95 62 96
REMARK SMILES IDX 64 97 65 98 66 99 67 100
REMARK H PARENT 13 9 4 21 89 53 57 64
REMARK Flexibility Score: inf
ROOT
ATOM      1  C   UNL A   1      48.306  26.590  38.327  1.00  0.00     0.274 C 
ENDROOT
BRANCH   1   2
ATOM      2  O   UNL A   1      47.536  25.463  37.834  1.00  0.00    -0.461 OA
BRANCH   2   3
ATOM      3  C   UNL A   1      48.148  24.678  36.895  1.00  0.00     0.329 C 
ATOM      4  O   UNL A   1      49.239  24.142  37.058  1.00  0.00    -0.250 OA
BRANCH   3   5
ATOM      5  C   UNL A   1      47.331  24.538  35.580  1.00  0.00     0.196 C 
BRANCH   5   6
ATOM      6  N   UNL A   1      45.890  24.271  35.770  1.00  0.00    -0.338 N 
ATOM      7  C   UNL A   1      45.103  23.136  35.808  1.00  0.00     0.262 C 
ATOM      8  O   UNL A   1      43.895  23.353  35.950  1.00  0.00    -0.268 OA
ATOM      9  H   UNL A   1      45.368  25.095  35.900  1.00  0.00     0.164 HD
BRANCH   7  10
ATOM     10  C   UNL A   1      45.634  21.782  35.855  1.00  0.00     0.093 A 
ATOM     11  C   UNL A   1      45.957  19.564  36.768  1.00  0.00     0.078 A 
ATOM     12  C   UNL A   1      45.676  19.481  35.423  1.00  0.00     0.030 A 
ATOM     13  S   UNL A   1      46.644  21.129  37.075  1.00  0.00    -0.121 S 
ATOM     14  C   UNL A   1      45.500  20.798  34.877  1.00  0.00     0.027 A 
BRANCH  11  15
ATOM     15  C   UNL A   1      45.718  18.575  37.787  1.00  0.00    -0.053 C 
ATOM     16  C   UNL A   1      45.696  17.862  38.878  1.00  0.00    -0.063 C 
BRANCH  16  17
ATOM     17  C   UNL A   1      45.672  17.031  40.151  1.00  0.00     0.120 C 
ATOM     18  C   UNL A   1      44.124  17.621  40.466  1.00  0.00     0.056 C 
ATOM     19  C   UNL A   1      47.521  16.600  41.367  1.00  0.00     0.056 C 
BRANCH  17  20
ATOM     20  O   UNL A   1      44.838  15.790  39.507  1.00  0.00    -0.378 OA
ATOM     21  H   UNL A   1      45.018  14.983  40.013  1.00  0.00     0.212 HD
ENDBRANCH  17  20
ENDBRANCH  16  17
ENDBRANCH  11  15
ENDBRANCH   7  10
ENDBRANCH   5   6
BRANCH   5  22
ATOM     22  C   UNL A   1      47.595  25.761  34.673  1.00  0.00     0.070 C 
BRANCH  22  23
ATOM     23  C   UNL A   1      48.319  25.387  33.425  1.00  0.00    -0.037 C 
ATOM     24  C   UNL A   1      48.225  26.005  32.256  1.00  0.00     0.001 A 
ATOM     25  C   UNL A   1      49.409  24.357  33.407  1.00  0.00     0.174 C 
ATOM     26  C   UNL A   1      47.432  27.081  31.764  1.00  0.00     0.010 A 
ATOM     27  C   UNL A   1      49.385  25.478  31.532  1.00  0.00     0.065 A 
ATOM     28  N   UNL A   1      50.088  24.543  32.097  1.00  0.00    -0.280 NA
ATOM     29  C   UNL A   1      47.802  27.674  30.622  1.00  0.00     0.001 A 
ATOM     30  C   UNL A   1      49.688  26.138  30.246  1.00  0.00     0.028 A 
ATOM     31  C   UNL A   1      48.939  27.187  29.858  1.00  0.00     0.002 A 
ENDBRANCH  22  23
ENDBRANCH   5  22
ENDBRANCH   3   5
ENDBRANCH   2   3
ENDBRANCH   1   2
BRANCH   1  32
ATOM     32  C   UNL A   1      47.434  27.850  38.443  1.00  0.00     0.275 C 
BRANCH  32  33
ATOM     33  O   UNL A   1      46.577  27.950  37.292  1.00  0.00    -0.458 OA
BRANCH  33  34
ATOM     34  C   UNL A   1      45.263  28.090  37.577  1.00  0.00     0.338 C 
ATOM     35  O   UNL A   1      44.767  28.688  38.517  1.00  0.00    -0.246 OA
BRANCH  34  36
ATOM     36  C   UNL A   1      44.592  27.854  36.290  1.00  0.00     0.060 A 
ATOM     37  C   UNL A   1      43.499  27.030  36.012  1.00  0.00     0.016 A 
ATOM     38  C   UNL A   1      45.215  28.475  35.252  1.00  0.00     0.016 A 
ATOM     39  C   UNL A   1      43.178  26.681  34.665  1.00  0.00     0.010 A 
ATOM     40  C   UNL A   1      44.806  28.159  33.975  1.00  0.00     0.010 A 
ATOM     41  C   UNL A   1      43.920  27.178  33.592  1.00  0.00    -0.014 A 
BRANCH  41  42
ATOM     42  C   UNL A   1      43.567  27.093  32.110  1.00  0.00     0.031 A 
ATOM     43  C   UNL A   1      44.356  25.636  31.601  1.00  0.00     0.074 A 
ATOM     44  C   UNL A   1      42.574  27.957  31.451  1.00  0.00     0.049 A 
ATOM     45  N   UNL A   1      44.627  25.528  30.019  1.00  0.00    -0.248 NA
ATOM     46  C   UNL A   1      44.199  23.722  32.319  1.00  0.00     0.031 C 
ATOM     47  C   UNL A   1      41.829  29.091  32.101  1.00  0.00     0.029 A 
ATOM     48  N   UNL A   1      41.899  28.087  30.158  1.00  0.00    -0.354 N 
ATOM     49  C   UNL A   1      44.429  23.815  29.377  1.00  0.00     0.074 A 
ATOM     50  C   UNL A   1      44.138  22.717  30.947  1.00  0.00     0.031 C 
ATOM     51  C   UNL A   1      40.788  29.596  31.364  1.00  0.00     0.029 A 
ATOM     52  C   UNL A   1      40.729  29.003  30.039  1.00  0.00     0.049 A 
ATOM     53  H   UNL A   1      42.214  27.577  29.378  1.00  0.00     0.167 HD
ATOM     54  C   UNL A   1      44.316  23.769  28.000  1.00  0.00     0.034 A 
ATOM     55  C   UNL A   1      39.841  29.321  28.977  1.00  0.00     0.034 A 
ATOM     56  C   UNL A   1      44.826  25.062  27.485  1.00  0.00     0.049 A 
ATOM     57  C   UNL A   1      40.599  28.969  27.774  1.00  0.00     0.074 A 
ATOM     58  C   UNL A   1      46.050  25.707  27.613  1.00  0.00     0.029 A 
ATOM     59  N   UNL A   1      43.912  26.046  27.137  1.00  0.00    -0.354 N 
ATOM     60  N   UNL A   1      41.645  29.614  27.367  1.00  0.00    -0.248 NA
ATOM     61  C   UNL A   1      40.267  27.758  27.050  1.00  0.00     0.031 C 
ATOM     62  C   UNL A   1      45.806  27.104  27.551  1.00  0.00     0.029 A 
ATOM     63  C   UNL A   1      44.478  27.314  27.211  1.00  0.00     0.049 A 
ATOM     64  H   UNL A   1      42.982  25.869  26.871  1.00  0.00     0.167 HD
ATOM     65  C   UNL A   1      42.402  28.590  26.861  1.00  0.00     0.074 A 
ATOM     66  C   UNL A   1      41.459  27.539  26.500  1.00  0.00     0.031 C 
ATOM     67  C   UNL A   1      43.725  28.553  27.153  1.00  0.00     0.034 A 
BRANCH  54  68
ATOM     68  C   UNL A   1      43.623  22.807  27.028  1.00  0.00     0.023 A 
ATOM     69  C   UNL A   1      42.356  22.336  27.428  1.00  0.00     0.012 A 
ATOM     70  C   UNL A   1      44.232  22.067  25.981  1.00  0.00     0.148 A 
ATOM     71  C   UNL A   1      41.780  21.176  26.885  1.00  0.00     0.002 A 
ATOM     72  C   UNL A   1      43.749  20.818  25.578  1.00  0.00     0.091 A 
ATOM     73  F   UNL A   1      45.199  22.621  25.245  1.00  0.00    -0.205 F 
ATOM     74  C   UNL A   1      42.504  20.378  26.010  1.00  0.00     0.022 A 
BRANCH  72  75
ATOM     75  S   UNL A   1      44.782  19.644  24.664  1.00  0.00     0.127 S 
ATOM     76  O   UNL A   1      46.107  19.884  25.238  1.00  0.00    -0.237 OA
ATOM     77  O   UNL A   1      44.180  18.364  25.025  1.00  0.00    -0.237 OA
ATOM     78  O   UNL A   1      44.650  20.041  23.268  1.00  0.00    -0.744 OA
ENDBRANCH  72  75
ENDBRANCH  54  68
BRANCH  55  79
ATOM     79  C   UNL A   1      38.447  29.969  28.512  1.00  0.00     0.023 A 
ATOM     80  C   UNL A   1      37.410  29.138  27.925  1.00  0.00     0.012 A 
ATOM     81  C   UNL A   1      37.967  31.209  28.989  1.00  0.00     0.148 A 
ATOM     82  C   UNL A   1      36.023  29.453  27.932  1.00  0.00     0.002 A 
ATOM     83  C   UNL A   1      36.572  31.525  28.987  1.00  0.00     0.091 A 
ATOM     84  F   UNL A   1      38.857  32.060  29.510  1.00  0.00    -0.205 F 
ATOM     85  C   UNL A   1      35.601  30.641  28.493  1.00  0.00     0.022 A 
BRANCH  83  86
ATOM     86  S   UNL A   1      35.904  33.056  29.687  1.00  0.00     0.127 S 
ATOM     87  O   UNL A   1      34.517  33.048  29.216  1.00  0.00    -0.237 OA
ATOM     88  O   UNL A   1      36.051  32.828  31.123  1.00  0.00    -0.237 OA
ATOM     89  O   UNL A   1      36.721  34.120  29.120  1.00  0.00    -0.744 OA
ENDBRANCH  83  86
ENDBRANCH  55  79
BRANCH  67  90
ATOM     90  C   UNL A   1      44.380  29.876  27.565  1.00  0.00     0.023 A 
ATOM     91  C   UNL A   1      44.510  31.007  26.722  1.00  0.00     0.012 A 
ATOM     92  C   UNL A   1      44.847  29.995  28.885  1.00  0.00     0.148 A 
ATOM     93  C   UNL A   1      45.048  32.218  27.189  1.00  0.00     0.002 A 
ATOM     94  C   UNL A   1      45.338  31.209  29.361  1.00  0.00     0.091 A 
ATOM     95  F   UNL A   1      44.788  28.909  29.669  1.00  0.00    -0.205 F 
ATOM     96  C   UNL A   1      45.439  32.327  28.517  1.00  0.00     0.022 A 
BRANCH  94  97
ATOM     97  S   UNL A   1      45.801  31.438  31.080  1.00  0.00     0.127 S 
ATOM     98  O   UNL A   1      45.617  32.876  31.262  1.00  0.00    -0.237 OA
ATOM     99  O   UNL A   1      44.819  30.603  31.773  1.00  0.00    -0.237 OA
ATOM    100  O   UNL A   1      47.177  30.972  31.195  1.00  0.00    -0.744 OA
ENDBRANCH  94  97
ENDBRANCH  67  90
ENDBRANCH  41  42
ENDBRANCH  34  36
ENDBRANCH  33  34
ENDBRANCH  32  33
ENDBRANCH   1  32
TORSDOF 21
ENDMDL
