MODEL 1
REMARK VINA RESULT:     -12.6      0.000      0.000
REMARK SMILES [NH3+][C@H](CS[C@@H]1CC(=O)N(c2ccc3ccccc3c2)C1=O)C(=O)OCCOC(=O)c1ccc(-c2c3nc(c(-c4cccc(S(=O)(=O)[O-])c4F)c4ccc([nH]4)c(-c4cccc(S(=O)(=O)[O-])c4F)c4nc(c(-c5cccc(S(=O)(=O)[O-])c5F)c5ccc2[nH]5)C=C4)C=C3)cc1
REMARK SMILES IDX 25 1 24 2 22 3 23 4 2 5 1 6 3 10 4 11 5 12 6 13 20 14 7 15
REMARK SMILES IDX 9 16 21 17 8 18 10 19 11 20 19 21 12 22 18 23 13 24 17 25
REMARK SMILES IDX 14 26 16 27 15 28 26 29 27 30 28 31 29 32 30 33 31 34 92 35
REMARK SMILES IDX 32 36 91 37 33 38 34 39 35 40 85 41 36 42 90 43 84 44 86 45
REMARK SMILES IDX 37 46 89 47 83 48 82 49 38 51 70 52 50 53 69 54 51 55 54 56
REMARK SMILES IDX 68 57 87 58 52 59 53 60 67 62 88 63 55 64 39 65 40 66 48 67
REMARK SMILES IDX 41 68 43 69 49 70 42 71 44 72 45 73 46 74 47 75 71 76 72 77
REMARK SMILES IDX 80 78 73 79 75 80 81 81 74 82 76 83 77 84 78 85 79 86 56 87
REMARK SMILES IDX 57 88 65 89 58 90 60 91 66 92 59 93 61 94 62 95 63 96 64 97
REMARK H PARENT 1 7 1 8 1 9 86 50 54 61
REMARK Flexibility Score: inf
ROOT
ATOM      1  C   UNL A   1      36.070  20.677  25.002  1.00  0.00     0.274 C 
ENDROOT
BRANCH   1   2
ATOM      2  O   UNL A   1      35.039  19.686  24.765  1.00  0.00    -0.458 OA
BRANCH   2   3
ATOM      3  C   UNL A   1      33.742  20.021  24.949  1.00  0.00     0.365 C 
ATOM      4  O   UNL A   1      32.800  19.371  24.508  1.00  0.00    -0.245 OA
BRANCH   3   5
ATOM      5  C   UNL A   1      33.531  21.324  25.768  1.00  0.00     0.301 C 
BRANCH   5   6
ATOM      6  N   UNL A   1      33.260  21.059  27.205  1.00  0.00    -0.345 N 
ATOM      7  H   UNL A   1      32.709  20.206  27.296  1.00  0.00     0.345 HD
ATOM      8  H   UNL A   1      32.742  21.843  27.603  1.00  0.00     0.345 HD
ATOM      9  H   UNL A   1      34.143  20.948  27.703  1.00  0.00     0.345 HD
ENDBRANCH   5   6
BRANCH   5  10
ATOM     10  C   UNL A   1      32.601  22.390  25.119  1.00  0.00     0.147 C 
BRANCH  10  11
ATOM     11  S   UNL A   1      32.840  22.775  23.283  1.00  0.00    -0.141 SA
BRANCH  11  12
ATOM     12  C   UNL A   1      34.178  24.041  23.391  1.00  0.00     0.146 C 
ATOM     13  C   UNL A   1      34.596  24.546  24.768  1.00  0.00     0.125 C 
ATOM     14  C   UNL A   1      33.621  25.290  22.821  1.00  0.00     0.247 C 
ATOM     15  C   UNL A   1      33.897  25.886  24.922  1.00  0.00     0.235 C 
ATOM     16  N   UNL A   1      33.148  26.092  23.809  1.00  0.00    -0.250 N 
ATOM     17  O   UNL A   1      33.688  25.533  21.638  1.00  0.00    -0.273 OA
ATOM     18  O   UNL A   1      34.067  26.636  25.872  1.00  0.00    -0.274 OA
BRANCH  16  19
ATOM     19  C   UNL A   1      32.265  27.146  23.523  1.00  0.00     0.052 A 
ATOM     20  C   UNL A   1      32.666  28.344  22.943  1.00  0.00     0.027 A 
ATOM     21  C   UNL A   1      30.897  26.911  23.731  1.00  0.00     0.035 A 
ATOM     22  C   UNL A   1      31.693  29.261  22.511  1.00  0.00     0.011 A 
ATOM     23  C   UNL A   1      29.914  27.822  23.324  1.00  0.00    -0.016 A 
ATOM     24  C   UNL A   1      30.314  29.010  22.682  1.00  0.00    -0.018 A 
ATOM     25  C   UNL A   1      28.548  27.543  23.501  1.00  0.00     0.009 A 
ATOM     26  C   UNL A   1      29.316  29.887  22.213  1.00  0.00     0.009 A 
ATOM     27  C   UNL A   1      27.575  28.426  23.038  1.00  0.00     0.001 A 
ATOM     28  C   UNL A   1      27.959  29.595  22.388  1.00  0.00     0.001 A 
ENDBRANCH  16  19
ENDBRANCH  11  12
ENDBRANCH  10  11
ENDBRANCH   5  10
ENDBRANCH   3   5
ENDBRANCH   2   3
ENDBRANCH   1   2
BRANCH   1  29
ATOM     29  C   UNL A   1      37.506  20.118  25.021  1.00  0.00     0.275 C 
BRANCH  29  30
ATOM     30  O   UNL A   1      38.429  21.152  25.377  1.00  0.00    -0.458 OA
BRANCH  30  31
ATOM     31  C   UNL A   1      39.461  20.906  26.214  1.00  0.00     0.338 C 
ATOM     32  O   UNL A   1      40.124  19.905  26.386  1.00  0.00    -0.246 OA
BRANCH  31  33
ATOM     33  C   UNL A   1      39.774  22.233  26.757  1.00  0.00     0.060 A 
ATOM     34  C   UNL A   1      40.837  22.350  27.657  1.00  0.00     0.016 A 
ATOM     35  C   UNL A   1      39.174  23.353  26.179  1.00  0.00     0.016 A 
ATOM     36  C   UNL A   1      41.388  23.601  27.891  1.00  0.00     0.010 A 
ATOM     37  C   UNL A   1      39.715  24.602  26.423  1.00  0.00     0.010 A 
ATOM     38  C   UNL A   1      40.838  24.722  27.257  1.00  0.00    -0.014 A 
BRANCH  38  39
ATOM     39  C   UNL A   1      41.362  26.065  27.532  1.00  0.00     0.031 A 
ATOM     40  C   UNL A   1      42.761  26.360  27.098  1.00  0.00     0.074 A 
ATOM     41  C   UNL A   1      40.621  26.949  28.222  1.00  0.00     0.049 A 
ATOM     42  N   UNL A   1      43.476  27.431  27.292  1.00  0.00    -0.248 NA
ATOM     43  C   UNL A   1      43.456  25.290  26.356  1.00  0.00     0.031 C 
ATOM     44  C   UNL A   1      39.262  26.715  28.715  1.00  0.00     0.029 A 
ATOM     45  N   UNL A   1      40.927  28.209  28.662  1.00  0.00    -0.354 N 
ATOM     46  C   UNL A   1      44.706  27.164  26.711  1.00  0.00     0.074 A 
ATOM     47  C   UNL A   1      44.654  25.821  26.180  1.00  0.00     0.031 C 
ATOM     48  C   UNL A   1      38.865  27.787  29.425  1.00  0.00     0.029 A 
ATOM     49  C   UNL A   1      39.944  28.772  29.442  1.00  0.00     0.049 A 
ATOM     50  H   UNL A   1      41.770  28.667  28.443  1.00  0.00     0.167 HD
ATOM     51  C   UNL A   1      45.777  27.982  26.612  1.00  0.00     0.034 A 
ATOM     52  C   UNL A   1      39.937  29.947  30.099  1.00  0.00     0.034 A 
ATOM     53  C   UNL A   1      45.805  29.310  27.154  1.00  0.00     0.049 A 
ATOM     54  C   UNL A   1      41.141  30.845  29.957  1.00  0.00     0.074 A 
ATOM     55  C   UNL A   1      46.824  30.242  27.103  1.00  0.00     0.029 A 
ATOM     56  N   UNL A   1      44.758  29.892  27.855  1.00  0.00    -0.354 N 
ATOM     57  N   UNL A   1      42.254  30.636  29.296  1.00  0.00    -0.248 NA
ATOM     58  C   UNL A   1      41.072  32.157  30.616  1.00  0.00     0.031 C 
ATOM     59  C   UNL A   1      46.395  31.387  27.784  1.00  0.00     0.029 A 
ATOM     60  C   UNL A   1      45.103  31.174  28.241  1.00  0.00     0.049 A 
ATOM     61  H   UNL A   1      43.897  29.456  28.050  1.00  0.00     0.167 HD
ATOM     62  C   UNL A   1      43.007  31.795  29.435  1.00  0.00     0.074 A 
ATOM     63  C   UNL A   1      42.205  32.717  30.217  1.00  0.00     0.031 C 
ATOM     64  C   UNL A   1      44.255  32.075  28.981  1.00  0.00     0.034 A 
BRANCH  51  65
ATOM     65  C   UNL A   1      46.968  27.465  25.857  1.00  0.00     0.023 A 
ATOM     66  C   UNL A   1      47.901  26.643  26.522  1.00  0.00     0.012 A 
ATOM     67  C   UNL A   1      47.159  27.773  24.497  1.00  0.00     0.148 A 
ATOM     68  C   UNL A   1      49.023  26.157  25.855  1.00  0.00     0.002 A 
ATOM     69  C   UNL A   1      48.260  27.251  23.827  1.00  0.00     0.091 A 
ATOM     70  F   UNL A   1      46.277  28.580  23.893  1.00  0.00    -0.205 F 
ATOM     71  C   UNL A   1      49.197  26.453  24.506  1.00  0.00     0.022 A 
BRANCH  69  72
ATOM     72  S   UNL A   1      48.548  27.519  22.075  1.00  0.00     0.127 S 
ATOM     73  O   UNL A   1      49.701  28.420  22.100  1.00  0.00    -0.237 OA
ATOM     74  O   UNL A   1      48.842  26.166  21.604  1.00  0.00    -0.237 OA
ATOM     75  O   UNL A   1      47.321  28.099  21.547  1.00  0.00    -0.744 OA
ENDBRANCH  69  72
ENDBRANCH  51  65
BRANCH  52  76
ATOM     76  C   UNL A   1      38.746  30.364  30.894  1.00  0.00     0.023 A 
ATOM     77  C   UNL A   1      38.672  30.028  32.260  1.00  0.00     0.012 A 
ATOM     78  C   UNL A   1      37.694  31.100  30.314  1.00  0.00     0.148 A 
ATOM     79  C   UNL A   1      37.558  30.382  33.024  1.00  0.00     0.002 A 
ATOM     80  C   UNL A   1      36.610  31.495  31.093  1.00  0.00     0.091 A 
ATOM     81  F   UNL A   1      37.767  31.394  29.008  1.00  0.00    -0.205 F 
ATOM     82  C   UNL A   1      36.533  31.124  32.443  1.00  0.00     0.022 A 
BRANCH  80  83
ATOM     83  S   UNL A   1      35.309  32.556  30.452  1.00  0.00     0.127 S 
ATOM     84  O   UNL A   1      36.046  33.776  30.135  1.00  0.00    -0.237 OA
ATOM     85  O   UNL A   1      34.840  31.802  29.289  1.00  0.00    -0.237 OA
ATOM     86  O   UNL A   1      34.332  32.660  31.528  1.00  0.00    -0.744 OA
ENDBRANCH  80  83
ENDBRANCH  52  76
BRANCH  64  87
ATOM     87  C   UNL A   1      44.816  33.432  29.307  1.00  0.00     0.023 A 
ATOM     88  C   UNL A   1      45.594  33.601  30.469  1.00  0.00     0.012 A 
ATOM     89  C   UNL A   1      44.625  34.519  28.434  1.00  0.00     0.148 A 
ATOM     90  C   UNL A   1      46.144  34.844  30.776  1.00  0.00     0.002 A 
ATOM     91  C   UNL A   1      45.216  35.743  28.722  1.00  0.00     0.091 A 
ATOM     92  F   UNL A   1      43.864  34.343  27.343  1.00  0.00    -0.205 F 
ATOM     93  C   UNL A   1      45.965  35.911  29.898  1.00  0.00     0.022 A 
BRANCH  91  94
ATOM     94  S   UNL A   1      45.115  37.136  27.593  1.00  0.00     0.127 S 
ATOM     95  O   UNL A   1      45.436  38.257  28.475  1.00  0.00    -0.237 OA
ATOM     96  O   UNL A   1      46.151  36.819  26.608  1.00  0.00    -0.237 OA
ATOM     97  O   UNL A   1      43.759  37.117  27.063  1.00  0.00    -0.744 OA
ENDBRANCH  91  94
ENDBRANCH  64  87
ENDBRANCH  38  39
ENDBRANCH  31  33
ENDBRANCH  30  31
ENDBRANCH  29  30
ENDBRANCH   1  29
TORSDOF 19
ENDMDL
MODEL 2
REMARK VINA RESULT:     -12.5      0.687      7.504
REMARK SMILES [NH3+][C@H](CS[C@@H]1CC(=O)N(c2ccc3ccccc3c2)C1=O)C(=O)OCCOC(=O)c1ccc(-c2c3nc(c(-c4cccc(S(=O)(=O)[O-])c4F)c4ccc([nH]4)c(-c4cccc(S(=O)(=O)[O-])c4F)c4nc(c(-c5cccc(S(=O)(=O)[O-])c5F)c5ccc2[nH]5)C=C4)C=C3)cc1
REMARK SMILES IDX 25 1 24 2 22 3 23 4 2 5 1 6 3 10 4 11 5 12 6 13 20 14 7 15
REMARK SMILES IDX 9 16 21 17 8 18 10 19 11 20 19 21 12 22 18 23 13 24 17 25
REMARK SMILES IDX 14 26 16 27 15 28 26 29 27 30 28 31 29 32 30 33 31 34 92 35
REMARK SMILES IDX 32 36 91 37 33 38 34 39 35 40 85 41 36 42 90 43 84 44 86 45
REMARK SMILES IDX 37 46 89 47 83 48 82 49 38 51 70 52 50 53 69 54 51 55 54 56
REMARK SMILES IDX 68 57 87 58 52 59 53 60 67 62 88 63 55 64 39 65 40 66 48 67
REMARK SMILES IDX 41 68 43 69 49 70 42 71 44 72 45 73 46 74 47 75 71 76 72 77
REMARK SMILES IDX 80 78 73 79 75 80 81 81 74 82 76 83 77 84 78 85 79 86 56 87
REMARK SMILES IDX 57 88 65 89 58 90 60 91 66 92 59 93 61 94 62 95 63 96 64 97
REMARK H PARENT 1 7 1 8 1 9 86 50 54 61
REMARK Flexibility Score: inf
ROOT
ATOM      1  C   UNL A   1      35.491  20.961  24.966  1.00  0.00     0.274 C 
ENDROOT
BRANCH   1   2
ATOM      2  O   UNL A   1      34.478  19.937  25.126  1.00  0.00    -0.458 OA
BRANCH   2   3
ATOM      3  C   UNL A   1      33.176  20.295  25.188  1.00  0.00     0.365 C 
ATOM      4  O   UNL A   1      32.247  19.534  24.943  1.00  0.00    -0.245 OA
BRANCH   3   5
ATOM      5  C   UNL A   1      32.942  21.778  25.589  1.00  0.00     0.301 C 
BRANCH   5   6
ATOM      6  N   UNL A   1      32.477  21.925  26.992  1.00  0.00    -0.345 N 
ATOM      7  H   UNL A   1      32.499  21.016  27.454  1.00  0.00     0.345 HD
ATOM      8  H   UNL A   1      31.523  22.286  26.998  1.00  0.00     0.345 HD
ATOM      9  H   UNL A   1      33.089  22.573  27.488  1.00  0.00     0.345 HD
ENDBRANCH   5   6
BRANCH   5  10
ATOM     10  C   UNL A   1      32.168  22.645  24.554  1.00  0.00     0.147 C 
BRANCH  10  11
ATOM     11  S   UNL A   1      32.840  22.733  22.789  1.00  0.00    -0.141 SA
BRANCH  11  12
ATOM     12  C   UNL A   1      33.671  24.381  22.843  1.00  0.00     0.146 C 
ATOM     13  C   UNL A   1      34.003  24.987  24.202  1.00  0.00     0.125 C 
ATOM     14  C   UNL A   1      32.677  25.367  22.360  1.00  0.00     0.247 C 
ATOM     15  C   UNL A   1      32.904  26.005  24.455  1.00  0.00     0.235 C 
ATOM     16  N   UNL A   1      32.041  25.951  23.409  1.00  0.00    -0.250 N 
ATOM     17  O   UNL A   1      32.558  25.628  21.185  1.00  0.00    -0.273 OA
ATOM     18  O   UNL A   1      32.885  26.760  25.416  1.00  0.00    -0.274 OA
BRANCH  16  19
ATOM     19  C   UNL A   1      30.831  26.641  23.227  1.00  0.00     0.052 A 
ATOM     20  C   UNL A   1      29.620  26.213  23.758  1.00  0.00     0.027 A 
ATOM     21  C   UNL A   1      30.892  27.883  22.577  1.00  0.00     0.035 A 
ATOM     22  C   UNL A   1      28.502  27.062  23.698  1.00  0.00     0.011 A 
ATOM     23  C   UNL A   1      29.784  28.735  22.492  1.00  0.00    -0.016 A 
ATOM     24  C   UNL A   1      28.570  28.330  23.080  1.00  0.00    -0.018 A 
ATOM     25  C   UNL A   1      29.882  29.995  21.876  1.00  0.00     0.009 A 
ATOM     26  C   UNL A   1      27.481  29.223  23.051  1.00  0.00     0.009 A 
ATOM     27  C   UNL A   1      28.791  30.861  21.849  1.00  0.00     0.001 A 
ATOM     28  C   UNL A   1      27.593  30.477  22.443  1.00  0.00     0.001 A 
ENDBRANCH  16  19
ENDBRANCH  11  12
ENDBRANCH  10  11
ENDBRANCH   5  10
ENDBRANCH   3   5
ENDBRANCH   2   3
ENDBRANCH   1   2
BRANCH   1  29
ATOM     29  C   UNL A   1      36.940  20.436  24.961  1.00  0.00     0.275 C 
BRANCH  29  30
ATOM     30  O   UNL A   1      37.806  21.381  25.598  1.00  0.00    -0.458 OA
BRANCH  30  31
ATOM     31  C   UNL A   1      39.024  21.014  26.053  1.00  0.00     0.338 C 
ATOM     32  O   UNL A   1      39.665  20.000  25.880  1.00  0.00    -0.246 OA
BRANCH  31  33
ATOM     33  C   UNL A   1      39.537  22.244  26.667  1.00  0.00     0.060 A 
ATOM     34  C   UNL A   1      40.640  22.154  27.518  1.00  0.00     0.016 A 
ATOM     35  C   UNL A   1      39.073  23.474  26.193  1.00  0.00     0.016 A 
ATOM     36  C   UNL A   1      41.367  23.301  27.807  1.00  0.00     0.010 A 
ATOM     37  C   UNL A   1      39.789  24.618  26.491  1.00  0.00     0.010 A 
ATOM     38  C   UNL A   1      40.950  24.527  27.275  1.00  0.00    -0.014 A 
BRANCH  38  39
ATOM     39  C   UNL A   1      41.663  25.765  27.612  1.00  0.00     0.031 A 
ATOM     40  C   UNL A   1      40.907  26.814  28.360  1.00  0.00     0.074 A 
ATOM     41  C   UNL A   1      42.923  25.955  27.180  1.00  0.00     0.049 A 
ATOM     42  N   UNL A   1      41.282  28.013  28.704  1.00  0.00    -0.248 NA
ATOM     43  C   UNL A   1      39.530  26.467  28.762  1.00  0.00     0.031 C 
ATOM     44  C   UNL A   1      43.709  24.991  26.408  1.00  0.00     0.029 A 
ATOM     45  N   UNL A   1      43.744  27.043  27.298  1.00  0.00    -0.354 N 
ATOM     46  C   UNL A   1      40.188  28.570  29.349  1.00  0.00     0.074 A 
ATOM     47  C   UNL A   1      39.125  27.591  29.328  1.00  0.00     0.031 C 
ATOM     48  C   UNL A   1      44.891  25.550  26.087  1.00  0.00     0.029 A 
ATOM     49  C   UNL A   1      44.935  26.908  26.624  1.00  0.00     0.049 A 
ATOM     50  H   UNL A   1      43.505  27.846  27.814  1.00  0.00     0.167 HD
ATOM     51  C   UNL A   1      40.094  29.787  29.928  1.00  0.00     0.034 A 
ATOM     52  C   UNL A   1      45.934  27.795  26.457  1.00  0.00     0.034 A 
ATOM     53  C   UNL A   1      41.163  30.743  29.930  1.00  0.00     0.049 A 
ATOM     54  C   UNL A   1      45.805  29.140  27.128  1.00  0.00     0.074 A 
ATOM     55  C   UNL A   1      41.194  32.003  30.497  1.00  0.00     0.029 A 
ATOM     56  N   UNL A   1      42.394  30.542  29.322  1.00  0.00    -0.354 N 
ATOM     57  N   UNL A   1      44.816  29.613  27.848  1.00  0.00    -0.248 NA
ATOM     58  C   UNL A   1      46.945  30.058  27.000  1.00  0.00     0.031 C 
ATOM     59  C   UNL A   1      42.445  32.567  30.225  1.00  0.00     0.029 A 
ATOM     60  C   UNL A   1      43.198  31.652  29.504  1.00  0.00     0.049 A 
ATOM     61  H   UNL A   1      42.657  29.728  28.834  1.00  0.00     0.167 HD
ATOM     62  C   UNL A   1      45.222  30.870  28.280  1.00  0.00     0.074 A 
ATOM     63  C   UNL A   1      46.564  31.068  27.768  1.00  0.00     0.031 C 
ATOM     64  C   UNL A   1      44.547  31.790  29.015  1.00  0.00     0.034 A 
BRANCH  51  65
ATOM     65  C   UNL A   1      38.807  30.112  30.633  1.00  0.00     0.023 A 
ATOM     66  C   UNL A   1      38.594  29.620  31.937  1.00  0.00     0.012 A 
ATOM     67  C   UNL A   1      37.821  30.909  30.021  1.00  0.00     0.148 A 
ATOM     68  C   UNL A   1      37.407  29.892  32.613  1.00  0.00     0.002 A 
ATOM     69  C   UNL A   1      36.656  31.210  30.718  1.00  0.00     0.091 A 
ATOM     70  F   UNL A   1      38.032  31.340  28.770  1.00  0.00    -0.205 F 
ATOM     71  C   UNL A   1      36.444  30.694  32.008  1.00  0.00     0.022 A 
BRANCH  69  72
ATOM     72  S   UNL A   1      35.378  32.281  30.056  1.00  0.00     0.127 S 
ATOM     73  O   UNL A   1      34.906  31.504  28.909  1.00  0.00    -0.237 OA
ATOM     74  O   UNL A   1      34.434  32.355  31.172  1.00  0.00    -0.237 OA
ATOM     75  O   UNL A   1      36.033  33.538  29.725  1.00  0.00    -0.744 OA
ENDBRANCH  69  72
ENDBRANCH  51  65
BRANCH  52  76
ATOM     76  C   UNL A   1      47.152  27.429  25.679  1.00  0.00     0.023 A 
ATOM     77  C   UNL A   1      48.209  26.754  26.322  1.00  0.00     0.012 A 
ATOM     78  C   UNL A   1      47.268  27.730  24.308  1.00  0.00     0.148 A 
ATOM     79  C   UNL A   1      49.372  26.421  25.626  1.00  0.00     0.002 A 
ATOM     80  C   UNL A   1      48.409  27.349  23.607  1.00  0.00     0.091 A 
ATOM     81  F   UNL A   1      46.265  28.391  23.713  1.00  0.00    -0.205 F 
ATOM     82  C   UNL A   1      49.469  26.710  24.267  1.00  0.00     0.022 A 
BRANCH  80  83
ATOM     83  S   UNL A   1      48.559  27.573  21.830  1.00  0.00     0.127 S 
ATOM     84  O   UNL A   1      49.632  28.560  21.741  1.00  0.00    -0.237 OA
ATOM     85  O   UNL A   1      48.922  26.229  21.379  1.00  0.00    -0.237 OA
ATOM     86  O   UNL A   1      47.244  28.015  21.385  1.00  0.00    -0.744 OA
ENDBRANCH  80  83
ENDBRANCH  52  76
BRANCH  64  87
ATOM     87  C   UNL A   1      45.257  33.081  29.317  1.00  0.00     0.023 A 
ATOM     88  C   UNL A   1      46.011  33.199  30.501  1.00  0.00     0.012 A 
ATOM     89  C   UNL A   1      45.229  34.150  28.402  1.00  0.00     0.148 A 
ATOM     90  C   UNL A   1      46.697  34.378  30.787  1.00  0.00     0.002 A 
ATOM     91  C   UNL A   1      45.954  35.304  28.671  1.00  0.00     0.091 A 
ATOM     92  F   UNL A   1      44.490  34.025  27.289  1.00  0.00    -0.205 F 
ATOM     93  C   UNL A   1      46.679  35.425  29.868  1.00  0.00     0.022 A 
BRANCH  91  94
ATOM     94  S   UNL A   1      46.061  36.656  27.494  1.00  0.00     0.127 S 
ATOM     95  O   UNL A   1      46.381  35.948  26.255  1.00  0.00    -0.237 OA
ATOM     96  O   UNL A   1      44.711  37.221  27.541  1.00  0.00    -0.237 OA
ATOM     97  O   UNL A   1      47.099  37.542  28.002  1.00  0.00    -0.744 OA
ENDBRANCH  91  94
ENDBRANCH  64  87
ENDBRANCH  38  39
ENDBRANCH  31  33
ENDBRANCH  30  31
ENDBRANCH  29  30
ENDBRANCH   1  29
TORSDOF 19
ENDMDL
MODEL 3
REMARK VINA RESULT:     -12.2      5.134     10.675
REMARK SMILES [NH3+][C@H](CS[C@@H]1CC(=O)N(c2ccc3ccccc3c2)C1=O)C(=O)OCCOC(=O)c1ccc(-c2c3nc(c(-c4cccc(S(=O)(=O)[O-])c4F)c4ccc([nH]4)c(-c4cccc(S(=O)(=O)[O-])c4F)c4nc(c(-c5cccc(S(=O)(=O)[O-])c5F)c5ccc2[nH]5)C=C4)C=C3)cc1
REMARK SMILES IDX 25 1 24 2 22 3 23 4 2 5 1 6 3 10 4 11 5 12 6 13 20 14 7 15
REMARK SMILES IDX 9 16 21 17 8 18 10 19 11 20 19 21 12 22 18 23 13 24 17 25
REMARK SMILES IDX 14 26 16 27 15 28 26 29 27 30 28 31 29 32 30 33 31 34 92 35
REMARK SMILES IDX 32 36 91 37 33 38 34 39 35 40 85 41 36 42 90 43 84 44 86 45
REMARK SMILES IDX 37 46 89 47 83 48 82 49 38 51 70 52 50 53 69 54 51 55 54 56
REMARK SMILES IDX 68 57 87 58 52 59 53 60 67 62 88 63 55 64 39 65 40 66 48 67
REMARK SMILES IDX 41 68 43 69 49 70 42 71 44 72 45 73 46 74 47 75 71 76 72 77
REMARK SMILES IDX 80 78 73 79 75 80 81 81 74 82 76 83 77 84 78 85 79 86 56 87
REMARK SMILES IDX 57 88 65 89 58 90 60 91 66 92 59 93 61 94 62 95 63 96 64 97
REMARK H PARENT 1 7 1 8 1 9 86 50 54 61
REMARK Flexibility Score: inf
ROOT
ATOM      1  C   UNL A   1      31.061  31.254  26.467  1.00  0.00     0.274 C 
ENDROOT
BRANCH   1   2
ATOM      2  O   UNL A   1      31.950  30.215  25.987  1.00  0.00    -0.458 OA
BRANCH   2   3
ATOM      3  C   UNL A   1      32.180  29.129  26.758  1.00  0.00     0.365 C 
ATOM      4  O   UNL A   1      31.397  28.717  27.608  1.00  0.00    -0.245 OA
BRANCH   3   5
ATOM      5  C   UNL A   1      33.544  28.435  26.490  1.00  0.00     0.301 C 
BRANCH   5   6
ATOM      6  N   UNL A   1      34.435  29.243  25.618  1.00  0.00    -0.345 N 
ATOM      7  H   UNL A   1      34.844  28.644  24.900  1.00  0.00     0.345 HD
ATOM      8  H   UNL A   1      35.180  29.654  26.181  1.00  0.00     0.345 HD
ATOM      9  H   UNL A   1      33.895  29.985  25.174  1.00  0.00     0.345 HD
ENDBRANCH   5   6
BRANCH   5  10
ATOM     10  C   UNL A   1      33.475  26.924  26.124  1.00  0.00     0.147 C 
BRANCH  10  11
ATOM     11  S   UNL A   1      32.831  26.453  24.410  1.00  0.00    -0.141 SA
BRANCH  11  12
ATOM     12  C   UNL A   1      31.466  25.304  24.883  1.00  0.00     0.146 C 
ATOM     13  C   UNL A   1      31.278  24.961  26.357  1.00  0.00     0.125 C 
ATOM     14  C   UNL A   1      31.840  23.970  24.357  1.00  0.00     0.247 C 
ATOM     15  C   UNL A   1      31.919  23.594  26.525  1.00  0.00     0.235 C 
ATOM     16  N   UNL A   1      32.440  23.231  25.325  1.00  0.00    -0.250 N 
ATOM     17  O   UNL A   1      31.547  23.624  23.236  1.00  0.00    -0.273 OA
ATOM     18  O   UNL A   1      31.883  22.949  27.563  1.00  0.00    -0.274 OA
BRANCH  16  19
ATOM     19  C   UNL A   1      33.197  22.093  25.001  1.00  0.00     0.052 A 
ATOM     20  C   UNL A   1      34.576  22.021  25.157  1.00  0.00     0.027 A 
ATOM     21  C   UNL A   1      32.492  20.942  24.614  1.00  0.00     0.035 A 
ATOM     22  C   UNL A   1      35.225  20.786  24.999  1.00  0.00     0.011 A 
ATOM     23  C   UNL A   1      33.125  19.706  24.434  1.00  0.00    -0.016 A 
ATOM     24  C   UNL A   1      34.514  19.616  24.649  1.00  0.00    -0.018 A 
ATOM     25  C   UNL A   1      32.390  18.557  24.092  1.00  0.00     0.009 A 
ATOM     26  C   UNL A   1      35.130  18.356  24.534  1.00  0.00     0.009 A 
ATOM     27  C   UNL A   1      33.018  17.320  23.973  1.00  0.00     0.001 A 
ATOM     28  C   UNL A   1      34.387  17.218  24.201  1.00  0.00     0.001 A 
ENDBRANCH  16  19
ENDBRANCH  11  12
ENDBRANCH  10  11
ENDBRANCH   5  10
ENDBRANCH   3   5
ENDBRANCH   2   3
ENDBRANCH   1   2
BRANCH   1  29
ATOM     29  C   UNL A   1      31.746  32.603  26.759  1.00  0.00     0.275 C 
BRANCH  29  30
ATOM     30  O   UNL A   1      32.890  32.399  27.594  1.00  0.00    -0.458 OA
BRANCH  30  31
ATOM     31  C   UNL A   1      33.861  33.336  27.686  1.00  0.00     0.338 C 
ATOM     32  O   UNL A   1      33.804  34.546  27.652  1.00  0.00    -0.246 OA
BRANCH  31  33
ATOM     33  C   UNL A   1      35.045  32.554  28.063  1.00  0.00     0.060 A 
ATOM     34  C   UNL A   1      36.275  33.210  28.153  1.00  0.00     0.016 A 
ATOM     35  C   UNL A   1      34.864  31.259  28.555  1.00  0.00     0.016 A 
ATOM     36  C   UNL A   1      37.311  32.609  28.853  1.00  0.00     0.010 A 
ATOM     37  C   UNL A   1      35.901  30.655  29.242  1.00  0.00     0.010 A 
ATOM     38  C   UNL A   1      37.114  31.341  29.413  1.00  0.00    -0.014 A 
BRANCH  38  39
ATOM     39  C   UNL A   1      38.211  30.656  30.108  1.00  0.00     0.031 A 
ATOM     40  C   UNL A   1      38.529  31.099  31.498  1.00  0.00     0.074 A 
ATOM     41  C   UNL A   1      38.938  29.725  29.465  1.00  0.00     0.049 A 
ATOM     42  N   UNL A   1      39.490  30.713  32.287  1.00  0.00    -0.248 NA
ATOM     43  C   UNL A   1      37.649  32.136  32.072  1.00  0.00     0.031 C 
ATOM     44  C   UNL A   1      38.712  29.272  28.091  1.00  0.00     0.029 A 
ATOM     45  N   UNL A   1      40.042  29.025  29.873  1.00  0.00    -0.354 N 
ATOM     46  C   UNL A   1      39.343  31.465  33.443  1.00  0.00     0.074 A 
ATOM     47  C   UNL A   1      38.217  32.349  33.247  1.00  0.00     0.031 C 
ATOM     48  C   UNL A   1      39.675  28.393  27.758  1.00  0.00     0.029 A 
ATOM     49  C   UNL A   1      40.585  28.234  28.889  1.00  0.00     0.049 A 
ATOM     50  H   UNL A   1      40.411  29.084  30.784  1.00  0.00     0.167 HD
ATOM     51  C   UNL A   1      40.074  31.400  34.578  1.00  0.00     0.034 A 
ATOM     52  C   UNL A   1      41.701  27.481  28.911  1.00  0.00     0.034 A 
ATOM     53  C   UNL A   1      41.192  30.517  34.745  1.00  0.00     0.049 A 
ATOM     54  C   UNL A   1      42.488  27.418  30.197  1.00  0.00     0.074 A 
ATOM     55  C   UNL A   1      42.000  30.348  35.852  1.00  0.00     0.029 A 
ATOM     56  N   UNL A   1      41.661  29.655  33.764  1.00  0.00    -0.354 N 
ATOM     57  N   UNL A   1      42.266  28.036  31.333  1.00  0.00    -0.248 NA
ATOM     58  C   UNL A   1      43.653  26.523  30.219  1.00  0.00     0.031 C 
ATOM     59  C   UNL A   1      42.968  29.387  35.537  1.00  0.00     0.029 A 
ATOM     60  C   UNL A   1      42.748  28.945  34.241  1.00  0.00     0.049 A 
ATOM     61  H   UNL A   1      41.278  29.562  32.863  1.00  0.00     0.167 HD
ATOM     62  C   UNL A   1      43.244  27.589  32.211  1.00  0.00     0.074 A 
ATOM     63  C   UNL A   1      44.040  26.619  31.484  1.00  0.00     0.031 C 
ATOM     64  C   UNL A   1      43.484  27.954  33.496  1.00  0.00     0.034 A 
BRANCH  51  65
ATOM     65  C   UNL A   1      39.647  32.280  35.719  1.00  0.00     0.023 A 
ATOM     66  C   UNL A   1      38.802  31.752  36.716  1.00  0.00     0.012 A 
ATOM     67  C   UNL A   1      40.086  33.613  35.815  1.00  0.00     0.148 A 
ATOM     68  C   UNL A   1      38.378  32.544  37.780  1.00  0.00     0.002 A 
ATOM     69  C   UNL A   1      39.691  34.386  36.902  1.00  0.00     0.091 A 
ATOM     70  F   UNL A   1      40.863  34.104  34.840  1.00  0.00    -0.205 F 
ATOM     71  C   UNL A   1      38.829  33.857  37.878  1.00  0.00     0.022 A 
BRANCH  69  72
ATOM     72  S   UNL A   1      40.262  36.069  37.156  1.00  0.00     0.127 S 
ATOM     73  O   UNL A   1      39.813  36.722  35.926  1.00  0.00    -0.237 OA
ATOM     74  O   UNL A   1      39.525  36.462  38.357  1.00  0.00    -0.237 OA
ATOM     75  O   UNL A   1      41.706  35.986  37.322  1.00  0.00    -0.744 OA
ENDBRANCH  69  72
ENDBRANCH  51  65
BRANCH  52  76
ATOM     76  C   UNL A   1      42.106  26.690  27.713  1.00  0.00     0.023 A 
ATOM     77  C   UNL A   1      42.822  27.321  26.676  1.00  0.00     0.012 A 
ATOM     78  C   UNL A   1      41.801  25.320  27.597  1.00  0.00     0.148 A 
ATOM     79  C   UNL A   1      43.193  26.613  25.532  1.00  0.00     0.002 A 
ATOM     80  C   UNL A   1      42.219  24.607  26.477  1.00  0.00     0.091 A 
ATOM     81  F   UNL A   1      41.101  24.737  28.581  1.00  0.00    -0.205 F 
ATOM     82  C   UNL A   1      42.900  25.255  25.436  1.00  0.00     0.022 A 
BRANCH  80  83
ATOM     83  S   UNL A   1      41.990  22.831  26.334  1.00  0.00     0.127 S 
ATOM     84  O   UNL A   1      42.592  22.554  25.032  1.00  0.00    -0.237 OA
ATOM     85  O   UNL A   1      42.748  22.328  27.480  1.00  0.00    -0.237 OA
ATOM     86  O   UNL A   1      40.552  22.618  26.432  1.00  0.00    -0.744 OA
ENDBRANCH  80  83
ENDBRANCH  52  76
BRANCH  64  87
ATOM     87  C   UNL A   1      44.641  27.292  34.193  1.00  0.00     0.023 A 
ATOM     88  C   UNL A   1      45.925  27.867  34.109  1.00  0.00     0.012 A 
ATOM     89  C   UNL A   1      44.446  26.141  34.979  1.00  0.00     0.148 A 
ATOM     90  C   UNL A   1      47.005  27.283  34.768  1.00  0.00     0.002 A 
ATOM     91  C   UNL A   1      45.517  25.592  35.672  1.00  0.00     0.091 A 
ATOM     92  F   UNL A   1      43.220  25.597  35.030  1.00  0.00    -0.205 F 
ATOM     93  C   UNL A   1      46.799  26.154  35.559  1.00  0.00     0.022 A 
BRANCH  91  94
ATOM     94  S   UNL A   1      45.315  24.199  36.786  1.00  0.00     0.127 S 
ATOM     95  O   UNL A   1      44.364  24.732  37.760  1.00  0.00    -0.237 OA
ATOM     96  O   UNL A   1      44.769  23.166  35.903  1.00  0.00    -0.237 OA
ATOM     97  O   UNL A   1      46.647  23.905  37.298  1.00  0.00    -0.744 OA
ENDBRANCH  91  94
ENDBRANCH  64  87
ENDBRANCH  38  39
ENDBRANCH  31  33
ENDBRANCH  30  31
ENDBRANCH  29  30
ENDBRANCH   1  29
TORSDOF 19
ENDMDL
