MODEL 1
REMARK VINA RESULT:     -11.8      0.000      0.000
REMARK SMILES Cc1c(C(=O)NC(=S)Nc2ccccc2C(=O)OCCOC(=O)c2ccc(-c3c4nc(c(-c5cccc(S(=O)(=O)[O-])c5F)c5ccc([nH]5)c(-c5cccc(S(=O)(=O)[O-])c5F)c5nc(c(-c6cccc(S(=O)(=O)[O-])c6F)c6ccc3[nH]6)C=C5)C=C4)cc2)cccc1[N+](=O)[O-]
REMARK SMILES IDX 19 1 18 2 16 3 17 4 15 5 10 6 11 7 12 8 14 9 13 10 9 11 7 13
REMARK SMILES IDX 8 14 6 15 4 16 5 17 3 19 1 20 2 21 90 22 87 23 89 24 88 25
REMARK SMILES IDX 91 26 92 27 93 28 20 29 21 30 22 31 23 32 24 33 25 34 86 35
REMARK SMILES IDX 26 36 85 37 27 38 28 39 29 40 79 41 30 42 84 43 78 44 80 45
REMARK SMILES IDX 31 46 83 47 77 48 76 49 32 51 64 52 44 53 63 54 45 55 48 56
REMARK SMILES IDX 62 57 81 58 46 59 47 60 61 62 82 63 49 64 33 65 34 66 42 67
REMARK SMILES IDX 35 68 37 69 43 70 36 71 38 72 39 73 40 74 41 75 65 76 66 77
REMARK SMILES IDX 74 78 67 79 69 80 75 81 68 82 70 83 71 84 72 85 73 86 50 87
REMARK SMILES IDX 51 88 59 89 52 90 54 91 60 92 53 93 55 94 56 95 57 96 58 97
REMARK H PARENT 9 12 6 18 80 50 48 61
REMARK Flexibility Score: inf
ROOT
ATOM      1  C   UNL A   1      38.075  21.999  26.084  1.00  0.00     0.275 C 
ENDROOT
BRANCH   1   2
ATOM      2  O   UNL A   1      37.514  21.338  24.889  1.00  0.00    -0.458 OA
BRANCH   2   3
ATOM      3  C   UNL A   1      36.198  21.681  24.647  1.00  0.00     0.340 C 
ATOM      4  O   UNL A   1      35.958  22.876  24.463  1.00  0.00    -0.246 OA
BRANCH   3   5
ATOM      5  C   UNL A   1      34.961  20.777  24.956  1.00  0.00     0.083 A 
ATOM      6  C   UNL A   1      33.192  20.779  24.642  1.00  0.00     0.055 A 
ATOM      7  C   UNL A   1      32.208  19.255  24.286  1.00  0.00     0.027 A 
ATOM      8  C   UNL A   1      33.239  17.740  23.915  1.00  0.00     0.002 A 
ATOM      9  C   UNL A   1      35.835  19.423  24.973  1.00  0.00     0.018 A 
ATOM     10  C   UNL A   1      35.190  18.027  24.402  1.00  0.00     0.001 A 
BRANCH   6  11
ATOM     11  N   UNL A   1      32.812  21.743  23.674  1.00  0.00    -0.332 N 
ATOM     12  H   UNL A   1      32.912  21.464  22.735  1.00  0.00     0.169 HD
BRANCH  11  13
ATOM     13  C   UNL A   1      32.321  23.017  23.864  1.00  0.00     0.177 C 
ATOM     14  S   UNL A   1      32.366  24.027  22.509  1.00  0.00    -0.040 S 
BRANCH  13  15
ATOM     15  N   UNL A   1      31.966  23.599  25.177  1.00  0.00    -0.299 N 
ATOM     16  C   UNL A   1      31.938  24.850  26.167  1.00  0.00     0.257 C 
ATOM     17  O   UNL A   1      31.376  24.720  27.252  1.00  0.00    -0.269 OA
ATOM     18  H   UNL A   1      31.549  22.863  25.680  1.00  0.00     0.172 HD
BRANCH  16  19
ATOM     19  C   UNL A   1      32.592  26.212  25.756  1.00  0.00     0.049 A 
ATOM     20  C   UNL A   1      31.009  27.281  26.956  1.00  0.00     0.053 C 
ATOM     21  C   UNL A   1      31.274  26.835  25.089  1.00  0.00     0.039 A 
ATOM     22  C   UNL A   1      31.186  28.173  23.527  1.00  0.00     0.273 A 
ATOM     23  C   UNL A   1      34.048  27.140  25.447  1.00  0.00     0.014 A 
ATOM     24  C   UNL A   1      32.776  29.059  23.241  1.00  0.00     0.086 A 
ATOM     25  C   UNL A   1      34.164  28.545  24.282  1.00  0.00     0.008 A 
BRANCH  22  26
ATOM     26  N   UNL A   1      30.115  29.138  22.821  1.00  0.00     0.063 N 
ATOM     27  O   UNL A   1      29.440  29.802  23.623  1.00  0.00    -0.258 OA
ATOM     28  O   UNL A   1      29.803  29.033  21.626  1.00  0.00    -0.258 OA
ENDBRANCH  22  26
ENDBRANCH  16  19
ENDBRANCH  13  15
ENDBRANCH  11  13
ENDBRANCH   6  11
ENDBRANCH   3   5
ENDBRANCH   2   3
ENDBRANCH   1   2
BRANCH   1  29
ATOM     29  C   UNL A   1      39.610  22.243  26.109  1.00  0.00     0.275 C 
BRANCH  29  30
ATOM     30  O   UNL A   1      40.492  21.364  26.836  1.00  0.00    -0.458 OA
BRANCH  30  31
ATOM     31  C   UNL A   1      41.805  21.656  26.761  1.00  0.00     0.338 C 
ATOM     32  O   UNL A   1      42.635  20.885  26.331  1.00  0.00    -0.246 OA
BRANCH  31  33
ATOM     33  C   UNL A   1      42.025  23.051  27.176  1.00  0.00     0.060 A 
ATOM     34  C   UNL A   1      42.051  23.343  28.546  1.00  0.00     0.016 A 
ATOM     35  C   UNL A   1      42.562  23.924  26.223  1.00  0.00     0.016 A 
ATOM     36  C   UNL A   1      42.636  24.508  28.990  1.00  0.00     0.010 A 
ATOM     37  C   UNL A   1      43.327  24.963  26.664  1.00  0.00     0.010 A 
ATOM     38  C   UNL A   1      43.214  25.309  28.023  1.00  0.00    -0.014 A 
BRANCH  38  39
ATOM     39  C   UNL A   1      43.193  26.743  28.212  1.00  0.00     0.031 A 
ATOM     40  C   UNL A   1      41.848  27.343  27.921  1.00  0.00     0.074 A 
ATOM     41  C   UNL A   1      44.364  26.932  28.912  1.00  0.00     0.049 A 
ATOM     42  N   UNL A   1      41.607  28.561  27.575  1.00  0.00    -0.248 NA
ATOM     43  C   UNL A   1      40.587  26.572  27.759  1.00  0.00     0.031 C 
ATOM     44  C   UNL A   1      44.772  27.647  30.116  1.00  0.00     0.029 A 
ATOM     45  N   UNL A   1      45.576  26.252  28.608  1.00  0.00    -0.354 N 
ATOM     46  C   UNL A   1      40.266  28.756  27.900  1.00  0.00     0.074 A 
ATOM     47  C   UNL A   1      39.635  27.506  27.644  1.00  0.00     0.031 C 
ATOM     48  C   UNL A   1      46.127  27.636  30.217  1.00  0.00     0.029 A 
ATOM     49  C   UNL A   1      46.685  26.942  29.062  1.00  0.00     0.049 A 
ATOM     50  H   UNL A   1      45.619  25.393  28.130  1.00  0.00     0.167 HD
ATOM     51  C   UNL A   1      39.968  29.698  28.844  1.00  0.00     0.034 A 
ATOM     52  C   UNL A   1      47.491  27.488  28.101  1.00  0.00     0.034 A 
ATOM     53  C   UNL A   1      41.257  30.231  29.337  1.00  0.00     0.049 A 
ATOM     54  C   UNL A   1      46.973  28.906  27.852  1.00  0.00     0.074 A 
ATOM     55  C   UNL A   1      42.017  29.945  30.458  1.00  0.00     0.029 A 
ATOM     56  N   UNL A   1      42.130  30.796  28.415  1.00  0.00    -0.354 N 
ATOM     57  N   UNL A   1      45.796  29.350  28.203  1.00  0.00    -0.248 NA
ATOM     58  C   UNL A   1      47.789  29.922  27.213  1.00  0.00     0.031 C 
ATOM     59  C   UNL A   1      43.358  30.359  30.184  1.00  0.00     0.029 A 
ATOM     60  C   UNL A   1      43.437  30.807  28.875  1.00  0.00     0.049 A 
ATOM     61  H   UNL A   1      41.852  31.146  27.538  1.00  0.00     0.167 HD
ATOM     62  C   UNL A   1      45.649  30.650  27.835  1.00  0.00     0.074 A 
ATOM     63  C   UNL A   1      46.955  30.971  27.262  1.00  0.00     0.031 C 
ATOM     64  C   UNL A   1      44.484  31.356  28.008  1.00  0.00     0.034 A 
BRANCH  51  65
ATOM     65  C   UNL A   1      38.651  29.966  29.574  1.00  0.00     0.023 A 
ATOM     66  C   UNL A   1      38.383  29.087  30.653  1.00  0.00     0.012 A 
ATOM     67  C   UNL A   1      37.697  31.002  29.375  1.00  0.00     0.148 A 
ATOM     68  C   UNL A   1      37.254  29.186  31.468  1.00  0.00     0.002 A 
ATOM     69  C   UNL A   1      36.558  31.107  30.203  1.00  0.00     0.091 A 
ATOM     70  F   UNL A   1      37.883  31.903  28.403  1.00  0.00    -0.205 F 
ATOM     71  C   UNL A   1      36.340  30.196  31.244  1.00  0.00     0.022 A 
BRANCH  69  72
ATOM     72  S   UNL A   1      35.287  32.386  30.047  1.00  0.00     0.127 S 
ATOM     73  O   UNL A   1      34.527  31.925  28.882  1.00  0.00    -0.237 OA
ATOM     74  O   UNL A   1      34.564  32.271  31.313  1.00  0.00    -0.237 OA
ATOM     75  O   UNL A   1      35.990  33.646  29.849  1.00  0.00    -0.744 OA
ENDBRANCH  69  72
ENDBRANCH  51  65
BRANCH  52  76
ATOM     76  C   UNL A   1      47.774  26.545  26.942  1.00  0.00     0.023 A 
ATOM     77  C   UNL A   1      46.966  26.591  25.771  1.00  0.00     0.012 A 
ATOM     78  C   UNL A   1      49.060  26.022  26.832  1.00  0.00     0.148 A 
ATOM     79  C   UNL A   1      47.532  26.380  24.508  1.00  0.00     0.002 A 
ATOM     80  C   UNL A   1      49.650  25.959  25.591  1.00  0.00     0.091 A 
ATOM     81  F   UNL A   1      49.757  25.684  27.921  1.00  0.00    -0.205 F 
ATOM     82  C   UNL A   1      48.899  26.126  24.422  1.00  0.00     0.022 A 
BRANCH  80  83
ATOM     83  S   UNL A   1      51.435  26.122  25.576  1.00  0.00     0.127 S 
ATOM     84  O   UNL A   1      51.678  26.323  24.150  1.00  0.00    -0.237 OA
ATOM     85  O   UNL A   1      51.655  27.301  26.402  1.00  0.00    -0.237 OA
ATOM     86  O   UNL A   1      51.886  24.844  26.108  1.00  0.00    -0.744 OA
ENDBRANCH  80  83
ENDBRANCH  52  76
BRANCH  64  87
ATOM     87  C   UNL A   1      44.245  32.716  27.382  1.00  0.00     0.023 A 
ATOM     88  C   UNL A   1      44.321  32.912  25.995  1.00  0.00     0.012 A 
ATOM     89  C   UNL A   1      43.862  33.844  28.153  1.00  0.00     0.148 A 
ATOM     90  C   UNL A   1      44.259  34.179  25.423  1.00  0.00     0.002 A 
ATOM     91  C   UNL A   1      43.602  35.064  27.552  1.00  0.00     0.091 A 
ATOM     92  F   UNL A   1      43.787  33.775  29.487  1.00  0.00    -0.205 F 
ATOM     93  C   UNL A   1      43.882  35.257  26.202  1.00  0.00     0.022 A 
BRANCH  91  94
ATOM     94  S   UNL A   1      42.817  36.408  28.442  1.00  0.00     0.127 S 
ATOM     95  O   UNL A   1      41.618  35.754  28.959  1.00  0.00    -0.237 OA
ATOM     96  O   UNL A   1      43.826  36.726  29.455  1.00  0.00    -0.237 OA
ATOM     97  O   UNL A   1      42.592  37.466  27.467  1.00  0.00    -0.744 OA
ENDBRANCH  91  94
ENDBRANCH  64  87
ENDBRANCH  38  39
ENDBRANCH  31  33
ENDBRANCH  30  31
ENDBRANCH  29  30
ENDBRANCH   1  29
TORSDOF 19
ENDMDL
MODEL 2
REMARK VINA RESULT:     -11.7      4.728     10.768
REMARK SMILES Cc1c(C(=O)NC(=S)Nc2ccccc2C(=O)OCCOC(=O)c2ccc(-c3c4nc(c(-c5cccc(S(=O)(=O)[O-])c5F)c5ccc([nH]5)c(-c5cccc(S(=O)(=O)[O-])c5F)c5nc(c(-c6cccc(S(=O)(=O)[O-])c6F)c6ccc3[nH]6)C=C5)C=C4)cc2)cccc1[N+](=O)[O-]
REMARK SMILES IDX 19 1 18 2 16 3 17 4 15 5 10 6 11 7 12 8 14 9 13 10 9 11 7 13
REMARK SMILES IDX 8 14 6 15 4 16 5 17 3 19 1 20 2 21 90 22 87 23 89 24 88 25
REMARK SMILES IDX 91 26 92 27 93 28 20 29 21 30 22 31 23 32 24 33 25 34 86 35
REMARK SMILES IDX 26 36 85 37 27 38 28 39 29 40 79 41 30 42 84 43 78 44 80 45
REMARK SMILES IDX 31 46 83 47 77 48 76 49 32 51 64 52 44 53 63 54 45 55 48 56
REMARK SMILES IDX 62 57 81 58 46 59 47 60 61 62 82 63 49 64 33 65 34 66 42 67
REMARK SMILES IDX 35 68 37 69 43 70 36 71 38 72 39 73 40 74 41 75 65 76 66 77
REMARK SMILES IDX 74 78 67 79 69 80 75 81 68 82 70 83 71 84 72 85 73 86 50 87
REMARK SMILES IDX 51 88 59 89 52 90 54 91 60 92 53 93 55 94 56 95 57 96 58 97
REMARK H PARENT 9 12 6 18 80 50 48 61
REMARK Flexibility Score: inf
ROOT
ATOM      1  C   UNL A   1      32.810  31.031  27.171  1.00  0.00     0.275 C 
ENDROOT
BRANCH   1   2
ATOM      2  O   UNL A   1      31.725  30.989  26.170  1.00  0.00    -0.458 OA
BRANCH   2   3
ATOM      3  C   UNL A   1      31.765  29.860  25.374  1.00  0.00     0.340 C 
ATOM      4  O   UNL A   1      32.797  29.187  25.414  1.00  0.00    -0.246 OA
BRANCH   3   5
ATOM      5  C   UNL A   1      30.809  29.572  24.173  1.00  0.00     0.083 A 
ATOM      6  C   UNL A   1      30.008  28.155  23.412  1.00  0.00     0.055 A 
ATOM      7  C   UNL A   1      28.308  28.201  22.686  1.00  0.00     0.027 A 
ATOM      8  C   UNL A   1      27.326  29.731  23.118  1.00  0.00     0.002 A 
ATOM      9  C   UNL A   1      30.104  31.019  24.263  1.00  0.00     0.018 A 
ATOM     10  C   UNL A   1      28.504  31.170  23.933  1.00  0.00     0.001 A 
BRANCH   6  11
ATOM     11  N   UNL A   1      30.074  26.992  24.221  1.00  0.00    -0.332 N 
ATOM     12  H   UNL A   1      29.522  27.012  25.037  1.00  0.00     0.169 HD
BRANCH  11  13
ATOM     13  C   UNL A   1      30.802  25.839  24.025  1.00  0.00     0.177 C 
ATOM     14  S   UNL A   1      31.837  25.847  22.688  1.00  0.00    -0.040 S 
BRANCH  13  15
ATOM     15  N   UNL A   1      30.589  24.571  24.756  1.00  0.00    -0.299 N 
ATOM     16  C   UNL A   1      31.146  23.166  25.270  1.00  0.00     0.257 C 
ATOM     17  O   UNL A   1      30.421  22.480  25.987  1.00  0.00    -0.269 OA
ATOM     18  H   UNL A   1      29.660  24.613  25.079  1.00  0.00     0.172 HD
BRANCH  16  19
ATOM     19  C   UNL A   1      32.586  22.686  24.886  1.00  0.00     0.049 A 
ATOM     20  C   UNL A   1      31.762  21.930  22.928  1.00  0.00     0.053 C 
ATOM     21  C   UNL A   1      32.192  21.150  24.648  1.00  0.00     0.039 A 
ATOM     22  C   UNL A   1      33.391  19.502  24.936  1.00  0.00     0.273 A 
ATOM     23  C   UNL A   1      34.316  22.979  24.905  1.00  0.00     0.014 A 
ATOM     24  C   UNL A   1      35.187  19.914  24.998  1.00  0.00     0.086 A 
ATOM     25  C   UNL A   1      35.596  21.674  24.911  1.00  0.00     0.008 A 
BRANCH  22  26
ATOM     26  N   UNL A   1      33.403  17.938  24.576  1.00  0.00     0.063 N 
ATOM     27  O   UNL A   1      34.019  17.673  23.533  1.00  0.00    -0.258 OA
ATOM     28  O   UNL A   1      32.651  17.118  25.123  1.00  0.00    -0.258 OA
ENDBRANCH  22  26
ENDBRANCH  16  19
ENDBRANCH  13  15
ENDBRANCH  11  13
ENDBRANCH   6  11
ENDBRANCH   3   5
ENDBRANCH   2   3
ENDBRANCH   1   2
BRANCH   1  29
ATOM     29  C   UNL A   1      33.438  32.419  27.483  1.00  0.00     0.275 C 
BRANCH  29  30
ATOM     30  O   UNL A   1      34.021  32.699  28.771  1.00  0.00    -0.458 OA
BRANCH  30  31
ATOM     31  C   UNL A   1      35.094  33.514  28.765  1.00  0.00     0.338 C 
ATOM     32  O   UNL A   1      35.035  34.690  28.477  1.00  0.00    -0.246 OA
BRANCH  31  33
ATOM     33  C   UNL A   1      36.275  32.780  29.249  1.00  0.00     0.060 A 
ATOM     34  C   UNL A   1      37.533  33.131  28.740  1.00  0.00     0.016 A 
ATOM     35  C   UNL A   1      36.134  32.056  30.437  1.00  0.00     0.016 A 
ATOM     36  C   UNL A   1      38.674  32.778  29.425  1.00  0.00     0.010 A 
ATOM     37  C   UNL A   1      37.234  31.894  31.225  1.00  0.00     0.010 A 
ATOM     38  C   UNL A   1      38.488  32.122  30.628  1.00  0.00    -0.014 A 
BRANCH  38  39
ATOM     39  C   UNL A   1      39.465  31.138  31.035  1.00  0.00     0.031 A 
ATOM     40  C   UNL A   1      39.250  29.805  30.377  1.00  0.00     0.074 A 
ATOM     41  C   UNL A   1      40.413  31.939  31.632  1.00  0.00     0.049 A 
ATOM     42  N   UNL A   1      39.633  28.658  30.820  1.00  0.00    -0.248 NA
ATOM     43  C   UNL A   1      38.355  29.564  29.214  1.00  0.00     0.031 C 
ATOM     44  C   UNL A   1      41.862  32.089  31.570  1.00  0.00     0.029 A 
ATOM     45  N   UNL A   1      40.089  33.040  32.474  1.00  0.00    -0.354 N 
ATOM     46  C   UNL A   1      39.657  27.840  29.691  1.00  0.00     0.074 A 
ATOM     47  C   UNL A   1      38.570  28.284  28.886  1.00  0.00     0.031 C 
ATOM     48  C   UNL A   1      42.277  32.932  32.551  1.00  0.00     0.029 A 
ATOM     49  C   UNL A   1      41.122  33.355  33.336  1.00  0.00     0.049 A 
ATOM     50  H   UNL A   1      39.229  33.519  32.446  1.00  0.00     0.167 HD
ATOM     51  C   UNL A   1      40.860  27.316  29.308  1.00  0.00     0.034 A 
ATOM     52  C   UNL A   1      40.905  33.093  34.661  1.00  0.00     0.034 A 
ATOM     53  C   UNL A   1      41.878  27.865  30.229  1.00  0.00     0.049 A 
ATOM     54  C   UNL A   1      41.409  31.671  34.913  1.00  0.00     0.074 A 
ATOM     55  C   UNL A   1      42.769  28.919  30.116  1.00  0.00     0.029 A 
ATOM     56  N   UNL A   1      41.718  27.643  31.593  1.00  0.00    -0.354 N 
ATOM     57  N   UNL A   1      41.640  30.779  33.987  1.00  0.00    -0.248 NA
ATOM     58  C   UNL A   1      41.716  31.189  36.247  1.00  0.00     0.031 C 
ATOM     59  C   UNL A   1      43.139  29.312  31.440  1.00  0.00     0.029 A 
ATOM     60  C   UNL A   1      42.411  28.570  32.355  1.00  0.00     0.049 A 
ATOM     61  H   UNL A   1      41.175  26.914  31.971  1.00  0.00     0.167 HD
ATOM     62  C   UNL A   1      42.078  29.619  34.543  1.00  0.00     0.074 A 
ATOM     63  C   UNL A   1      42.155  29.953  35.964  1.00  0.00     0.031 C 
ATOM     64  C   UNL A   1      42.328  28.481  33.816  1.00  0.00     0.034 A 
BRANCH  51  65
ATOM     65  C   UNL A   1      41.246  26.604  28.010  1.00  0.00     0.023 A 
ATOM     66  C   UNL A   1      41.351  27.452  26.879  1.00  0.00     0.012 A 
ATOM     67  C   UNL A   1      41.578  25.239  27.788  1.00  0.00     0.148 A 
ATOM     68  C   UNL A   1      41.727  27.004  25.612  1.00  0.00     0.002 A 
ATOM     69  C   UNL A   1      41.964  24.786  26.507  1.00  0.00     0.091 A 
ATOM     70  F   UNL A   1      41.543  24.369  28.805  1.00  0.00    -0.205 F 
ATOM     71  C   UNL A   1      42.035  25.671  25.424  1.00  0.00     0.022 A 
BRANCH  69  72
ATOM     72  S   UNL A   1      42.416  23.079  26.112  1.00  0.00     0.127 S 
ATOM     73  O   UNL A   1      41.128  22.388  26.210  1.00  0.00    -0.237 OA
ATOM     74  O   UNL A   1      42.929  23.194  24.747  1.00  0.00    -0.237 OA
ATOM     75  O   UNL A   1      43.397  22.670  27.108  1.00  0.00    -0.744 OA
ENDBRANCH  69  72
ENDBRANCH  51  65
BRANCH  52  76
ATOM     76  C   UNL A   1      39.531  33.533  35.146  1.00  0.00     0.023 A 
ATOM     77  C   UNL A   1      38.359  32.923  34.618  1.00  0.00     0.012 A 
ATOM     78  C   UNL A   1      39.450  34.137  36.398  1.00  0.00     0.148 A 
ATOM     79  C   UNL A   1      37.247  32.693  35.436  1.00  0.00     0.002 A 
ATOM     80  C   UNL A   1      38.422  33.784  37.242  1.00  0.00     0.091 A 
ATOM     81  F   UNL A   1      40.409  34.965  36.823  1.00  0.00    -0.205 F 
ATOM     82  C   UNL A   1      37.312  33.071  36.774  1.00  0.00     0.022 A 
BRANCH  80  83
ATOM     83  S   UNL A   1      38.799  33.867  38.992  1.00  0.00     0.127 S 
ATOM     84  O   UNL A   1      37.615  33.224  39.556  1.00  0.00    -0.237 OA
ATOM     85  O   UNL A   1      40.022  33.083  39.094  1.00  0.00    -0.237 OA
ATOM     86  O   UNL A   1      38.903  35.298  39.238  1.00  0.00    -0.744 OA
ENDBRANCH  80  83
ENDBRANCH  52  76
BRANCH  64  87
ATOM     87  C   UNL A   1      42.579  27.131  34.461  1.00  0.00     0.023 A 
ATOM     88  C   UNL A   1      41.557  26.427  35.115  1.00  0.00     0.012 A 
ATOM     89  C   UNL A   1      43.834  26.476  34.374  1.00  0.00     0.148 A 
ATOM     90  C   UNL A   1      41.808  25.267  35.842  1.00  0.00     0.002 A 
ATOM     91  C   UNL A   1      44.025  25.222  34.929  1.00  0.00     0.091 A 
ATOM     92  F   UNL A   1      44.885  27.070  33.796  1.00  0.00    -0.205 F 
ATOM     93  C   UNL A   1      43.043  24.654  35.735  1.00  0.00     0.022 A 
BRANCH  91  94
ATOM     94  S   UNL A   1      45.480  24.240  34.568  1.00  0.00     0.127 S 
ATOM     95  O   UNL A   1      45.142  22.971  35.209  1.00  0.00    -0.237 OA
ATOM     96  O   UNL A   1      45.466  24.209  33.104  1.00  0.00    -0.237 OA
ATOM     97  O   UNL A   1      46.610  24.958  35.142  1.00  0.00    -0.744 OA
ENDBRANCH  91  94
ENDBRANCH  64  87
ENDBRANCH  38  39
ENDBRANCH  31  33
ENDBRANCH  30  31
ENDBRANCH  29  30
ENDBRANCH   1  29
TORSDOF 19
ENDMDL
MODEL 3
REMARK VINA RESULT:     -11.6      3.032      4.243
REMARK SMILES Cc1c(C(=O)NC(=S)Nc2ccccc2C(=O)OCCOC(=O)c2ccc(-c3c4nc(c(-c5cccc(S(=O)(=O)[O-])c5F)c5ccc([nH]5)c(-c5cccc(S(=O)(=O)[O-])c5F)c5nc(c(-c6cccc(S(=O)(=O)[O-])c6F)c6ccc3[nH]6)C=C5)C=C4)cc2)cccc1[N+](=O)[O-]
REMARK SMILES IDX 19 1 18 2 16 3 17 4 15 5 10 6 11 7 12 8 14 9 13 10 9 11 7 13
REMARK SMILES IDX 8 14 6 15 4 16 5 17 3 19 1 20 2 21 90 22 87 23 89 24 88 25
REMARK SMILES IDX 91 26 92 27 93 28 20 29 21 30 22 31 23 32 24 33 25 34 86 35
REMARK SMILES IDX 26 36 85 37 27 38 28 39 29 40 79 41 30 42 84 43 78 44 80 45
REMARK SMILES IDX 31 46 83 47 77 48 76 49 32 51 64 52 44 53 63 54 45 55 48 56
REMARK SMILES IDX 62 57 81 58 46 59 47 60 61 62 82 63 49 64 33 65 34 66 42 67
REMARK SMILES IDX 35 68 37 69 43 70 36 71 38 72 39 73 40 74 41 75 65 76 66 77
REMARK SMILES IDX 74 78 67 79 69 80 75 81 68 82 70 83 71 84 72 85 73 86 50 87
REMARK SMILES IDX 51 88 59 89 52 90 54 91 60 92 53 93 55 94 56 95 57 96 58 97
REMARK H PARENT 9 12 6 18 80 50 48 61
REMARK Flexibility Score: inf
ROOT
ATOM      1  C   UNL A   1      36.513  23.085  25.917  1.00  0.00     0.275 C 
ENDROOT
BRANCH   1   2
ATOM      2  O   UNL A   1      36.078  21.684  26.088  1.00  0.00    -0.458 OA
BRANCH   2   3
ATOM      3  C   UNL A   1      35.579  21.126  24.927  1.00  0.00     0.340 C 
ATOM      4  O   UNL A   1      35.861  21.693  23.870  1.00  0.00    -0.246 OA
BRANCH   3   5
ATOM      5  C   UNL A   1      34.405  20.096  24.855  1.00  0.00     0.083 A 
ATOM      6  C   UNL A   1      32.732  20.019  24.207  1.00  0.00     0.055 A 
ATOM      7  C   UNL A   1      31.989  18.504  23.450  1.00  0.00     0.027 A 
ATOM      8  C   UNL A   1      33.219  17.149  23.073  1.00  0.00     0.002 A 
ATOM      9  C   UNL A   1      35.396  18.824  24.847  1.00  0.00     0.018 A 
ATOM     10  C   UNL A   1      35.010  17.495  23.966  1.00  0.00     0.001 A 
BRANCH   6  11
ATOM     11  N   UNL A   1      32.436  21.097  23.333  1.00  0.00    -0.332 N 
ATOM     12  H   UNL A   1      32.420  20.873  22.374  1.00  0.00     0.169 HD
BRANCH  11  13
ATOM     13  C   UNL A   1      32.167  22.413  23.639  1.00  0.00     0.177 C 
ATOM     14  S   UNL A   1      31.516  22.688  25.175  1.00  0.00    -0.040 S 
BRANCH  13  15
ATOM     15  N   UNL A   1      32.213  23.532  22.672  1.00  0.00    -0.299 N 
ATOM     16  C   UNL A   1      32.160  25.099  22.375  1.00  0.00     0.257 C 
ATOM     17  O   UNL A   1      32.347  25.478  21.221  1.00  0.00    -0.269 OA
ATOM     18  H   UNL A   1      32.332  23.106  21.793  1.00  0.00     0.172 HD
BRANCH  16  19
ATOM     19  C   UNL A   1      31.897  26.125  23.528  1.00  0.00     0.049 A 
ATOM     20  C   UNL A   1      29.717  25.549  23.480  1.00  0.00     0.053 C 
ATOM     21  C   UNL A   1      30.792  26.981  22.741  1.00  0.00     0.039 A 
ATOM     22  C   UNL A   1      30.396  28.989  22.950  1.00  0.00     0.273 A 
ATOM     23  C   UNL A   1      32.439  26.872  25.020  1.00  0.00     0.014 A 
ATOM     24  C   UNL A   1      31.052  29.699  24.520  1.00  0.00     0.086 A 
ATOM     25  C   UNL A   1      32.015  28.568  25.554  1.00  0.00     0.008 A 
BRANCH  22  26
ATOM     26  N   UNL A   1      29.263  30.049  22.534  1.00  0.00     0.063 N 
ATOM     27  O   UNL A   1      29.233  30.291  21.318  1.00  0.00    -0.258 OA
ATOM     28  O   UNL A   1      28.669  30.754  23.362  1.00  0.00    -0.258 OA
ENDBRANCH  22  26
ENDBRANCH  16  19
ENDBRANCH  13  15
ENDBRANCH  11  13
ENDBRANCH   6  11
ENDBRANCH   3   5
ENDBRANCH   2   3
ENDBRANCH   1   2
BRANCH   1  29
ATOM     29  C   UNL A   1      38.002  23.410  26.223  1.00  0.00     0.275 C 
BRANCH  29  30
ATOM     30  O   UNL A   1      38.376  24.639  26.876  1.00  0.00    -0.458 OA
BRANCH  30  31
ATOM     31  C   UNL A   1      39.659  24.724  27.277  1.00  0.00     0.338 C 
ATOM     32  O   UNL A   1      40.487  23.869  27.048  1.00  0.00    -0.246 OA
BRANCH  31  33
ATOM     33  C   UNL A   1      39.891  26.028  27.920  1.00  0.00     0.060 A 
ATOM     34  C   UNL A   1      40.389  27.078  27.137  1.00  0.00     0.016 A 
ATOM     35  C   UNL A   1      39.262  26.256  29.149  1.00  0.00     0.016 A 
ATOM     36  C   UNL A   1      40.247  28.380  27.563  1.00  0.00     0.010 A 
ATOM     37  C   UNL A   1      38.927  27.537  29.471  1.00  0.00     0.010 A 
ATOM     38  C   UNL A   1      39.561  28.565  28.749  1.00  0.00    -0.014 A 
BRANCH  38  39
ATOM     39  C   UNL A   1      39.945  29.665  29.604  1.00  0.00     0.031 A 
ATOM     40  C   UNL A   1      39.013  30.837  29.491  1.00  0.00     0.074 A 
ATOM     41  C   UNL A   1      40.852  29.046  30.436  1.00  0.00     0.049 A 
ATOM     42  N   UNL A   1      39.289  32.068  29.754  1.00  0.00    -0.248 NA
ATOM     43  C   UNL A   1      37.679  30.804  28.835  1.00  0.00     0.031 C 
ATOM     44  C   UNL A   1      41.093  28.975  31.873  1.00  0.00     0.029 A 
ATOM     45  N   UNL A   1      41.815  28.104  29.980  1.00  0.00    -0.354 N 
ATOM     46  C   UNL A   1      38.048  32.661  29.979  1.00  0.00     0.074 A 
ATOM     47  C   UNL A   1      37.156  32.012  29.080  1.00  0.00     0.031 C 
ATOM     48  C   UNL A   1      42.279  28.355  32.108  1.00  0.00     0.029 A 
ATOM     49  C   UNL A   1      42.900  28.016  30.833  1.00  0.00     0.049 A 
ATOM     50  H   UNL A   1      41.720  27.577  29.154  1.00  0.00     0.167 HD
ATOM     51  C   UNL A   1      37.803  33.177  31.220  1.00  0.00     0.034 A 
ATOM     52  C   UNL A   1      44.085  28.506  30.355  1.00  0.00     0.034 A 
ATOM     53  C   UNL A   1      38.987  32.870  32.052  1.00  0.00     0.049 A 
ATOM     54  C   UNL A   1      44.147  29.978  30.767  1.00  0.00     0.074 A 
ATOM     55  C   UNL A   1      39.248  31.869  32.972  1.00  0.00     0.029 A 
ATOM     56  N   UNL A   1      40.227  33.331  31.624  1.00  0.00    -0.354 N 
ATOM     57  N   UNL A   1      43.125  30.695  31.153  1.00  0.00    -0.248 NA
ATOM     58  C   UNL A   1      45.395  30.717  30.797  1.00  0.00     0.031 C 
ATOM     59  C   UNL A   1      40.669  31.751  33.086  1.00  0.00     0.029 A 
ATOM     60  C   UNL A   1      41.270  32.606  32.176  1.00  0.00     0.049 A 
ATOM     61  H   UNL A   1      40.349  34.084  31.001  1.00  0.00     0.167 HD
ATOM     62  C   UNL A   1      43.519  31.962  31.447  1.00  0.00     0.074 A 
ATOM     63  C   UNL A   1      44.966  31.902  31.253  1.00  0.00     0.031 C 
ATOM     64  C   UNL A   1      42.645  32.958  31.808  1.00  0.00     0.034 A 
BRANCH  51  65
ATOM     65  C   UNL A   1      36.487  33.658  31.835  1.00  0.00     0.023 A 
ATOM     66  C   UNL A   1      36.368  33.431  33.230  1.00  0.00     0.012 A 
ATOM     67  C   UNL A   1      35.404  34.354  31.231  1.00  0.00     0.148 A 
ATOM     68  C   UNL A   1      35.263  33.827  33.984  1.00  0.00     0.002 A 
ATOM     69  C   UNL A   1      34.289  34.762  31.996  1.00  0.00     0.091 A 
ATOM     70  F   UNL A   1      35.443  34.647  29.926  1.00  0.00    -0.205 F 
ATOM     71  C   UNL A   1      34.222  34.494  33.369  1.00  0.00     0.022 A 
BRANCH  69  72
ATOM     72  S   UNL A   1      32.862  35.659  31.336  1.00  0.00     0.127 S 
ATOM     73  O   UNL A   1      32.607  34.952  30.079  1.00  0.00    -0.237 OA
ATOM     74  O   UNL A   1      31.844  35.436  32.363  1.00  0.00    -0.237 OA
ATOM     75  O   UNL A   1      33.283  37.044  31.175  1.00  0.00    -0.744 OA
ENDBRANCH  69  72
ENDBRANCH  51  65
BRANCH  52  76
ATOM     76  C   UNL A   1      44.380  28.082  28.924  1.00  0.00     0.023 A 
ATOM     77  C   UNL A   1      44.082  28.960  27.844  1.00  0.00     0.012 A 
ATOM     78  C   UNL A   1      45.352  27.104  28.726  1.00  0.00     0.148 A 
ATOM     79  C   UNL A   1      44.920  29.020  26.725  1.00  0.00     0.002 A 
ATOM     80  C   UNL A   1      46.258  27.262  27.702  1.00  0.00     0.091 A 
ATOM     81  F   UNL A   1      45.477  26.081  29.576  1.00  0.00    -0.205 F 
ATOM     82  C   UNL A   1      46.051  28.208  26.691  1.00  0.00     0.022 A 
BRANCH  80  83
ATOM     83  S   UNL A   1      47.878  26.553  27.990  1.00  0.00     0.127 S 
ATOM     84  O   UNL A   1      48.139  27.012  29.350  1.00  0.00    -0.237 OA
ATOM     85  O   UNL A   1      47.628  25.124  27.867  1.00  0.00    -0.237 OA
ATOM     86  O   UNL A   1      48.697  27.176  26.958  1.00  0.00    -0.744 OA
ENDBRANCH  80  83
ENDBRANCH  52  76
BRANCH  64  87
ATOM     87  C   UNL A   1      43.051  34.417  31.897  1.00  0.00     0.023 A 
ATOM     88  C   UNL A   1      43.445  35.142  30.762  1.00  0.00     0.012 A 
ATOM     89  C   UNL A   1      42.985  35.145  33.112  1.00  0.00     0.148 A 
ATOM     90  C   UNL A   1      43.967  36.428  30.852  1.00  0.00     0.002 A 
ATOM     91  C   UNL A   1      43.315  36.489  33.158  1.00  0.00     0.091 A 
ATOM     92  F   UNL A   1      42.649  34.544  34.260  1.00  0.00    -0.205 F 
ATOM     93  C   UNL A   1      43.887  37.111  32.052  1.00  0.00     0.022 A 
BRANCH  91  94
ATOM     94  S   UNL A   1      42.943  37.506  34.588  1.00  0.00     0.127 S 
ATOM     95  O   UNL A   1      44.132  37.300  35.410  1.00  0.00    -0.237 OA
ATOM     96  O   UNL A   1      42.836  38.837  33.988  1.00  0.00    -0.237 OA
ATOM     97  O   UNL A   1      41.696  36.994  35.139  1.00  0.00    -0.744 OA
ENDBRANCH  91  94
ENDBRANCH  64  87
ENDBRANCH  38  39
ENDBRANCH  31  33
ENDBRANCH  30  31
ENDBRANCH  29  30
ENDBRANCH   1  29
TORSDOF 19
ENDMDL
