MODEL 1
REMARK VINA RESULT:     -11.4      0.000      0.000
REMARK SMILES C[C@@H](C(=O)OCCOC(=O)c1ccc(-c2c3nc(c(-c4cccc(S(=O)(=O)[O-])c4F)c4ccc([nH]4)c(-c4cccc(S(=O)(=O)[O-])c4F)c4nc(c(-c5cccc(S(=O)(=O)[O-])c5F)c5ccc2[nH]5)C=C4)C=C3)cc1)c1cccn(C(F)F)c1=O
REMARK SMILES IDX 7 1 6 2 5 3 3 4 4 5 2 6 1 7 74 8 75 9 82 10 76 11 78 12
REMARK SMILES IDX 83 13 77 14 79 15 80 16 81 17 8 18 9 19 10 20 11 21 12 22
REMARK SMILES IDX 73 23 13 24 72 25 14 26 15 27 16 28 66 29 17 30 71 31 65 32
REMARK SMILES IDX 67 33 18 34 70 35 64 36 63 37 19 39 51 40 31 41 50 42 32 43
REMARK SMILES IDX 35 44 49 45 68 46 33 47 34 48 48 50 69 51 36 52 20 53 21 54
REMARK SMILES IDX 29 55 22 56 24 57 30 58 23 59 25 60 26 61 27 62 28 63 52 64
REMARK SMILES IDX 53 65 61 66 54 67 56 68 62 69 55 70 57 71 58 72 59 73 60 74
REMARK SMILES IDX 37 75 38 76 46 77 39 78 41 79 47 80 40 81 42 82 43 83 44 84
REMARK SMILES IDX 45 85
REMARK H PARENT 67 38 35 49
REMARK Flexibility Score: inf
ROOT
ATOM      1  C   UNL A   1      36.740  20.019  24.997  1.00  0.00     0.275 C 
ENDROOT
BRANCH   1   2
ATOM      2  C   UNL A   1      35.243  20.365  24.986  1.00  0.00     0.274 C 
BRANCH   2   3
ATOM      3  O   UNL A   1      34.973  21.781  25.010  1.00  0.00    -0.462 OA
BRANCH   3   4
ATOM      4  C   UNL A   1      34.122  22.236  24.042  1.00  0.00     0.313 C 
ATOM      5  O   UNL A   1      33.025  21.735  23.831  1.00  0.00    -0.252 OA
BRANCH   4   6
ATOM      6  C   UNL A   1      34.737  23.421  23.263  1.00  0.00     0.132 C 
ATOM      7  C   UNL A   1      36.260  23.244  23.206  1.00  0.00     0.025 C 
BRANCH   6   8
ATOM      8  C   UNL A   1      34.317  24.752  23.874  1.00  0.00     0.032 A 
ATOM      9  C   UNL A   1      34.408  25.120  25.169  1.00  0.00     0.012 A 
ATOM     10  C   UNL A   1      33.634  25.717  22.938  1.00  0.00     0.259 A 
ATOM     11  C   UNL A   1      33.750  26.304  25.669  1.00  0.00     0.019 A 
ATOM     12  N   UNL A   1      32.772  26.601  23.548  1.00  0.00    -0.258 N 
ATOM     13  O   UNL A   1      33.823  25.646  21.726  1.00  0.00    -0.269 OA
ATOM     14  C   UNL A   1      32.890  26.952  24.878  1.00  0.00     0.095 A 
BRANCH  12  15
ATOM     15  C   UNL A   1      31.720  27.158  22.749  1.00  0.00     0.451 C 
ATOM     16  F   UNL A   1      30.580  27.103  23.473  1.00  0.00    -0.185 F 
ATOM     17  F   UNL A   1      31.958  28.469  22.508  1.00  0.00    -0.185 F 
ENDBRANCH  12  15
ENDBRANCH   6   8
ENDBRANCH   4   6
ENDBRANCH   3   4
ENDBRANCH   2   3
ENDBRANCH   1   2
BRANCH   1  18
ATOM     18  O   UNL A   1      37.571  21.143  25.348  1.00  0.00    -0.458 OA
BRANCH  18  19
ATOM     19  C   UNL A   1      38.793  20.832  25.848  1.00  0.00     0.338 C 
ATOM     20  O   UNL A   1      39.355  19.748  25.750  1.00  0.00    -0.246 OA
BRANCH  19  21
ATOM     21  C   UNL A   1      39.465  22.040  26.378  1.00  0.00     0.060 A 
ATOM     22  C   UNL A   1      38.942  23.280  25.994  1.00  0.00     0.016 A 
ATOM     23  C   UNL A   1      40.580  21.988  27.221  1.00  0.00     0.016 A 
ATOM     24  C   UNL A   1      39.503  24.461  26.472  1.00  0.00     0.010 A 
ATOM     25  C   UNL A   1      41.167  23.183  27.672  1.00  0.00     0.010 A 
ATOM     26  C   UNL A   1      40.630  24.427  27.305  1.00  0.00    -0.014 A 
BRANCH  26  27
ATOM     27  C   UNL A   1      41.255  25.717  27.696  1.00  0.00     0.031 A 
ATOM     28  C   UNL A   1      42.586  26.090  27.115  1.00  0.00     0.074 A 
ATOM     29  C   UNL A   1      40.606  26.591  28.489  1.00  0.00     0.049 A 
ATOM     30  N   UNL A   1      43.262  27.199  27.250  1.00  0.00    -0.248 NA
ATOM     31  C   UNL A   1      43.248  25.072  26.287  1.00  0.00     0.031 C 
ATOM     32  C   UNL A   1      39.313  26.346  29.113  1.00  0.00     0.029 A 
ATOM     33  N   UNL A   1      40.916  27.879  28.859  1.00  0.00    -0.354 N 
ATOM     34  C   UNL A   1      44.465  26.987  26.592  1.00  0.00     0.074 A 
ATOM     35  C   UNL A   1      44.397  25.667  26.000  1.00  0.00     0.031 C 
ATOM     36  C   UNL A   1      38.881  27.479  29.689  1.00  0.00     0.029 A 
ATOM     37  C   UNL A   1      39.912  28.507  29.565  1.00  0.00     0.049 A 
ATOM     38  H   UNL A   1      41.773  28.312  28.641  1.00  0.00     0.167 HD
ATOM     39  C   UNL A   1      45.546  27.799  26.529  1.00  0.00     0.034 A 
ATOM     40  C   UNL A   1      39.837  29.760  30.061  1.00  0.00     0.034 A 
ATOM     41  C   UNL A   1      45.621  29.102  27.135  1.00  0.00     0.049 A 
ATOM     42  C   UNL A   1      41.041  30.659  29.934  1.00  0.00     0.074 A 
ATOM     43  C   UNL A   1      46.688  29.983  27.143  1.00  0.00     0.029 A 
ATOM     44  N   UNL A   1      44.602  29.702  27.857  1.00  0.00    -0.354 N 
ATOM     45  N   UNL A   1      42.155  30.464  29.272  1.00  0.00    -0.248 NA
ATOM     46  C   UNL A   1      40.989  31.942  30.653  1.00  0.00     0.031 C 
ATOM     47  C   UNL A   1      46.327  31.099  27.905  1.00  0.00     0.029 A 
ATOM     48  C   UNL A   1      45.018  30.936  28.327  1.00  0.00     0.049 A 
ATOM     49  H   UNL A   1      43.713  29.308  28.014  1.00  0.00     0.167 HD
ATOM     50  C   UNL A   1      42.937  31.590  29.500  1.00  0.00     0.074 A 
ATOM     51  C   UNL A   1      42.149  32.491  30.315  1.00  0.00     0.031 C 
ATOM     52  C   UNL A   1      44.209  31.841  29.104  1.00  0.00     0.034 A 
BRANCH  39  53
ATOM     53  C   UNL A   1      46.769  27.261  25.838  1.00  0.00     0.023 A 
ATOM     54  C   UNL A   1      47.624  26.358  26.498  1.00  0.00     0.012 A 
ATOM     55  C   UNL A   1      47.053  27.644  24.512  1.00  0.00     0.148 A 
ATOM     56  C   UNL A   1      48.764  25.871  25.860  1.00  0.00     0.002 A 
ATOM     57  C   UNL A   1      48.163  27.119  23.866  1.00  0.00     0.091 A 
ATOM     58  F   UNL A   1      46.238  28.526  23.914  1.00  0.00    -0.205 F 
ATOM     59  C   UNL A   1      49.027  26.243  24.543  1.00  0.00     0.022 A 
BRANCH  57  60
ATOM     60  S   UNL A   1      48.544  27.478  22.149  1.00  0.00     0.127 S 
ATOM     61  O   UNL A   1      48.759  26.136  21.609  1.00  0.00    -0.237 OA
ATOM     62  O   UNL A   1      47.316  28.130  21.694  1.00  0.00    -0.237 OA
ATOM     63  O   UNL A   1      49.719  28.337  22.167  1.00  0.00    -0.744 OA
ENDBRANCH  57  60
ENDBRANCH  39  53
BRANCH  40  64
ATOM     64  C   UNL A   1      38.602  30.250  30.748  1.00  0.00     0.023 A 
ATOM     65  C   UNL A   1      38.422  30.007  32.127  1.00  0.00     0.012 A 
ATOM     66  C   UNL A   1      37.591  30.934  30.047  1.00  0.00     0.148 A 
ATOM     67  C   UNL A   1      37.253  30.405  32.779  1.00  0.00     0.002 A 
ATOM     68  C   UNL A   1      36.467  31.400  30.719  1.00  0.00     0.091 A 
ATOM     69  F   UNL A   1      37.740  31.113  28.727  1.00  0.00    -0.205 F 
ATOM     70  C   UNL A   1      36.282  31.116  32.079  1.00  0.00     0.022 A 
BRANCH  68  71
ATOM     71  S   UNL A   1      35.257  32.461  29.920  1.00  0.00     0.127 S 
ATOM     72  O   UNL A   1      36.080  33.593  29.503  1.00  0.00    -0.237 OA
ATOM     73  O   UNL A   1      34.779  31.610  28.830  1.00  0.00    -0.237 OA
ATOM     74  O   UNL A   1      34.254  32.743  30.939  1.00  0.00    -0.744 OA
ENDBRANCH  68  71
ENDBRANCH  40  64
BRANCH  52  75
ATOM     75  C   UNL A   1      44.831  33.149  29.523  1.00  0.00     0.023 A 
ATOM     76  C   UNL A   1      45.601  33.219  30.701  1.00  0.00     0.012 A 
ATOM     77  C   UNL A   1      44.713  34.289  28.706  1.00  0.00     0.148 A 
ATOM     78  C   UNL A   1      46.218  34.414  31.075  1.00  0.00     0.002 A 
ATOM     79  C   UNL A   1      45.374  35.461  29.056  1.00  0.00     0.091 A 
ATOM     80  F   UNL A   1      43.962  34.207  27.598  1.00  0.00    -0.205 F 
ATOM     81  C   UNL A   1      46.114  35.529  30.247  1.00  0.00     0.022 A 
BRANCH  79  82
ATOM     82  S   UNL A   1      45.379  36.916  28.003  1.00  0.00     0.127 S 
ATOM     83  O   UNL A   1      46.316  37.790  28.707  1.00  0.00    -0.237 OA
ATOM     84  O   UNL A   1      45.877  36.379  26.737  1.00  0.00    -0.237 OA
ATOM     85  O   UNL A   1      44.001  37.388  27.961  1.00  0.00    -0.744 OA
ENDBRANCH  79  82
ENDBRANCH  52  75
ENDBRANCH  26  27
ENDBRANCH  19  21
ENDBRANCH  18  19
ENDBRANCH   1  18
TORSDOF 16
ENDMDL
MODEL 2
REMARK VINA RESULT:     -11.4      2.218      2.892
REMARK SMILES C[C@@H](C(=O)OCCOC(=O)c1ccc(-c2c3nc(c(-c4cccc(S(=O)(=O)[O-])c4F)c4ccc([nH]4)c(-c4cccc(S(=O)(=O)[O-])c4F)c4nc(c(-c5cccc(S(=O)(=O)[O-])c5F)c5ccc2[nH]5)C=C4)C=C3)cc1)c1cccn(C(F)F)c1=O
REMARK SMILES IDX 7 1 6 2 5 3 3 4 4 5 2 6 1 7 74 8 75 9 82 10 76 11 78 12
REMARK SMILES IDX 83 13 77 14 79 15 80 16 81 17 8 18 9 19 10 20 11 21 12 22
REMARK SMILES IDX 73 23 13 24 72 25 14 26 15 27 16 28 66 29 17 30 71 31 65 32
REMARK SMILES IDX 67 33 18 34 70 35 64 36 63 37 19 39 51 40 31 41 50 42 32 43
REMARK SMILES IDX 35 44 49 45 68 46 33 47 34 48 48 50 69 51 36 52 20 53 21 54
REMARK SMILES IDX 29 55 22 56 24 57 30 58 23 59 25 60 26 61 27 62 28 63 52 64
REMARK SMILES IDX 53 65 61 66 54 67 56 68 62 69 55 70 57 71 58 72 59 73 60 74
REMARK SMILES IDX 37 75 38 76 46 77 39 78 41 79 47 80 40 81 42 82 43 83 44 84
REMARK SMILES IDX 45 85
REMARK H PARENT 67 38 35 49
REMARK Flexibility Score: inf
ROOT
ATOM      1  C   UNL A   1      36.650  21.380  24.446  1.00  0.00     0.275 C 
ENDROOT
BRANCH   1   2
ATOM      2  C   UNL A   1      36.595  22.578  23.485  1.00  0.00     0.274 C 
BRANCH   2   3
ATOM      3  O   UNL A   1      35.937  23.736  24.037  1.00  0.00    -0.462 OA
BRANCH   3   4
ATOM      4  C   UNL A   1      34.683  23.986  23.555  1.00  0.00     0.313 C 
ATOM      5  O   UNL A   1      34.404  23.935  22.364  1.00  0.00    -0.252 OA
BRANCH   4   6
ATOM      6  C   UNL A   1      33.705  24.355  24.695  1.00  0.00     0.132 C 
ATOM      7  C   UNL A   1      34.197  25.638  25.379  1.00  0.00     0.025 C 
BRANCH   6   8
ATOM      8  C   UNL A   1      33.535  23.192  25.666  1.00  0.00     0.032 A 
ATOM      9  C   UNL A   1      34.065  23.079  26.901  1.00  0.00     0.012 A 
ATOM     10  C   UNL A   1      32.774  22.003  25.137  1.00  0.00     0.259 A 
ATOM     11  C   UNL A   1      34.041  21.828  27.624  1.00  0.00     0.019 A 
ATOM     12  N   UNL A   1      33.101  20.801  25.725  1.00  0.00    -0.258 N 
ATOM     13  O   UNL A   1      31.973  22.137  24.216  1.00  0.00    -0.269 OA
ATOM     14  C   UNL A   1      33.648  20.720  26.989  1.00  0.00     0.095 A 
BRANCH  12  15
ATOM     15  C   UNL A   1      32.859  19.607  24.969  1.00  0.00     0.451 C 
ATOM     16  F   UNL A   1      34.017  19.260  24.364  1.00  0.00    -0.185 F 
ATOM     17  F   UNL A   1      32.538  18.585  25.797  1.00  0.00    -0.185 F 
ENDBRANCH  12  15
ENDBRANCH   6   8
ENDBRANCH   4   6
ENDBRANCH   3   4
ENDBRANCH   2   3
ENDBRANCH   1   2
BRANCH   1  18
ATOM     18  O   UNL A   1      37.150  21.732  25.751  1.00  0.00    -0.458 OA
BRANCH  18  19
ATOM     19  C   UNL A   1      38.459  21.453  25.969  1.00  0.00     0.338 C 
ATOM     20  O   UNL A   1      39.040  20.426  25.640  1.00  0.00    -0.246 OA
BRANCH  19  21
ATOM     21  C   UNL A   1      39.166  22.642  26.500  1.00  0.00     0.060 A 
ATOM     22  C   UNL A   1      38.642  23.895  26.168  1.00  0.00     0.016 A 
ATOM     23  C   UNL A   1      40.314  22.557  27.294  1.00  0.00     0.016 A 
ATOM     24  C   UNL A   1      39.236  25.058  26.650  1.00  0.00     0.010 A 
ATOM     25  C   UNL A   1      40.933  23.734  27.750  1.00  0.00     0.010 A 
ATOM     26  C   UNL A   1      40.395  24.992  27.434  1.00  0.00    -0.014 A 
BRANCH  26  27
ATOM     27  C   UNL A   1      41.050  26.267  27.830  1.00  0.00     0.031 A 
ATOM     28  C   UNL A   1      42.377  26.623  27.229  1.00  0.00     0.074 A 
ATOM     29  C   UNL A   1      40.432  27.142  28.646  1.00  0.00     0.049 A 
ATOM     30  N   UNL A   1      43.076  27.718  27.365  1.00  0.00    -0.248 NA
ATOM     31  C   UNL A   1      43.005  25.604  26.376  1.00  0.00     0.031 C 
ATOM     32  C   UNL A   1      39.146  26.912  29.291  1.00  0.00     0.029 A 
ATOM     33  N   UNL A   1      40.772  28.419  29.026  1.00  0.00    -0.354 N 
ATOM     34  C   UNL A   1      44.262  27.494  26.682  1.00  0.00     0.074 A 
ATOM     35  C   UNL A   1      44.159  26.183  26.076  1.00  0.00     0.031 C 
ATOM     36  C   UNL A   1      38.746  28.045  29.889  1.00  0.00     0.029 A 
ATOM     37  C   UNL A   1      39.793  29.056  29.759  1.00  0.00     0.049 A 
ATOM     38  H   UNL A   1      41.632  28.839  28.798  1.00  0.00     0.167 HD
ATOM     39  C   UNL A   1      45.356  28.287  26.609  1.00  0.00     0.034 A 
ATOM     40  C   UNL A   1      39.749  30.303  30.271  1.00  0.00     0.034 A 
ATOM     41  C   UNL A   1      45.465  29.580  27.231  1.00  0.00     0.049 A 
ATOM     42  C   UNL A   1      40.966  31.182  30.134  1.00  0.00     0.074 A 
ATOM     43  C   UNL A   1      46.548  30.443  27.230  1.00  0.00     0.029 A 
ATOM     44  N   UNL A   1      44.471  30.189  27.979  1.00  0.00    -0.354 N 
ATOM     45  N   UNL A   1      42.064  30.976  29.448  1.00  0.00    -0.248 NA
ATOM     46  C   UNL A   1      40.951  32.457  30.869  1.00  0.00     0.031 C 
ATOM     47  C   UNL A   1      46.222  31.554  28.012  1.00  0.00     0.029 A 
ATOM     48  C   UNL A   1      44.918  31.410  28.457  1.00  0.00     0.049 A 
ATOM     49  H   UNL A   1      43.578  29.809  28.147  1.00  0.00     0.167 HD
ATOM     50  C   UNL A   1      42.871  32.085  29.676  1.00  0.00     0.074 A 
ATOM     51  C   UNL A   1      42.114  32.989  30.516  1.00  0.00     0.031 C 
ATOM     52  C   UNL A   1      44.140  32.318  29.260  1.00  0.00     0.034 A 
BRANCH  39  53
ATOM     53  C   UNL A   1      46.556  27.737  25.889  1.00  0.00     0.023 A 
ATOM     54  C   UNL A   1      46.732  27.969  24.511  1.00  0.00     0.012 A 
ATOM     55  C   UNL A   1      47.527  27.002  26.599  1.00  0.00     0.148 A 
ATOM     56  C   UNL A   1      47.838  27.448  23.843  1.00  0.00     0.002 A 
ATOM     57  C   UNL A   1      48.650  26.526  25.937  1.00  0.00     0.091 A 
ATOM     58  F   UNL A   1      47.325  26.771  27.904  1.00  0.00    -0.205 F 
ATOM     59  C   UNL A   1      48.801  26.736  24.557  1.00  0.00     0.022 A 
BRANCH  57  60
ATOM     60  S   UNL A   1      49.979  25.666  26.783  1.00  0.00     0.127 S 
ATOM     61  O   UNL A   1      50.324  26.620  27.837  1.00  0.00    -0.237 OA
ATOM     62  O   UNL A   1      49.307  24.454  27.253  1.00  0.00    -0.237 OA
ATOM     63  O   UNL A   1      51.014  25.441  25.785  1.00  0.00    -0.744 OA
ENDBRANCH  57  60
ENDBRANCH  39  53
BRANCH  40  64
ATOM     64  C   UNL A   1      38.535  30.807  30.988  1.00  0.00     0.023 A 
ATOM     65  C   UNL A   1      38.441  30.670  32.389  1.00  0.00     0.012 A 
ATOM     66  C   UNL A   1      37.463  31.396  30.294  1.00  0.00     0.148 A 
ATOM     67  C   UNL A   1      37.295  31.081  33.074  1.00  0.00     0.002 A 
ATOM     68  C   UNL A   1      36.360  31.878  30.990  1.00  0.00     0.091 A 
ATOM     69  F   UNL A   1      37.532  31.472  28.957  1.00  0.00    -0.205 F 
ATOM     70  C   UNL A   1      36.262  31.700  32.377  1.00  0.00     0.022 A 
BRANCH  68  71
ATOM     71  S   UNL A   1      35.069  32.829  30.180  1.00  0.00     0.127 S 
ATOM     72  O   UNL A   1      34.171  33.124  31.292  1.00  0.00    -0.237 OA
ATOM     73  O   UNL A   1      35.814  33.979  29.666  1.00  0.00    -0.237 OA
ATOM     74  O   UNL A   1      34.535  31.955  29.144  1.00  0.00    -0.744 OA
ENDBRANCH  68  71
ENDBRANCH  40  64
BRANCH  52  75
ATOM     75  C   UNL A   1      44.792  33.610  29.683  1.00  0.00     0.023 A 
ATOM     76  C   UNL A   1      45.580  33.653  30.851  1.00  0.00     0.012 A 
ATOM     77  C   UNL A   1      44.686  34.760  28.879  1.00  0.00     0.148 A 
ATOM     78  C   UNL A   1      46.225  34.831  31.229  1.00  0.00     0.002 A 
ATOM     79  C   UNL A   1      45.374  35.915  29.232  1.00  0.00     0.091 A 
ATOM     80  F   UNL A   1      43.918  34.704  27.781  1.00  0.00    -0.205 F 
ATOM     81  C   UNL A   1      46.132  35.957  30.413  1.00  0.00     0.022 A 
BRANCH  79  82
ATOM     82  S   UNL A   1      45.393  37.381  28.194  1.00  0.00     0.127 S 
ATOM     83  O   UNL A   1      45.932  36.852  26.942  1.00  0.00    -0.237 OA
ATOM     84  O   UNL A   1      43.977  37.743  28.144  1.00  0.00    -0.237 OA
ATOM     85  O   UNL A   1      46.242  38.348  28.878  1.00  0.00    -0.744 OA
ENDBRANCH  79  82
ENDBRANCH  52  75
ENDBRANCH  26  27
ENDBRANCH  19  21
ENDBRANCH  18  19
ENDBRANCH   1  18
TORSDOF 16
ENDMDL
MODEL 3
REMARK VINA RESULT:     -11.2      1.361      7.884
REMARK SMILES C[C@@H](C(=O)OCCOC(=O)c1ccc(-c2c3nc(c(-c4cccc(S(=O)(=O)[O-])c4F)c4ccc([nH]4)c(-c4cccc(S(=O)(=O)[O-])c4F)c4nc(c(-c5cccc(S(=O)(=O)[O-])c5F)c5ccc2[nH]5)C=C4)C=C3)cc1)c1cccn(C(F)F)c1=O
REMARK SMILES IDX 7 1 6 2 5 3 3 4 4 5 2 6 1 7 74 8 75 9 82 10 76 11 78 12
REMARK SMILES IDX 83 13 77 14 79 15 80 16 81 17 8 18 9 19 10 20 11 21 12 22
REMARK SMILES IDX 73 23 13 24 72 25 14 26 15 27 16 28 66 29 17 30 71 31 65 32
REMARK SMILES IDX 67 33 18 34 70 35 64 36 63 37 19 39 51 40 31 41 50 42 32 43
REMARK SMILES IDX 35 44 49 45 68 46 33 47 34 48 48 50 69 51 36 52 20 53 21 54
REMARK SMILES IDX 29 55 22 56 24 57 30 58 23 59 25 60 26 61 27 62 28 63 52 64
REMARK SMILES IDX 53 65 61 66 54 67 56 68 62 69 55 70 57 71 58 72 59 73 60 74
REMARK SMILES IDX 37 75 38 76 46 77 39 78 41 79 47 80 40 81 42 82 43 83 44 84
REMARK SMILES IDX 45 85
REMARK H PARENT 67 38 35 49
REMARK Flexibility Score: inf
ROOT
ATOM      1  C   UNL A   1      36.447  20.057  25.001  1.00  0.00     0.275 C 
ENDROOT
BRANCH   1   2
ATOM      2  C   UNL A   1      34.950  20.401  24.992  1.00  0.00     0.274 C 
BRANCH   2   3
ATOM      3  O   UNL A   1      34.679  21.817  24.944  1.00  0.00    -0.462 OA
BRANCH   3   4
ATOM      4  C   UNL A   1      33.933  22.238  23.879  1.00  0.00     0.313 C 
ATOM      5  O   UNL A   1      32.861  21.731  23.574  1.00  0.00    -0.252 OA
BRANCH   4   6
ATOM      6  C   UNL A   1      34.628  23.396  23.128  1.00  0.00     0.132 C 
ATOM      7  C   UNL A   1      36.148  23.191  23.192  1.00  0.00     0.025 C 
BRANCH   6   8
ATOM      8  C   UNL A   1      34.188  24.747  23.679  1.00  0.00     0.032 A 
ATOM      9  C   UNL A   1      34.291  25.180  24.952  1.00  0.00     0.012 A 
ATOM     10  C   UNL A   1      33.470  25.649  22.707  1.00  0.00     0.259 A 
ATOM     11  C   UNL A   1      33.615  26.374  25.403  1.00  0.00     0.019 A 
ATOM     12  N   UNL A   1      32.597  26.544  23.287  1.00  0.00    -0.258 N 
ATOM     13  O   UNL A   1      33.641  25.521  21.497  1.00  0.00    -0.269 OA
ATOM     14  C   UNL A   1      32.728  26.962  24.595  1.00  0.00     0.095 A 
BRANCH  12  15
ATOM     15  C   UNL A   1      31.522  27.037  22.478  1.00  0.00     0.451 C 
ATOM     16  F   UNL A   1      30.378  26.471  22.925  1.00  0.00    -0.185 F 
ATOM     17  F   UNL A   1      31.380  28.373  22.650  1.00  0.00    -0.185 F 
ENDBRANCH  12  15
ENDBRANCH   6   8
ENDBRANCH   4   6
ENDBRANCH   3   4
ENDBRANCH   2   3
ENDBRANCH   1   2
BRANCH   1  18
ATOM     18  O   UNL A   1      37.275  21.174  25.380  1.00  0.00    -0.458 OA
BRANCH  18  19
ATOM     19  C   UNL A   1      38.536  20.861  25.769  1.00  0.00     0.338 C 
ATOM     20  O   UNL A   1      39.070  19.764  25.662  1.00  0.00    -0.246 OA
BRANCH  19  21
ATOM     21  C   UNL A   1      39.275  22.078  26.180  1.00  0.00     0.060 A 
ATOM     22  C   UNL A   1      38.728  23.310  25.807  1.00  0.00     0.016 A 
ATOM     23  C   UNL A   1      40.471  22.038  26.902  1.00  0.00     0.016 A 
ATOM     24  C   UNL A   1      39.351  24.499  26.179  1.00  0.00     0.010 A 
ATOM     25  C   UNL A   1      41.117  23.239  27.244  1.00  0.00     0.010 A 
ATOM     26  C   UNL A   1      40.559  24.477  26.889  1.00  0.00    -0.014 A 
BRANCH  26  27
ATOM     27  C   UNL A   1      41.237  25.771  27.164  1.00  0.00     0.031 A 
ATOM     28  C   UNL A   1      40.594  26.747  28.103  1.00  0.00     0.074 A 
ATOM     29  C   UNL A   1      42.455  26.039  26.657  1.00  0.00     0.049 A 
ATOM     30  N   UNL A   1      41.053  27.886  28.550  1.00  0.00    -0.248 NA
ATOM     31  C   UNL A   1      39.250  26.402  28.589  1.00  0.00     0.031 C 
ATOM     32  C   UNL A   1      43.181  25.173  25.737  1.00  0.00     0.029 A 
ATOM     33  N   UNL A   1      43.321  27.082  26.887  1.00  0.00    -0.354 N 
ATOM     34  C   UNL A   1      40.027  28.434  29.305  1.00  0.00     0.074 A 
ATOM     35  C   UNL A   1      38.945  27.471  29.312  1.00  0.00     0.031 C 
ATOM     36  C   UNL A   1      44.424  25.654  25.570  1.00  0.00     0.029 A 
ATOM     37  C   UNL A   1      44.553  26.918  26.290  1.00  0.00     0.049 A 
ATOM     38  H   UNL A   1      43.085  27.871  27.425  1.00  0.00     0.167 HD
ATOM     39  C   UNL A   1      39.972  29.650  29.896  1.00  0.00     0.034 A 
ATOM     40  C   UNL A   1      45.653  27.700  26.314  1.00  0.00     0.034 A 
ATOM     41  C   UNL A   1      41.039  30.615  29.871  1.00  0.00     0.049 A 
ATOM     42  C   UNL A   1      45.578  29.029  27.021  1.00  0.00     0.074 A 
ATOM     43  C   UNL A   1      41.060  31.884  30.423  1.00  0.00     0.029 A 
ATOM     44  N   UNL A   1      42.261  30.432  29.246  1.00  0.00    -0.354 N 
ATOM     45  N   UNL A   1      44.617  29.516  27.769  1.00  0.00    -0.248 NA
ATOM     46  C   UNL A   1      46.728  29.933  26.862  1.00  0.00     0.031 C 
ATOM     47  C   UNL A   1      42.280  32.483  30.096  1.00  0.00     0.029 A 
ATOM     48  C   UNL A   1      43.040  31.568  29.386  1.00  0.00     0.049 A 
ATOM     49  H   UNL A   1      42.536  29.614  28.771  1.00  0.00     0.167 HD
ATOM     50  C   UNL A   1      45.042  30.782  28.160  1.00  0.00     0.074 A 
ATOM     51  C   UNL A   1      46.371  30.965  27.615  1.00  0.00     0.031 C 
ATOM     52  C   UNL A   1      44.377  31.723  28.873  1.00  0.00     0.034 A 
BRANCH  39  53
ATOM     53  C   UNL A   1      38.678  30.033  30.559  1.00  0.00     0.023 A 
ATOM     54  C   UNL A   1      38.390  29.601  31.869  1.00  0.00     0.012 A 
ATOM     55  C   UNL A   1      37.753  30.849  29.878  1.00  0.00     0.148 A 
ATOM     56  C   UNL A   1      37.184  29.947  32.477  1.00  0.00     0.002 A 
ATOM     57  C   UNL A   1      36.576  31.229  30.507  1.00  0.00     0.091 A 
ATOM     58  F   UNL A   1      38.037  31.226  28.623  1.00  0.00    -0.205 F 
ATOM     59  C   UNL A   1      36.283  30.768  31.801  1.00  0.00     0.022 A 
BRANCH  57  60
ATOM     60  S   UNL A   1      35.390  32.343  29.748  1.00  0.00     0.127 S 
ATOM     61  O   UNL A   1      36.246  33.463  29.358  1.00  0.00    -0.237 OA
ATOM     62  O   UNL A   1      34.888  31.541  28.633  1.00  0.00    -0.237 OA
ATOM     63  O   UNL A   1      34.403  32.643  30.776  1.00  0.00    -0.744 OA
ENDBRANCH  57  60
ENDBRANCH  39  53
BRANCH  40  64
ATOM     64  C   UNL A   1      46.918  27.282  25.633  1.00  0.00     0.023 A 
ATOM     65  C   UNL A   1      47.081  27.514  24.251  1.00  0.00     0.012 A 
ATOM     66  C   UNL A   1      47.952  26.633  26.334  1.00  0.00     0.148 A 
ATOM     67  C   UNL A   1      48.229  27.083  23.581  1.00  0.00     0.002 A 
ATOM     68  C   UNL A   1      49.126  26.281  25.679  1.00  0.00     0.091 A 
ATOM     69  F   UNL A   1      47.769  26.363  27.634  1.00  0.00    -0.205 F 
ATOM     70  C   UNL A   1      49.259  26.482  24.299  1.00  0.00     0.022 A 
BRANCH  68  71
ATOM     71  S   UNL A   1      50.555  25.651  26.569  1.00  0.00     0.127 S 
ATOM     72  O   UNL A   1      51.511  25.435  25.487  1.00  0.00    -0.237 OA
ATOM     73  O   UNL A   1      50.874  26.766  27.462  1.00  0.00    -0.237 OA
ATOM     74  O   UNL A   1      50.087  24.454  27.256  1.00  0.00    -0.744 OA
ENDBRANCH  68  71
ENDBRANCH  40  64
BRANCH  52  75
ATOM     75  C   UNL A   1      45.077  33.034  29.129  1.00  0.00     0.023 A 
ATOM     76  C   UNL A   1      45.893  33.187  30.268  1.00  0.00     0.012 A 
ATOM     77  C   UNL A   1      44.984  34.087  28.199  1.00  0.00     0.148 A 
ATOM     78  C   UNL A   1      46.581  34.380  30.492  1.00  0.00     0.002 A 
ATOM     79  C   UNL A   1      45.713  35.253  28.402  1.00  0.00     0.091 A 
ATOM     80  F   UNL A   1      44.188  33.928  27.132  1.00  0.00    -0.205 F 
ATOM     81  C   UNL A   1      46.500  35.407  29.553  1.00  0.00     0.022 A 
BRANCH  79  82
ATOM     82  S   UNL A   1      45.749  36.587  27.200  1.00  0.00     0.127 S 
ATOM     83  O   UNL A   1      46.198  35.891  25.995  1.00  0.00    -0.237 OA
ATOM     84  O   UNL A   1      44.351  37.016  27.172  1.00  0.00    -0.237 OA
ATOM     85  O   UNL A   1      46.677  37.580  27.727  1.00  0.00    -0.744 OA
ENDBRANCH  79  82
ENDBRANCH  52  75
ENDBRANCH  26  27
ENDBRANCH  19  21
ENDBRANCH  18  19
ENDBRANCH   1  18
TORSDOF 16
ENDMDL
