MODEL 1
REMARK VINA RESULT:     -11.3      0.000      0.000
REMARK SMILES C[C@@H]1CCC[C@H]1NC(=O)c1csc(/C=C/C(=O)OCCOC(=O)c2ccc(-c3c4nc(c(-c5cccc(S(=O)(=O)[O-])c5F)c5ccc([nH]5)c(-c5cccc(S(=O)(=O)[O-])c5F)c5nc(c(-c6cccc(S(=O)(=O)[O-])c6F)c6ccc3[nH]6)C=C5)C=C4)cc2)c1
REMARK SMILES IDX 19 1 18 2 16 3 17 4 15 5 14 6 13 7 10 8 11 9 87 10 12 11
REMARK SMILES IDX 8 12 7 13 9 15 6 16 1 17 2 18 3 19 4 20 5 21 20 22 21 23
REMARK SMILES IDX 22 24 23 25 24 26 25 27 86 28 26 29 85 30 27 31 28 32 29 33
REMARK SMILES IDX 79 34 30 35 84 36 78 37 80 38 31 39 83 40 77 41 76 42 32 44
REMARK SMILES IDX 64 45 44 46 63 47 45 48 48 49 62 50 81 51 46 52 47 53 61 55
REMARK SMILES IDX 82 56 49 57 33 58 34 59 42 60 35 61 37 62 43 63 36 64 38 65
REMARK SMILES IDX 39 66 40 67 41 68 65 69 66 70 74 71 67 72 69 73 75 74 68 75
REMARK SMILES IDX 70 76 71 77 72 78 73 79 50 80 51 81 59 82 52 83 54 84 60 85
REMARK SMILES IDX 53 86 55 87 56 88 57 89 58 90
REMARK H PARENT 7 14 80 43 48 54
REMARK Flexibility Score: inf
ROOT
ATOM      1  C   UNL A   1      31.699  28.181  25.770  1.00  0.00     0.275 C 
ENDROOT
BRANCH   1   2
ATOM      2  O   UNL A   1      31.734  27.634  24.439  1.00  0.00    -0.459 OA
BRANCH   2   3
ATOM      3  C   UNL A   1      32.931  27.133  24.048  1.00  0.00     0.330 C 
ATOM      4  O   UNL A   1      33.715  27.664  23.275  1.00  0.00    -0.247 OA
BRANCH   3   5
ATOM      5  C   UNL A   1      33.260  25.852  24.701  1.00  0.00     0.095 C 
ATOM      6  C   UNL A   1      34.054  24.896  24.195  1.00  0.00     0.026 C 
BRANCH   6   7
ATOM      7  C   UNL A   1      34.295  23.661  24.875  1.00  0.00     0.028 A 
ATOM      8  C   UNL A   1      35.024  21.444  25.322  1.00  0.00     0.051 A 
ATOM      9  C   UNL A   1      34.419  21.796  26.512  1.00  0.00     0.079 A 
ATOM     10  C   UNL A   1      34.965  22.546  24.396  1.00  0.00     0.033 A 
ATOM     11  S   UNL A   1      33.706  23.343  26.463  1.00  0.00    -0.144 S 
BRANCH   8  12
ATOM     12  C   UNL A   1      35.732  20.195  25.063  1.00  0.00     0.252 C 
ATOM     13  N   UNL A   1      35.045  19.044  24.763  1.00  0.00    -0.349 N 
ATOM     14  H   UNL A   1      35.582  18.221  24.816  1.00  0.00     0.164 HD
ATOM     15  O   UNL A   1      36.960  20.139  25.092  1.00  0.00    -0.269 OA
BRANCH  13  16
ATOM     16  C   UNL A   1      33.651  18.838  24.375  1.00  0.00     0.085 C 
ATOM     17  C   UNL A   1      32.251  17.904  22.473  1.00  0.00     0.010 C 
ATOM     18  C   UNL A   1      33.548  17.771  23.271  1.00  0.00     0.008 C 
ATOM     19  C   UNL A   1      33.599  16.455  24.048  1.00  0.00     0.005 C 
ATOM     20  C   UNL A   1      32.871  16.730  25.359  1.00  0.00     0.002 C 
ATOM     21  C   UNL A   1      32.857  18.249  25.545  1.00  0.00     0.025 C 
ENDBRANCH  13  16
ENDBRANCH   8  12
ENDBRANCH   6   7
ENDBRANCH   3   5
ENDBRANCH   2   3
ENDBRANCH   1   2
BRANCH   1  22
ATOM     22  C   UNL A   1      31.644  29.711  25.748  1.00  0.00     0.275 C 
BRANCH  22  23
ATOM     23  O   UNL A   1      32.953  30.305  25.803  1.00  0.00    -0.458 OA
BRANCH  23  24
ATOM     24  C   UNL A   1      33.139  31.208  26.798  1.00  0.00     0.338 C 
ATOM     25  O   UNL A   1      32.353  32.064  27.167  1.00  0.00    -0.246 OA
BRANCH  24  26
ATOM     26  C   UNL A   1      34.418  30.939  27.481  1.00  0.00     0.060 A 
ATOM     27  C   UNL A   1      34.659  29.643  27.947  1.00  0.00     0.016 A 
ATOM     28  C   UNL A   1      35.346  31.958  27.711  1.00  0.00     0.016 A 
ATOM     29  C   UNL A   1      35.834  29.358  28.641  1.00  0.00     0.010 A 
ATOM     30  C   UNL A   1      36.523  31.671  28.410  1.00  0.00     0.010 A 
ATOM     31  C   UNL A   1      36.771  30.371  28.886  1.00  0.00    -0.014 A 
BRANCH  31  32
ATOM     32  C   UNL A   1      38.006  30.079  29.655  1.00  0.00     0.031 A 
ATOM     33  C   UNL A   1      39.033  29.133  29.098  1.00  0.00     0.074 A 
ATOM     34  C   UNL A   1      38.191  30.646  30.861  1.00  0.00     0.049 A 
ATOM     35  N   UNL A   1      40.143  28.708  29.642  1.00  0.00    -0.248 NA
ATOM     36  C   UNL A   1      38.778  28.595  27.753  1.00  0.00     0.031 C 
ATOM     37  C   UNL A   1      37.267  31.581  31.503  1.00  0.00     0.029 A 
ATOM     38  N   UNL A   1      39.209  30.501  31.771  1.00  0.00    -0.354 N 
ATOM     39  C   UNL A   1      40.710  27.837  28.720  1.00  0.00     0.074 A 
ATOM     40  C   UNL A   1      39.815  27.785  27.584  1.00  0.00     0.031 C 
ATOM     41  C   UNL A   1      37.749  31.912  32.712  1.00  0.00     0.029 A 
ATOM     42  C   UNL A   1      38.998  31.190  32.943  1.00  0.00     0.049 A 
ATOM     43  H   UNL A   1      40.011  29.957  31.601  1.00  0.00     0.167 HD
ATOM     44  C   UNL A   1      41.879  27.157  28.804  1.00  0.00     0.034 A 
ATOM     45  C   UNL A   1      39.718  31.216  34.082  1.00  0.00     0.034 A 
ATOM     46  C   UNL A   1      42.777  27.226  29.927  1.00  0.00     0.049 A 
ATOM     47  C   UNL A   1      40.992  30.416  34.164  1.00  0.00     0.074 A 
ATOM     48  C   UNL A   1      44.001  26.601  30.088  1.00  0.00     0.029 A 
ATOM     49  N   UNL A   1      42.546  27.957  31.081  1.00  0.00    -0.354 N 
ATOM     50  N   UNL A   1      41.569  29.685  33.240  1.00  0.00    -0.248 NA
ATOM     51  C   UNL A   1      41.727  30.463  35.437  1.00  0.00     0.031 C 
ATOM     52  C   UNL A   1      44.503  26.942  31.349  1.00  0.00     0.029 A 
ATOM     53  C   UNL A   1      43.598  27.790  31.966  1.00  0.00     0.049 A 
ATOM     54  H   UNL A   1      41.751  28.512  31.249  1.00  0.00     0.167 HD
ATOM     55  C   UNL A   1      42.746  29.211  33.809  1.00  0.00     0.074 A 
ATOM     56  C   UNL A   1      42.811  29.755  35.150  1.00  0.00     0.031 C 
ATOM     57  C   UNL A   1      43.678  28.384  33.275  1.00  0.00     0.034 A 
BRANCH  44  58
ATOM     58  C   UNL A   1      42.281  26.308  27.628  1.00  0.00     0.023 A 
ATOM     59  C   UNL A   1      43.082  26.870  26.613  1.00  0.00     0.012 A 
ATOM     60  C   UNL A   1      41.928  24.946  27.556  1.00  0.00     0.148 A 
ATOM     61  C   UNL A   1      43.506  26.097  25.533  1.00  0.00     0.002 A 
ATOM     62  C   UNL A   1      42.385  24.173  26.494  1.00  0.00     0.091 A 
ATOM     63  F   UNL A   1      41.148  24.435  28.520  1.00  0.00    -0.205 F 
ATOM     64  C   UNL A   1      43.166  24.748  25.479  1.00  0.00     0.022 A 
BRANCH  62  65
ATOM     65  S   UNL A   1      42.058  22.411  26.368  1.00  0.00     0.127 S 
ATOM     66  O   UNL A   1      40.606  22.393  26.190  1.00  0.00    -0.237 OA
ATOM     67  O   UNL A   1      42.822  22.038  25.176  1.00  0.00    -0.237 OA
ATOM     68  O   UNL A   1      42.545  21.823  27.608  1.00  0.00    -0.744 OA
ENDBRANCH  62  65
ENDBRANCH  44  58
BRANCH  45  69
ATOM     69  C   UNL A   1      39.272  32.056  35.230  1.00  0.00     0.023 A 
ATOM     70  C   UNL A   1      38.355  31.526  36.158  1.00  0.00     0.012 A 
ATOM     71  C   UNL A   1      39.757  33.365  35.415  1.00  0.00     0.148 A 
ATOM     72  C   UNL A   1      37.911  32.293  37.235  1.00  0.00     0.002 A 
ATOM     73  C   UNL A   1      39.351  34.105  36.519  1.00  0.00     0.091 A 
ATOM     74  F   UNL A   1      40.609  33.863  34.507  1.00  0.00    -0.205 F 
ATOM     75  C   UNL A   1      38.415  33.577  37.423  1.00  0.00     0.022 A 
BRANCH  73  76
ATOM     76  S   UNL A   1      40.046  35.718  36.899  1.00  0.00     0.127 S 
ATOM     77  O   UNL A   1      39.430  36.014  38.189  1.00  0.00    -0.237 OA
ATOM     78  O   UNL A   1      41.480  35.428  36.954  1.00  0.00    -0.237 OA
ATOM     79  O   UNL A   1      39.654  36.579  35.792  1.00  0.00    -0.744 OA
ENDBRANCH  73  76
ENDBRANCH  45  69
BRANCH  57  80
ATOM     80  C   UNL A   1      44.869  28.031  34.128  1.00  0.00     0.023 A 
ATOM     81  C   UNL A   1      44.854  26.842  34.885  1.00  0.00     0.012 A 
ATOM     82  C   UNL A   1      46.032  28.827  34.112  1.00  0.00     0.148 A 
ATOM     83  C   UNL A   1      45.967  26.464  35.633  1.00  0.00     0.002 A 
ATOM     84  C   UNL A   1      47.154  28.420  34.825  1.00  0.00     0.091 A 
ATOM     85  F   UNL A   1      46.020  29.962  33.399  1.00  0.00    -0.205 F 
ATOM     86  C   UNL A   1      47.120  27.245  35.593  1.00  0.00     0.022 A 
BRANCH  84  87
ATOM     87  S   UNL A   1      48.713  29.314  34.764  1.00  0.00     0.127 S 
ATOM     88  O   UNL A   1      48.911  29.468  33.324  1.00  0.00    -0.237 OA
ATOM     89  O   UNL A   1      48.388  30.553  35.471  1.00  0.00    -0.237 OA
ATOM     90  O   UNL A   1      49.687  28.469  35.441  1.00  0.00    -0.744 OA
ENDBRANCH  84  87
ENDBRANCH  57  80
ENDBRANCH  31  32
ENDBRANCH  24  26
ENDBRANCH  23  24
ENDBRANCH  22  23
ENDBRANCH   1  22
TORSDOF 17
ENDMDL
MODEL 2
REMARK VINA RESULT:     -11.3      4.612      9.951
REMARK SMILES C[C@@H]1CCC[C@H]1NC(=O)c1csc(/C=C/C(=O)OCCOC(=O)c2ccc(-c3c4nc(c(-c5cccc(S(=O)(=O)[O-])c5F)c5ccc([nH]5)c(-c5cccc(S(=O)(=O)[O-])c5F)c5nc(c(-c6cccc(S(=O)(=O)[O-])c6F)c6ccc3[nH]6)C=C5)C=C4)cc2)c1
REMARK SMILES IDX 19 1 18 2 16 3 17 4 15 5 14 6 13 7 10 8 11 9 87 10 12 11
REMARK SMILES IDX 8 12 7 13 9 15 6 16 1 17 2 18 3 19 4 20 5 21 20 22 21 23
REMARK SMILES IDX 22 24 23 25 24 26 25 27 86 28 26 29 85 30 27 31 28 32 29 33
REMARK SMILES IDX 79 34 30 35 84 36 78 37 80 38 31 39 83 40 77 41 76 42 32 44
REMARK SMILES IDX 64 45 44 46 63 47 45 48 48 49 62 50 81 51 46 52 47 53 61 55
REMARK SMILES IDX 82 56 49 57 33 58 34 59 42 60 35 61 37 62 43 63 36 64 38 65
REMARK SMILES IDX 39 66 40 67 41 68 65 69 66 70 74 71 67 72 69 73 75 74 68 75
REMARK SMILES IDX 70 76 71 77 72 78 73 79 50 80 51 81 59 82 52 83 54 84 60 85
REMARK SMILES IDX 53 86 55 87 56 88 57 89 58 90
REMARK H PARENT 7 14 80 43 48 54
REMARK Flexibility Score: inf
ROOT
ATOM      1  C   UNL A   1      35.120  20.530  25.311  1.00  0.00     0.275 C 
ENDROOT
BRANCH   1   2
ATOM      2  O   UNL A   1      34.264  19.579  24.650  1.00  0.00    -0.459 OA
BRANCH   2   3
ATOM      3  C   UNL A   1      33.014  20.021  24.370  1.00  0.00     0.330 C 
ATOM      4  O   UNL A   1      31.976  19.400  24.546  1.00  0.00    -0.247 OA
BRANCH   3   5
ATOM      5  C   UNL A   1      32.993  21.404  23.856  1.00  0.00     0.095 C 
ATOM      6  C   UNL A   1      32.042  22.317  24.101  1.00  0.00     0.026 C 
BRANCH   6   7
ATOM      7  C   UNL A   1      32.075  23.629  23.533  1.00  0.00     0.028 A 
ATOM      8  C   UNL A   1      31.581  25.918  23.127  1.00  0.00     0.051 A 
ATOM      9  C   UNL A   1      32.558  25.660  22.187  1.00  0.00     0.079 A 
ATOM     10  C   UNL A   1      31.333  24.736  23.914  1.00  0.00     0.033 A 
ATOM     11  S   UNL A   1      33.061  24.032  22.178  1.00  0.00    -0.144 S 
BRANCH   8  12
ATOM     12  C   UNL A   1      30.966  27.216  23.385  1.00  0.00     0.252 C 
ATOM     13  N   UNL A   1      31.290  27.940  24.505  1.00  0.00    -0.349 N 
ATOM     14  H   UNL A   1      30.679  28.685  24.702  1.00  0.00     0.164 HD
ATOM     15  O   UNL A   1      30.153  27.704  22.602  1.00  0.00    -0.269 OA
BRANCH  13  16
ATOM     16  C   UNL A   1      32.393  27.789  25.454  1.00  0.00     0.085 C 
ATOM     17  C   UNL A   1      34.327  29.097  26.453  1.00  0.00     0.010 C 
ATOM     18  C   UNL A   1      32.893  29.166  25.925  1.00  0.00     0.008 C 
ATOM     19  C   UNL A   1      31.904  29.541  27.028  1.00  0.00     0.005 C 
ATOM     20  C   UNL A   1      31.543  28.228  27.714  1.00  0.00     0.002 C 
ATOM     21  C   UNL A   1      31.901  27.108  26.734  1.00  0.00     0.025 C 
ENDBRANCH  13  16
ENDBRANCH   8  12
ENDBRANCH   6   7
ENDBRANCH   3   5
ENDBRANCH   2   3
ENDBRANCH   1   2
BRANCH   1  22
ATOM     22  C   UNL A   1      36.598  20.262  25.010  1.00  0.00     0.275 C 
BRANCH  22  23
ATOM     23  O   UNL A   1      37.440  21.366  25.388  1.00  0.00    -0.458 OA
BRANCH  23  24
ATOM     24  C   UNL A   1      38.657  21.024  25.878  1.00  0.00     0.338 C 
ATOM     25  O   UNL A   1      39.181  19.924  25.839  1.00  0.00    -0.246 OA
BRANCH  24  26
ATOM     26  C   UNL A   1      39.343  22.227  26.387  1.00  0.00     0.060 A 
ATOM     27  C   UNL A   1      38.842  23.479  26.018  1.00  0.00     0.016 A 
ATOM     28  C   UNL A   1      40.496  22.128  27.170  1.00  0.00     0.016 A 
ATOM     29  C   UNL A   1      39.490  24.640  26.437  1.00  0.00     0.010 A 
ATOM     30  C   UNL A   1      41.146  23.294  27.585  1.00  0.00     0.010 A 
ATOM     31  C   UNL A   1      40.652  24.557  27.216  1.00  0.00    -0.014 A 
BRANCH  31  32
ATOM     32  C   UNL A   1      41.363  25.791  27.633  1.00  0.00     0.031 A 
ATOM     33  C   UNL A   1      40.635  26.854  28.406  1.00  0.00     0.074 A 
ATOM     34  C   UNL A   1      42.655  25.963  27.297  1.00  0.00     0.049 A 
ATOM     35  N   UNL A   1      41.065  28.022  28.808  1.00  0.00    -0.248 NA
ATOM     36  C   UNL A   1      39.240  26.567  28.776  1.00  0.00     0.031 C 
ATOM     37  C   UNL A   1      43.466  25.000  26.552  1.00  0.00     0.029 A 
ATOM     38  N   UNL A   1      43.505  27.017  27.521  1.00  0.00    -0.354 N 
ATOM     39  C   UNL A   1      39.993  28.620  29.458  1.00  0.00     0.074 A 
ATOM     40  C   UNL A   1      38.886  27.691  29.387  1.00  0.00     0.031 C 
ATOM     41  C   UNL A   1      44.692  25.516  26.361  1.00  0.00     0.029 A 
ATOM     42  C   UNL A   1      44.743  26.855  26.942  1.00  0.00     0.049 A 
ATOM     43  H   UNL A   1      43.254  27.812  28.043  1.00  0.00     0.167 HD
ATOM     44  C   UNL A   1      39.941  29.826  30.074  1.00  0.00     0.034 A 
ATOM     45  C   UNL A   1      45.790  27.700  26.869  1.00  0.00     0.034 A 
ATOM     46  C   UNL A   1      41.049  30.740  30.160  1.00  0.00     0.049 A 
ATOM     47  C   UNL A   1      45.689  29.052  27.527  1.00  0.00     0.074 A 
ATOM     48  C   UNL A   1      41.102  31.969  30.793  1.00  0.00     0.029 A 
ATOM     49  N   UNL A   1      42.295  30.529  29.590  1.00  0.00    -0.354 N 
ATOM     50  N   UNL A   1      44.705  29.556  28.231  1.00  0.00    -0.248 NA
ATOM     51  C   UNL A   1      46.852  29.943  27.397  1.00  0.00     0.031 C 
ATOM     52  C   UNL A   1      42.377  32.510  30.593  1.00  0.00     0.029 A 
ATOM     53  C   UNL A   1      43.122  31.610  29.846  1.00  0.00     0.049 A 
ATOM     54  H   UNL A   1      42.554  29.730  29.078  1.00  0.00     0.167 HD
ATOM     55  C   UNL A   1      45.140  30.808  28.654  1.00  0.00     0.074 A 
ATOM     56  C   UNL A   1      46.486  30.976  28.145  1.00  0.00     0.031 C 
ATOM     57  C   UNL A   1      44.479  31.740  29.382  1.00  0.00     0.034 A 
BRANCH  44  58
ATOM     58  C   UNL A   1      38.651  30.213  30.746  1.00  0.00     0.023 A 
ATOM     59  C   UNL A   1      38.439  29.853  32.092  1.00  0.00     0.012 A 
ATOM     60  C   UNL A   1      37.682  30.985  30.076  1.00  0.00     0.148 A 
ATOM     61  C   UNL A   1      37.273  30.234  32.755  1.00  0.00     0.002 A 
ATOM     62  C   UNL A   1      36.538  31.393  30.755  1.00  0.00     0.091 A 
ATOM     63  F   UNL A   1      37.891  31.300  28.790  1.00  0.00    -0.205 F 
ATOM     64  C   UNL A   1      36.328  31.011  32.090  1.00  0.00     0.022 A 
BRANCH  62  65
ATOM     65  S   UNL A   1      35.293  32.451  30.007  1.00  0.00     0.127 S 
ATOM     66  O   UNL A   1      36.090  33.611  29.613  1.00  0.00    -0.237 OA
ATOM     67  O   UNL A   1      34.818  31.630  28.892  1.00  0.00    -0.237 OA
ATOM     68  O   UNL A   1      34.300  32.696  31.044  1.00  0.00    -0.744 OA
ENDBRANCH  62  65
ENDBRANCH  44  58
BRANCH  45  69
ATOM     69  C   UNL A   1      47.042  27.282  26.176  1.00  0.00     0.023 A 
ATOM     70  C   UNL A   1      47.212  27.590  24.813  1.00  0.00     0.012 A 
ATOM     71  C   UNL A   1      48.066  26.598  26.859  1.00  0.00     0.148 A 
ATOM     72  C   UNL A   1      48.368  27.202  24.136  1.00  0.00     0.002 A 
ATOM     73  C   UNL A   1      49.237  26.259  26.191  1.00  0.00     0.091 A 
ATOM     74  F   UNL A   1      47.876  26.289  28.149  1.00  0.00    -0.205 F 
ATOM     75  C   UNL A   1      49.385  26.546  24.824  1.00  0.00     0.022 A 
BRANCH  73  76
ATOM     76  S   UNL A   1      50.643  25.525  27.036  1.00  0.00     0.127 S 
ATOM     77  O   UNL A   1      51.595  25.355  25.942  1.00  0.00    -0.237 OA
ATOM     78  O   UNL A   1      50.996  26.564  28.004  1.00  0.00    -0.237 OA
ATOM     79  O   UNL A   1      50.135  24.298  27.637  1.00  0.00    -0.744 OA
ENDBRANCH  73  76
ENDBRANCH  45  69
BRANCH  57  80
ATOM     80  C   UNL A   1      45.202  33.023  29.699  1.00  0.00     0.023 A 
ATOM     81  C   UNL A   1      45.985  33.110  30.867  1.00  0.00     0.012 A 
ATOM     82  C   UNL A   1      45.178  34.108  28.800  1.00  0.00     0.148 A 
ATOM     83  C   UNL A   1      46.712  34.265  31.149  1.00  0.00     0.002 A 
ATOM     84  C   UNL A   1      45.940  35.240  29.066  1.00  0.00     0.091 A 
ATOM     85  F   UNL A   1      44.413  34.012  27.703  1.00  0.00    -0.205 F 
ATOM     86  C   UNL A   1      46.700  35.323  30.244  1.00  0.00     0.022 A 
BRANCH  84  87
ATOM     87  S   UNL A   1      46.058  36.617  27.917  1.00  0.00     0.127 S 
ATOM     88  O   UNL A   1      46.961  37.521  28.626  1.00  0.00    -0.237 OA
ATOM     89  O   UNL A   1      46.636  35.983  26.731  1.00  0.00    -0.237 OA
ATOM     90  O   UNL A   1      44.698  37.108  27.737  1.00  0.00    -0.744 OA
ENDBRANCH  84  87
ENDBRANCH  57  80
ENDBRANCH  31  32
ENDBRANCH  24  26
ENDBRANCH  23  24
ENDBRANCH  22  23
ENDBRANCH   1  22
TORSDOF 17
ENDMDL
MODEL 3
REMARK VINA RESULT:     -11.2      4.782     10.107
REMARK SMILES C[C@@H]1CCC[C@H]1NC(=O)c1csc(/C=C/C(=O)OCCOC(=O)c2ccc(-c3c4nc(c(-c5cccc(S(=O)(=O)[O-])c5F)c5ccc([nH]5)c(-c5cccc(S(=O)(=O)[O-])c5F)c5nc(c(-c6cccc(S(=O)(=O)[O-])c6F)c6ccc3[nH]6)C=C5)C=C4)cc2)c1
REMARK SMILES IDX 19 1 18 2 16 3 17 4 15 5 14 6 13 7 10 8 11 9 87 10 12 11
REMARK SMILES IDX 8 12 7 13 9 15 6 16 1 17 2 18 3 19 4 20 5 21 20 22 21 23
REMARK SMILES IDX 22 24 23 25 24 26 25 27 86 28 26 29 85 30 27 31 28 32 29 33
REMARK SMILES IDX 79 34 30 35 84 36 78 37 80 38 31 39 83 40 77 41 76 42 32 44
REMARK SMILES IDX 64 45 44 46 63 47 45 48 48 49 62 50 81 51 46 52 47 53 61 55
REMARK SMILES IDX 82 56 49 57 33 58 34 59 42 60 35 61 37 62 43 63 36 64 38 65
REMARK SMILES IDX 39 66 40 67 41 68 65 69 66 70 74 71 67 72 69 73 75 74 68 75
REMARK SMILES IDX 70 76 71 77 72 78 73 79 50 80 51 81 59 82 52 83 54 84 60 85
REMARK SMILES IDX 53 86 55 87 56 88 57 89 58 90
REMARK H PARENT 7 14 80 43 48 54
REMARK Flexibility Score: inf
ROOT
ATOM      1  C   UNL A   1      34.688  21.153  25.038  1.00  0.00     0.275 C 
ENDROOT
BRANCH   1   2
ATOM      2  O   UNL A   1      34.255  21.717  23.785  1.00  0.00    -0.459 OA
BRANCH   2   3
ATOM      3  C   UNL A   1      34.662  22.987  23.550  1.00  0.00     0.330 C 
ATOM      4  O   UNL A   1      35.628  23.321  22.880  1.00  0.00    -0.247 OA
BRANCH   3   5
ATOM      5  C   UNL A   1      33.774  23.998  24.157  1.00  0.00     0.095 C 
ATOM      6  C   UNL A   1      33.744  25.302  23.845  1.00  0.00     0.026 C 
BRANCH   6   7
ATOM      7  C   UNL A   1      32.877  26.228  24.507  1.00  0.00     0.028 A 
ATOM      8  C   UNL A   1      31.807  28.256  25.132  1.00  0.00     0.051 A 
ATOM      9  C   UNL A   1      31.189  27.335  25.954  1.00  0.00     0.079 A 
ATOM     10  C   UNL A   1      32.762  27.591  24.283  1.00  0.00     0.033 A 
ATOM     11  S   UNL A   1      31.826  25.763  25.791  1.00  0.00    -0.144 S 
BRANCH   8  12
ATOM     12  C   UNL A   1      31.470  29.672  25.033  1.00  0.00     0.252 C 
ATOM     13  N   UNL A   1      30.576  30.120  24.093  1.00  0.00    -0.349 N 
ATOM     14  H   UNL A   1      30.576  31.096  23.960  1.00  0.00     0.164 HD
ATOM     15  O   UNL A   1      31.966  30.501  25.795  1.00  0.00    -0.269 OA
BRANCH  13  16
ATOM     16  C   UNL A   1      29.622  29.392  23.258  1.00  0.00     0.085 C 
ATOM     17  C   UNL A   1      27.142  28.868  23.094  1.00  0.00     0.010 C 
ATOM     18  C   UNL A   1      28.192  29.906  23.495  1.00  0.00     0.008 C 
ATOM     19  C   UNL A   1      28.116  31.154  22.614  1.00  0.00     0.005 C 
ATOM     20  C   UNL A   1      28.962  30.836  21.386  1.00  0.00     0.002 C 
ATOM     21  C   UNL A   1      29.886  29.680  21.777  1.00  0.00     0.025 C 
ENDBRANCH  13  16
ENDBRANCH   8  12
ENDBRANCH   6   7
ENDBRANCH   3   5
ENDBRANCH   2   3
ENDBRANCH   1   2
BRANCH   1  22
ATOM     22  C   UNL A   1      36.181  20.816  25.018  1.00  0.00     0.275 C 
BRANCH  22  23
ATOM     23  O   UNL A   1      36.943  21.665  25.896  1.00  0.00    -0.458 OA
BRANCH  23  24
ATOM     24  C   UNL A   1      38.271  21.397  25.952  1.00  0.00     0.338 C 
ATOM     25  O   UNL A   1      38.830  20.379  25.579  1.00  0.00    -0.246 OA
BRANCH  24  26
ATOM     26  C   UNL A   1      38.998  22.585  26.437  1.00  0.00     0.060 A 
ATOM     27  C   UNL A   1      38.518  23.847  26.073  1.00  0.00     0.016 A 
ATOM     28  C   UNL A   1      40.166  22.462  27.193  1.00  0.00     0.016 A 
ATOM     29  C   UNL A   1      39.204  24.994  26.469  1.00  0.00     0.010 A 
ATOM     30  C   UNL A   1      40.854  23.615  27.587  1.00  0.00     0.010 A 
ATOM     31  C   UNL A   1      40.381  24.888  27.221  1.00  0.00    -0.014 A 
BRANCH  31  32
ATOM     32  C   UNL A   1      41.131  26.106  27.614  1.00  0.00     0.031 A 
ATOM     33  C   UNL A   1      40.443  27.198  28.385  1.00  0.00     0.074 A 
ATOM     34  C   UNL A   1      42.422  26.239  27.259  1.00  0.00     0.049 A 
ATOM     35  N   UNL A   1      40.910  28.358  28.768  1.00  0.00    -0.248 NA
ATOM     36  C   UNL A   1      39.047  26.953  28.777  1.00  0.00     0.031 C 
ATOM     37  C   UNL A   1      43.197  25.246  26.513  1.00  0.00     0.029 A 
ATOM     38  N   UNL A   1      43.304  27.272  27.458  1.00  0.00    -0.354 N 
ATOM     39  C   UNL A   1      39.864  28.992  29.425  1.00  0.00     0.074 A 
ATOM     40  C   UNL A   1      38.731  28.092  29.380  1.00  0.00     0.031 C 
ATOM     41  C   UNL A   1      44.433  25.726  26.300  1.00  0.00     0.029 A 
ATOM     42  C   UNL A   1      44.529  27.070  26.865  1.00  0.00     0.049 A 
ATOM     43  H   UNL A   1      43.081  28.079  27.975  1.00  0.00     0.167 HD
ATOM     44  C   UNL A   1      39.853  30.205  30.028  1.00  0.00     0.034 A 
ATOM     45  C   UNL A   1      45.597  27.885  26.767  1.00  0.00     0.034 A 
ATOM     46  C   UNL A   1      40.987  31.089  30.088  1.00  0.00     0.049 A 
ATOM     47  C   UNL A   1      45.542  29.247  27.410  1.00  0.00     0.074 A 
ATOM     48  C   UNL A   1      41.083  32.324  30.706  1.00  0.00     0.029 A 
ATOM     49  N   UNL A   1      42.218  30.839  29.504  1.00  0.00    -0.354 N 
ATOM     50  N   UNL A   1      44.582  29.785  28.123  1.00  0.00    -0.248 NA
ATOM     51  C   UNL A   1      46.727  30.104  27.255  1.00  0.00     0.031 C 
ATOM     52  C   UNL A   1      42.369  32.827  30.482  1.00  0.00     0.029 A 
ATOM     53  C   UNL A   1      43.078  31.899  29.736  1.00  0.00     0.049 A 
ATOM     54  H   UNL A   1      42.448  30.027  28.997  1.00  0.00     0.167 HD
ATOM     55  C   UNL A   1      45.057  31.029  28.525  1.00  0.00     0.074 A 
ATOM     56  C   UNL A   1      46.399  31.155  27.995  1.00  0.00     0.031 C 
ATOM     57  C   UNL A   1      44.431  31.987  29.252  1.00  0.00     0.034 A 
BRANCH  44  58
ATOM     58  C   UNL A   1      38.584  30.635  30.714  1.00  0.00     0.023 A 
ATOM     59  C   UNL A   1      38.429  30.392  32.093  1.00  0.00     0.012 A 
ATOM     60  C   UNL A   1      37.578  31.333  30.016  1.00  0.00     0.148 A 
ATOM     61  C   UNL A   1      37.283  30.817  32.765  1.00  0.00     0.002 A 
ATOM     62  C   UNL A   1      36.455  31.785  30.701  1.00  0.00     0.091 A 
ATOM     63  F   UNL A   1      37.734  31.535  28.700  1.00  0.00    -0.205 F 
ATOM     64  C   UNL A   1      36.302  31.521  32.072  1.00  0.00     0.022 A 
BRANCH  62  65
ATOM     65  S   UNL A   1      35.166  32.757  29.912  1.00  0.00     0.127 S 
ATOM     66  O   UNL A   1      35.930  33.889  29.388  1.00  0.00    -0.237 OA
ATOM     67  O   UNL A   1      34.664  31.837  28.892  1.00  0.00    -0.237 OA
ATOM     68  O   UNL A   1      34.209  33.080  30.962  1.00  0.00    -0.744 OA
ENDBRANCH  62  65
ENDBRANCH  44  58
BRANCH  45  69
ATOM     69  C   UNL A   1      46.827  27.426  26.062  1.00  0.00     0.023 A 
ATOM     70  C   UNL A   1      46.977  27.696  24.688  1.00  0.00     0.012 A 
ATOM     71  C   UNL A   1      47.851  26.738  26.743  1.00  0.00     0.148 A 
ATOM     72  C   UNL A   1      48.112  27.268  24.000  1.00  0.00     0.002 A 
ATOM     73  C   UNL A   1      49.003  26.361  26.062  1.00  0.00     0.091 A 
ATOM     74  F   UNL A   1      47.680  26.466  28.044  1.00  0.00    -0.205 F 
ATOM     75  C   UNL A   1      49.129  26.610  24.686  1.00  0.00     0.022 A 
BRANCH  73  76
ATOM     76  S   UNL A   1      50.410  25.620  26.899  1.00  0.00     0.127 S 
ATOM     77  O   UNL A   1      49.805  24.442  27.515  1.00  0.00    -0.237 OA
ATOM     78  O   UNL A   1      51.315  25.336  25.785  1.00  0.00    -0.237 OA
ATOM     79  O   UNL A   1      50.896  26.642  27.816  1.00  0.00    -0.744 OA
ENDBRANCH  73  76
ENDBRANCH  45  69
BRANCH  57  80
ATOM     80  C   UNL A   1      45.194  33.253  29.544  1.00  0.00     0.023 A 
ATOM     81  C   UNL A   1      46.025  33.318  30.679  1.00  0.00     0.012 A 
ATOM     82  C   UNL A   1      45.154  34.343  28.651  1.00  0.00     0.148 A 
ATOM     83  C   UNL A   1      46.787  34.456  30.936  1.00  0.00     0.002 A 
ATOM     84  C   UNL A   1      45.950  35.458  28.890  1.00  0.00     0.091 A 
ATOM     85  F   UNL A   1      44.343  34.268  27.586  1.00  0.00    -0.205 F 
ATOM     86  C   UNL A   1      46.759  35.520  30.035  1.00  0.00     0.022 A 
BRANCH  84  87
ATOM     87  S   UNL A   1      46.049  36.838  27.743  1.00  0.00     0.127 S 
ATOM     88  O   UNL A   1      46.100  37.980  28.654  1.00  0.00    -0.237 OA
ATOM     89  O   UNL A   1      47.301  36.565  27.036  1.00  0.00    -0.237 OA
ATOM     90  O   UNL A   1      44.856  36.755  26.911  1.00  0.00    -0.744 OA
ENDBRANCH  84  87
ENDBRANCH  57  80
ENDBRANCH  31  32
ENDBRANCH  24  26
ENDBRANCH  23  24
ENDBRANCH  22  23
ENDBRANCH   1  22
TORSDOF 17
ENDMDL
