MODEL 1
REMARK VINA RESULT:     -11.9      0.000      0.000
REMARK SMILES CC1=C(C(=O)OCCOC(=O)c2ccc(-c3c4nc(c(-c5cccc(S(=O)(=O)[O-])c5F)c5ccc([nH]5)c(-c5cccc(S(=O)(=O)[O-])c5F)c5nc(c(-c6cccc(S(=O)(=O)[O-])c6F)c6ccc3[nH]6)C=C5)C=C4)cc2)[C@H](c2ccc(Cl)cc2)n2ncnc2N1
REMARK SMILES IDX 8 1 7 2 6 3 4 4 5 5 3 6 1 7 2 8 88 9 75 10 87 11 83 13 86 14
REMARK SMILES IDX 84 15 85 16 76 17 77 18 82 19 78 20 81 21 79 22 80 23 9 24
REMARK SMILES IDX 10 25 11 26 12 27 13 28 74 29 14 30 73 31 15 32 16 33 17 34
REMARK SMILES IDX 67 35 18 36 72 37 66 38 68 39 19 40 71 41 65 42 64 43 20 45
REMARK SMILES IDX 52 46 32 47 51 48 33 49 36 50 50 51 69 52 34 53 35 54 49 56
REMARK SMILES IDX 70 57 37 58 21 59 22 60 30 61 23 62 25 63 31 64 24 65 26 66
REMARK SMILES IDX 27 67 28 68 29 69 53 70 54 71 62 72 55 73 57 74 63 75 56 76
REMARK SMILES IDX 58 77 59 78 60 79 61 80 38 81 39 82 47 83 40 84 42 85 48 86
REMARK SMILES IDX 41 87 43 88 44 89 45 90 46 91
REMARK H PARENT 88 12 68 44 36 55
REMARK Flexibility Score: inf
ROOT
ATOM      1  C   UNL A   1      37.304  20.691  25.012  1.00  0.00     0.275 C 
ENDROOT
BRANCH   1   2
ATOM      2  C   UNL A   1      36.513  21.814  24.356  1.00  0.00     0.275 C 
BRANCH   2   3
ATOM      3  O   UNL A   1      35.930  22.683  25.348  1.00  0.00    -0.459 OA
BRANCH   3   4
ATOM      4  C   UNL A   1      34.580  22.629  25.492  1.00  0.00     0.338 C 
ATOM      5  O   UNL A   1      34.037  22.288  26.532  1.00  0.00    -0.246 OA
BRANCH   4   6
ATOM      6  C   UNL A   1      33.836  23.165  24.308  1.00  0.00     0.085 C 
ATOM      7  C   UNL A   1      33.027  20.879  23.522  1.00  0.00     0.065 C 
ATOM      8  C   UNL A   1      33.160  22.379  23.422  1.00  0.00     0.028 C 
ATOM      9  N   UNL A   1      32.588  22.933  22.283  1.00  0.00    -0.328 N 
ATOM     10  C   UNL A   1      34.042  24.675  24.018  1.00  0.00     0.181 C 
ATOM     11  C   UNL A   1      32.817  24.191  21.879  1.00  0.00     0.226 A 
ATOM     12  H   UNL A   1      31.983  22.373  21.745  1.00  0.00     0.169 HD
ATOM     13  N   UNL A   1      33.585  25.015  22.654  1.00  0.00    -0.219 N 
ATOM     14  N   UNL A   1      32.428  24.826  20.802  1.00  0.00    -0.200 NA
ATOM     15  N   UNL A   1      33.763  26.213  22.052  1.00  0.00    -0.157 NA
ATOM     16  C   UNL A   1      33.041  26.044  20.938  1.00  0.00     0.248 A 
BRANCH  10  17
ATOM     17  C   UNL A   1      33.414  25.635  25.047  1.00  0.00    -0.018 A 
ATOM     18  C   UNL A   1      34.091  26.757  25.561  1.00  0.00     0.008 A 
ATOM     19  C   UNL A   1      32.113  25.391  25.525  1.00  0.00     0.008 A 
ATOM     20  C   UNL A   1      33.474  27.615  26.477  1.00  0.00     0.021 A 
ATOM     21  C   UNL A   1      31.470  26.283  26.389  1.00  0.00     0.021 A 
ATOM     22  C   UNL A   1      32.155  27.394  26.860  1.00  0.00     0.041 A 
ATOM     23  Cl  UNL A   1      31.370  28.501  27.918  1.00  0.00    -0.084 Cl
ENDBRANCH  10  17
ENDBRANCH   4   6
ENDBRANCH   3   4
ENDBRANCH   2   3
ENDBRANCH   1   2
BRANCH   1  24
ATOM     24  O   UNL A   1      38.489  21.203  25.615  1.00  0.00    -0.458 OA
BRANCH  24  25
ATOM     25  C   UNL A   1      39.516  20.332  25.697  1.00  0.00     0.338 C 
ATOM     26  O   UNL A   1      39.494  19.137  25.454  1.00  0.00    -0.246 OA
BRANCH  25  27
ATOM     27  C   UNL A   1      40.663  20.992  26.317  1.00  0.00     0.060 A 
ATOM     28  C   UNL A   1      40.753  20.895  27.712  1.00  0.00     0.016 A 
ATOM     29  C   UNL A   1      41.346  21.968  25.581  1.00  0.00     0.016 A 
ATOM     30  C   UNL A   1      41.332  21.935  28.394  1.00  0.00     0.010 A 
ATOM     31  C   UNL A   1      41.892  23.020  26.265  1.00  0.00     0.010 A 
ATOM     32  C   UNL A   1      41.790  23.024  27.655  1.00  0.00    -0.014 A 
BRANCH  32  33
ATOM     33  C   UNL A   1      42.172  24.216  28.369  1.00  0.00     0.031 A 
ATOM     34  C   UNL A   1      41.176  25.303  28.261  1.00  0.00     0.074 A 
ATOM     35  C   UNL A   1      43.265  24.198  29.156  1.00  0.00     0.049 A 
ATOM     36  N   UNL A   1      41.344  26.489  27.779  1.00  0.00    -0.248 NA
ATOM     37  C   UNL A   1      39.776  24.969  28.566  1.00  0.00     0.031 C 
ATOM     38  C   UNL A   1      44.087  23.039  29.528  1.00  0.00     0.029 A 
ATOM     39  N   UNL A   1      43.750  25.185  29.949  1.00  0.00    -0.354 N 
ATOM     40  C   UNL A   1      40.107  27.116  27.915  1.00  0.00     0.074 A 
ATOM     41  C   UNL A   1      39.150  26.080  28.188  1.00  0.00     0.031 C 
ATOM     42  C   UNL A   1      44.749  23.325  30.671  1.00  0.00     0.029 A 
ATOM     43  C   UNL A   1      44.477  24.706  31.032  1.00  0.00     0.049 A 
ATOM     44  H   UNL A   1      43.603  26.142  29.776  1.00  0.00     0.167 HD
ATOM     45  C   UNL A   1      40.002  28.463  28.047  1.00  0.00     0.034 A 
ATOM     46  C   UNL A   1      44.686  25.364  32.199  1.00  0.00     0.034 A 
ATOM     47  C   UNL A   1      41.217  29.123  27.651  1.00  0.00     0.049 A 
ATOM     48  C   UNL A   1      44.398  26.800  31.954  1.00  0.00     0.074 A 
ATOM     49  C   UNL A   1      41.934  29.209  26.475  1.00  0.00     0.029 A 
ATOM     50  N   UNL A   1      42.073  29.509  28.654  1.00  0.00    -0.354 N 
ATOM     51  N   UNL A   1      45.103  27.550  31.150  1.00  0.00    -0.248 NA
ATOM     52  C   UNL A   1      43.051  27.280  32.229  1.00  0.00     0.031 C 
ATOM     53  C   UNL A   1      43.299  29.189  26.879  1.00  0.00     0.029 A 
ATOM     54  C   UNL A   1      43.339  29.148  28.274  1.00  0.00     0.049 A 
ATOM     55  H   UNL A   1      41.823  29.961  29.493  1.00  0.00     0.167 HD
ATOM     56  C   UNL A   1      44.164  28.326  30.480  1.00  0.00     0.074 A 
ATOM     57  C   UNL A   1      42.933  28.191  31.258  1.00  0.00     0.031 C 
ATOM     58  C   UNL A   1      44.378  28.751  29.200  1.00  0.00     0.034 A 
BRANCH  45  59
ATOM     59  C   UNL A   1      38.948  29.171  28.863  1.00  0.00     0.023 A 
ATOM     60  C   UNL A   1      38.208  30.181  28.210  1.00  0.00     0.012 A 
ATOM     61  C   UNL A   1      38.830  29.102  30.272  1.00  0.00     0.148 A 
ATOM     62  C   UNL A   1      37.447  31.112  28.924  1.00  0.00     0.002 A 
ATOM     63  C   UNL A   1      38.009  29.980  30.969  1.00  0.00     0.091 A 
ATOM     64  F   UNL A   1      39.611  28.280  30.977  1.00  0.00    -0.205 F 
ATOM     65  C   UNL A   1      37.343  31.009  30.305  1.00  0.00     0.022 A 
BRANCH  63  66
ATOM     66  S   UNL A   1      37.807  29.856  32.752  1.00  0.00     0.127 S 
ATOM     67  O   UNL A   1      36.830  30.910  33.010  1.00  0.00    -0.237 OA
ATOM     68  O   UNL A   1      37.303  28.491  32.905  1.00  0.00    -0.237 OA
ATOM     69  O   UNL A   1      39.138  30.063  33.310  1.00  0.00    -0.744 OA
ENDBRANCH  63  66
ENDBRANCH  45  59
BRANCH  46  70
ATOM     70  C   UNL A   1      44.748  24.784  33.564  1.00  0.00     0.023 A 
ATOM     71  C   UNL A   1      43.565  24.374  34.206  1.00  0.00     0.012 A 
ATOM     72  C   UNL A   1      45.983  24.410  34.146  1.00  0.00     0.148 A 
ATOM     73  C   UNL A   1      43.612  23.612  35.382  1.00  0.00     0.002 A 
ATOM     74  C   UNL A   1      46.024  23.675  35.325  1.00  0.00     0.091 A 
ATOM     75  F   UNL A   1      47.119  24.688  33.493  1.00  0.00    -0.205 F 
ATOM     76  C   UNL A   1      44.840  23.263  35.942  1.00  0.00     0.022 A 
BRANCH  74  77
ATOM     77  S   UNL A   1      47.582  23.199  36.090  1.00  0.00     0.127 S 
ATOM     78  O   UNL A   1      48.096  24.485  36.563  1.00  0.00    -0.237 OA
ATOM     79  O   UNL A   1      47.137  22.291  37.142  1.00  0.00    -0.237 OA
ATOM     80  O   UNL A   1      48.376  22.599  35.024  1.00  0.00    -0.744 OA
ENDBRANCH  74  77
ENDBRANCH  46  70
BRANCH  58  81
ATOM     81  C   UNL A   1      45.742  28.538  28.591  1.00  0.00     0.023 A 
ATOM     82  C   UNL A   1      46.831  29.390  28.877  1.00  0.00     0.012 A 
ATOM     83  C   UNL A   1      45.986  27.334  27.912  1.00  0.00     0.148 A 
ATOM     84  C   UNL A   1      48.129  29.052  28.487  1.00  0.00     0.002 A 
ATOM     85  C   UNL A   1      47.284  26.977  27.572  1.00  0.00     0.091 A 
ATOM     86  F   UNL A   1      44.941  26.532  27.652  1.00  0.00    -0.205 F 
ATOM     87  C   UNL A   1      48.358  27.837  27.849  1.00  0.00     0.022 A 
BRANCH  85  88
ATOM     88  S   UNL A   1      47.657  25.361  26.889  1.00  0.00     0.127 S 
ATOM     89  O   UNL A   1      47.057  25.444  25.560  1.00  0.00    -0.237 OA
ATOM     90  O   UNL A   1      49.122  25.343  26.899  1.00  0.00    -0.237 OA
ATOM     91  O   UNL A   1      47.048  24.394  27.796  1.00  0.00    -0.744 OA
ENDBRANCH  85  88
ENDBRANCH  58  81
ENDBRANCH  32  33
ENDBRANCH  25  27
ENDBRANCH  24  25
ENDBRANCH   1  24
TORSDOF 15
ENDMDL
MODEL 2
REMARK VINA RESULT:     -11.9      1.756      2.865
REMARK SMILES CC1=C(C(=O)OCCOC(=O)c2ccc(-c3c4nc(c(-c5cccc(S(=O)(=O)[O-])c5F)c5ccc([nH]5)c(-c5cccc(S(=O)(=O)[O-])c5F)c5nc(c(-c6cccc(S(=O)(=O)[O-])c6F)c6ccc3[nH]6)C=C5)C=C4)cc2)[C@H](c2ccc(Cl)cc2)n2ncnc2N1
REMARK SMILES IDX 8 1 7 2 6 3 4 4 5 5 3 6 1 7 2 8 88 9 75 10 87 11 83 13 86 14
REMARK SMILES IDX 84 15 85 16 76 17 77 18 82 19 78 20 81 21 79 22 80 23 9 24
REMARK SMILES IDX 10 25 11 26 12 27 13 28 74 29 14 30 73 31 15 32 16 33 17 34
REMARK SMILES IDX 67 35 18 36 72 37 66 38 68 39 19 40 71 41 65 42 64 43 20 45
REMARK SMILES IDX 52 46 32 47 51 48 33 49 36 50 50 51 69 52 34 53 35 54 49 56
REMARK SMILES IDX 70 57 37 58 21 59 22 60 30 61 23 62 25 63 31 64 24 65 26 66
REMARK SMILES IDX 27 67 28 68 29 69 53 70 54 71 62 72 55 73 57 74 63 75 56 76
REMARK SMILES IDX 58 77 59 78 60 79 61 80 38 81 39 82 47 83 40 84 42 85 48 86
REMARK SMILES IDX 41 87 43 88 44 89 45 90 46 91
REMARK H PARENT 88 12 68 44 36 55
REMARK Flexibility Score: inf
ROOT
ATOM      1  C   UNL A   1      37.696  21.669  25.940  1.00  0.00     0.275 C 
ENDROOT
BRANCH   1   2
ATOM      2  C   UNL A   1      37.531  23.170  25.750  1.00  0.00     0.275 C 
BRANCH   2   3
ATOM      3  O   UNL A   1      36.155  23.565  25.925  1.00  0.00    -0.459 OA
BRANCH   3   4
ATOM      4  C   UNL A   1      35.433  23.786  24.796  1.00  0.00     0.338 C 
ATOM      5  O   UNL A   1      35.909  23.689  23.675  1.00  0.00    -0.246 OA
BRANCH   4   6
ATOM      6  C   UNL A   1      33.976  24.013  25.058  1.00  0.00     0.085 C 
ATOM      7  C   UNL A   1      34.026  26.470  24.384  1.00  0.00     0.065 C 
ATOM      8  C   UNL A   1      33.357  25.215  24.890  1.00  0.00     0.028 C 
ATOM      9  N   UNL A   1      32.028  25.381  25.262  1.00  0.00    -0.328 N 
ATOM     10  C   UNL A   1      33.229  22.834  25.738  1.00  0.00     0.181 C 
ATOM     11  C   UNL A   1      31.339  24.473  25.970  1.00  0.00     0.226 A 
ATOM     12  H   UNL A   1      31.568  26.209  24.992  1.00  0.00     0.169 HD
ATOM     13  N   UNL A   1      31.930  23.280  26.283  1.00  0.00    -0.219 N 
ATOM     14  N   UNL A   1      30.128  24.515  26.463  1.00  0.00    -0.200 NA
ATOM     15  N   UNL A   1      31.113  22.529  27.057  1.00  0.00    -0.157 NA
ATOM     16  C   UNL A   1      30.038  23.323  27.132  1.00  0.00     0.248 A 
BRANCH  10  17
ATOM     17  C   UNL A   1      33.039  21.581  24.860  1.00  0.00    -0.018 A 
ATOM     18  C   UNL A   1      33.433  20.293  25.268  1.00  0.00     0.008 A 
ATOM     19  C   UNL A   1      32.465  21.706  23.581  1.00  0.00     0.008 A 
ATOM     20  C   UNL A   1      33.220  19.180  24.448  1.00  0.00     0.021 A 
ATOM     21  C   UNL A   1      32.191  20.589  22.788  1.00  0.00     0.021 A 
ATOM     22  C   UNL A   1      32.568  19.328  23.228  1.00  0.00     0.041 A 
ATOM     23  Cl  UNL A   1      32.229  17.945  22.262  1.00  0.00    -0.084 Cl
ENDBRANCH  10  17
ENDBRANCH   4   6
ENDBRANCH   3   4
ENDBRANCH   2   3
ENDBRANCH   1   2
BRANCH   1  24
ATOM     24  O   UNL A   1      38.685  21.160  25.049  1.00  0.00    -0.458 OA
BRANCH  24  25
ATOM     25  C   UNL A   1      39.500  20.220  25.571  1.00  0.00     0.338 C 
ATOM     26  O   UNL A   1      39.293  19.021  25.649  1.00  0.00    -0.246 OA
BRANCH  25  27
ATOM     27  C   UNL A   1      40.633  20.870  26.226  1.00  0.00     0.060 A 
ATOM     28  C   UNL A   1      40.662  20.801  27.624  1.00  0.00     0.016 A 
ATOM     29  C   UNL A   1      41.368  21.816  25.500  1.00  0.00     0.016 A 
ATOM     30  C   UNL A   1      41.234  21.844  28.310  1.00  0.00     0.010 A 
ATOM     31  C   UNL A   1      41.907  22.871  26.184  1.00  0.00     0.010 A 
ATOM     32  C   UNL A   1      41.745  22.907  27.568  1.00  0.00    -0.014 A 
BRANCH  32  33
ATOM     33  C   UNL A   1      42.121  24.107  28.273  1.00  0.00     0.031 A 
ATOM     34  C   UNL A   1      41.124  25.191  28.152  1.00  0.00     0.074 A 
ATOM     35  C   UNL A   1      43.211  24.099  29.064  1.00  0.00     0.049 A 
ATOM     36  N   UNL A   1      41.290  26.373  27.659  1.00  0.00    -0.248 NA
ATOM     37  C   UNL A   1      39.722  24.855  28.453  1.00  0.00     0.031 C 
ATOM     38  C   UNL A   1      44.034  22.945  29.450  1.00  0.00     0.029 A 
ATOM     39  N   UNL A   1      43.691  25.094  29.851  1.00  0.00    -0.354 N 
ATOM     40  C   UNL A   1      40.051  26.997  27.785  1.00  0.00     0.074 A 
ATOM     41  C   UNL A   1      39.095  25.962  28.063  1.00  0.00     0.031 C 
ATOM     42  C   UNL A   1      44.691  23.243  30.593  1.00  0.00     0.029 A 
ATOM     43  C   UNL A   1      44.415  24.626  30.940  1.00  0.00     0.049 A 
ATOM     44  H   UNL A   1      43.542  26.049  29.668  1.00  0.00     0.167 HD
ATOM     45  C   UNL A   1      39.943  28.346  27.904  1.00  0.00     0.034 A 
ATOM     46  C   UNL A   1      44.617  25.295  32.102  1.00  0.00     0.034 A 
ATOM     47  C   UNL A   1      41.158  29.004  27.507  1.00  0.00     0.049 A 
ATOM     48  C   UNL A   1      44.327  26.729  31.843  1.00  0.00     0.074 A 
ATOM     49  C   UNL A   1      41.879  29.082  26.333  1.00  0.00     0.029 A 
ATOM     50  N   UNL A   1      42.008  29.402  28.509  1.00  0.00    -0.354 N 
ATOM     51  N   UNL A   1      45.034  27.473  31.036  1.00  0.00    -0.248 NA
ATOM     52  C   UNL A   1      42.978  27.207  32.109  1.00  0.00     0.031 C 
ATOM     53  C   UNL A   1      43.243  29.069  26.742  1.00  0.00     0.029 A 
ATOM     54  C   UNL A   1      43.277  29.041  28.138  1.00  0.00     0.049 A 
ATOM     55  H   UNL A   1      41.754  29.861  29.343  1.00  0.00     0.167 HD
ATOM     56  C   UNL A   1      44.095  28.241  30.355  1.00  0.00     0.074 A 
ATOM     57  C   UNL A   1      42.861  28.109  31.129  1.00  0.00     0.031 C 
ATOM     58  C   UNL A   1      44.313  28.655  29.072  1.00  0.00     0.034 A 
BRANCH  45  59
ATOM     59  C   UNL A   1      38.883  29.059  28.710  1.00  0.00     0.023 A 
ATOM     60  C   UNL A   1      38.155  30.072  28.049  1.00  0.00     0.012 A 
ATOM     61  C   UNL A   1      38.750  28.990  30.117  1.00  0.00     0.148 A 
ATOM     62  C   UNL A   1      37.391  31.006  28.755  1.00  0.00     0.002 A 
ATOM     63  C   UNL A   1      37.927  29.871  30.806  1.00  0.00     0.091 A 
ATOM     64  F   UNL A   1      39.520  28.163  30.830  1.00  0.00    -0.205 F 
ATOM     65  C   UNL A   1      37.272  30.903  30.135  1.00  0.00     0.022 A 
BRANCH  63  66
ATOM     66  S   UNL A   1      37.706  29.747  32.586  1.00  0.00     0.127 S 
ATOM     67  O   UNL A   1      39.001  30.211  33.075  1.00  0.00    -0.237 OA
ATOM     68  O   UNL A   1      36.591  30.666  32.816  1.00  0.00    -0.237 OA
ATOM     69  O   UNL A   1      37.385  28.348  32.843  1.00  0.00    -0.744 OA
ENDBRANCH  63  66
ENDBRANCH  45  59
BRANCH  46  70
ATOM     70  C   UNL A   1      44.675  24.728  33.473  1.00  0.00     0.023 A 
ATOM     71  C   UNL A   1      43.491  24.323  34.115  1.00  0.00     0.012 A 
ATOM     72  C   UNL A   1      45.908  24.361  34.062  1.00  0.00     0.148 A 
ATOM     73  C   UNL A   1      43.535  23.572  35.298  1.00  0.00     0.002 A 
ATOM     74  C   UNL A   1      45.947  23.636  35.248  1.00  0.00     0.091 A 
ATOM     75  F   UNL A   1      47.046  24.633  33.410  1.00  0.00    -0.205 F 
ATOM     76  C   UNL A   1      44.760  23.229  35.865  1.00  0.00     0.022 A 
BRANCH  74  77
ATOM     77  S   UNL A   1      47.502  23.168  36.022  1.00  0.00     0.127 S 
ATOM     78  O   UNL A   1      47.046  22.450  37.213  1.00  0.00    -0.237 OA
ATOM     79  O   UNL A   1      48.111  22.329  34.995  1.00  0.00    -0.237 OA
ATOM     80  O   UNL A   1      48.190  24.421  36.312  1.00  0.00    -0.744 OA
ENDBRANCH  74  77
ENDBRANCH  46  70
BRANCH  58  81
ATOM     81  C   UNL A   1      45.680  28.440  28.470  1.00  0.00     0.023 A 
ATOM     82  C   UNL A   1      46.754  29.322  28.718  1.00  0.00     0.012 A 
ATOM     83  C   UNL A   1      45.944  27.212  27.842  1.00  0.00     0.148 A 
ATOM     84  C   UNL A   1      48.058  28.990  28.340  1.00  0.00     0.002 A 
ATOM     85  C   UNL A   1      47.247  26.863  27.514  1.00  0.00     0.091 A 
ATOM     86  F   UNL A   1      44.912  26.382  27.618  1.00  0.00    -0.205 F 
ATOM     87  C   UNL A   1      48.307  27.753  27.754  1.00  0.00     0.022 A 
BRANCH  85  88
ATOM     88  S   UNL A   1      47.648  25.227  26.900  1.00  0.00     0.127 S 
ATOM     89  O   UNL A   1      47.438  25.380  25.462  1.00  0.00    -0.237 OA
ATOM     90  O   UNL A   1      49.048  25.072  27.300  1.00  0.00    -0.237 OA
ATOM     91  O   UNL A   1      46.734  24.312  27.576  1.00  0.00    -0.744 OA
ENDBRANCH  85  88
ENDBRANCH  58  81
ENDBRANCH  32  33
ENDBRANCH  25  27
ENDBRANCH  24  25
ENDBRANCH   1  24
TORSDOF 15
ENDMDL
MODEL 3
REMARK VINA RESULT:     -11.9      3.370      7.461
REMARK SMILES CC1=C(C(=O)OCCOC(=O)c2ccc(-c3c4nc(c(-c5cccc(S(=O)(=O)[O-])c5F)c5ccc([nH]5)c(-c5cccc(S(=O)(=O)[O-])c5F)c5nc(c(-c6cccc(S(=O)(=O)[O-])c6F)c6ccc3[nH]6)C=C5)C=C4)cc2)[C@H](c2ccc(Cl)cc2)n2ncnc2N1
REMARK SMILES IDX 8 1 7 2 6 3 4 4 5 5 3 6 1 7 2 8 88 9 75 10 87 11 83 13 86 14
REMARK SMILES IDX 84 15 85 16 76 17 77 18 82 19 78 20 81 21 79 22 80 23 9 24
REMARK SMILES IDX 10 25 11 26 12 27 13 28 74 29 14 30 73 31 15 32 16 33 17 34
REMARK SMILES IDX 67 35 18 36 72 37 66 38 68 39 19 40 71 41 65 42 64 43 20 45
REMARK SMILES IDX 52 46 32 47 51 48 33 49 36 50 50 51 69 52 34 53 35 54 49 56
REMARK SMILES IDX 70 57 37 58 21 59 22 60 30 61 23 62 25 63 31 64 24 65 26 66
REMARK SMILES IDX 27 67 28 68 29 69 53 70 54 71 62 72 55 73 57 74 63 75 56 76
REMARK SMILES IDX 58 77 59 78 60 79 61 80 38 81 39 82 47 83 40 84 42 85 48 86
REMARK SMILES IDX 41 87 43 88 44 89 45 90 46 91
REMARK H PARENT 88 12 68 44 36 55
REMARK Flexibility Score: inf
ROOT
ATOM      1  C   UNL A   1      33.980  31.069  27.637  1.00  0.00     0.275 C 
ENDROOT
BRANCH   1   2
ATOM      2  C   UNL A   1      33.237  30.272  26.574  1.00  0.00     0.275 C 
BRANCH   2   3
ATOM      3  O   UNL A   1      33.793  28.948  26.437  1.00  0.00    -0.459 OA
BRANCH   3   4
ATOM      4  C   UNL A   1      33.606  28.327  25.244  1.00  0.00     0.338 C 
ATOM      5  O   UNL A   1      34.316  28.531  24.271  1.00  0.00    -0.246 OA
BRANCH   4   6
ATOM      6  C   UNL A   1      32.547  27.269  25.286  1.00  0.00     0.085 C 
ATOM      7  C   UNL A   1      30.740  28.747  24.262  1.00  0.00     0.065 C 
ATOM      8  C   UNL A   1      31.266  27.466  24.863  1.00  0.00     0.028 C 
ATOM      9  N   UNL A   1      30.307  26.476  25.038  1.00  0.00    -0.328 N 
ATOM     10  C   UNL A   1      32.934  25.966  26.035  1.00  0.00     0.181 C 
ATOM     11  C   UNL A   1      30.505  25.377  25.782  1.00  0.00     0.226 A 
ATOM     12  H   UNL A   1      29.436  26.586  24.592  1.00  0.00     0.169 HD
ATOM     13  N   UNL A   1      31.734  25.161  26.341  1.00  0.00    -0.219 N 
ATOM     14  N   UNL A   1      29.688  24.409  26.109  1.00  0.00    -0.200 NA
ATOM     15  N   UNL A   1      31.721  24.048  27.111  1.00  0.00    -0.157 NA
ATOM     16  C   UNL A   1      30.461  23.633  26.932  1.00  0.00     0.248 A 
BRANCH  10  17
ATOM     17  C   UNL A   1      33.998  25.097  25.339  1.00  0.00    -0.018 A 
ATOM     18  C   UNL A   1      35.135  24.599  26.002  1.00  0.00     0.008 A 
ATOM     19  C   UNL A   1      33.862  24.788  23.972  1.00  0.00     0.008 A 
ATOM     20  C   UNL A   1      36.064  23.793  25.336  1.00  0.00     0.021 A 
ATOM     21  C   UNL A   1      34.753  23.930  23.322  1.00  0.00     0.021 A 
ATOM     22  C   UNL A   1      35.851  23.434  24.010  1.00  0.00     0.041 A 
ATOM     23  Cl  UNL A   1      36.950  22.372  23.219  1.00  0.00    -0.084 Cl
ENDBRANCH  10  17
ENDBRANCH   4   6
ENDBRANCH   3   4
ENDBRANCH   2   3
ENDBRANCH   1   2
BRANCH   1  24
ATOM     24  O   UNL A   1      35.362  30.724  27.641  1.00  0.00    -0.458 OA
BRANCH  24  25
ATOM     25  C   UNL A   1      36.187  31.659  28.157  1.00  0.00     0.338 C 
ATOM     26  O   UNL A   1      36.298  32.823  27.808  1.00  0.00    -0.246 OA
BRANCH  25  27
ATOM     27  C   UNL A   1      37.102  31.027  29.105  1.00  0.00     0.060 A 
ATOM     28  C   UNL A   1      38.187  31.804  29.528  1.00  0.00     0.016 A 
ATOM     29  C   UNL A   1      37.078  29.632  29.223  1.00  0.00     0.016 A 
ATOM     30  C   UNL A   1      39.358  31.160  29.841  1.00  0.00     0.010 A 
ATOM     31  C   UNL A   1      38.255  28.993  29.502  1.00  0.00     0.010 A 
ATOM     32  C   UNL A   1      39.391  29.772  29.713  1.00  0.00    -0.014 A 
BRANCH  32  33
ATOM     33  C   UNL A   1      40.670  29.114  29.799  1.00  0.00     0.031 A 
ATOM     34  C   UNL A   1      41.080  28.818  31.188  1.00  0.00     0.074 A 
ATOM     35  C   UNL A   1      41.287  28.708  28.673  1.00  0.00     0.049 A 
ATOM     36  N   UNL A   1      42.134  29.228  31.811  1.00  0.00    -0.248 NA
ATOM     37  C   UNL A   1      40.105  28.126  32.046  1.00  0.00     0.031 C 
ATOM     38  C   UNL A   1      40.752  28.706  27.305  1.00  0.00     0.029 A 
ATOM     39  N   UNL A   1      42.451  28.024  28.548  1.00  0.00    -0.354 N 
ATOM     40  C   UNL A   1      42.048  28.665  33.083  1.00  0.00     0.074 A 
ATOM     41  C   UNL A   1      40.699  28.198  33.235  1.00  0.00     0.031 C 
ATOM     42  C   UNL A   1      41.440  27.803  26.571  1.00  0.00     0.029 A 
ATOM     43  C   UNL A   1      42.513  27.262  27.387  1.00  0.00     0.049 A 
ATOM     44  H   UNL A   1      43.178  28.063  29.210  1.00  0.00     0.167 HD
ATOM     45  C   UNL A   1      43.158  28.395  33.818  1.00  0.00     0.034 A 
ATOM     46  C   UNL A   1      43.289  26.166  27.200  1.00  0.00     0.034 A 
ATOM     47  C   UNL A   1      44.307  29.091  33.304  1.00  0.00     0.049 A 
ATOM     48  C   UNL A   1      44.346  26.190  28.243  1.00  0.00     0.074 A 
ATOM     49  C   UNL A   1      44.640  30.420  33.133  1.00  0.00     0.029 A 
ATOM     50  N   UNL A   1      45.167  28.373  32.508  1.00  0.00    -0.354 N 
ATOM     51  N   UNL A   1      45.274  27.106  28.309  1.00  0.00    -0.248 NA
ATOM     52  C   UNL A   1      44.091  25.473  29.484  1.00  0.00     0.031 C 
ATOM     53  C   UNL A   1      45.358  30.460  31.905  1.00  0.00     0.029 A 
ATOM     54  C   UNL A   1      45.472  29.153  31.425  1.00  0.00     0.049 A 
ATOM     55  H   UNL A   1      45.502  27.463  32.684  1.00  0.00     0.167 HD
ATOM     56  C   UNL A   1      45.394  27.386  29.665  1.00  0.00     0.074 A 
ATOM     57  C   UNL A   1      44.720  26.281  30.345  1.00  0.00     0.031 C 
ATOM     58  C   UNL A   1      45.750  28.630  30.105  1.00  0.00     0.034 A 
BRANCH  45  59
ATOM     59  C   UNL A   1      43.298  27.237  34.776  1.00  0.00     0.023 A 
ATOM     60  C   UNL A   1      43.353  27.552  36.152  1.00  0.00     0.012 A 
ATOM     61  C   UNL A   1      43.649  25.917  34.408  1.00  0.00     0.148 A 
ATOM     62  C   UNL A   1      43.797  26.625  37.099  1.00  0.00     0.002 A 
ATOM     63  C   UNL A   1      44.013  24.976  35.363  1.00  0.00     0.091 A 
ATOM     64  F   UNL A   1      43.771  25.583  33.121  1.00  0.00    -0.205 F 
ATOM     65  C   UNL A   1      44.123  25.334  36.707  1.00  0.00     0.022 A 
BRANCH  63  66
ATOM     66  S   UNL A   1      44.399  23.280  34.907  1.00  0.00     0.127 S 
ATOM     67  O   UNL A   1      43.136  22.839  34.323  1.00  0.00    -0.237 OA
ATOM     68  O   UNL A   1      45.493  23.465  33.953  1.00  0.00    -0.237 OA
ATOM     69  O   UNL A   1      44.798  22.625  36.147  1.00  0.00    -0.744 OA
ENDBRANCH  63  66
ENDBRANCH  45  59
BRANCH  46  70
ATOM     70  C   UNL A   1      42.951  24.940  26.434  1.00  0.00     0.023 A 
ATOM     71  C   UNL A   1      43.788  24.514  25.386  1.00  0.00     0.012 A 
ATOM     72  C   UNL A   1      41.942  24.053  26.879  1.00  0.00     0.148 A 
ATOM     73  C   UNL A   1      43.628  23.247  24.808  1.00  0.00     0.002 A 
ATOM     74  C   UNL A   1      41.773  22.807  26.287  1.00  0.00     0.091 A 
ATOM     75  F   UNL A   1      41.210  24.387  27.950  1.00  0.00    -0.205 F 
ATOM     76  C   UNL A   1      42.622  22.394  25.257  1.00  0.00     0.022 A 
BRANCH  74  77
ATOM     77  S   UNL A   1      40.489  21.668  26.828  1.00  0.00     0.127 S 
ATOM     78  O   UNL A   1      40.733  21.594  28.269  1.00  0.00    -0.237 OA
ATOM     79  O   UNL A   1      39.273  22.378  26.446  1.00  0.00    -0.237 OA
ATOM     80  O   UNL A   1      40.747  20.420  26.118  1.00  0.00    -0.744 OA
ENDBRANCH  74  77
ENDBRANCH  46  70
BRANCH  58  81
ATOM     81  C   UNL A   1      46.211  29.646  29.088  1.00  0.00     0.023 A 
ATOM     82  C   UNL A   1      47.531  29.659  28.588  1.00  0.00     0.012 A 
ATOM     83  C   UNL A   1      45.241  30.443  28.460  1.00  0.00     0.148 A 
ATOM     84  C   UNL A   1      47.876  30.455  27.493  1.00  0.00     0.002 A 
ATOM     85  C   UNL A   1      45.576  31.193  27.340  1.00  0.00     0.091 A 
ATOM     86  F   UNL A   1      43.989  30.416  28.943  1.00  0.00    -0.205 F 
ATOM     87  C   UNL A   1      46.894  31.210  26.858  1.00  0.00     0.022 A 
BRANCH  85  88
ATOM     88  S   UNL A   1      44.325  32.061  26.391  1.00  0.00     0.127 S 
ATOM     89  O   UNL A   1      43.883  33.086  27.333  1.00  0.00    -0.237 OA
ATOM     90  O   UNL A   1      45.088  32.568  25.249  1.00  0.00    -0.237 OA
ATOM     91  O   UNL A   1      43.326  31.059  26.037  1.00  0.00    -0.744 OA
ENDBRANCH  85  88
ENDBRANCH  58  81
ENDBRANCH  32  33
ENDBRANCH  25  27
ENDBRANCH  24  25
ENDBRANCH   1  24
TORSDOF 15
ENDMDL
