MODEL 1
REMARK VINA RESULT:     -13.0      0.000      0.000
REMARK SMILES Cc1ccccc1OCC(=O)Nc1ccc2c(c1)C(=O)N(CC(=O)OCCOC(=O)c1ccc(-c3c4nc(c(-c5cccc(S(=O)(=O)[O-])c5F)c5ccc([nH]5)c(-c5cccc(S(=O)(=O)[O-])c5F)c5nc(c(-c6cccc(S(=O)(=O)[O-])c6F)c6ccc3[nH]6)C=C5)C=C4)cc1)C2=O
REMARK SMILES IDX 26 1 25 2 23 3 24 4 22 5 21 6 13 7 14 8 18 9 15 10 17 11
REMARK SMILES IDX 16 12 19 13 94 14 20 15 95 16 12 17 10 18 11 19 9 21 8 22
REMARK SMILES IDX 7 23 1 24 2 25 3 26 4 27 6 28 5 29 27 30 28 31 29 32 30 33
REMARK SMILES IDX 31 34 32 35 93 36 33 37 92 38 34 39 35 40 36 41 86 42 37 43
REMARK SMILES IDX 91 44 85 45 87 46 38 47 90 48 84 49 83 50 39 52 71 53 51 54
REMARK SMILES IDX 70 55 52 56 55 57 69 58 88 59 53 60 54 61 68 63 89 64 56 65
REMARK SMILES IDX 40 66 41 67 49 68 42 69 44 70 50 71 43 72 45 73 46 74 47 75
REMARK SMILES IDX 48 76 72 77 73 78 81 79 74 80 76 81 82 82 75 83 77 84 78 85
REMARK SMILES IDX 79 86 80 87 57 88 58 89 66 90 59 91 61 92 67 93 60 94 62 95
REMARK SMILES IDX 63 96 64 97 65 98
REMARK H PARENT 12 20 87 51 55 62
REMARK Flexibility Score: inf
ROOT
ATOM      1  C   UNL A   1      40.067  20.459  26.550  1.00  0.00     0.274 C 
ENDROOT
BRANCH   1   2
ATOM      2  O   UNL A   1      39.185  21.142  25.653  1.00  0.00    -0.461 OA
BRANCH   2   3
ATOM      3  C   UNL A   1      38.083  20.367  25.122  1.00  0.00     0.326 C 
ATOM      4  O   UNL A   1      38.560  19.219  24.915  1.00  0.00    -0.250 OA
BRANCH   3   5
ATOM      5  C   UNL A   1      36.021  21.113  25.014  1.00  0.00     0.251 C 
BRANCH   5   6
ATOM      6  N   UNL A   1      35.193  22.264  25.768  1.00  0.00    -0.263 N 
ATOM      7  C   UNL A   1      32.807  25.999  25.774  1.00  0.00     0.042 A 
ATOM      8  C   UNL A   1      31.874  25.214  26.485  1.00  0.00     0.027 A 
ATOM      9  C   UNL A   1      34.092  25.542  25.550  1.00  0.00     0.040 A 
ATOM     10  C   UNL A   1      32.191  23.910  26.904  1.00  0.00     0.017 A 
ATOM     11  C   UNL A   1      34.388  24.306  26.065  1.00  0.00     0.055 A 
ATOM     12  C   UNL A   1      33.458  23.459  26.613  1.00  0.00     0.053 A 
ATOM     13  C   UNL A   1      35.599  23.560  25.891  1.00  0.00     0.262 C 
ATOM     14  C   UNL A   1      34.031  22.110  26.489  1.00  0.00     0.262 C 
ATOM     15  O   UNL A   1      36.677  24.113  25.853  1.00  0.00    -0.269 OA
ATOM     16  O   UNL A   1      33.492  21.108  26.914  1.00  0.00    -0.269 OA
BRANCH   7  17
ATOM     17  N   UNL A   1      32.489  27.235  25.214  1.00  0.00    -0.323 N 
ATOM     18  C   UNL A   1      31.268  27.552  24.691  1.00  0.00     0.262 C 
ATOM     19  O   UNL A   1      30.946  28.744  24.649  1.00  0.00    -0.271 OA
ATOM     20  H   UNL A   1      33.190  27.926  25.195  1.00  0.00     0.170 HD
BRANCH  18  21
ATOM     21  C   UNL A   1      30.282  26.439  24.298  1.00  0.00     0.329 C 
BRANCH  21  22
ATOM     22  O   UNL A   1      30.393  25.686  23.111  1.00  0.00    -0.483 OA
BRANCH  22  23
ATOM     23  C   UNL A   1      31.361  24.739  22.946  1.00  0.00     0.122 A 
ATOM     24  C   UNL A   1      33.152  26.062  21.627  1.00  0.00     0.048 C 
ATOM     25  C   UNL A   1      32.608  24.850  22.322  1.00  0.00    -0.009 A 
ATOM     26  C   UNL A   1      33.452  23.717  22.307  1.00  0.00     0.007 A 
ATOM     27  C   UNL A   1      33.052  22.493  22.843  1.00  0.00     0.001 A 
ATOM     28  C   UNL A   1      30.954  23.487  23.443  1.00  0.00     0.047 A 
ATOM     29  C   UNL A   1      31.792  22.374  23.405  1.00  0.00     0.004 A 
ENDBRANCH  22  23
ENDBRANCH  21  22
ENDBRANCH  18  21
ENDBRANCH   7  17
ENDBRANCH   5   6
ENDBRANCH   3   5
ENDBRANCH   2   3
ENDBRANCH   1   2
BRANCH   1  30
ATOM     30  C   UNL A   1      41.511  20.701  26.088  1.00  0.00     0.275 C 
BRANCH  30  31
ATOM     31  O   UNL A   1      41.897  22.083  25.816  1.00  0.00    -0.458 OA
BRANCH  31  32
ATOM     32  C   UNL A   1      42.017  23.065  26.757  1.00  0.00     0.338 C 
ATOM     33  O   UNL A   1      42.727  22.971  27.747  1.00  0.00    -0.246 OA
BRANCH  32  34
ATOM     34  C   UNL A   1      41.017  24.148  26.659  1.00  0.00     0.060 A 
ATOM     35  C   UNL A   1      41.588  25.639  25.797  1.00  0.00     0.016 A 
ATOM     36  C   UNL A   1      39.765  24.276  27.947  1.00  0.00     0.016 A 
ATOM     37  C   UNL A   1      41.125  27.267  26.433  1.00  0.00     0.010 A 
ATOM     38  C   UNL A   1      39.275  25.902  28.555  1.00  0.00     0.010 A 
ATOM     39  C   UNL A   1      40.044  27.378  27.840  1.00  0.00    -0.014 A 
BRANCH  39  40
ATOM     40  C   UNL A   1      40.283  28.410  28.842  1.00  0.00     0.031 A 
ATOM     41  C   UNL A   1      39.370  29.550  28.752  1.00  0.00     0.074 A 
ATOM     42  C   UNL A   1      41.108  28.185  29.908  1.00  0.00     0.049 A 
ATOM     43  N   UNL A   1      39.547  30.638  29.399  1.00  0.00    -0.248 NA
ATOM     44  C   UNL A   1      38.221  29.596  27.842  1.00  0.00     0.031 C 
ATOM     45  C   UNL A   1      41.019  28.812  31.230  1.00  0.00     0.029 A 
ATOM     46  N   UNL A   1      42.226  27.356  30.071  1.00  0.00    -0.354 N 
ATOM     47  C   UNL A   1      38.393  31.367  29.260  1.00  0.00     0.074 A 
ATOM     48  C   UNL A   1      37.702  30.787  28.145  1.00  0.00     0.031 C 
ATOM     49  C   UNL A   1      42.133  28.548  31.937  1.00  0.00     0.029 A 
ATOM     50  C   UNL A   1      43.072  27.899  31.046  1.00  0.00     0.049 A 
ATOM     51  H   UNL A   1      42.391  26.520  29.577  1.00  0.00     0.167 HD
ATOM     52  C   UNL A   1      38.093  32.249  30.245  1.00  0.00     0.034 A 
ATOM     53  C   UNL A   1      44.371  28.291  30.856  1.00  0.00     0.034 A 
ATOM     54  C   UNL A   1      39.261  32.414  31.130  1.00  0.00     0.049 A 
ATOM     55  C   UNL A   1      44.489  29.815  30.973  1.00  0.00     0.074 A 
ATOM     56  C   UNL A   1      39.580  31.911  32.380  1.00  0.00     0.029 A 
ATOM     57  N   UNL A   1      40.465  32.850  30.572  1.00  0.00    -0.354 N 
ATOM     58  N   UNL A   1      43.476  30.608  31.197  1.00  0.00    -0.248 NA
ATOM     59  C   UNL A   1      45.732  30.567  30.805  1.00  0.00     0.031 C 
ATOM     60  C   UNL A   1      41.000  31.972  32.524  1.00  0.00     0.029 A 
ATOM     61  C   UNL A   1      41.545  32.565  31.396  1.00  0.00     0.049 A 
ATOM     62  H   UNL A   1      40.538  33.303  29.701  1.00  0.00     0.167 HD
ATOM     63  C   UNL A   1      43.841  31.916  31.033  1.00  0.00     0.074 A 
ATOM     64  C   UNL A   1      45.287  31.835  30.875  1.00  0.00     0.031 C 
ATOM     65  C   UNL A   1      42.911  32.927  30.986  1.00  0.00     0.034 A 
BRANCH  52  66
ATOM     66  C   UNL A   1      36.709  32.797  30.534  1.00  0.00     0.023 A 
ATOM     67  C   UNL A   1      36.172  32.491  31.801  1.00  0.00     0.012 A 
ATOM     68  C   UNL A   1      35.847  33.500  29.646  1.00  0.00     0.148 A 
ATOM     69  C   UNL A   1      34.872  32.852  32.171  1.00  0.00     0.002 A 
ATOM     70  C   UNL A   1      34.571  33.919  30.041  1.00  0.00     0.091 A 
ATOM     71  F   UNL A   1      36.197  33.700  28.375  1.00  0.00    -0.205 F 
ATOM     72  C   UNL A   1      34.077  33.581  31.299  1.00  0.00     0.022 A 
BRANCH  70  73
ATOM     73  S   UNL A   1      33.493  34.909  28.981  1.00  0.00     0.127 S 
ATOM     74  O   UNL A   1      32.630  35.574  29.957  1.00  0.00    -0.237 OA
ATOM     75  O   UNL A   1      34.445  35.795  28.310  1.00  0.00    -0.237 OA
ATOM     76  O   UNL A   1      32.812  33.975  28.095  1.00  0.00    -0.744 OA
ENDBRANCH  70  73
ENDBRANCH  52  66
BRANCH  53  77
ATOM     77  C   UNL A   1      45.114  27.465  29.853  1.00  0.00     0.023 A 
ATOM     78  C   UNL A   1      45.063  26.059  30.005  1.00  0.00     0.012 A 
ATOM     79  C   UNL A   1      45.346  28.000  28.585  1.00  0.00     0.148 A 
ATOM     80  C   UNL A   1      44.924  25.243  28.881  1.00  0.00     0.002 A 
ATOM     81  C   UNL A   1      45.168  27.195  27.471  1.00  0.00     0.091 A 
ATOM     82  F   UNL A   1      45.629  29.302  28.456  1.00  0.00    -0.205 F 
ATOM     83  C   UNL A   1      44.902  25.826  27.613  1.00  0.00     0.022 A 
BRANCH  81  84
ATOM     84  S   UNL A   1      44.988  28.023  25.886  1.00  0.00     0.127 S 
ATOM     85  O   UNL A   1      44.577  26.935  24.998  1.00  0.00    -0.237 OA
ATOM     86  O   UNL A   1      43.941  29.005  26.141  1.00  0.00    -0.237 OA
ATOM     87  O   UNL A   1      46.326  28.546  25.648  1.00  0.00    -0.744 OA
ENDBRANCH  81  84
ENDBRANCH  53  77
BRANCH  65  88
ATOM     88  C   UNL A   1      43.206  34.374  30.588  1.00  0.00     0.023 A 
ATOM     89  C   UNL A   1      43.492  35.379  31.531  1.00  0.00     0.012 A 
ATOM     90  C   UNL A   1      43.280  34.771  29.223  1.00  0.00     0.148 A 
ATOM     91  C   UNL A   1      43.693  36.715  31.166  1.00  0.00     0.002 A 
ATOM     92  C   UNL A   1      43.625  36.069  28.860  1.00  0.00     0.091 A 
ATOM     93  F   UNL A   1      42.974  33.906  28.250  1.00  0.00    -0.205 F 
ATOM     94  C   UNL A   1      43.773  37.059  29.827  1.00  0.00     0.022 A 
BRANCH  92  95
ATOM     95  S   UNL A   1      44.007  36.509  27.159  1.00  0.00     0.127 S 
ATOM     96  O   UNL A   1      44.869  35.401  26.751  1.00  0.00    -0.237 OA
ATOM     97  O   UNL A   1      42.680  36.510  26.541  1.00  0.00    -0.237 OA
ATOM     98  O   UNL A   1      44.642  37.819  27.216  1.00  0.00    -0.744 OA
ENDBRANCH  92  95
ENDBRANCH  65  88
ENDBRANCH  39  40
ENDBRANCH  32  34
ENDBRANCH  31  32
ENDBRANCH  30  31
ENDBRANCH   1  30
TORSDOF 19
ENDMDL
MODEL 2
REMARK VINA RESULT:     -12.7      2.835      4.136
REMARK SMILES Cc1ccccc1OCC(=O)Nc1ccc2c(c1)C(=O)N(CC(=O)OCCOC(=O)c1ccc(-c3c4nc(c(-c5cccc(S(=O)(=O)[O-])c5F)c5ccc([nH]5)c(-c5cccc(S(=O)(=O)[O-])c5F)c5nc(c(-c6cccc(S(=O)(=O)[O-])c6F)c6ccc3[nH]6)C=C5)C=C4)cc1)C2=O
REMARK SMILES IDX 26 1 25 2 23 3 24 4 22 5 21 6 13 7 14 8 18 9 15 10 17 11
REMARK SMILES IDX 16 12 19 13 94 14 20 15 95 16 12 17 10 18 11 19 9 21 8 22
REMARK SMILES IDX 7 23 1 24 2 25 3 26 4 27 6 28 5 29 27 30 28 31 29 32 30 33
REMARK SMILES IDX 31 34 32 35 93 36 33 37 92 38 34 39 35 40 36 41 86 42 37 43
REMARK SMILES IDX 91 44 85 45 87 46 38 47 90 48 84 49 83 50 39 52 71 53 51 54
REMARK SMILES IDX 70 55 52 56 55 57 69 58 88 59 53 60 54 61 68 63 89 64 56 65
REMARK SMILES IDX 40 66 41 67 49 68 42 69 44 70 50 71 43 72 45 73 46 74 47 75
REMARK SMILES IDX 48 76 72 77 73 78 81 79 74 80 76 81 82 82 75 83 77 84 78 85
REMARK SMILES IDX 79 86 80 87 57 88 58 89 66 90 59 91 61 92 67 93 60 94 62 95
REMARK SMILES IDX 63 96 64 97 65 98
REMARK H PARENT 12 20 87 51 55 62
REMARK Flexibility Score: inf
ROOT
ATOM      1  C   UNL A   1      42.253  18.960  25.978  1.00  0.00     0.274 C 
ENDROOT
BRANCH   1   2
ATOM      2  O   UNL A   1      41.245  19.662  25.244  1.00  0.00    -0.461 OA
BRANCH   2   3
ATOM      3  C   UNL A   1      39.988  19.880  25.928  1.00  0.00     0.326 C 
ATOM      4  O   UNL A   1      40.306  20.281  27.080  1.00  0.00    -0.250 OA
BRANCH   3   5
ATOM      5  C   UNL A   1      38.033  19.745  24.937  1.00  0.00     0.251 C 
BRANCH   5   6
ATOM      6  N   UNL A   1      36.698  20.638  24.941  1.00  0.00    -0.263 N 
ATOM      7  C   UNL A   1      34.000  23.645  23.119  1.00  0.00     0.042 A 
ATOM      8  C   UNL A   1      33.025  22.639  23.290  1.00  0.00     0.027 A 
ATOM      9  C   UNL A   1      35.244  23.531  23.710  1.00  0.00     0.040 A 
ATOM     10  C   UNL A   1      33.317  21.453  23.985  1.00  0.00     0.017 A 
ATOM     11  C   UNL A   1      35.451  22.405  24.464  1.00  0.00     0.055 A 
ATOM     12  C   UNL A   1      34.584  21.342  24.510  1.00  0.00     0.053 A 
ATOM     13  C   UNL A   1      36.670  21.993  25.093  1.00  0.00     0.262 C 
ATOM     14  C   UNL A   1      35.400  20.185  24.909  1.00  0.00     0.262 C 
ATOM     15  O   UNL A   1      37.426  22.802  25.587  1.00  0.00    -0.269 OA
ATOM     16  O   UNL A   1      34.945  19.074  25.093  1.00  0.00    -0.269 OA
BRANCH   7  17
ATOM     17  N   UNL A   1      33.802  24.767  22.316  1.00  0.00    -0.323 N 
ATOM     18  C   UNL A   1      33.627  26.035  22.794  1.00  0.00     0.262 C 
ATOM     19  O   UNL A   1      33.914  26.979  22.051  1.00  0.00    -0.271 OA
ATOM     20  H   UNL A   1      33.787  24.638  21.340  1.00  0.00     0.170 HD
BRANCH  18  21
ATOM     21  C   UNL A   1      33.217  26.260  24.259  1.00  0.00     0.329 C 
BRANCH  21  22
ATOM     22  O   UNL A   1      33.894  27.140  25.129  1.00  0.00    -0.483 OA
BRANCH  22  23
ATOM     23  C   UNL A   1      33.337  28.313  25.544  1.00  0.00     0.122 A 
ATOM     24  C   UNL A   1      35.056  29.099  27.312  1.00  0.00     0.048 C 
ATOM     25  C   UNL A   1      33.812  29.233  26.485  1.00  0.00    -0.009 A 
ATOM     26  C   UNL A   1      33.053  30.401  26.721  1.00  0.00     0.007 A 
ATOM     27  C   UNL A   1      31.832  30.628  26.086  1.00  0.00     0.001 A 
ATOM     28  C   UNL A   1      32.083  28.535  24.945  1.00  0.00     0.047 A 
ATOM     29  C   UNL A   1      31.339  29.685  25.201  1.00  0.00     0.004 A 
ENDBRANCH  22  23
ENDBRANCH  21  22
ENDBRANCH  18  21
ENDBRANCH   7  17
ENDBRANCH   5   6
ENDBRANCH   3   5
ENDBRANCH   2   3
ENDBRANCH   1   2
BRANCH   1  30
ATOM     30  C   UNL A   1      43.568  19.036  25.191  1.00  0.00     0.275 C 
BRANCH  30  31
ATOM     31  O   UNL A   1      44.667  19.777  25.805  1.00  0.00    -0.458 OA
BRANCH  31  32
ATOM     32  C   UNL A   1      44.807  21.135  25.784  1.00  0.00     0.338 C 
ATOM     33  O   UNL A   1      45.889  21.703  25.763  1.00  0.00    -0.246 OA
BRANCH  32  34
ATOM     34  C   UNL A   1      43.574  21.894  26.073  1.00  0.00     0.060 A 
ATOM     35  C   UNL A   1      43.196  23.215  24.887  1.00  0.00     0.016 A 
ATOM     36  C   UNL A   1      43.042  22.042  27.786  1.00  0.00     0.016 A 
ATOM     37  C   UNL A   1      42.555  24.795  25.490  1.00  0.00     0.010 A 
ATOM     38  C   UNL A   1      42.366  23.607  28.378  1.00  0.00     0.010 A 
ATOM     39  C   UNL A   1      42.223  24.997  27.224  1.00  0.00    -0.014 A 
BRANCH  39  40
ATOM     40  C   UNL A   1      42.525  26.272  27.864  1.00  0.00     0.031 A 
ATOM     41  C   UNL A   1      41.366  27.153  28.011  1.00  0.00     0.074 A 
ATOM     42  C   UNL A   1      43.720  26.484  28.492  1.00  0.00     0.049 A 
ATOM     43  N   UNL A   1      41.464  28.381  28.352  1.00  0.00    -0.248 NA
ATOM     44  C   UNL A   1      39.995  26.747  27.687  1.00  0.00     0.031 C 
ATOM     45  C   UNL A   1      43.968  27.390  29.616  1.00  0.00     0.029 A 
ATOM     46  N   UNL A   1      45.001  25.955  28.277  1.00  0.00    -0.354 N 
ATOM     47  C   UNL A   1      40.189  28.814  28.619  1.00  0.00     0.074 A 
ATOM     48  C   UNL A   1      39.319  27.852  28.007  1.00  0.00     0.031 C 
ATOM     49  C   UNL A   1      45.293  27.533  29.806  1.00  0.00     0.029 A 
ATOM     50  C   UNL A   1      45.964  26.877  28.703  1.00  0.00     0.049 A 
ATOM     51  H   UNL A   1      45.192  25.071  27.888  1.00  0.00     0.167 HD
ATOM     52  C   UNL A   1      40.052  29.838  29.496  1.00  0.00     0.034 A 
ATOM     53  C   UNL A   1      46.928  27.454  27.918  1.00  0.00     0.034 A 
ATOM     54  C   UNL A   1      41.371  30.442  29.759  1.00  0.00     0.049 A 
ATOM     55  C   UNL A   1      46.649  28.953  27.749  1.00  0.00     0.074 A 
ATOM     56  C   UNL A   1      42.268  30.338  30.808  1.00  0.00     0.029 A 
ATOM     57  N   UNL A   1      42.098  30.950  28.680  1.00  0.00    -0.354 N 
ATOM     58  N   UNL A   1      45.618  29.564  28.269  1.00  0.00    -0.248 NA
ATOM     59  C   UNL A   1      47.470  29.866  26.956  1.00  0.00     0.031 C 
ATOM     60  C   UNL A   1      43.557  30.707  30.317  1.00  0.00     0.029 A 
ATOM     61  C   UNL A   1      43.443  31.095  28.991  1.00  0.00     0.049 A 
ATOM     62  H   UNL A   1      41.705  31.177  27.807  1.00  0.00     0.167 HD
ATOM     63  C   UNL A   1      45.512  30.835  27.775  1.00  0.00     0.074 A 
ATOM     64  C   UNL A   1      46.749  31.000  27.024  1.00  0.00     0.031 C 
ATOM     65  C   UNL A   1      44.390  31.602  27.985  1.00  0.00     0.034 A 
BRANCH  52  66
ATOM     66  C   UNL A   1      38.787  30.160  30.270  1.00  0.00     0.023 A 
ATOM     67  C   UNL A   1      38.527  29.356  31.398  1.00  0.00     0.012 A 
ATOM     68  C   UNL A   1      37.783  31.113  29.940  1.00  0.00     0.148 A 
ATOM     69  C   UNL A   1      37.354  29.480  32.152  1.00  0.00     0.002 A 
ATOM     70  C   UNL A   1      36.643  31.282  30.733  1.00  0.00     0.091 A 
ATOM     71  F   UNL A   1      37.856  31.813  28.807  1.00  0.00    -0.205 F 
ATOM     72  C   UNL A   1      36.420  30.454  31.832  1.00  0.00     0.022 A 
BRANCH  70  73
ATOM     73  S   UNL A   1      35.402  32.555  30.409  1.00  0.00     0.127 S 
ATOM     74  O   UNL A   1      36.199  33.781  30.464  1.00  0.00    -0.237 OA
ATOM     75  O   UNL A   1      34.932  32.197  29.070  1.00  0.00    -0.237 OA
ATOM     76  O   UNL A   1      34.396  32.429  31.455  1.00  0.00    -0.744 OA
ENDBRANCH  70  73
ENDBRANCH  52  66
BRANCH  53  77
ATOM     77  C   UNL A   1      47.433  26.566  26.825  1.00  0.00     0.023 A 
ATOM     78  C   UNL A   1      46.789  26.653  25.568  1.00  0.00     0.012 A 
ATOM     79  C   UNL A   1      48.757  26.126  26.877  1.00  0.00     0.148 A 
ATOM     80  C   UNL A   1      47.546  26.614  24.395  1.00  0.00     0.002 A 
ATOM     81  C   UNL A   1      49.514  26.128  25.717  1.00  0.00     0.091 A 
ATOM     82  F   UNL A   1      49.306  25.815  28.057  1.00  0.00    -0.205 F 
ATOM     83  C   UNL A   1      48.926  26.425  24.480  1.00  0.00     0.022 A 
BRANCH  81  84
ATOM     84  S   UNL A   1      51.300  26.042  25.906  1.00  0.00     0.127 S 
ATOM     85  O   UNL A   1      51.779  26.208  24.535  1.00  0.00    -0.237 OA
ATOM     86  O   UNL A   1      51.597  27.172  26.778  1.00  0.00    -0.237 OA
ATOM     87  O   UNL A   1      51.493  24.714  26.475  1.00  0.00    -0.744 OA
ENDBRANCH  81  84
ENDBRANCH  53  77
BRANCH  65  88
ATOM     88  C   UNL A   1      44.094  32.933  27.294  1.00  0.00     0.023 A 
ATOM     89  C   UNL A   1      44.153  33.094  25.897  1.00  0.00     0.012 A 
ATOM     90  C   UNL A   1      43.669  34.075  28.028  1.00  0.00     0.148 A 
ATOM     91  C   UNL A   1      43.950  34.332  25.275  1.00  0.00     0.002 A 
ATOM     92  C   UNL A   1      43.325  35.264  27.392  1.00  0.00     0.091 A 
ATOM     93  F   UNL A   1      43.630  34.045  29.365  1.00  0.00    -0.205 F 
ATOM     94  C   UNL A   1      43.522  35.416  26.022  1.00  0.00     0.022 A 
BRANCH  92  95
ATOM     95  S   UNL A   1      42.513  36.609  28.266  1.00  0.00     0.127 S 
ATOM     96  O   UNL A   1      42.191  37.524  27.173  1.00  0.00    -0.237 OA
ATOM     97  O   UNL A   1      41.356  35.932  28.856  1.00  0.00    -0.237 OA
ATOM     98  O   UNL A   1      43.480  37.097  29.239  1.00  0.00    -0.744 OA
ENDBRANCH  92  95
ENDBRANCH  65  88
ENDBRANCH  39  40
ENDBRANCH  32  34
ENDBRANCH  31  32
ENDBRANCH  30  31
ENDBRANCH   1  30
TORSDOF 19
ENDMDL
MODEL 3
REMARK VINA RESULT:     -12.7      1.734      2.901
REMARK SMILES Cc1ccccc1OCC(=O)Nc1ccc2c(c1)C(=O)N(CC(=O)OCCOC(=O)c1ccc(-c3c4nc(c(-c5cccc(S(=O)(=O)[O-])c5F)c5ccc([nH]5)c(-c5cccc(S(=O)(=O)[O-])c5F)c5nc(c(-c6cccc(S(=O)(=O)[O-])c6F)c6ccc3[nH]6)C=C5)C=C4)cc1)C2=O
REMARK SMILES IDX 26 1 25 2 23 3 24 4 22 5 21 6 13 7 14 8 18 9 15 10 17 11
REMARK SMILES IDX 16 12 19 13 94 14 20 15 95 16 12 17 10 18 11 19 9 21 8 22
REMARK SMILES IDX 7 23 1 24 2 25 3 26 4 27 6 28 5 29 27 30 28 31 29 32 30 33
REMARK SMILES IDX 31 34 32 35 93 36 33 37 92 38 34 39 35 40 36 41 86 42 37 43
REMARK SMILES IDX 91 44 85 45 87 46 38 47 90 48 84 49 83 50 39 52 71 53 51 54
REMARK SMILES IDX 70 55 52 56 55 57 69 58 88 59 53 60 54 61 68 63 89 64 56 65
REMARK SMILES IDX 40 66 41 67 49 68 42 69 44 70 50 71 43 72 45 73 46 74 47 75
REMARK SMILES IDX 48 76 72 77 73 78 81 79 74 80 76 81 82 82 75 83 77 84 78 85
REMARK SMILES IDX 79 86 80 87 57 88 58 89 66 90 59 91 61 92 67 93 60 94 62 95
REMARK SMILES IDX 63 96 64 97 65 98
REMARK H PARENT 12 20 87 51 55 62
REMARK Flexibility Score: inf
ROOT
ATOM      1  C   UNL A   1      40.133  20.462  26.259  1.00  0.00     0.274 C 
ENDROOT
BRANCH   1   2
ATOM      2  O   UNL A   1      39.073  21.390  26.008  1.00  0.00    -0.461 OA
BRANCH   2   3
ATOM      3  C   UNL A   1      37.900  20.861  25.344  1.00  0.00     0.326 C 
ATOM      4  O   UNL A   1      38.262  19.749  24.875  1.00  0.00    -0.250 OA
BRANCH   3   5
ATOM      5  C   UNL A   1      35.920  21.803  25.454  1.00  0.00     0.251 C 
BRANCH   5   6
ATOM      6  N   UNL A   1      34.834  22.285  24.373  1.00  0.00    -0.263 N 
ATOM      7  C   UNL A   1      31.093  24.382  23.256  1.00  0.00     0.042 A 
ATOM      8  C   UNL A   1      31.931  25.053  22.339  1.00  0.00     0.027 A 
ATOM      9  C   UNL A   1      31.541  23.266  23.937  1.00  0.00     0.040 A 
ATOM     10  C   UNL A   1      33.271  24.666  22.160  1.00  0.00     0.017 A 
ATOM     11  C   UNL A   1      32.820  22.863  23.655  1.00  0.00     0.055 A 
ATOM     12  C   UNL A   1      33.705  23.588  22.897  1.00  0.00     0.053 A 
ATOM     13  C   UNL A   1      33.559  21.811  24.288  1.00  0.00     0.262 C 
ATOM     14  C   UNL A   1      35.042  23.143  23.318  1.00  0.00     0.262 C 
ATOM     15  O   UNL A   1      33.014  20.786  24.642  1.00  0.00    -0.269 OA
ATOM     16  O   UNL A   1      36.073  23.547  22.819  1.00  0.00    -0.269 OA
BRANCH   7  17
ATOM     17  N   UNL A   1      29.809  24.821  23.572  1.00  0.00    -0.323 N 
ATOM     18  C   UNL A   1      29.536  25.951  24.290  1.00  0.00     0.262 C 
ATOM     19  O   UNL A   1      28.435  26.488  24.130  1.00  0.00    -0.271 OA
ATOM     20  H   UNL A   1      29.047  24.282  23.257  1.00  0.00     0.170 HD
BRANCH  18  21
ATOM     21  C   UNL A   1      30.626  26.597  25.160  1.00  0.00     0.329 C 
BRANCH  21  22
ATOM     22  O   UNL A   1      31.318  27.771  24.795  1.00  0.00    -0.483 OA
BRANCH  22  23
ATOM     23  C   UNL A   1      32.293  28.307  25.583  1.00  0.00     0.122 A 
ATOM     24  C   UNL A   1      34.065  26.422  25.562  1.00  0.00     0.048 C 
ATOM     25  C   UNL A   1      33.535  27.773  25.940  1.00  0.00    -0.009 A 
ATOM     26  C   UNL A   1      34.388  28.549  26.757  1.00  0.00     0.007 A 
ATOM     27  C   UNL A   1      34.002  29.793  27.253  1.00  0.00     0.001 A 
ATOM     28  C   UNL A   1      31.899  29.544  26.128  1.00  0.00     0.047 A 
ATOM     29  C   UNL A   1      32.746  30.290  26.946  1.00  0.00     0.004 A 
ENDBRANCH  22  23
ENDBRANCH  21  22
ENDBRANCH  18  21
ENDBRANCH   7  17
ENDBRANCH   5   6
ENDBRANCH   3   5
ENDBRANCH   2   3
ENDBRANCH   1   2
BRANCH   1  30
ATOM     30  C   UNL A   1      41.466  21.221  26.202  1.00  0.00     0.275 C 
BRANCH  30  31
ATOM     31  O   UNL A   1      41.406  22.642  25.871  1.00  0.00    -0.458 OA
BRANCH  31  32
ATOM     32  C   UNL A   1      41.677  23.662  26.737  1.00  0.00     0.338 C 
ATOM     33  O   UNL A   1      42.536  23.604  27.604  1.00  0.00    -0.246 OA
BRANCH  32  34
ATOM     34  C   UNL A   1      40.677  24.750  26.752  1.00  0.00     0.060 A 
ATOM     35  C   UNL A   1      41.161  26.244  25.844  1.00  0.00     0.016 A 
ATOM     36  C   UNL A   1      39.569  24.873  28.166  1.00  0.00     0.016 A 
ATOM     37  C   UNL A   1      40.775  27.870  26.536  1.00  0.00     0.010 A 
ATOM     38  C   UNL A   1      39.153  26.498  28.832  1.00  0.00     0.010 A 
ATOM     39  C   UNL A   1      39.849  27.976  28.049  1.00  0.00    -0.014 A 
BRANCH  39  40
ATOM     40  C   UNL A   1      40.197  29.000  29.027  1.00  0.00     0.031 A 
ATOM     41  C   UNL A   1      39.245  30.110  29.091  1.00  0.00     0.074 A 
ATOM     42  C   UNL A   1      41.173  28.787  29.959  1.00  0.00     0.049 A 
ATOM     43  N   UNL A   1      39.480  31.194  29.727  1.00  0.00    -0.248 NA
ATOM     44  C   UNL A   1      37.977  30.130  28.355  1.00  0.00     0.031 C 
ATOM     45  C   UNL A   1      41.255  29.390  31.293  1.00  0.00     0.029 A 
ATOM     46  N   UNL A   1      42.329  27.993  29.945  1.00  0.00    -0.354 N 
ATOM     47  C   UNL A   1      38.296  31.885  29.769  1.00  0.00     0.074 A 
ATOM     48  C   UNL A   1      37.470  31.299  28.753  1.00  0.00     0.031 C 
ATOM     49  C   UNL A   1      42.467  29.153  31.828  1.00  0.00     0.029 A 
ATOM     50  C   UNL A   1      43.288  28.550  30.799  1.00  0.00     0.049 A 
ATOM     51  H   UNL A   1      42.446  27.171  29.416  1.00  0.00     0.167 HD
ATOM     52  C   UNL A   1      38.113  32.742  30.803  1.00  0.00     0.034 A 
ATOM     53  C   UNL A   1      44.534  28.988  30.433  1.00  0.00     0.034 A 
ATOM     54  C   UNL A   1      39.391  32.933  31.516  1.00  0.00     0.049 A 
ATOM     55  C   UNL A   1      44.620  30.513  30.563  1.00  0.00     0.074 A 
ATOM     56  C   UNL A   1      39.901  32.422  32.698  1.00  0.00     0.029 A 
ATOM     57  N   UNL A   1      40.488  33.417  30.800  1.00  0.00    -0.354 N 
ATOM     58  N   UNL A   1      43.625  31.268  30.945  1.00  0.00    -0.248 NA
ATOM     59  C   UNL A   1      45.801  31.309  30.234  1.00  0.00     0.031 C 
ATOM     60  C   UNL A   1      41.324  32.528  32.638  1.00  0.00     0.029 A 
ATOM     61  C   UNL A   1      41.683  33.156  31.455  1.00  0.00     0.049 A 
ATOM     62  H   UNL A   1      40.421  33.885  29.937  1.00  0.00     0.167 HD
ATOM     63  C   UNL A   1      43.922  32.590  30.756  1.00  0.00     0.074 A 
ATOM     64  C   UNL A   1      45.332  32.560  30.391  1.00  0.00     0.031 C 
ATOM     65  C   UNL A   1      42.964  33.570  30.862  1.00  0.00     0.034 A 
BRANCH  52  66
ATOM     66  C   UNL A   1      36.768  33.238  31.299  1.00  0.00     0.023 A 
ATOM     67  C   UNL A   1      36.435  32.907  32.628  1.00  0.00     0.012 A 
ATOM     68  C   UNL A   1      35.761  33.914  30.554  1.00  0.00     0.148 A 
ATOM     69  C   UNL A   1      35.191  33.219  33.188  1.00  0.00     0.002 A 
ATOM     70  C   UNL A   1      34.544  34.286  31.136  1.00  0.00     0.091 A 
ATOM     71  F   UNL A   1      35.914  34.133  29.248  1.00  0.00    -0.205 F 
ATOM     72  C   UNL A   1      34.251  33.924  32.450  1.00  0.00     0.022 A 
BRANCH  70  73
ATOM     73  S   UNL A   1      33.288  35.242  30.256  1.00  0.00     0.127 S 
ATOM     74  O   UNL A   1      32.867  34.309  29.212  1.00  0.00    -0.237 OA
ATOM     75  O   UNL A   1      32.289  35.476  31.299  1.00  0.00    -0.237 OA
ATOM     76  O   UNL A   1      33.948  36.448  29.773  1.00  0.00    -0.744 OA
ENDBRANCH  70  73
ENDBRANCH  52  66
BRANCH  53  77
ATOM     77  C   UNL A   1      45.150  28.203  29.319  1.00  0.00     0.023 A 
ATOM     78  C   UNL A   1      44.919  28.658  27.999  1.00  0.00     0.012 A 
ATOM     79  C   UNL A   1      46.296  27.451  29.583  1.00  0.00     0.148 A 
ATOM     80  C   UNL A   1      45.956  28.636  27.065  1.00  0.00     0.002 A 
ATOM     81  C   UNL A   1      47.338  27.465  28.669  1.00  0.00     0.091 A 
ATOM     82  F   UNL A   1      46.418  26.817  30.756  1.00  0.00    -0.205 F 
ATOM     83  C   UNL A   1      47.193  28.104  27.430  1.00  0.00     0.022 A 
BRANCH  81  84
ATOM     84  S   UNL A   1      48.946  26.914  29.254  1.00  0.00     0.127 S 
ATOM     85  O   UNL A   1      48.723  25.494  29.521  1.00  0.00    -0.237 OA
ATOM     86  O   UNL A   1      49.820  27.172  28.116  1.00  0.00    -0.237 OA
ATOM     87  O   UNL A   1      49.154  27.742  30.435  1.00  0.00    -0.744 OA
ENDBRANCH  81  84
ENDBRANCH  53  77
BRANCH  65  88
ATOM     88  C   UNL A   1      43.154  35.031  30.455  1.00  0.00     0.023 A 
ATOM     89  C   UNL A   1      43.697  35.998  31.321  1.00  0.00     0.012 A 
ATOM     90  C   UNL A   1      42.856  35.482  29.138  1.00  0.00     0.148 A 
ATOM     91  C   UNL A   1      43.803  37.348  30.967  1.00  0.00     0.002 A 
ATOM     92  C   UNL A   1      43.102  36.794  28.744  1.00  0.00     0.091 A 
ATOM     93  F   UNL A   1      42.287  34.657  28.252  1.00  0.00    -0.205 F 
ATOM     94  C   UNL A   1      43.518  37.745  29.672  1.00  0.00     0.022 A 
BRANCH  92  95
ATOM     95  S   UNL A   1      43.010  37.302  27.022  1.00  0.00     0.127 S 
ATOM     96  O   UNL A   1      41.677  37.900  26.958  1.00  0.00    -0.237 OA
ATOM     97  O   UNL A   1      44.113  38.259  26.928  1.00  0.00    -0.237 OA
ATOM     98  O   UNL A   1      43.200  36.090  26.236  1.00  0.00    -0.744 OA
ENDBRANCH  92  95
ENDBRANCH  65  88
ENDBRANCH  39  40
ENDBRANCH  32  34
ENDBRANCH  31  32
ENDBRANCH  30  31
ENDBRANCH   1  30
TORSDOF 19
ENDMDL
