MODEL 1
REMARK VINA RESULT:     -11.5      0.000      0.000
REMARK SMILES C[C@@H](C(=O)OCCOC(=O)c1ccc(-c2c3nc(c(-c4cccc(S(=O)(=O)[O-])c4F)c4ccc([nH]4)c(-c4cccc(S(=O)(=O)[O-])c4F)c4nc(c(-c5cccc(S(=O)(=O)[O-])c5F)c5ccc2[nH]5)C=C4)C=C3)cc1)[C@@H](C)C(=O)c1cccc(Cl)c1
REMARK SMILES IDX 6 1 5 2 3 3 4 4 2 5 1 6 74 7 75 8 76 9 77 10 78 11 79 12
REMARK SMILES IDX 84 13 80 14 82 15 81 16 83 17 7 18 8 19 9 20 10 21 11 22
REMARK SMILES IDX 12 23 73 24 13 25 72 26 14 27 15 28 16 29 66 30 17 31 71 32
REMARK SMILES IDX 65 33 67 34 18 35 70 36 64 37 63 38 19 40 51 41 31 42 50 43
REMARK SMILES IDX 32 44 35 45 49 46 68 47 33 48 34 49 48 51 69 52 36 53 20 54
REMARK SMILES IDX 21 55 29 56 22 57 24 58 30 59 23 60 25 61 26 62 27 63 28 64
REMARK SMILES IDX 52 65 53 66 61 67 54 68 56 69 62 70 55 71 57 72 58 73 59 74
REMARK SMILES IDX 60 75 37 76 38 77 46 78 39 79 41 80 47 81 40 82 42 83 43 84
REMARK SMILES IDX 44 85 45 86
REMARK H PARENT 67 39 35 50
REMARK Flexibility Score: inf
ROOT
ATOM      1  C   UNL A   1      35.153  20.732  25.490  1.00  0.00     0.274 C 
ENDROOT
BRANCH   1   2
ATOM      2  O   UNL A   1      34.206  20.939  24.420  1.00  0.00    -0.462 OA
BRANCH   2   3
ATOM      3  C   UNL A   1      32.920  21.195  24.782  1.00  0.00     0.309 C 
ATOM      4  O   UNL A   1      32.116  20.331  25.097  1.00  0.00    -0.252 OA
BRANCH   3   5
ATOM      5  C   UNL A   1      32.554  22.676  24.623  1.00  0.00     0.106 C 
ATOM      6  C   UNL A   1      33.330  23.326  23.462  1.00  0.00     0.021 C 
BRANCH   5   7
ATOM      7  C   UNL A   1      32.740  23.504  25.922  1.00  0.00     0.072 C 
ATOM      8  C   UNL A   1      34.058  24.280  25.974  1.00  0.00     0.017 C 
BRANCH   7   9
ATOM      9  C   UNL A   1      31.609  24.427  26.403  1.00  0.00     0.166 C 
ATOM     10  O   UNL A   1      30.857  24.039  27.299  1.00  0.00    -0.294 OA
BRANCH   9  11
ATOM     11  C   UNL A   1      31.453  25.839  25.942  1.00  0.00     0.019 A 
ATOM     12  C   UNL A   1      30.980  26.038  24.633  1.00  0.00     0.012 A 
ATOM     13  C   UNL A   1      31.808  26.948  26.708  1.00  0.00     0.032 A 
ATOM     14  C   UNL A   1      30.864  27.324  24.101  1.00  0.00     0.002 A 
ATOM     15  C   UNL A   1      31.706  28.230  26.165  1.00  0.00     0.041 A 
ATOM     16  C   UNL A   1      31.233  28.424  24.869  1.00  0.00     0.020 A 
ATOM     17  Cl  UNL A   1      32.195  29.588  27.106  1.00  0.00    -0.084 Cl
ENDBRANCH   9  11
ENDBRANCH   7   9
ENDBRANCH   5   7
ENDBRANCH   3   5
ENDBRANCH   2   3
ENDBRANCH   1   2
BRANCH   1  18
ATOM     18  C   UNL A   1      36.546  20.523  24.907  1.00  0.00     0.275 C 
BRANCH  18  19
ATOM     19  O   UNL A   1      37.393  21.596  25.349  1.00  0.00    -0.458 OA
BRANCH  19  20
ATOM     20  C   UNL A   1      38.599  21.242  25.842  1.00  0.00     0.338 C 
ATOM     21  O   UNL A   1      39.118  20.134  25.813  1.00  0.00    -0.246 OA
BRANCH  20  22
ATOM     22  C   UNL A   1      39.247  22.432  26.413  1.00  0.00     0.060 A 
ATOM     23  C   UNL A   1      38.746  23.694  26.102  1.00  0.00     0.016 A 
ATOM     24  C   UNL A   1      40.400  22.305  27.184  1.00  0.00     0.016 A 
ATOM     25  C   UNL A   1      39.429  24.838  26.509  1.00  0.00     0.010 A 
ATOM     26  C   UNL A   1      41.040  23.457  27.658  1.00  0.00     0.010 A 
ATOM     27  C   UNL A   1      40.577  24.737  27.300  1.00  0.00    -0.014 A 
BRANCH  27  28
ATOM     28  C   UNL A   1      41.324  25.960  27.701  1.00  0.00     0.031 A 
ATOM     29  C   UNL A   1      40.635  27.015  28.523  1.00  0.00     0.074 A 
ATOM     30  C   UNL A   1      42.613  26.132  27.343  1.00  0.00     0.049 A 
ATOM     31  N   UNL A   1      41.043  28.218  28.836  1.00  0.00    -0.248 NA
ATOM     32  C   UNL A   1      39.309  26.672  29.062  1.00  0.00     0.031 C 
ATOM     33  C   UNL A   1      43.423  25.169  26.595  1.00  0.00     0.029 A 
ATOM     34  N   UNL A   1      43.465  27.191  27.552  1.00  0.00    -0.354 N 
ATOM     35  C   UNL A   1      40.001  28.797  29.550  1.00  0.00     0.074 A 
ATOM     36  C   UNL A   1      38.946  27.811  29.635  1.00  0.00     0.031 C 
ATOM     37  C   UNL A   1      44.650  25.680  26.406  1.00  0.00     0.029 A 
ATOM     38  C   UNL A   1      44.697  27.028  26.962  1.00  0.00     0.049 A 
ATOM     39  H   UNL A   1      43.217  27.988  28.074  1.00  0.00     0.167 HD
ATOM     40  C   UNL A   1      39.932  30.033  30.098  1.00  0.00     0.034 A 
ATOM     41  C   UNL A   1      45.736  27.880  26.848  1.00  0.00     0.034 A 
ATOM     42  C   UNL A   1      41.004  30.992  30.073  1.00  0.00     0.049 A 
ATOM     43  C   UNL A   1      45.628  29.256  27.451  1.00  0.00     0.074 A 
ATOM     44  C   UNL A   1      41.028  32.267  30.607  1.00  0.00     0.029 A 
ATOM     45  N   UNL A   1      42.245  30.774  29.496  1.00  0.00    -0.354 N 
ATOM     46  N   UNL A   1      44.649  29.776  28.150  1.00  0.00    -0.248 NA
ATOM     47  C   UNL A   1      46.774  30.158  27.259  1.00  0.00     0.031 C 
ATOM     48  C   UNL A   1      42.286  32.824  30.352  1.00  0.00     0.029 A 
ATOM     49  C   UNL A   1      43.046  31.891  29.663  1.00  0.00     0.049 A 
ATOM     50  H   UNL A   1      42.517  29.949  29.035  1.00  0.00     0.167 HD
ATOM     51  C   UNL A   1      45.066  31.056  28.495  1.00  0.00     0.074 A 
ATOM     52  C   UNL A   1      46.400  31.222  27.956  1.00  0.00     0.031 C 
ATOM     53  C   UNL A   1      44.394  32.019  29.175  1.00  0.00     0.034 A 
BRANCH  40  54
ATOM     54  C   UNL A   1      38.655  30.412  30.796  1.00  0.00     0.023 A 
ATOM     55  C   UNL A   1      38.475  30.069  32.151  1.00  0.00     0.012 A 
ATOM     56  C   UNL A   1      37.654  31.140  30.125  1.00  0.00     0.148 A 
ATOM     57  C   UNL A   1      37.305  30.424  32.821  1.00  0.00     0.002 A 
ATOM     58  C   UNL A   1      36.506  31.520  30.810  1.00  0.00     0.091 A 
ATOM     59  F   UNL A   1      37.833  31.430  28.829  1.00  0.00    -0.205 F 
ATOM     60  C   UNL A   1      36.326  31.156  32.154  1.00  0.00     0.022 A 
BRANCH  58  61
ATOM     61  S   UNL A   1      35.221  32.519  30.048  1.00  0.00     0.127 S 
ATOM     62  O   UNL A   1      34.741  31.630  28.992  1.00  0.00    -0.237 OA
ATOM     63  O   UNL A   1      34.282  32.716  31.153  1.00  0.00    -0.237 OA
ATOM     64  O   UNL A   1      35.882  33.736  29.596  1.00  0.00    -0.744 OA
ENDBRANCH  58  61
ENDBRANCH  40  54
BRANCH  41  65
ATOM     65  C   UNL A   1      46.978  27.451  26.143  1.00  0.00     0.023 A 
ATOM     66  C   UNL A   1      47.939  26.691  26.836  1.00  0.00     0.012 A 
ATOM     67  C   UNL A   1      47.199  27.765  24.787  1.00  0.00     0.148 A 
ATOM     68  C   UNL A   1      49.107  26.270  26.200  1.00  0.00     0.002 A 
ATOM     69  C   UNL A   1      48.338  27.293  24.144  1.00  0.00     0.091 A 
ATOM     70  F   UNL A   1      46.290  28.515  24.149  1.00  0.00    -0.205 F 
ATOM     71  C   UNL A   1      49.300  26.559  24.851  1.00  0.00     0.022 A 
BRANCH  69  72
ATOM     72  S   UNL A   1      48.592  27.510  22.378  1.00  0.00     0.127 S 
ATOM     73  O   UNL A   1      47.436  28.321  22.007  1.00  0.00    -0.237 OA
ATOM     74  O   UNL A   1      49.876  28.212  22.335  1.00  0.00    -0.237 OA
ATOM     75  O   UNL A   1      48.632  26.163  21.825  1.00  0.00    -0.744 OA
ENDBRANCH  69  72
ENDBRANCH  41  65
BRANCH  53  76
ATOM     76  C   UNL A   1      45.091  33.335  29.392  1.00  0.00     0.023 A 
ATOM     77  C   UNL A   1      45.870  33.521  30.551  1.00  0.00     0.012 A 
ATOM     78  C   UNL A   1      45.044  34.351  28.418  1.00  0.00     0.148 A 
ATOM     79  C   UNL A   1      46.575  34.708  30.748  1.00  0.00     0.002 A 
ATOM     80  C   UNL A   1      45.780  35.516  28.603  1.00  0.00     0.091 A 
ATOM     81  F   UNL A   1      44.279  34.165  27.333  1.00  0.00    -0.205 F 
ATOM     82  C   UNL A   1      46.539  35.699  29.770  1.00  0.00     0.022 A 
BRANCH  80  83
ATOM     83  S   UNL A   1      45.859  36.805  27.354  1.00  0.00     0.127 S 
ATOM     84  O   UNL A   1      44.462  37.230  27.273  1.00  0.00    -0.237 OA
ATOM     85  O   UNL A   1      46.760  37.783  27.965  1.00  0.00    -0.237 OA
ATOM     86  O   UNL A   1      46.392  36.165  26.158  1.00  0.00    -0.744 OA
ENDBRANCH  80  83
ENDBRANCH  53  76
ENDBRANCH  27  28
ENDBRANCH  20  22
ENDBRANCH  19  20
ENDBRANCH  18  19
ENDBRANCH   1  18
TORSDOF 17
ENDMDL
MODEL 2
REMARK VINA RESULT:     -11.4      5.518     10.303
REMARK SMILES C[C@@H](C(=O)OCCOC(=O)c1ccc(-c2c3nc(c(-c4cccc(S(=O)(=O)[O-])c4F)c4ccc([nH]4)c(-c4cccc(S(=O)(=O)[O-])c4F)c4nc(c(-c5cccc(S(=O)(=O)[O-])c5F)c5ccc2[nH]5)C=C4)C=C3)cc1)[C@@H](C)C(=O)c1cccc(Cl)c1
REMARK SMILES IDX 6 1 5 2 3 3 4 4 2 5 1 6 74 7 75 8 76 9 77 10 78 11 79 12
REMARK SMILES IDX 84 13 80 14 82 15 81 16 83 17 7 18 8 19 9 20 10 21 11 22
REMARK SMILES IDX 12 23 73 24 13 25 72 26 14 27 15 28 16 29 66 30 17 31 71 32
REMARK SMILES IDX 65 33 67 34 18 35 70 36 64 37 63 38 19 40 51 41 31 42 50 43
REMARK SMILES IDX 32 44 35 45 49 46 68 47 33 48 34 49 48 51 69 52 36 53 20 54
REMARK SMILES IDX 21 55 29 56 22 57 24 58 30 59 23 60 25 61 26 62 27 63 28 64
REMARK SMILES IDX 52 65 53 66 61 67 54 68 56 69 62 70 55 71 57 72 58 73 59 74
REMARK SMILES IDX 60 75 37 76 38 77 46 78 39 79 41 80 47 81 40 82 42 83 43 84
REMARK SMILES IDX 44 85 45 86
REMARK H PARENT 67 39 35 50
REMARK Flexibility Score: inf
ROOT
ATOM      1  C   UNL A   1      31.511  29.741  25.393  1.00  0.00     0.274 C 
ENDROOT
BRANCH   1   2
ATOM      2  O   UNL A   1      32.594  28.800  25.234  1.00  0.00    -0.462 OA
BRANCH   2   3
ATOM      3  C   UNL A   1      32.377  27.535  25.688  1.00  0.00     0.309 C 
ATOM      4  O   UNL A   1      33.196  26.889  26.324  1.00  0.00    -0.252 OA
BRANCH   3   5
ATOM      5  C   UNL A   1      31.041  26.962  25.198  1.00  0.00     0.106 C 
ATOM      6  C   UNL A   1      30.492  25.902  26.171  1.00  0.00     0.021 C 
BRANCH   5   7
ATOM      7  C   UNL A   1      31.104  26.387  23.758  1.00  0.00     0.072 C 
ATOM      8  C   UNL A   1      30.468  25.001  23.620  1.00  0.00     0.017 C 
BRANCH   7   9
ATOM      9  C   UNL A   1      30.650  27.253  22.573  1.00  0.00     0.166 C 
ATOM     10  O   UNL A   1      31.085  27.007  21.447  1.00  0.00    -0.294 OA
BRANCH   9  11
ATOM     11  C   UNL A   1      29.590  28.300  22.683  1.00  0.00     0.019 A 
ATOM     12  C   UNL A   1      28.323  27.888  23.130  1.00  0.00     0.012 A 
ATOM     13  C   UNL A   1      29.774  29.631  22.308  1.00  0.00     0.032 A 
ATOM     14  C   UNL A   1      27.259  28.790  23.201  1.00  0.00     0.002 A 
ATOM     15  C   UNL A   1      28.703  30.524  22.365  1.00  0.00     0.041 A 
ATOM     16  C   UNL A   1      27.450  30.113  22.812  1.00  0.00     0.020 A 
ATOM     17  Cl  UNL A   1      28.932  32.153  21.851  1.00  0.00    -0.084 Cl
ENDBRANCH   9  11
ENDBRANCH   7   9
ENDBRANCH   5   7
ENDBRANCH   3   5
ENDBRANCH   2   3
ENDBRANCH   1   2
BRANCH   1  18
ATOM     18  C   UNL A   1      31.860  30.740  26.491  1.00  0.00     0.275 C 
BRANCH  18  19
ATOM     19  O   UNL A   1      33.283  30.727  26.685  1.00  0.00    -0.458 OA
BRANCH  19  20
ATOM     20  C   UNL A   1      33.797  31.739  27.416  1.00  0.00     0.338 C 
ATOM     21  O   UNL A   1      33.281  32.824  27.651  1.00  0.00    -0.246 OA
BRANCH  20  22
ATOM     22  C   UNL A   1      35.106  31.327  27.945  1.00  0.00     0.060 A 
ATOM     23  C   UNL A   1      35.282  30.014  28.375  1.00  0.00     0.016 A 
ATOM     24  C   UNL A   1      36.130  32.259  28.097  1.00  0.00     0.016 A 
ATOM     25  C   UNL A   1      36.461  29.639  29.015  1.00  0.00     0.010 A 
ATOM     26  C   UNL A   1      37.344  31.858  28.670  1.00  0.00     0.010 A 
ATOM     27  C   UNL A   1      37.511  30.551  29.162  1.00  0.00    -0.014 A 
BRANCH  27  28
ATOM     28  C   UNL A   1      38.754  30.156  29.879  1.00  0.00     0.031 A 
ATOM     29  C   UNL A   1      39.708  29.187  29.235  1.00  0.00     0.074 A 
ATOM     30  C   UNL A   1      39.040  30.662  31.096  1.00  0.00     0.049 A 
ATOM     31  N   UNL A   1      40.752  28.588  29.748  1.00  0.00    -0.248 NA
ATOM     32  C   UNL A   1      39.450  28.843  27.827  1.00  0.00     0.031 C 
ATOM     33  C   UNL A   1      38.237  31.651  31.815  1.00  0.00     0.029 A 
ATOM     34  N   UNL A   1      40.086  30.400  31.950  1.00  0.00    -0.354 N 
ATOM     35  C   UNL A   1      41.236  27.751  28.750  1.00  0.00     0.074 A 
ATOM     36  C   UNL A   1      40.379  27.926  27.598  1.00  0.00     0.031 C 
ATOM     37  C   UNL A   1      38.815  31.910  33.000  1.00  0.00     0.029 A 
ATOM     38  C   UNL A   1      39.993  31.063  33.151  1.00  0.00     0.049 A 
ATOM     39  H   UNL A   1      40.829  29.796  31.722  1.00  0.00     0.167 HD
ATOM     40  C   UNL A   1      42.305  26.921  28.784  1.00  0.00     0.034 A 
ATOM     41  C   UNL A   1      40.748  30.974  34.265  1.00  0.00     0.034 A 
ATOM     42  C   UNL A   1      43.197  26.794  29.905  1.00  0.00     0.049 A 
ATOM     43  C   UNL A   1      41.921  30.030  34.284  1.00  0.00     0.074 A 
ATOM     44  C   UNL A   1      44.311  25.983  30.029  1.00  0.00     0.029 A 
ATOM     45  N   UNL A   1      43.087  27.508  31.087  1.00  0.00    -0.354 N 
ATOM     46  N   UNL A   1      42.384  29.269  33.322  1.00  0.00    -0.248 NA
ATOM     47  C   UNL A   1      42.684  29.941  35.538  1.00  0.00     0.031 C 
ATOM     48  C   UNL A   1      44.875  26.206  31.290  1.00  0.00     0.029 A 
ATOM     49  C   UNL A   1      44.114  27.160  31.947  1.00  0.00     0.049 A 
ATOM     50  H   UNL A   1      42.383  28.166  31.287  1.00  0.00     0.167 HD
ATOM     51  C   UNL A   1      43.498  28.625  33.848  1.00  0.00     0.074 A 
ATOM     52  C   UNL A   1      43.661  29.110  35.203  1.00  0.00     0.031 C 
ATOM     53  C   UNL A   1      44.300  27.697  33.271  1.00  0.00     0.034 A 
BRANCH  40  54
ATOM     54  C   UNL A   1      42.582  26.097  27.557  1.00  0.00     0.023 A 
ATOM     55  C   UNL A   1      43.303  26.663  26.488  1.00  0.00     0.012 A 
ATOM     56  C   UNL A   1      42.166  24.754  27.480  1.00  0.00     0.148 A 
ATOM     57  C   UNL A   1      43.584  25.912  25.348  1.00  0.00     0.002 A 
ATOM     58  C   UNL A   1      42.480  24.001  26.355  1.00  0.00     0.091 A 
ATOM     59  F   UNL A   1      41.456  24.244  28.496  1.00  0.00    -0.205 F 
ATOM     60  C   UNL A   1      43.181  24.580  25.285  1.00  0.00     0.022 A 
BRANCH  58  61
ATOM     61  S   UNL A   1      42.056  22.261  26.215  1.00  0.00     0.127 S 
ATOM     62  O   UNL A   1      40.598  22.317  26.126  1.00  0.00    -0.237 OA
ATOM     63  O   UNL A   1      42.728  21.873  24.975  1.00  0.00    -0.237 OA
ATOM     64  O   UNL A   1      42.590  21.626  27.413  1.00  0.00    -0.744 OA
ENDBRANCH  58  61
ENDBRANCH  40  54
BRANCH  41  65
ATOM     65  C   UNL A   1      40.425  31.814  35.453  1.00  0.00     0.023 A 
ATOM     66  C   UNL A   1      41.180  32.975  35.705  1.00  0.00     0.012 A 
ATOM     67  C   UNL A   1      39.361  31.487  36.317  1.00  0.00     0.148 A 
ATOM     68  C   UNL A   1      40.895  33.785  36.806  1.00  0.00     0.002 A 
ATOM     69  C   UNL A   1      39.047  32.329  37.379  1.00  0.00     0.091 A 
ATOM     70  F   UNL A   1      38.671  30.362  36.084  1.00  0.00    -0.205 F 
ATOM     71  C   UNL A   1      39.821  33.469  37.634  1.00  0.00     0.022 A 
BRANCH  69  72
ATOM     72  S   UNL A   1      37.599  32.061  38.409  1.00  0.00     0.127 S 
ATOM     73  O   UNL A   1      38.114  32.375  39.739  1.00  0.00    -0.237 OA
ATOM     74  O   UNL A   1      36.653  33.039  37.870  1.00  0.00    -0.237 OA
ATOM     75  O   UNL A   1      37.214  30.675  38.183  1.00  0.00    -0.744 OA
ENDBRANCH  69  72
ENDBRANCH  41  65
BRANCH  53  76
ATOM     76  C   UNL A   1      45.437  27.150  34.090  1.00  0.00     0.023 A 
ATOM     77  C   UNL A   1      46.678  27.816  34.080  1.00  0.00     0.012 A 
ATOM     78  C   UNL A   1      45.257  26.033  34.929  1.00  0.00     0.148 A 
ATOM     79  C   UNL A   1      47.731  27.366  34.876  1.00  0.00     0.002 A 
ATOM     80  C   UNL A   1      46.298  25.614  35.750  1.00  0.00     0.091 A 
ATOM     81  F   UNL A   1      44.077  25.398  34.908  1.00  0.00    -0.205 F 
ATOM     82  C   UNL A   1      47.538  26.273  35.718  1.00  0.00     0.022 A 
BRANCH  80  83
ATOM     83  S   UNL A   1      46.106  24.269  36.926  1.00  0.00     0.127 S 
ATOM     84  O   UNL A   1      45.901  23.123  36.042  1.00  0.00    -0.237 OA
ATOM     85  O   UNL A   1      47.391  24.277  37.627  1.00  0.00    -0.237 OA
ATOM     86  O   UNL A   1      44.967  24.634  37.759  1.00  0.00    -0.744 OA
ENDBRANCH  80  83
ENDBRANCH  53  76
ENDBRANCH  27  28
ENDBRANCH  20  22
ENDBRANCH  19  20
ENDBRANCH  18  19
ENDBRANCH   1  18
TORSDOF 17
ENDMDL
MODEL 3
REMARK VINA RESULT:     -11.3      5.341     10.135
REMARK SMILES C[C@@H](C(=O)OCCOC(=O)c1ccc(-c2c3nc(c(-c4cccc(S(=O)(=O)[O-])c4F)c4ccc([nH]4)c(-c4cccc(S(=O)(=O)[O-])c4F)c4nc(c(-c5cccc(S(=O)(=O)[O-])c5F)c5ccc2[nH]5)C=C4)C=C3)cc1)[C@@H](C)C(=O)c1cccc(Cl)c1
REMARK SMILES IDX 6 1 5 2 3 3 4 4 2 5 1 6 74 7 75 8 76 9 77 10 78 11 79 12
REMARK SMILES IDX 84 13 80 14 82 15 81 16 83 17 7 18 8 19 9 20 10 21 11 22
REMARK SMILES IDX 12 23 73 24 13 25 72 26 14 27 15 28 16 29 66 30 17 31 71 32
REMARK SMILES IDX 65 33 67 34 18 35 70 36 64 37 63 38 19 40 51 41 31 42 50 43
REMARK SMILES IDX 32 44 35 45 49 46 68 47 33 48 34 49 48 51 69 52 36 53 20 54
REMARK SMILES IDX 21 55 29 56 22 57 24 58 30 59 23 60 25 61 26 62 27 63 28 64
REMARK SMILES IDX 52 65 53 66 61 67 54 68 56 69 62 70 55 71 57 72 58 73 59 74
REMARK SMILES IDX 60 75 37 76 38 77 46 78 39 79 41 80 47 81 40 82 42 83 43 84
REMARK SMILES IDX 44 85 45 86
REMARK H PARENT 67 39 35 50
REMARK Flexibility Score: inf
ROOT
ATOM      1  C   UNL A   1      31.114  29.512  24.312  1.00  0.00     0.274 C 
ENDROOT
BRANCH   1   2
ATOM      2  O   UNL A   1      31.112  28.105  23.987  1.00  0.00    -0.462 OA
BRANCH   2   3
ATOM      3  C   UNL A   1      32.271  27.589  23.495  1.00  0.00     0.309 C 
ATOM      4  O   UNL A   1      33.250  28.262  23.212  1.00  0.00    -0.252 OA
BRANCH   3   5
ATOM      5  C   UNL A   1      32.165  26.085  23.213  1.00  0.00     0.106 C 
ATOM      6  C   UNL A   1      31.842  25.811  21.732  1.00  0.00     0.021 C 
BRANCH   5   7
ATOM      7  C   UNL A   1      31.148  25.353  24.128  1.00  0.00     0.072 C 
ATOM      8  C   UNL A   1      30.655  24.021  23.558  1.00  0.00     0.017 C 
BRANCH   7   9
ATOM      9  C   UNL A   1      31.470  25.158  25.618  1.00  0.00     0.166 C 
ATOM     10  O   UNL A   1      30.758  25.704  26.463  1.00  0.00    -0.294 OA
BRANCH   9  11
ATOM     11  C   UNL A   1      32.522  24.220  26.113  1.00  0.00     0.019 A 
ATOM     12  C   UNL A   1      32.118  23.219  27.012  1.00  0.00     0.012 A 
ATOM     13  C   UNL A   1      33.873  24.327  25.783  1.00  0.00     0.032 A 
ATOM     14  C   UNL A   1      33.048  22.340  27.572  1.00  0.00     0.002 A 
ATOM     15  C   UNL A   1      34.800  23.457  26.359  1.00  0.00     0.041 A 
ATOM     16  C   UNL A   1      34.395  22.464  27.247  1.00  0.00     0.020 A 
ATOM     17  Cl  UNL A   1      36.472  23.632  25.981  1.00  0.00    -0.084 Cl
ENDBRANCH   9  11
ENDBRANCH   7   9
ENDBRANCH   5   7
ENDBRANCH   3   5
ENDBRANCH   2   3
ENDBRANCH   1   2
BRANCH   1  18
ATOM     18  C   UNL A   1      31.490  29.697  25.778  1.00  0.00     0.275 C 
BRANCH  18  19
ATOM     19  O   UNL A   1      32.785  30.314  25.843  1.00  0.00    -0.458 OA
BRANCH  19  20
ATOM     20  C   UNL A   1      32.981  31.190  26.851  1.00  0.00     0.338 C 
ATOM     21  O   UNL A   1      32.209  32.056  27.244  1.00  0.00    -0.246 OA
BRANCH  20  22
ATOM     22  C   UNL A   1      34.292  30.929  27.462  1.00  0.00     0.060 A 
ATOM     23  C   UNL A   1      34.663  29.615  27.737  1.00  0.00     0.016 A 
ATOM     24  C   UNL A   1      35.117  31.986  27.841  1.00  0.00     0.016 A 
ATOM     25  C   UNL A   1      35.831  29.352  28.449  1.00  0.00     0.010 A 
ATOM     26  C   UNL A   1      36.330  31.713  28.486  1.00  0.00     0.010 A 
ATOM     27  C   UNL A   1      36.686  30.394  28.823  1.00  0.00    -0.014 A 
BRANCH  27  28
ATOM     28  C   UNL A   1      37.914  30.111  29.614  1.00  0.00     0.031 A 
ATOM     29  C   UNL A   1      38.978  29.215  29.041  1.00  0.00     0.074 A 
ATOM     30  C   UNL A   1      38.089  30.654  30.836  1.00  0.00     0.049 A 
ATOM     31  N   UNL A   1      40.036  28.710  29.620  1.00  0.00    -0.248 NA
ATOM     32  C   UNL A   1      38.829  28.833  27.627  1.00  0.00     0.031 C 
ATOM     33  C   UNL A   1      37.169  31.583  31.494  1.00  0.00     0.029 A 
ATOM     34  N   UNL A   1      39.103  30.488  31.751  1.00  0.00    -0.354 N 
ATOM     35  C   UNL A   1      40.642  27.903  28.666  1.00  0.00     0.074 A 
ATOM     36  C   UNL A   1      39.840  27.992  27.465  1.00  0.00     0.031 C 
ATOM     37  C   UNL A   1      37.656  31.903  32.703  1.00  0.00     0.029 A 
ATOM     38  C   UNL A   1      38.888  31.156  32.934  1.00  0.00     0.049 A 
ATOM     39  H   UNL A   1      39.904  29.944  31.575  1.00  0.00     0.167 HD
ATOM     40  C   UNL A   1      41.770  27.163  28.773  1.00  0.00     0.034 A 
ATOM     41  C   UNL A   1      39.584  31.143  34.089  1.00  0.00     0.034 A 
ATOM     42  C   UNL A   1      42.605  27.123  29.943  1.00  0.00     0.049 A 
ATOM     43  C   UNL A   1      40.827  30.298  34.189  1.00  0.00     0.074 A 
ATOM     44  C   UNL A   1      43.772  26.407  30.142  1.00  0.00     0.029 A 
ATOM     45  N   UNL A   1      42.371  27.841  31.105  1.00  0.00    -0.354 N 
ATOM     46  N   UNL A   1      41.403  29.565  33.268  1.00  0.00    -0.248 NA
ATOM     47  C   UNL A   1      41.522  30.288  35.485  1.00  0.00     0.031 C 
ATOM     48  C   UNL A   1      44.245  26.691  31.428  1.00  0.00     0.029 A 
ATOM     49  C   UNL A   1      43.373  27.588  32.027  1.00  0.00     0.049 A 
ATOM     50  H   UNL A   1      41.606  28.441  31.254  1.00  0.00     0.167 HD
ATOM     51  C   UNL A   1      42.534  29.022  33.865  1.00  0.00     0.074 A 
ATOM     52  C   UNL A   1      42.580  29.535  35.219  1.00  0.00     0.031 C 
ATOM     53  C   UNL A   1      43.440  28.154  33.349  1.00  0.00     0.034 A 
BRANCH  40  54
ATOM     54  C   UNL A   1      42.182  26.349  27.577  1.00  0.00     0.023 A 
ATOM     55  C   UNL A   1      42.926  26.956  26.546  1.00  0.00     0.012 A 
ATOM     56  C   UNL A   1      41.869  24.979  27.493  1.00  0.00     0.148 A 
ATOM     57  C   UNL A   1      43.332  26.216  25.436  1.00  0.00     0.002 A 
ATOM     58  C   UNL A   1      42.306  24.240  26.400  1.00  0.00     0.091 A 
ATOM     59  F   UNL A   1      41.135  24.429  28.471  1.00  0.00    -0.205 F 
ATOM     60  C   UNL A   1      43.029  24.858  25.368  1.00  0.00     0.022 A 
BRANCH  58  61
ATOM     61  S   UNL A   1      42.017  22.472  26.260  1.00  0.00     0.127 S 
ATOM     62  O   UNL A   1      40.558  22.414  26.208  1.00  0.00    -0.237 OA
ATOM     63  O   UNL A   1      42.686  22.145  25.001  1.00  0.00    -0.237 OA
ATOM     64  O   UNL A   1      42.631  21.876  27.440  1.00  0.00    -0.744 OA
ENDBRANCH  58  61
ENDBRANCH  40  54
BRANCH  41  65
ATOM     65  C   UNL A   1      39.127  31.969  35.244  1.00  0.00     0.023 A 
ATOM     66  C   UNL A   1      38.224  31.419  36.173  1.00  0.00     0.012 A 
ATOM     67  C   UNL A   1      39.602  33.281  35.442  1.00  0.00     0.148 A 
ATOM     68  C   UNL A   1      37.785  32.167  37.266  1.00  0.00     0.002 A 
ATOM     69  C   UNL A   1      39.205  33.999  36.565  1.00  0.00     0.091 A 
ATOM     70  F   UNL A   1      40.437  33.802  34.532  1.00  0.00    -0.205 F 
ATOM     71  C   UNL A   1      38.286  33.450  37.470  1.00  0.00     0.022 A 
BRANCH  69  72
ATOM     72  S   UNL A   1      39.908  35.603  36.965  1.00  0.00     0.127 S 
ATOM     73  O   UNL A   1      39.178  35.956  38.180  1.00  0.00    -0.237 OA
ATOM     74  O   UNL A   1      41.320  35.279  37.168  1.00  0.00    -0.237 OA
ATOM     75  O   UNL A   1      39.651  36.440  35.801  1.00  0.00    -0.744 OA
ENDBRANCH  69  72
ENDBRANCH  41  65
BRANCH  53  76
ATOM     76  C   UNL A   1      44.569  27.712  34.239  1.00  0.00     0.023 A 
ATOM     77  C   UNL A   1      45.771  28.448  34.247  1.00  0.00     0.012 A 
ATOM     78  C   UNL A   1      44.416  26.627  35.124  1.00  0.00     0.148 A 
ATOM     79  C   UNL A   1      46.812  28.097  35.106  1.00  0.00     0.002 A 
ATOM     80  C   UNL A   1      45.442  26.307  36.004  1.00  0.00     0.091 A 
ATOM     81  F   UNL A   1      43.275  25.925  35.085  1.00  0.00    -0.205 F 
ATOM     82  C   UNL A   1      46.643  27.034  35.991  1.00  0.00     0.022 A 
BRANCH  80  83
ATOM     83  S   UNL A   1      45.274  25.009  37.236  1.00  0.00     0.127 S 
ATOM     84  O   UNL A   1      46.380  25.312  38.144  1.00  0.00    -0.237 OA
ATOM     85  O   UNL A   1      43.943  25.268  37.788  1.00  0.00    -0.237 OA
ATOM     86  O   UNL A   1      45.386  23.754  36.505  1.00  0.00    -0.744 OA
ENDBRANCH  80  83
ENDBRANCH  53  76
ENDBRANCH  27  28
ENDBRANCH  20  22
ENDBRANCH  19  20
ENDBRANCH  18  19
ENDBRANCH   1  18
TORSDOF 17
ENDMDL
