MODEL 1
REMARK VINA RESULT:     -11.2      0.000      0.000
REMARK SMILES CC[C@H](C)CN(CC)C(=O)Nc1ccc(C(=O)OCCOC(=O)c2ccc(-c3c4nc(c(-c5cccc(S(=O)(=O)[O-])c5F)c5ccc([nH]5)c(-c5cccc(S(=O)(=O)[O-])c5F)c5nc(c(-c6cccc(S(=O)(=O)[O-])c6F)c6ccc3[nH]6)C=C5)C=C4)cc2)cc1Cl
REMARK SMILES IDX 19 1 18 2 16 3 17 4 15 5 12 6 13 7 88 8 14 9 87 10 89 11
REMARK SMILES IDX 11 12 9 13 10 14 6 16 5 17 3 18 4 19 2 20 1 21 7 22 8 23
REMARK SMILES IDX 20 24 21 25 22 26 23 27 24 28 25 29 86 30 26 31 85 32 27 33
REMARK SMILES IDX 28 34 29 35 79 36 30 37 84 38 78 39 80 40 31 41 83 42 77 43
REMARK SMILES IDX 76 44 32 46 64 47 44 48 63 49 45 50 48 51 62 52 81 53 46 54
REMARK SMILES IDX 47 55 61 57 82 58 49 59 33 60 34 61 42 62 35 63 37 64 43 65
REMARK SMILES IDX 36 66 38 67 39 68 40 69 41 70 65 71 66 72 74 73 67 74 69 75
REMARK SMILES IDX 75 76 68 77 70 78 71 79 72 80 73 81 50 82 51 83 59 84 52 85
REMARK SMILES IDX 54 86 60 87 53 88 55 89 56 90 57 91 58 92
REMARK H PARENT 11 15 80 45 48 56
REMARK Flexibility Score: inf
ROOT
ATOM      1  C   UNL A   1      34.412  21.180  24.716  1.00  0.00     0.275 C 
ENDROOT
BRANCH   1   2
ATOM      2  O   UNL A   1      33.986  22.496  24.319  1.00  0.00    -0.458 OA
BRANCH   2   3
ATOM      3  C   UNL A   1      32.811  22.910  24.848  1.00  0.00     0.338 C 
ATOM      4  O   UNL A   1      32.331  22.554  25.913  1.00  0.00    -0.246 OA
BRANCH   3   5
ATOM      5  C   UNL A   1      32.150  23.915  23.978  1.00  0.00     0.061 A 
ATOM      6  C   UNL A   1      31.212  26.042  22.461  1.00  0.00     0.061 A 
ATOM      7  C   UNL A   1      32.302  25.310  21.994  1.00  0.00     0.028 A 
ATOM      8  C   UNL A   1      30.475  25.595  23.569  1.00  0.00     0.065 A 
ATOM      9  C   UNL A   1      32.802  24.282  22.788  1.00  0.00     0.018 A 
ATOM     10  C   UNL A   1      30.938  24.519  24.323  1.00  0.00     0.038 A 
ATOM     11  Cl  UNL A   1      28.989  26.346  24.032  1.00  0.00    -0.082 Cl
BRANCH   6  12
ATOM     12  N   UNL A   1      31.005  27.291  21.877  1.00  0.00    -0.306 N 
ATOM     13  C   UNL A   1      31.063  28.533  22.432  1.00  0.00     0.321 C 
ATOM     14  O   UNL A   1      30.439  29.421  21.840  1.00  0.00    -0.248 OA
ATOM     15  H   UNL A   1      30.783  27.271  20.919  1.00  0.00     0.171 HD
BRANCH  13  16
ATOM     16  N   UNL A   1      31.904  28.823  23.499  1.00  0.00    -0.325 N 
BRANCH  16  17
ATOM     17  C   UNL A   1      31.274  28.893  24.824  1.00  0.00     0.124 C 
BRANCH  17  18
ATOM     18  C   UNL A   1      32.295  28.642  25.969  1.00  0.00     0.005 C 
ATOM     19  C   UNL A   1      31.982  29.514  27.190  1.00  0.00     0.009 C 
BRANCH  18  20
ATOM     20  C   UNL A   1      32.319  27.144  26.328  1.00  0.00     0.002 C 
ATOM     21  C   UNL A   1      33.627  26.453  25.961  1.00  0.00     0.004 C 
ENDBRANCH  18  20
ENDBRANCH  17  18
ENDBRANCH  16  17
BRANCH  16  22
ATOM     22  C   UNL A   1      33.311  29.255  23.490  1.00  0.00     0.118 C 
ATOM     23  C   UNL A   1      34.216  28.307  22.713  1.00  0.00     0.027 C 
ENDBRANCH  16  22
ENDBRANCH  13  16
ENDBRANCH   6  12
ENDBRANCH   3   5
ENDBRANCH   2   3
ENDBRANCH   1   2
BRANCH   1  24
ATOM     24  C   UNL A   1      35.600  21.276  25.672  1.00  0.00     0.275 C 
BRANCH  24  25
ATOM     25  O   UNL A   1      36.761  21.781  24.986  1.00  0.00    -0.458 OA
BRANCH  25  26
ATOM     26  C   UNL A   1      37.951  21.340  25.458  1.00  0.00     0.338 C 
ATOM     27  O   UNL A   1      38.443  20.233  25.314  1.00  0.00    -0.246 OA
BRANCH  26  28
ATOM     28  C   UNL A   1      38.661  22.444  26.122  1.00  0.00     0.060 A 
ATOM     29  C   UNL A   1      38.175  23.737  25.952  1.00  0.00     0.016 A 
ATOM     30  C   UNL A   1      39.867  22.231  26.782  1.00  0.00     0.016 A 
ATOM     31  C   UNL A   1      38.921  24.834  26.364  1.00  0.00     0.010 A 
ATOM     32  C   UNL A   1      40.578  23.332  27.277  1.00  0.00     0.010 A 
ATOM     33  C   UNL A   1      40.131  24.648  27.042  1.00  0.00    -0.014 A 
BRANCH  33  34
ATOM     34  C   UNL A   1      40.936  25.826  27.468  1.00  0.00     0.031 A 
ATOM     35  C   UNL A   1      40.312  26.895  28.326  1.00  0.00     0.074 A 
ATOM     36  C   UNL A   1      42.224  25.944  27.087  1.00  0.00     0.049 A 
ATOM     37  N   UNL A   1      40.789  28.065  28.664  1.00  0.00    -0.248 NA
ATOM     38  C   UNL A   1      38.969  26.619  28.861  1.00  0.00     0.031 C 
ATOM     39  C   UNL A   1      42.959  24.975  26.273  1.00  0.00     0.029 A 
ATOM     40  N   UNL A   1      43.141  26.940  27.323  1.00  0.00    -0.354 N 
ATOM     41  C   UNL A   1      39.777  28.696  29.377  1.00  0.00     0.074 A 
ATOM     42  C   UNL A   1      38.664  27.773  29.438  1.00  0.00     0.031 C 
ATOM     43  C   UNL A   1      44.212  25.414  26.087  1.00  0.00     0.029 A 
ATOM     44  C   UNL A   1      44.350  26.730  26.701  1.00  0.00     0.049 A 
ATOM     45  H   UNL A   1      42.951  27.726  27.883  1.00  0.00     0.167 HD
ATOM     46  C   UNL A   1      39.776  29.930  29.935  1.00  0.00     0.034 A 
ATOM     47  C   UNL A   1      45.435  27.523  26.594  1.00  0.00     0.034 A 
ATOM     48  C   UNL A   1      40.911  30.813  29.945  1.00  0.00     0.049 A 
ATOM     49  C   UNL A   1      45.419  28.877  27.245  1.00  0.00     0.074 A 
ATOM     50  C   UNL A   1      41.025  32.060  30.533  1.00  0.00     0.029 A 
ATOM     51  N   UNL A   1      42.133  30.539  29.349  1.00  0.00    -0.354 N 
ATOM     52  N   UNL A   1      44.472  29.437  27.959  1.00  0.00    -0.248 NA
ATOM     53  C   UNL A   1      46.622  29.705  27.089  1.00  0.00     0.031 C 
ATOM     54  C   UNL A   1      42.315  32.546  30.284  1.00  0.00     0.029 A 
ATOM     55  C   UNL A   1      43.007  31.593  29.554  1.00  0.00     0.049 A 
ATOM     56  H   UNL A   1      42.348  29.716  28.854  1.00  0.00     0.167 HD
ATOM     57  C   UNL A   1      44.970  30.673  28.351  1.00  0.00     0.074 A 
ATOM     58  C   UNL A   1      46.315  30.768  27.821  1.00  0.00     0.031 C 
ATOM     59  C   UNL A   1      44.361  31.650  29.067  1.00  0.00     0.034 A 
BRANCH  46  60
ATOM     60  C   UNL A   1      38.508  30.396  30.603  1.00  0.00     0.023 A 
ATOM     61  C   UNL A   1      38.301  30.144  31.974  1.00  0.00     0.012 A 
ATOM     62  C   UNL A   1      37.546  31.130  29.881  1.00  0.00     0.148 A 
ATOM     63  C   UNL A   1      37.141  30.587  32.608  1.00  0.00     0.002 A 
ATOM     64  C   UNL A   1      36.412  31.604  30.531  1.00  0.00     0.091 A 
ATOM     65  F   UNL A   1      37.748  31.338  28.572  1.00  0.00    -0.205 F 
ATOM     66  C   UNL A   1      36.202  31.325  31.890  1.00  0.00     0.022 A 
BRANCH  64  67
ATOM     67  S   UNL A   1      35.188  32.628  29.704  1.00  0.00     0.127 S 
ATOM     68  O   UNL A   1      36.006  33.743  29.232  1.00  0.00    -0.237 OA
ATOM     69  O   UNL A   1      34.701  31.740  28.647  1.00  0.00    -0.237 OA
ATOM     70  O   UNL A   1      34.196  32.959  30.718  1.00  0.00    -0.744 OA
ENDBRANCH  64  67
ENDBRANCH  46  60
BRANCH  47  71
ATOM     71  C   UNL A   1      46.632  27.039  25.848  1.00  0.00     0.023 A 
ATOM     72  C   UNL A   1      47.411  25.998  26.388  1.00  0.00     0.012 A 
ATOM     73  C   UNL A   1      46.969  27.565  24.585  1.00  0.00     0.148 A 
ATOM     74  C   UNL A   1      48.512  25.499  25.689  1.00  0.00     0.002 A 
ATOM     75  C   UNL A   1      48.027  27.021  23.867  1.00  0.00     0.091 A 
ATOM     76  F   UNL A   1      46.231  28.573  24.099  1.00  0.00    -0.205 F 
ATOM     77  C   UNL A   1      48.810  25.998  24.424  1.00  0.00     0.022 A 
BRANCH  75  78
ATOM     78  S   UNL A   1      48.379  27.500  22.171  1.00  0.00     0.127 S 
ATOM     79  O   UNL A   1      47.149  28.191  21.794  1.00  0.00    -0.237 OA
ATOM     80  O   UNL A   1      49.547  28.366  22.337  1.00  0.00    -0.237 OA
ATOM     81  O   UNL A   1      48.654  26.256  21.464  1.00  0.00    -0.744 OA
ENDBRANCH  75  78
ENDBRANCH  47  71
BRANCH  59  82
ATOM     82  C   UNL A   1      45.149  32.902  29.345  1.00  0.00     0.023 A 
ATOM     83  C   UNL A   1      45.995  32.957  30.470  1.00  0.00     0.012 A 
ATOM     84  C   UNL A   1      45.108  33.993  28.455  1.00  0.00     0.148 A 
ATOM     85  C   UNL A   1      46.769  34.090  30.720  1.00  0.00     0.002 A 
ATOM     86  C   UNL A   1      45.915  35.100  28.687  1.00  0.00     0.091 A 
ATOM     87  F   UNL A   1      44.281  33.929  27.402  1.00  0.00    -0.205 F 
ATOM     88  C   UNL A   1      46.738  35.155  29.823  1.00  0.00     0.022 A 
BRANCH  86  89
ATOM     89  S   UNL A   1      46.004  36.479  27.537  1.00  0.00     0.127 S 
ATOM     90  O   UNL A   1      44.602  36.883  27.447  1.00  0.00    -0.237 OA
ATOM     91  O   UNL A   1      46.868  37.423  28.247  1.00  0.00    -0.237 OA
ATOM     92  O   UNL A   1      46.582  35.939  26.313  1.00  0.00    -0.744 OA
ENDBRANCH  86  89
ENDBRANCH  59  82
ENDBRANCH  33  34
ENDBRANCH  26  28
ENDBRANCH  25  26
ENDBRANCH  24  25
ENDBRANCH   1  24
TORSDOF 20
ENDMDL
MODEL 2
REMARK VINA RESULT:     -11.0      5.299      9.921
REMARK SMILES CC[C@H](C)CN(CC)C(=O)Nc1ccc(C(=O)OCCOC(=O)c2ccc(-c3c4nc(c(-c5cccc(S(=O)(=O)[O-])c5F)c5ccc([nH]5)c(-c5cccc(S(=O)(=O)[O-])c5F)c5nc(c(-c6cccc(S(=O)(=O)[O-])c6F)c6ccc3[nH]6)C=C5)C=C4)cc2)cc1Cl
REMARK SMILES IDX 19 1 18 2 16 3 17 4 15 5 12 6 13 7 88 8 14 9 87 10 89 11
REMARK SMILES IDX 11 12 9 13 10 14 6 16 5 17 3 18 4 19 2 20 1 21 7 22 8 23
REMARK SMILES IDX 20 24 21 25 22 26 23 27 24 28 25 29 86 30 26 31 85 32 27 33
REMARK SMILES IDX 28 34 29 35 79 36 30 37 84 38 78 39 80 40 31 41 83 42 77 43
REMARK SMILES IDX 76 44 32 46 64 47 44 48 63 49 45 50 48 51 62 52 81 53 46 54
REMARK SMILES IDX 47 55 61 57 82 58 49 59 33 60 34 61 42 62 35 63 37 64 43 65
REMARK SMILES IDX 36 66 38 67 39 68 40 69 41 70 65 71 66 72 74 73 67 74 69 75
REMARK SMILES IDX 75 76 68 77 70 78 71 79 72 80 73 81 50 82 51 83 59 84 52 85
REMARK SMILES IDX 54 86 60 87 53 88 55 89 56 90 57 91 58 92
REMARK H PARENT 11 15 80 45 48 56
REMARK Flexibility Score: inf
ROOT
ATOM      1  C   UNL A   1      31.087  28.759  25.061  1.00  0.00     0.275 C 
ENDROOT
BRANCH   1   2
ATOM      2  O   UNL A   1      31.832  27.645  24.537  1.00  0.00    -0.458 OA
BRANCH   2   3
ATOM      3  C   UNL A   1      31.453  27.220  23.309  1.00  0.00     0.338 C 
ATOM      4  O   UNL A   1      31.042  27.918  22.396  1.00  0.00    -0.246 OA
BRANCH   3   5
ATOM      5  C   UNL A   1      31.629  25.753  23.167  1.00  0.00     0.061 A 
ATOM      6  C   UNL A   1      31.941  22.998  23.305  1.00  0.00     0.061 A 
ATOM      7  C   UNL A   1      30.673  23.543  23.501  1.00  0.00     0.028 A 
ATOM      8  C   UNL A   1      32.999  23.799  22.849  1.00  0.00     0.065 A 
ATOM      9  C   UNL A   1      30.536  24.928  23.488  1.00  0.00     0.018 A 
ATOM     10  C   UNL A   1      32.839  25.181  22.767  1.00  0.00     0.038 A 
ATOM     11  Cl  UNL A   1      34.515  23.116  22.377  1.00  0.00    -0.082 Cl
BRANCH   6  12
ATOM     12  N   UNL A   1      32.126  21.684  23.733  1.00  0.00    -0.306 N 
ATOM     13  C   UNL A   1      32.898  21.196  24.743  1.00  0.00     0.321 C 
ATOM     14  O   UNL A   1      33.223  20.007  24.651  1.00  0.00    -0.248 OA
ATOM     15  H   UNL A   1      31.622  21.006  23.228  1.00  0.00     0.171 HD
BRANCH  13  16
ATOM     16  N   UNL A   1      33.166  21.937  25.887  1.00  0.00    -0.325 N 
BRANCH  16  17
ATOM     17  C   UNL A   1      34.561  21.938  26.349  1.00  0.00     0.124 C 
BRANCH  17  18
ATOM     18  C   UNL A   1      35.510  22.632  25.334  1.00  0.00     0.005 C 
ATOM     19  C   UNL A   1      35.796  24.081  25.742  1.00  0.00     0.009 C 
BRANCH  18  20
ATOM     20  C   UNL A   1      36.808  21.814  25.190  1.00  0.00     0.002 C 
ATOM     21  C   UNL A   1      36.567  20.320  25.001  1.00  0.00     0.004 C 
ENDBRANCH  18  20
ENDBRANCH  17  18
ENDBRANCH  16  17
BRANCH  16  22
ATOM     22  C   UNL A   1      32.232  22.582  26.824  1.00  0.00     0.118 C 
ATOM     23  C   UNL A   1      32.265  24.104  26.739  1.00  0.00     0.027 C 
ENDBRANCH  16  22
ENDBRANCH  13  16
ENDBRANCH   6  12
ENDBRANCH   3   5
ENDBRANCH   2   3
ENDBRANCH   1   2
BRANCH   1  24
ATOM     24  C   UNL A   1      32.013  29.952  25.292  1.00  0.00     0.275 C 
BRANCH  24  25
ATOM     25  O   UNL A   1      32.447  29.998  26.664  1.00  0.00    -0.458 OA
BRANCH  25  26
ATOM     26  C   UNL A   1      33.006  31.166  27.058  1.00  0.00     0.338 C 
ATOM     27  O   UNL A   1      32.485  32.269  27.074  1.00  0.00    -0.246 OA
BRANCH  26  28
ATOM     28  C   UNL A   1      34.358  30.918  27.580  1.00  0.00     0.060 A 
ATOM     29  C   UNL A   1      34.709  29.612  27.906  1.00  0.00     0.016 A 
ATOM     30  C   UNL A   1      35.218  31.969  27.880  1.00  0.00     0.016 A 
ATOM     31  C   UNL A   1      35.880  29.346  28.606  1.00  0.00     0.010 A 
ATOM     32  C   UNL A   1      36.441  31.693  28.506  1.00  0.00     0.010 A 
ATOM     33  C   UNL A   1      36.769  30.383  28.908  1.00  0.00    -0.014 A 
BRANCH  33  34
ATOM     34  C   UNL A   1      38.015  30.098  29.672  1.00  0.00     0.031 A 
ATOM     35  C   UNL A   1      39.077  29.209  29.079  1.00  0.00     0.074 A 
ATOM     36  C   UNL A   1      38.200  30.630  30.897  1.00  0.00     0.049 A 
ATOM     37  N   UNL A   1      40.148  28.713  29.641  1.00  0.00    -0.248 NA
ATOM     38  C   UNL A   1      38.903  28.814  27.671  1.00  0.00     0.031 C 
ATOM     39  C   UNL A   1      37.264  31.522  31.583  1.00  0.00     0.029 A 
ATOM     40  N   UNL A   1      39.234  30.486  31.791  1.00  0.00    -0.354 N 
ATOM     41  C   UNL A   1      40.727  27.883  28.690  1.00  0.00     0.074 A 
ATOM     42  C   UNL A   1      39.899  27.955  27.505  1.00  0.00     0.031 C 
ATOM     43  C   UNL A   1      37.767  31.854  32.780  1.00  0.00     0.029 A 
ATOM     44  C   UNL A   1      39.024  31.141  32.982  1.00  0.00     0.049 A 
ATOM     45  H   UNL A   1      40.045  29.964  31.597  1.00  0.00     0.167 HD
ATOM     46  C   UNL A   1      41.851  27.134  28.790  1.00  0.00     0.034 A 
ATOM     47  C   UNL A   1      39.735  31.137  34.127  1.00  0.00     0.034 A 
ATOM     48  C   UNL A   1      42.718  27.127  29.938  1.00  0.00     0.049 A 
ATOM     49  C   UNL A   1      40.992  30.318  34.204  1.00  0.00     0.074 A 
ATOM     50  C   UNL A   1      43.908  26.444  30.114  1.00  0.00     0.029 A 
ATOM     51  N   UNL A   1      42.496  27.847  31.102  1.00  0.00    -0.354 N 
ATOM     52  N   UNL A   1      41.553  29.579  33.277  1.00  0.00    -0.248 NA
ATOM     53  C   UNL A   1      41.723  30.339  35.479  1.00  0.00     0.031 C 
ATOM     54  C   UNL A   1      44.401  26.743  31.389  1.00  0.00     0.029 A 
ATOM     55  C   UNL A   1      43.525  27.624  32.001  1.00  0.00     0.049 A 
ATOM     56  H   UNL A   1      41.720  28.432  31.266  1.00  0.00     0.167 HD
ATOM     57  C   UNL A   1      42.710  29.063  33.848  1.00  0.00     0.074 A 
ATOM     58  C   UNL A   1      42.785  29.597  35.193  1.00  0.00     0.031 C 
ATOM     59  C   UNL A   1      43.615  28.206  33.316  1.00  0.00     0.034 A 
BRANCH  46  60
ATOM     60  C   UNL A   1      42.222  26.266  27.615  1.00  0.00     0.023 A 
ATOM     61  C   UNL A   1      43.001  26.796  26.568  1.00  0.00     0.012 A 
ATOM     62  C   UNL A   1      41.842  24.910  27.578  1.00  0.00     0.148 A 
ATOM     63  C   UNL A   1      43.367  25.998  25.484  1.00  0.00     0.002 A 
ATOM     64  C   UNL A   1      42.246  24.110  26.515  1.00  0.00     0.091 A 
ATOM     65  F   UNL A   1      41.079  24.430  28.571  1.00  0.00    -0.205 F 
ATOM     66  C   UNL A   1      42.999  24.655  25.463  1.00  0.00     0.022 A 
BRANCH  64  67
ATOM     67  S   UNL A   1      41.884  22.352  26.442  1.00  0.00     0.127 S 
ATOM     68  O   UNL A   1      40.433  22.355  26.273  1.00  0.00    -0.237 OA
ATOM     69  O   UNL A   1      42.633  21.929  25.257  1.00  0.00    -0.237 OA
ATOM     70  O   UNL A   1      42.371  21.793  27.695  1.00  0.00    -0.744 OA
ENDBRANCH  64  67
ENDBRANCH  46  60
BRANCH  47  71
ATOM     71  C   UNL A   1      39.272  31.952  35.287  1.00  0.00     0.023 A 
ATOM     72  C   UNL A   1      38.438  31.366  36.258  1.00  0.00     0.012 A 
ATOM     73  C   UNL A   1      39.700  33.284  35.461  1.00  0.00     0.148 A 
ATOM     74  C   UNL A   1      38.026  32.096  37.374  1.00  0.00     0.002 A 
ATOM     75  C   UNL A   1      39.338  33.983  36.607  1.00  0.00     0.091 A 
ATOM     76  F   UNL A   1      40.473  33.833  34.514  1.00  0.00    -0.205 F 
ATOM     77  C   UNL A   1      38.488  33.397  37.557  1.00  0.00     0.022 A 
BRANCH  75  78
ATOM     78  S   UNL A   1      40.015  35.602  36.992  1.00  0.00     0.127 S 
ATOM     79  O   UNL A   1      39.363  35.905  38.263  1.00  0.00    -0.237 OA
ATOM     80  O   UNL A   1      41.447  35.318  37.086  1.00  0.00    -0.237 OA
ATOM     81  O   UNL A   1      39.649  36.455  35.869  1.00  0.00    -0.744 OA
ENDBRANCH  75  78
ENDBRANCH  47  71
BRANCH  59  82
ATOM     82  C   UNL A   1      44.785  27.808  34.175  1.00  0.00     0.023 A 
ATOM     83  C   UNL A   1      45.955  28.594  34.165  1.00  0.00     0.012 A 
ATOM     84  C   UNL A   1      44.700  26.703  35.043  1.00  0.00     0.148 A 
ATOM     85  C   UNL A   1      47.032  28.269  34.989  1.00  0.00     0.002 A 
ATOM     86  C   UNL A   1      45.761  26.411  35.892  1.00  0.00     0.091 A 
ATOM     87  F   UNL A   1      43.587  25.956  35.021  1.00  0.00    -0.205 F 
ATOM     88  C   UNL A   1      46.930  27.187  35.860  1.00  0.00     0.022 A 
BRANCH  86  89
ATOM     89  S   UNL A   1      45.680  25.090  37.107  1.00  0.00     0.127 S 
ATOM     90  O   UNL A   1      46.985  25.203  37.757  1.00  0.00    -0.237 OA
ATOM     91  O   UNL A   1      44.548  25.499  37.939  1.00  0.00    -0.237 OA
ATOM     92  O   UNL A   1      45.459  23.866  36.350  1.00  0.00    -0.744 OA
ENDBRANCH  86  89
ENDBRANCH  59  82
ENDBRANCH  33  34
ENDBRANCH  26  28
ENDBRANCH  25  26
ENDBRANCH  24  25
ENDBRANCH   1  24
TORSDOF 20
ENDMDL
MODEL 3
REMARK VINA RESULT:     -10.8      1.746      2.458
REMARK SMILES CC[C@H](C)CN(CC)C(=O)Nc1ccc(C(=O)OCCOC(=O)c2ccc(-c3c4nc(c(-c5cccc(S(=O)(=O)[O-])c5F)c5ccc([nH]5)c(-c5cccc(S(=O)(=O)[O-])c5F)c5nc(c(-c6cccc(S(=O)(=O)[O-])c6F)c6ccc3[nH]6)C=C5)C=C4)cc2)cc1Cl
REMARK SMILES IDX 19 1 18 2 16 3 17 4 15 5 12 6 13 7 88 8 14 9 87 10 89 11
REMARK SMILES IDX 11 12 9 13 10 14 6 16 5 17 3 18 4 19 2 20 1 21 7 22 8 23
REMARK SMILES IDX 20 24 21 25 22 26 23 27 24 28 25 29 86 30 26 31 85 32 27 33
REMARK SMILES IDX 28 34 29 35 79 36 30 37 84 38 78 39 80 40 31 41 83 42 77 43
REMARK SMILES IDX 76 44 32 46 64 47 44 48 63 49 45 50 48 51 62 52 81 53 46 54
REMARK SMILES IDX 47 55 61 57 82 58 49 59 33 60 34 61 42 62 35 63 37 64 43 65
REMARK SMILES IDX 36 66 38 67 39 68 40 69 41 70 65 71 66 72 74 73 67 74 69 75
REMARK SMILES IDX 75 76 68 77 70 78 71 79 72 80 73 81 50 82 51 83 59 84 52 85
REMARK SMILES IDX 54 86 60 87 53 88 55 89 56 90 57 91 58 92
REMARK H PARENT 11 15 80 45 48 56
REMARK Flexibility Score: inf
ROOT
ATOM      1  C   UNL A   1      34.903  21.142  24.638  1.00  0.00     0.275 C 
ENDROOT
BRANCH   1   2
ATOM      2  O   UNL A   1      34.201  22.234  24.018  1.00  0.00    -0.458 OA
BRANCH   2   3
ATOM      3  C   UNL A   1      33.909  23.274  24.833  1.00  0.00     0.338 C 
ATOM      4  O   UNL A   1      33.816  23.236  26.050  1.00  0.00    -0.246 OA
BRANCH   3   5
ATOM      5  C   UNL A   1      33.738  24.532  24.065  1.00  0.00     0.061 A 
ATOM      6  C   UNL A   1      33.078  26.935  22.841  1.00  0.00     0.061 A 
ATOM      7  C   UNL A   1      33.609  26.959  24.130  1.00  0.00     0.028 A 
ATOM      8  C   UNL A   1      33.064  25.745  22.098  1.00  0.00     0.065 A 
ATOM      9  C   UNL A   1      33.883  25.747  24.759  1.00  0.00     0.018 A 
ATOM     10  C   UNL A   1      33.408  24.539  22.708  1.00  0.00     0.038 A 
ATOM     11  Cl  UNL A   1      32.629  25.726  20.425  1.00  0.00    -0.082 Cl
BRANCH   6  12
ATOM     12  N   UNL A   1      32.434  28.095  22.412  1.00  0.00    -0.306 N 
ATOM     13  C   UNL A   1      31.104  28.356  22.281  1.00  0.00     0.321 C 
ATOM     14  O   UNL A   1      30.805  29.266  21.500  1.00  0.00    -0.248 OA
ATOM     15  H   UNL A   1      33.032  28.837  22.167  1.00  0.00     0.171 HD
BRANCH  13  16
ATOM     16  N   UNL A   1      30.152  27.754  23.094  1.00  0.00    -0.325 N 
BRANCH  16  17
ATOM     17  C   UNL A   1      29.277  28.658  23.851  1.00  0.00     0.124 C 
BRANCH  17  18
ATOM     18  C   UNL A   1      28.016  29.064  23.039  1.00  0.00     0.005 C 
ATOM     19  C   UNL A   1      26.801  28.222  23.444  1.00  0.00     0.009 C 
BRANCH  18  20
ATOM     20  C   UNL A   1      27.748  30.571  23.209  1.00  0.00     0.002 C 
ATOM     21  C   UNL A   1      28.951  31.347  23.735  1.00  0.00     0.004 C 
ENDBRANCH  18  20
ENDBRANCH  17  18
ENDBRANCH  16  17
BRANCH  16  22
ATOM     22  C   UNL A   1      29.997  26.336  23.461  1.00  0.00     0.118 C 
ATOM     23  C   UNL A   1      29.626  26.142  24.926  1.00  0.00     0.027 C 
ENDBRANCH  16  22
ENDBRANCH  13  16
ENDBRANCH   6  12
ENDBRANCH   3   5
ENDBRANCH   2   3
ENDBRANCH   1   2
BRANCH   1  24
ATOM     24  C   UNL A   1      36.413  21.347  24.514  1.00  0.00     0.275 C 
BRANCH  24  25
ATOM     25  O   UNL A   1      37.007  21.530  25.813  1.00  0.00    -0.458 OA
BRANCH  25  26
ATOM     26  C   UNL A   1      38.342  21.317  25.875  1.00  0.00     0.338 C 
ATOM     27  O   UNL A   1      38.964  20.368  25.428  1.00  0.00    -0.246 OA
BRANCH  26  28
ATOM     28  C   UNL A   1      39.001  22.475  26.498  1.00  0.00     0.060 A 
ATOM     29  C   UNL A   1      38.534  23.747  26.182  1.00  0.00     0.016 A 
ATOM     30  C   UNL A   1      40.149  22.323  27.268  1.00  0.00     0.016 A 
ATOM     31  C   UNL A   1      39.248  24.878  26.559  1.00  0.00     0.010 A 
ATOM     32  C   UNL A   1      40.822  23.464  27.724  1.00  0.00     0.010 A 
ATOM     33  C   UNL A   1      40.399  24.753  27.345  1.00  0.00    -0.014 A 
BRANCH  33  34
ATOM     34  C   UNL A   1      41.172  25.966  27.733  1.00  0.00     0.031 A 
ATOM     35  C   UNL A   1      40.527  27.032  28.578  1.00  0.00     0.074 A 
ATOM     36  C   UNL A   1      42.449  26.118  27.329  1.00  0.00     0.049 A 
ATOM     37  N   UNL A   1      40.970  28.224  28.884  1.00  0.00    -0.248 NA
ATOM     38  C   UNL A   1      39.201  26.724  29.140  1.00  0.00     0.031 C 
ATOM     39  C   UNL A   1      43.203  25.155  26.524  1.00  0.00     0.029 A 
ATOM     40  N   UNL A   1      43.337  27.147  27.530  1.00  0.00    -0.354 N 
ATOM     41  C   UNL A   1      39.949  28.837  29.599  1.00  0.00     0.074 A 
ATOM     42  C   UNL A   1      38.868  27.880  29.697  1.00  0.00     0.031 C 
ATOM     43  C   UNL A   1      44.438  25.631  26.309  1.00  0.00     0.029 A 
ATOM     44  C   UNL A   1      44.543  26.964  26.893  1.00  0.00     0.049 A 
ATOM     45  H   UNL A   1      43.130  27.939  28.076  1.00  0.00     0.167 HD
ATOM     46  C   UNL A   1      39.915  30.082  30.132  1.00  0.00     0.034 A 
ATOM     47  C   UNL A   1      45.599  27.788  26.753  1.00  0.00     0.034 A 
ATOM     48  C   UNL A   1      41.021  31.002  30.105  1.00  0.00     0.049 A 
ATOM     49  C   UNL A   1      45.549  29.155  27.376  1.00  0.00     0.074 A 
ATOM     50  C   UNL A   1      41.103  32.264  30.664  1.00  0.00     0.029 A 
ATOM     51  N   UNL A   1      42.242  30.755  29.496  1.00  0.00    -0.354 N 
ATOM     52  N   UNL A   1      44.595  29.699  28.092  1.00  0.00    -0.248 NA
ATOM     53  C   UNL A   1      46.722  30.018  27.183  1.00  0.00     0.031 C 
ATOM     54  C   UNL A   1      42.372  32.786  30.385  1.00  0.00     0.029 A 
ATOM     55  C   UNL A   1      43.084  31.840  29.665  1.00  0.00     0.049 A 
ATOM     56  H   UNL A   1      42.477  29.928  29.015  1.00  0.00     0.167 HD
ATOM     57  C   UNL A   1      45.058  30.959  28.451  1.00  0.00     0.074 A 
ATOM     58  C   UNL A   1      46.391  31.086  27.897  1.00  0.00     0.031 C 
ATOM     59  C   UNL A   1      44.429  31.931  29.155  1.00  0.00     0.034 A 
BRANCH  46  60
ATOM     60  C   UNL A   1      38.643  30.521  30.809  1.00  0.00     0.023 A 
ATOM     61  C   UNL A   1      38.471  30.305  32.191  1.00  0.00     0.012 A 
ATOM     62  C   UNL A   1      37.641  31.195  30.084  1.00  0.00     0.148 A 
ATOM     63  C   UNL A   1      37.307  30.723  32.834  1.00  0.00     0.002 A 
ATOM     64  C   UNL A   1      36.502  31.647  30.741  1.00  0.00     0.091 A 
ATOM     65  F   UNL A   1      37.810  31.370  28.766  1.00  0.00    -0.205 F 
ATOM     66  C   UNL A   1      36.328  31.403  32.112  1.00  0.00     0.022 A 
BRANCH  64  67
ATOM     67  S   UNL A   1      35.225  32.598  29.907  1.00  0.00     0.127 S 
ATOM     68  O   UNL A   1      34.288  32.856  30.999  1.00  0.00    -0.237 OA
ATOM     69  O   UNL A   1      35.964  33.776  29.448  1.00  0.00    -0.237 OA
ATOM     70  O   UNL A   1      34.727  31.744  28.838  1.00  0.00    -0.744 OA
ENDBRANCH  64  67
ENDBRANCH  46  60
BRANCH  47  71
ATOM     71  C   UNL A   1      46.801  27.328  25.999  1.00  0.00     0.023 A 
ATOM     72  C   UNL A   1      46.894  27.588  24.618  1.00  0.00     0.012 A 
ATOM     73  C   UNL A   1      47.873  26.686  26.652  1.00  0.00     0.148 A 
ATOM     74  C   UNL A   1      48.027  27.204  23.899  1.00  0.00     0.002 A 
ATOM     75  C   UNL A   1      49.023  26.365  25.942  1.00  0.00     0.091 A 
ATOM     76  F   UNL A   1      47.754  26.425  27.961  1.00  0.00    -0.205 F 
ATOM     77  C   UNL A   1      49.098  26.608  24.563  1.00  0.00     0.022 A 
BRANCH  75  78
ATOM     78  S   UNL A   1      50.501  25.739  26.751  1.00  0.00     0.127 S 
ATOM     79  O   UNL A   1      50.016  24.495  27.341  1.00  0.00    -0.237 OA
ATOM     80  O   UNL A   1      51.416  25.570  25.621  1.00  0.00    -0.237 OA
ATOM     81  O   UNL A   1      50.901  26.778  27.691  1.00  0.00    -0.744 OA
ENDBRANCH  75  78
ENDBRANCH  47  71
BRANCH  59  82
ATOM     82  C   UNL A   1      45.179  33.214  29.395  1.00  0.00     0.023 A 
ATOM     83  C   UNL A   1      46.007  33.334  30.528  1.00  0.00     0.012 A 
ATOM     84  C   UNL A   1      45.123  34.267  28.462  1.00  0.00     0.148 A 
ATOM     85  C   UNL A   1      46.747  34.496  30.743  1.00  0.00     0.002 A 
ATOM     86  C   UNL A   1      45.897  35.404  28.661  1.00  0.00     0.091 A 
ATOM     87  F   UNL A   1      44.313  34.141  27.401  1.00  0.00    -0.205 F 
ATOM     88  C   UNL A   1      46.702  35.525  29.805  1.00  0.00     0.022 A 
BRANCH  86  89
ATOM     89  S   UNL A   1      45.966  36.738  27.459  1.00  0.00     0.127 S 
ATOM     90  O   UNL A   1      46.917  37.655  28.087  1.00  0.00    -0.237 OA
ATOM     91  O   UNL A   1      46.472  36.059  26.266  1.00  0.00    -0.237 OA
ATOM     92  O   UNL A   1      44.602  37.234  27.336  1.00  0.00    -0.744 OA
ENDBRANCH  86  89
ENDBRANCH  59  82
ENDBRANCH  33  34
ENDBRANCH  26  28
ENDBRANCH  25  26
ENDBRANCH  24  25
ENDBRANCH   1  24
TORSDOF 20
ENDMDL
