MODEL 1
REMARK VINA RESULT:     -12.3      0.000      0.000
REMARK SMILES Cc1cscc1C(=O)N1C[C@@H](C(=O)OCCOC(=O)c2ccc(-c3c4nc(c(-c5cccc(S(=O)(=O)[O-])c5F)c5ccc([nH]5)c(-c5cccc(S(=O)(=O)[O-])c5F)c5nc(c(-c6cccc(S(=O)(=O)[O-])c6F)c6ccc3[nH]6)C=C5)C=C4)cc2)Oc2ccccc21
REMARK SMILES IDX 16 1 15 2 14 3 12 4 13 5 11 6 9 7 10 8 89 9 84 10 88 11
REMARK SMILES IDX 83 12 85 13 87 14 86 15 7 16 8 17 6 18 1 19 2 20 3 21 4 22
REMARK SMILES IDX 5 23 17 24 18 25 19 26 20 27 21 28 82 29 22 30 81 31 23 32
REMARK SMILES IDX 24 33 25 34 75 35 26 36 80 37 74 38 76 39 27 40 79 41 73 42
REMARK SMILES IDX 72 43 28 45 60 46 40 47 59 48 41 49 44 50 58 51 77 52 42 53
REMARK SMILES IDX 43 54 57 56 78 57 45 58 29 59 30 60 38 61 31 62 33 63 39 64
REMARK SMILES IDX 32 65 34 66 35 67 36 68 37 69 61 70 62 71 70 72 63 73 65 74
REMARK SMILES IDX 71 75 64 76 66 77 67 78 68 79 69 80 46 81 47 82 55 83 48 84
REMARK SMILES IDX 50 85 56 86 49 87 51 88 52 89 53 90 54 91
REMARK H PARENT 76 44 44 55
REMARK Flexibility Score: inf
ROOT
ATOM      1  C   UNL A   1      36.875  21.656  24.236  1.00  0.00     0.275 C 
ENDROOT
BRANCH   1   2
ATOM      2  C   UNL A   1      36.237  22.951  23.712  1.00  0.00     0.274 C 
BRANCH   2   3
ATOM      3  O   UNL A   1      35.112  23.373  24.504  1.00  0.00    -0.459 OA
BRANCH   3   4
ATOM      4  C   UNL A   1      34.228  24.163  23.838  1.00  0.00     0.349 C 
ATOM      5  O   UNL A   1      33.532  23.777  22.902  1.00  0.00    -0.248 OA
BRANCH   4   6
ATOM      6  C   UNL A   1      34.105  25.570  24.429  1.00  0.00     0.302 C 
ATOM      7  N   UNL A   1      32.206  24.984  25.842  1.00  0.00    -0.300 N 
ATOM      8  C   UNL A   1      33.607  25.415  25.869  1.00  0.00     0.183 C 
ATOM      9  C   UNL A   1      31.403  25.694  24.897  1.00  0.00     0.086 A 
ATOM     10  C   UNL A   1      32.016  26.522  23.946  1.00  0.00     0.144 A 
ATOM     11  C   UNL A   1      30.007  25.628  24.932  1.00  0.00     0.030 A 
ATOM     12  O   UNL A   1      33.368  26.570  23.733  1.00  0.00    -0.475 OA
ATOM     13  C   UNL A   1      31.251  27.341  23.116  1.00  0.00     0.049 A 
ATOM     14  C   UNL A   1      29.240  26.419  24.073  1.00  0.00     0.002 A 
ATOM     15  C   UNL A   1      29.862  27.293  23.183  1.00  0.00     0.004 A 
BRANCH   7  16
ATOM     16  C   UNL A   1      31.778  23.760  26.359  1.00  0.00     0.259 C 
ATOM     17  O   UNL A   1      30.923  23.717  27.249  1.00  0.00    -0.269 OA
BRANCH  16  18
ATOM     18  C   UNL A   1      32.386  22.504  25.880  1.00  0.00     0.053 A 
ATOM     19  C   UNL A   1      34.303  21.961  27.621  1.00  0.00     0.046 C 
ATOM     20  C   UNL A   1      33.450  21.678  26.430  1.00  0.00    -0.028 A 
ATOM     21  C   UNL A   1      33.584  20.496  25.718  1.00  0.00     0.069 A 
ATOM     22  S   UNL A   1      32.497  20.359  24.419  1.00  0.00    -0.151 S 
ATOM     23  C   UNL A   1      31.823  21.879  24.773  1.00  0.00     0.079 A 
ENDBRANCH  16  18
ENDBRANCH   7  16
ENDBRANCH   4   6
ENDBRANCH   3   4
ENDBRANCH   2   3
ENDBRANCH   1   2
BRANCH   1  24
ATOM     24  O   UNL A   1      37.184  21.690  25.644  1.00  0.00    -0.458 OA
BRANCH  24  25
ATOM     25  C   UNL A   1      38.452  21.333  25.969  1.00  0.00     0.338 C 
ATOM     26  O   UNL A   1      38.973  20.247  25.769  1.00  0.00    -0.246 OA
BRANCH  25  27
ATOM     27  C   UNL A   1      39.226  22.497  26.444  1.00  0.00     0.060 A 
ATOM     28  C   UNL A   1      38.727  23.767  26.137  1.00  0.00     0.016 A 
ATOM     29  C   UNL A   1      40.443  22.372  27.115  1.00  0.00     0.016 A 
ATOM     30  C   UNL A   1      39.410  24.915  26.515  1.00  0.00     0.010 A 
ATOM     31  C   UNL A   1      41.145  23.530  27.481  1.00  0.00     0.010 A 
ATOM     32  C   UNL A   1      40.629  24.805  27.185  1.00  0.00    -0.014 A 
BRANCH  32  33
ATOM     33  C   UNL A   1      41.356  26.044  27.537  1.00  0.00     0.031 A 
ATOM     34  C   UNL A   1      40.674  27.111  28.339  1.00  0.00     0.074 A 
ATOM     35  C   UNL A   1      42.644  26.181  27.170  1.00  0.00     0.049 A 
ATOM     36  N   UNL A   1      41.128  28.277  28.712  1.00  0.00    -0.248 NA
ATOM     37  C   UNL A   1      39.303  26.823  28.790  1.00  0.00     0.031 C 
ATOM     38  C   UNL A   1      43.420  25.184  26.431  1.00  0.00     0.029 A 
ATOM     39  N   UNL A   1      43.521  27.219  27.356  1.00  0.00    -0.354 N 
ATOM     40  C   UNL A   1      40.089  28.884  29.406  1.00  0.00     0.074 A 
ATOM     41  C   UNL A   1      38.982  27.950  29.411  1.00  0.00     0.031 C 
ATOM     42  C   UNL A   1      44.650  25.671  26.201  1.00  0.00     0.029 A 
ATOM     43  C   UNL A   1      44.732  27.027  26.735  1.00  0.00     0.049 A 
ATOM     44  H   UNL A   1      43.304  28.023  27.883  1.00  0.00     0.167 HD
ATOM     45  C   UNL A   1      40.064  30.106  29.989  1.00  0.00     0.034 A 
ATOM     46  C   UNL A   1      45.772  27.869  26.578  1.00  0.00     0.034 A 
ATOM     47  C   UNL A   1      41.176  31.020  29.990  1.00  0.00     0.049 A 
ATOM     48  C   UNL A   1      45.693  29.244  27.182  1.00  0.00     0.074 A 
ATOM     49  C   UNL A   1      41.262  32.268  30.580  1.00  0.00     0.029 A 
ATOM     50  N   UNL A   1      42.388  30.795  29.354  1.00  0.00    -0.354 N 
ATOM     51  N   UNL A   1      44.740  29.772  27.912  1.00  0.00    -0.248 NA
ATOM     52  C   UNL A   1      46.841  30.135  26.958  1.00  0.00     0.031 C 
ATOM     53  C   UNL A   1      42.512  32.813  30.269  1.00  0.00     0.029 A 
ATOM     54  C   UNL A   1      43.220  31.889  29.515  1.00  0.00     0.049 A 
ATOM     55  H   UNL A   1      42.622  29.976  28.859  1.00  0.00     0.167 HD
ATOM     56  C   UNL A   1      45.182  31.046  28.254  1.00  0.00     0.074 A 
ATOM     57  C   UNL A   1      46.502  31.197  27.675  1.00  0.00     0.031 C 
ATOM     58  C   UNL A   1      44.547  32.010  28.965  1.00  0.00     0.034 A 
BRANCH  45  59
ATOM     59  C   UNL A   1      38.791  30.529  30.671  1.00  0.00     0.023 A 
ATOM     60  C   UNL A   1      38.629  30.317  32.055  1.00  0.00     0.012 A 
ATOM     61  C   UNL A   1      37.774  31.185  29.949  1.00  0.00     0.148 A 
ATOM     62  C   UNL A   1      37.462  30.722  32.703  1.00  0.00     0.002 A 
ATOM     63  C   UNL A   1      36.633  31.625  30.610  1.00  0.00     0.091 A 
ATOM     64  F   UNL A   1      37.938  31.358  28.630  1.00  0.00    -0.205 F 
ATOM     65  C   UNL A   1      36.471  31.384  31.983  1.00  0.00     0.022 A 
BRANCH  63  66
ATOM     66  S   UNL A   1      35.333  32.551  29.787  1.00  0.00     0.127 S 
ATOM     67  O   UNL A   1      34.390  32.772  30.883  1.00  0.00    -0.237 OA
ATOM     68  O   UNL A   1      36.044  33.749  29.342  1.00  0.00    -0.237 OA
ATOM     69  O   UNL A   1      34.849  31.696  28.711  1.00  0.00    -0.744 OA
ENDBRANCH  63  66
ENDBRANCH  45  59
BRANCH  46  70
ATOM     70  C   UNL A   1      46.972  27.434  25.808  1.00  0.00     0.023 A 
ATOM     71  C   UNL A   1      47.955  26.646  26.436  1.00  0.00     0.012 A 
ATOM     72  C   UNL A   1      47.135  27.788  24.454  1.00  0.00     0.148 A 
ATOM     73  C   UNL A   1      49.092  26.241  25.736  1.00  0.00     0.002 A 
ATOM     74  C   UNL A   1      48.242  27.334  23.748  1.00  0.00     0.091 A 
ATOM     75  F   UNL A   1      46.198  28.556  23.881  1.00  0.00    -0.205 F 
ATOM     76  C   UNL A   1      49.231  26.575  24.392  1.00  0.00     0.022 A 
BRANCH  74  77
ATOM     77  S   UNL A   1      48.442  27.618  21.986  1.00  0.00     0.127 S 
ATOM     78  O   UNL A   1      48.658  26.261  21.489  1.00  0.00    -0.237 OA
ATOM     79  O   UNL A   1      47.151  28.206  21.628  1.00  0.00    -0.237 OA
ATOM     80  O   UNL A   1      49.574  28.525  21.859  1.00  0.00    -0.744 OA
ENDBRANCH  74  77
ENDBRANCH  46  70
BRANCH  58  81
ATOM     81  C   UNL A   1      45.277  33.311  29.180  1.00  0.00     0.023 A 
ATOM     82  C   UNL A   1      46.120  33.464  30.298  1.00  0.00     0.012 A 
ATOM     83  C   UNL A   1      45.183  34.354  28.238  1.00  0.00     0.148 A 
ATOM     84  C   UNL A   1      46.829  34.648  30.496  1.00  0.00     0.002 A 
ATOM     85  C   UNL A   1      45.932  35.511  28.413  1.00  0.00     0.091 A 
ATOM     86  F   UNL A   1      44.363  34.195  27.189  1.00  0.00    -0.205 F 
ATOM     87  C   UNL A   1      46.745  35.665  29.548  1.00  0.00     0.022 A 
BRANCH  85  88
ATOM     88  S   UNL A   1      45.964  36.836  27.200  1.00  0.00     0.127 S 
ATOM     89  O   UNL A   1      46.367  36.121  25.989  1.00  0.00    -0.237 OA
ATOM     90  O   UNL A   1      44.574  37.293  27.205  1.00  0.00    -0.237 OA
ATOM     91  O   UNL A   1      46.925  37.812  27.696  1.00  0.00    -0.744 OA
ENDBRANCH  85  88
ENDBRANCH  58  81
ENDBRANCH  32  33
ENDBRANCH  25  27
ENDBRANCH  24  25
ENDBRANCH   1  24
TORSDOF 16
ENDMDL
MODEL 2
REMARK VINA RESULT:     -12.2      5.194      9.924
REMARK SMILES Cc1cscc1C(=O)N1C[C@@H](C(=O)OCCOC(=O)c2ccc(-c3c4nc(c(-c5cccc(S(=O)(=O)[O-])c5F)c5ccc([nH]5)c(-c5cccc(S(=O)(=O)[O-])c5F)c5nc(c(-c6cccc(S(=O)(=O)[O-])c6F)c6ccc3[nH]6)C=C5)C=C4)cc2)Oc2ccccc21
REMARK SMILES IDX 16 1 15 2 14 3 12 4 13 5 11 6 9 7 10 8 89 9 84 10 88 11
REMARK SMILES IDX 83 12 85 13 87 14 86 15 7 16 8 17 6 18 1 19 2 20 3 21 4 22
REMARK SMILES IDX 5 23 17 24 18 25 19 26 20 27 21 28 82 29 22 30 81 31 23 32
REMARK SMILES IDX 24 33 25 34 75 35 26 36 80 37 74 38 76 39 27 40 79 41 73 42
REMARK SMILES IDX 72 43 28 45 60 46 40 47 59 48 41 49 44 50 58 51 77 52 42 53
REMARK SMILES IDX 43 54 57 56 78 57 45 58 29 59 30 60 38 61 31 62 33 63 39 64
REMARK SMILES IDX 32 65 34 66 35 67 36 68 37 69 61 70 62 71 70 72 63 73 65 74
REMARK SMILES IDX 71 75 64 76 66 77 67 78 68 79 69 80 46 81 47 82 55 83 48 84
REMARK SMILES IDX 50 85 56 86 49 87 51 88 52 89 53 90 54 91
REMARK H PARENT 76 44 44 55
REMARK Flexibility Score: inf
ROOT
ATOM      1  C   UNL A   1      31.403  30.647  25.709  1.00  0.00     0.275 C 
ENDROOT
BRANCH   1   2
ATOM      2  C   UNL A   1      31.132  29.725  24.510  1.00  0.00     0.274 C 
BRANCH   2   3
ATOM      3  O   UNL A   1      31.908  28.513  24.557  1.00  0.00    -0.459 OA
BRANCH   3   4
ATOM      4  C   UNL A   1      31.183  27.401  24.850  1.00  0.00     0.349 C 
ATOM      5  O   UNL A   1      30.518  26.778  24.026  1.00  0.00    -0.248 OA
BRANCH   4   6
ATOM      6  C   UNL A   1      31.352  26.929  26.298  1.00  0.00     0.302 C 
ATOM      7  N   UNL A   1      33.139  25.364  25.750  1.00  0.00    -0.300 N 
ATOM      8  C   UNL A   1      32.832  26.589  26.495  1.00  0.00     0.183 C 
ATOM      9  C   UNL A   1      32.159  24.336  25.901  1.00  0.00     0.086 A 
ATOM     10  C   UNL A   1      30.928  24.632  26.505  1.00  0.00     0.144 A 
ATOM     11  C   UNL A   1      32.418  23.019  25.511  1.00  0.00     0.030 A 
ATOM     12  O   UNL A   1      30.513  25.901  26.811  1.00  0.00    -0.475 OA
ATOM     13  C   UNL A   1      30.019  23.617  26.803  1.00  0.00     0.049 A 
ATOM     14  C   UNL A   1      31.490  22.008  25.774  1.00  0.00     0.002 A 
ATOM     15  C   UNL A   1      30.302  22.304  26.441  1.00  0.00     0.004 A 
BRANCH   7  16
ATOM     16  C   UNL A   1      34.047  25.328  24.689  1.00  0.00     0.259 C 
ATOM     17  O   UNL A   1      34.034  26.204  23.819  1.00  0.00    -0.269 OA
BRANCH  16  18
ATOM     18  C   UNL A   1      34.998  24.206  24.572  1.00  0.00     0.053 A 
ATOM     19  C   UNL A   1      34.307  22.947  22.350  1.00  0.00     0.046 C 
ATOM     20  C   UNL A   1      35.165  23.187  23.547  1.00  0.00    -0.028 A 
ATOM     21  C   UNL A   1      36.299  22.425  23.779  1.00  0.00     0.069 A 
ATOM     22  S   UNL A   1      37.149  22.881  25.178  1.00  0.00    -0.151 S 
ATOM     23  C   UNL A   1      36.018  24.106  25.512  1.00  0.00     0.079 A 
ENDBRANCH  16  18
ENDBRANCH   7  16
ENDBRANCH   4   6
ENDBRANCH   3   4
ENDBRANCH   2   3
ENDBRANCH   1   2
BRANCH   1  24
ATOM     24  O   UNL A   1      32.761  30.586  26.191  1.00  0.00    -0.458 OA
BRANCH  24  25
ATOM     25  C   UNL A   1      33.145  31.624  26.976  1.00  0.00     0.338 C 
ATOM     26  O   UNL A   1      32.483  32.613  27.244  1.00  0.00    -0.246 OA
BRANCH  25  27
ATOM     27  C   UNL A   1      34.429  31.335  27.646  1.00  0.00     0.060 A 
ATOM     28  C   UNL A   1      34.610  30.044  28.154  1.00  0.00     0.016 A 
ATOM     29  C   UNL A   1      35.413  32.304  27.843  1.00  0.00     0.016 A 
ATOM     30  C   UNL A   1      35.773  29.698  28.829  1.00  0.00     0.010 A 
ATOM     31  C   UNL A   1      36.580  31.963  28.542  1.00  0.00     0.010 A 
ATOM     32  C   UNL A   1      36.765  30.658  29.035  1.00  0.00    -0.014 A 
BRANCH  32  33
ATOM     33  C   UNL A   1      37.973  30.273  29.796  1.00  0.00     0.031 A 
ATOM     34  C   UNL A   1      38.976  29.338  29.187  1.00  0.00     0.074 A 
ATOM     35  C   UNL A   1      38.184  30.805  31.013  1.00  0.00     0.049 A 
ATOM     36  N   UNL A   1      40.072  28.855  29.707  1.00  0.00    -0.248 NA
ATOM     37  C   UNL A   1      38.715  28.897  27.807  1.00  0.00     0.031 C 
ATOM     38  C   UNL A   1      37.300  31.762  31.680  1.00  0.00     0.029 A 
ATOM     39  N   UNL A   1      39.200  30.604  31.913  1.00  0.00    -0.354 N 
ATOM     40  C   UNL A   1      40.614  28.020  28.739  1.00  0.00     0.074 A 
ATOM     41  C   UNL A   1      39.729  28.070  27.594  1.00  0.00     0.031 C 
ATOM     42  C   UNL A   1      37.797  32.044  32.894  1.00  0.00     0.029 A 
ATOM     43  C   UNL A   1      39.005  31.254  33.109  1.00  0.00     0.049 A 
ATOM     44  H   UNL A   1      39.991  30.048  31.721  1.00  0.00     0.167 HD
ATOM     45  C   UNL A   1      41.748  27.283  28.800  1.00  0.00     0.034 A 
ATOM     46  C   UNL A   1      39.701  31.184  34.260  1.00  0.00     0.034 A 
ATOM     47  C   UNL A   1      42.628  27.252  29.940  1.00  0.00     0.049 A 
ATOM     48  C   UNL A   1      40.922  30.308  34.321  1.00  0.00     0.074 A 
ATOM     49  C   UNL A   1      43.818  26.563  30.089  1.00  0.00     0.029 A 
ATOM     50  N   UNL A   1      42.403  27.922  31.133  1.00  0.00    -0.354 N 
ATOM     51  N   UNL A   1      41.474  29.593  33.369  1.00  0.00    -0.248 NA
ATOM     52  C   UNL A   1      41.630  30.243  35.608  1.00  0.00     0.031 C 
ATOM     53  C   UNL A   1      44.293  26.787  31.385  1.00  0.00     0.029 A 
ATOM     54  C   UNL A   1      43.418  27.645  32.033  1.00  0.00     0.049 A 
ATOM     55  H   UNL A   1      41.633  28.510  31.314  1.00  0.00     0.167 HD
ATOM     56  C   UNL A   1      42.605  29.013  33.934  1.00  0.00     0.074 A 
ATOM     57  C   UNL A   1      42.673  29.485  35.303  1.00  0.00     0.031 C 
ATOM     58  C   UNL A   1      43.494  28.153  33.380  1.00  0.00     0.034 A 
BRANCH  45  59
ATOM     59  C   UNL A   1      42.103  26.443  27.602  1.00  0.00     0.023 A 
ATOM     60  C   UNL A   1      42.796  27.020  26.518  1.00  0.00     0.012 A 
ATOM     61  C   UNL A   1      41.793  25.069  27.572  1.00  0.00     0.148 A 
ATOM     62  C   UNL A   1      43.146  26.249  25.411  1.00  0.00     0.002 A 
ATOM     63  C   UNL A   1      42.185  24.298  26.484  1.00  0.00     0.091 A 
ATOM     64  F   UNL A   1      41.114  24.546  28.603  1.00  0.00    -0.205 F 
ATOM     65  C   UNL A   1      42.851  24.888  25.399  1.00  0.00     0.022 A 
BRANCH  63  66
ATOM     66  S   UNL A   1      41.915  22.524  26.407  1.00  0.00     0.127 S 
ATOM     67  O   UNL A   1      40.457  22.445  26.487  1.00  0.00    -0.237 OA
ATOM     68  O   UNL A   1      42.473  22.187  25.098  1.00  0.00    -0.237 OA
ATOM     69  O   UNL A   1      42.634  21.957  27.539  1.00  0.00    -0.744 OA
ENDBRANCH  63  66
ENDBRANCH  45  59
BRANCH  46  70
ATOM     70  C   UNL A   1      39.251  31.960  35.450  1.00  0.00     0.023 A 
ATOM     71  C   UNL A   1      38.360  31.373  36.369  1.00  0.00     0.012 A 
ATOM     72  C   UNL A   1      39.713  33.271  35.681  1.00  0.00     0.148 A 
ATOM     73  C   UNL A   1      37.917  32.089  37.482  1.00  0.00     0.002 A 
ATOM     74  C   UNL A   1      39.310  33.957  36.820  1.00  0.00     0.091 A 
ATOM     75  F   UNL A   1      40.543  33.820  34.783  1.00  0.00    -0.205 F 
ATOM     76  C   UNL A   1      38.399  33.374  37.714  1.00  0.00     0.022 A 
BRANCH  74  77
ATOM     77  S   UNL A   1      39.971  35.569  37.258  1.00  0.00     0.127 S 
ATOM     78  O   UNL A   1      39.274  35.847  38.511  1.00  0.00    -0.237 OA
ATOM     79  O   UNL A   1      41.399  35.280  37.399  1.00  0.00    -0.237 OA
ATOM     80  O   UNL A   1      39.642  36.446  36.143  1.00  0.00    -0.744 OA
ENDBRANCH  74  77
ENDBRANCH  46  70
BRANCH  58  81
ATOM     81  C   UNL A   1      44.635  27.680  34.242  1.00  0.00     0.023 A 
ATOM     82  C   UNL A   1      45.841  28.408  34.269  1.00  0.00     0.012 A 
ATOM     83  C   UNL A   1      44.489  26.555  35.077  1.00  0.00     0.148 A 
ATOM     84  C   UNL A   1      46.896  28.005  35.086  1.00  0.00     0.002 A 
ATOM     85  C   UNL A   1      45.525  26.187  35.928  1.00  0.00     0.091 A 
ATOM     86  F   UNL A   1      43.340  25.865  35.025  1.00  0.00    -0.205 F 
ATOM     87  C   UNL A   1      46.734  26.903  35.923  1.00  0.00     0.022 A 
BRANCH  85  88
ATOM     88  S   UNL A   1      45.376  24.843  37.109  1.00  0.00     0.127 S 
ATOM     89  O   UNL A   1      45.207  23.689  36.228  1.00  0.00    -0.237 OA
ATOM     90  O   UNL A   1      46.662  24.898  37.804  1.00  0.00    -0.237 OA
ATOM     91  O   UNL A   1      44.224  25.165  37.941  1.00  0.00    -0.744 OA
ENDBRANCH  85  88
ENDBRANCH  58  81
ENDBRANCH  32  33
ENDBRANCH  25  27
ENDBRANCH  24  25
ENDBRANCH   1  24
TORSDOF 16
ENDMDL
MODEL 3
REMARK VINA RESULT:     -12.2      5.228      9.789
REMARK SMILES Cc1cscc1C(=O)N1C[C@@H](C(=O)OCCOC(=O)c2ccc(-c3c4nc(c(-c5cccc(S(=O)(=O)[O-])c5F)c5ccc([nH]5)c(-c5cccc(S(=O)(=O)[O-])c5F)c5nc(c(-c6cccc(S(=O)(=O)[O-])c6F)c6ccc3[nH]6)C=C5)C=C4)cc2)Oc2ccccc21
REMARK SMILES IDX 16 1 15 2 14 3 12 4 13 5 11 6 9 7 10 8 89 9 84 10 88 11
REMARK SMILES IDX 83 12 85 13 87 14 86 15 7 16 8 17 6 18 1 19 2 20 3 21 4 22
REMARK SMILES IDX 5 23 17 24 18 25 19 26 20 27 21 28 82 29 22 30 81 31 23 32
REMARK SMILES IDX 24 33 25 34 75 35 26 36 80 37 74 38 76 39 27 40 79 41 73 42
REMARK SMILES IDX 72 43 28 45 60 46 40 47 59 48 41 49 44 50 58 51 77 52 42 53
REMARK SMILES IDX 43 54 57 56 78 57 45 58 29 59 30 60 38 61 31 62 33 63 39 64
REMARK SMILES IDX 32 65 34 66 35 67 36 68 37 69 61 70 62 71 70 72 63 73 65 74
REMARK SMILES IDX 71 75 64 76 66 77 67 78 68 79 69 80 46 81 47 82 55 83 48 84
REMARK SMILES IDX 50 85 56 86 49 87 51 88 52 89 53 90 54 91
REMARK H PARENT 76 44 44 55
REMARK Flexibility Score: inf
ROOT
ATOM      1  C   UNL A   1      31.713  29.353  26.471  1.00  0.00     0.275 C 
ENDROOT
BRANCH   1   2
ATOM      2  C   UNL A   1      31.910  27.849  26.712  1.00  0.00     0.274 C 
BRANCH   2   3
ATOM      3  O   UNL A   1      30.673  27.113  26.665  1.00  0.00    -0.459 OA
BRANCH   3   4
ATOM      4  C   UNL A   1      30.812  25.817  26.280  1.00  0.00     0.349 C 
ATOM      5  O   UNL A   1      31.502  24.994  26.877  1.00  0.00    -0.248 OA
BRANCH   4   6
ATOM      6  C   UNL A   1      29.943  25.444  25.075  1.00  0.00     0.302 C 
ATOM      7  N   UNL A   1      31.673  26.003  23.450  1.00  0.00    -0.300 N 
ATOM      8  C   UNL A   1      30.879  24.896  23.993  1.00  0.00     0.183 C 
ATOM      9  C   UNL A   1      30.913  27.183  23.186  1.00  0.00     0.086 A 
ATOM     10  C   UNL A   1      29.599  27.286  23.664  1.00  0.00     0.144 A 
ATOM     11  C   UNL A   1      31.429  28.224  22.408  1.00  0.00     0.030 A 
ATOM     12  O   UNL A   1      29.032  26.394  24.537  1.00  0.00    -0.475 OA
ATOM     13  C   UNL A   1      28.786  28.356  23.291  1.00  0.00     0.049 A 
ATOM     14  C   UNL A   1      30.627  29.316  22.067  1.00  0.00     0.002 A 
ATOM     15  C   UNL A   1      29.300  29.370  22.488  1.00  0.00     0.004 A 
BRANCH   7  16
ATOM     16  C   UNL A   1      33.064  26.065  23.560  1.00  0.00     0.259 C 
ATOM     17  O   UNL A   1      33.669  27.112  23.309  1.00  0.00    -0.269 OA
BRANCH  16  18
ATOM     18  C   UNL A   1      33.828  24.858  23.928  1.00  0.00     0.053 A 
ATOM     19  C   UNL A   1      33.325  23.113  22.005  1.00  0.00     0.046 C 
ATOM     20  C   UNL A   1      33.998  23.581  23.251  1.00  0.00    -0.028 A 
ATOM     21  C   UNL A   1      34.940  22.795  23.896  1.00  0.00     0.069 A 
ATOM     22  S   UNL A   1      35.606  23.528  25.276  1.00  0.00    -0.151 S 
ATOM     23  C   UNL A   1      34.647  24.913  25.051  1.00  0.00     0.079 A 
ENDBRANCH  16  18
ENDBRANCH   7  16
ENDBRANCH   4   6
ENDBRANCH   3   4
ENDBRANCH   2   3
ENDBRANCH   1   2
BRANCH   1  24
ATOM     24  O   UNL A   1      32.922  30.044  26.097  1.00  0.00    -0.458 OA
BRANCH  24  25
ATOM     25  C   UNL A   1      33.251  31.101  26.879  1.00  0.00     0.338 C 
ATOM     26  O   UNL A   1      32.542  32.060  27.138  1.00  0.00    -0.246 OA
BRANCH  25  27
ATOM     27  C   UNL A   1      34.543  30.876  27.561  1.00  0.00     0.060 A 
ATOM     28  C   UNL A   1      34.763  29.610  28.112  1.00  0.00     0.016 A 
ATOM     29  C   UNL A   1      35.496  31.881  27.725  1.00  0.00     0.016 A 
ATOM     30  C   UNL A   1      35.935  29.323  28.799  1.00  0.00     0.010 A 
ATOM     31  C   UNL A   1      36.671  31.601  28.436  1.00  0.00     0.010 A 
ATOM     32  C   UNL A   1      36.896  30.320  28.973  1.00  0.00    -0.014 A 
BRANCH  32  33
ATOM     33  C   UNL A   1      38.114  30.000  29.747  1.00  0.00     0.031 A 
ATOM     34  C   UNL A   1      39.139  29.064  29.179  1.00  0.00     0.074 A 
ATOM     35  C   UNL A   1      38.313  30.589  30.940  1.00  0.00     0.049 A 
ATOM     36  N   UNL A   1      40.248  28.632  29.717  1.00  0.00    -0.248 NA
ATOM     37  C   UNL A   1      38.889  28.556  27.820  1.00  0.00     0.031 C 
ATOM     38  C   UNL A   1      37.406  31.553  31.565  1.00  0.00     0.029 A 
ATOM     39  N   UNL A   1      39.335  30.454  31.846  1.00  0.00    -0.354 N 
ATOM     40  C   UNL A   1      40.810  27.769  28.786  1.00  0.00     0.074 A 
ATOM     41  C   UNL A   1      39.923  27.746  27.641  1.00  0.00     0.031 C 
ATOM     42  C   UNL A   1      37.897  31.901  32.765  1.00  0.00     0.029 A 
ATOM     43  C   UNL A   1      39.125  31.151  33.012  1.00  0.00     0.049 A 
ATOM     44  H   UNL A   1      40.139  29.910  31.677  1.00  0.00     0.167 HD
ATOM     45  C   UNL A   1      41.962  27.063  28.877  1.00  0.00     0.034 A 
ATOM     46  C   UNL A   1      39.824  31.150  34.164  1.00  0.00     0.034 A 
ATOM     47  C   UNL A   1      42.843  27.105  30.015  1.00  0.00     0.049 A 
ATOM     48  C   UNL A   1      41.067  30.308  34.260  1.00  0.00     0.074 A 
ATOM     49  C   UNL A   1      44.051  26.453  30.192  1.00  0.00     0.029 A 
ATOM     50  N   UNL A   1      42.603  27.821  31.178  1.00  0.00    -0.354 N 
ATOM     51  N   UNL A   1      41.635  29.566  33.340  1.00  0.00    -0.248 NA
ATOM     52  C   UNL A   1      41.777  30.317  35.548  1.00  0.00     0.031 C 
ATOM     53  C   UNL A   1      44.521  26.745  31.475  1.00  0.00     0.029 A 
ATOM     54  C   UNL A   1      43.625  27.609  32.087  1.00  0.00     0.049 A 
ATOM     55  H   UNL A   1      41.819  28.397  31.335  1.00  0.00     0.167 HD
ATOM     56  C   UNL A   1      42.780  29.040  33.928  1.00  0.00     0.074 A 
ATOM     57  C   UNL A   1      42.839  29.573  35.274  1.00  0.00     0.031 C 
ATOM     58  C   UNL A   1      43.690  28.178  33.410  1.00  0.00     0.034 A 
BRANCH  45  59
ATOM     59  C   UNL A   1      42.336  26.181  27.716  1.00  0.00     0.023 A 
ATOM     60  C   UNL A   1      43.147  26.687  26.680  1.00  0.00     0.012 A 
ATOM     61  C   UNL A   1      41.925  24.834  27.678  1.00  0.00     0.148 A 
ATOM     62  C   UNL A   1      43.516  25.874  25.608  1.00  0.00     0.002 A 
ATOM     63  C   UNL A   1      42.333  24.018  26.629  1.00  0.00     0.091 A 
ATOM     64  F   UNL A   1      41.136  24.379  28.662  1.00  0.00    -0.205 F 
ATOM     65  C   UNL A   1      43.119  24.539  25.589  1.00  0.00     0.022 A 
BRANCH  63  66
ATOM     66  S   UNL A   1      41.935  22.269  26.550  1.00  0.00     0.127 S 
ATOM     67  O   UNL A   1      42.698  21.846  25.376  1.00  0.00    -0.237 OA
ATOM     68  O   UNL A   1      42.456  21.778  27.826  1.00  0.00    -0.237 OA
ATOM     69  O   UNL A   1      40.487  22.191  26.414  1.00  0.00    -0.744 OA
ENDBRANCH  63  66
ENDBRANCH  45  59
BRANCH  46  70
ATOM     70  C   UNL A   1      39.356  31.966  35.319  1.00  0.00     0.023 A 
ATOM     71  C   UNL A   1      38.452  31.411  36.245  1.00  0.00     0.012 A 
ATOM     72  C   UNL A   1      39.813  33.285  35.511  1.00  0.00     0.148 A 
ATOM     73  C   UNL A   1      37.991  32.164  37.325  1.00  0.00     0.002 A 
ATOM     74  C   UNL A   1      39.393  34.009  36.620  1.00  0.00     0.091 A 
ATOM     75  F   UNL A   1      40.657  33.803  34.607  1.00  0.00    -0.205 F 
ATOM     76  C   UNL A   1      38.470  33.457  37.520  1.00  0.00     0.022 A 
BRANCH  74  77
ATOM     77  S   UNL A   1      40.047  35.636  37.011  1.00  0.00     0.127 S 
ATOM     78  O   UNL A   1      41.480  35.367  37.104  1.00  0.00    -0.237 OA
ATOM     79  O   UNL A   1      39.642  36.412  35.838  1.00  0.00    -0.237 OA
ATOM     80  O   UNL A   1      39.397  36.035  38.251  1.00  0.00    -0.744 OA
ENDBRANCH  74  77
ENDBRANCH  46  70
BRANCH  58  81
ATOM     81  C   UNL A   1      44.844  27.772  34.290  1.00  0.00     0.023 A 
ATOM     82  C   UNL A   1      46.015  28.554  34.313  1.00  0.00     0.012 A 
ATOM     83  C   UNL A   1      44.741  26.657  35.144  1.00  0.00     0.148 A 
ATOM     84  C   UNL A   1      47.080  28.213  35.146  1.00  0.00     0.002 A 
ATOM     85  C   UNL A   1      45.785  26.352  36.009  1.00  0.00     0.091 A 
ATOM     86  F   UNL A   1      43.625  25.915  35.095  1.00  0.00    -0.205 F 
ATOM     87  C   UNL A   1      46.960  27.121  36.002  1.00  0.00     0.022 A 
BRANCH  85  88
ATOM     88  S   UNL A   1      45.686  25.023  37.214  1.00  0.00     0.127 S 
ATOM     89  O   UNL A   1      44.674  25.535  38.138  1.00  0.00    -0.237 OA
ATOM     90  O   UNL A   1      45.248  23.894  36.394  1.00  0.00    -0.237 OA
ATOM     91  O   UNL A   1      47.025  24.885  37.771  1.00  0.00    -0.744 OA
ENDBRANCH  85  88
ENDBRANCH  58  81
ENDBRANCH  32  33
ENDBRANCH  25  27
ENDBRANCH  24  25
ENDBRANCH   1  24
TORSDOF 16
ENDMDL
