MODEL 1
REMARK VINA RESULT:     -12.5      0.000      0.000
REMARK SMILES O=C(OCCOC(=O)c1cc2c(c(S(=O)(=O)Nc3cc(C(F)(F)F)ccc3-n3cccn3)c1)CCC2)c1ccc(-c2c3nc(c(-c4cccc(S(=O)(=O)[O-])c4F)c4ccc([nH]4)c(-c4cccc(S(=O)(=O)[O-])c4F)c4nc(c(-c5cccc(S(=O)(=O)[O-])c5F)c5ccc2[nH]5)C=C4)C=C3)cc1
REMARK SMILES IDX 5 1 4 2 3 3 2 4 1 5 37 6 38 7 99 8 39 9 98 10 40 11 41 12
REMARK SMILES IDX 42 13 92 14 43 15 97 16 91 17 93 18 44 19 96 20 90 21 89 22
REMARK SMILES IDX 45 24 77 25 57 26 76 27 58 28 61 29 75 30 94 31 59 32 60 33
REMARK SMILES IDX 74 35 95 36 62 37 46 38 47 39 55 40 48 41 50 42 56 43 49 44
REMARK SMILES IDX 51 45 52 46 53 47 54 48 78 49 79 50 87 51 80 52 82 53 88 54
REMARK SMILES IDX 81 55 83 56 84 57 85 58 86 59 63 60 64 61 72 62 65 63 67 64
REMARK SMILES IDX 73 65 66 66 68 67 69 68 70 69 71 70 6 71 7 72 8 73 9 74
REMARK SMILES IDX 10 75 33 76 11 77 13 78 12 79 36 80 34 81 35 82 14 83 15 84
REMARK SMILES IDX 16 85 17 86 18 88 19 89 27 90 20 91 26 92 25 93 28 94 29 95
REMARK SMILES IDX 32 96 30 97 31 98 21 99 22 100 23 101 24 102
REMARK H PARENT 93 23 61 34 17 87
REMARK Flexibility Score: inf
ROOT
ATOM      1  C   UNL A   1      32.593  30.315  26.800  1.00  0.00     0.275 C 
ENDROOT
BRANCH   1   2
ATOM      2  C   UNL A   1      33.550  31.211  27.595  1.00  0.00     0.275 C 
BRANCH   2   3
ATOM      3  O   UNL A   1      34.886  30.726  27.825  1.00  0.00    -0.458 OA
BRANCH   3   4
ATOM      4  C   UNL A   1      35.593  31.240  28.856  1.00  0.00     0.338 C 
ATOM      5  O   UNL A   1      35.093  31.929  29.731  1.00  0.00    -0.246 OA
BRANCH   4   6
ATOM      6  C   UNL A   1      36.988  30.732  28.891  1.00  0.00     0.060 A 
ATOM      7  C   UNL A   1      37.330  29.446  28.441  1.00  0.00     0.016 A 
ATOM      8  C   UNL A   1      37.979  31.582  29.385  1.00  0.00     0.016 A 
ATOM      9  C   UNL A   1      38.628  28.977  28.553  1.00  0.00     0.010 A 
ATOM     10  C   UNL A   1      39.287  31.126  29.467  1.00  0.00     0.010 A 
ATOM     11  C   UNL A   1      39.594  29.800  29.118  1.00  0.00    -0.014 A 
BRANCH  11  12
ATOM     12  C   UNL A   1      40.908  29.228  29.427  1.00  0.00     0.031 A 
ATOM     13  C   UNL A   1      41.321  29.059  30.867  1.00  0.00     0.074 A 
ATOM     14  C   UNL A   1      41.598  28.691  28.396  1.00  0.00     0.049 A 
ATOM     15  N   UNL A   1      42.515  28.971  31.370  1.00  0.00    -0.248 NA
ATOM     16  C   UNL A   1      40.268  28.961  31.890  1.00  0.00     0.031 C 
ATOM     17  C   UNL A   1      41.190  28.630  26.983  1.00  0.00     0.029 A 
ATOM     18  N   UNL A   1      42.713  27.909  28.424  1.00  0.00    -0.354 N 
ATOM     19  C   UNL A   1      42.347  28.562  32.698  1.00  0.00     0.074 A 
ATOM     20  C   UNL A   1      40.939  28.544  32.961  1.00  0.00     0.031 C 
ATOM     21  C   UNL A   1      41.852  27.628  26.374  1.00  0.00     0.029 A 
ATOM     22  C   UNL A   1      42.823  27.091  27.304  1.00  0.00     0.049 A 
ATOM     23  H   UNL A   1      43.370  27.922  29.158  1.00  0.00     0.167 HD
ATOM     24  C   UNL A   1      43.370  28.166  33.500  1.00  0.00     0.034 A 
ATOM     25  C   UNL A   1      43.583  25.981  27.176  1.00  0.00     0.034 A 
ATOM     26  C   UNL A   1      44.600  28.807  33.152  1.00  0.00     0.049 A 
ATOM     27  C   UNL A   1      44.625  26.034  28.223  1.00  0.00     0.074 A 
ATOM     28  C   UNL A   1      45.003  30.126  33.094  1.00  0.00     0.029 A 
ATOM     29  N   UNL A   1      45.549  28.099  32.464  1.00  0.00    -0.354 N 
ATOM     30  N   UNL A   1      45.564  26.940  28.268  1.00  0.00    -0.248 NA
ATOM     31  C   UNL A   1      44.389  25.309  29.458  1.00  0.00     0.031 C 
ATOM     32  C   UNL A   1      45.844  30.191  31.947  1.00  0.00     0.029 A 
ATOM     33  C   UNL A   1      45.922  28.901  31.417  1.00  0.00     0.049 A 
ATOM     34  H   UNL A   1      45.891  27.200  32.676  1.00  0.00     0.167 HD
ATOM     35  C   UNL A   1      45.739  27.194  29.621  1.00  0.00     0.074 A 
ATOM     36  C   UNL A   1      45.081  26.079  30.302  1.00  0.00     0.031 C 
ATOM     37  C   UNL A   1      46.149  28.418  30.072  1.00  0.00     0.034 A 
BRANCH  24  38
ATOM     38  C   UNL A   1      43.306  27.000  34.454  1.00  0.00     0.023 A 
ATOM     39  C   UNL A   1      43.125  27.275  35.827  1.00  0.00     0.012 A 
ATOM     40  C   UNL A   1      43.726  25.697  34.099  1.00  0.00     0.148 A 
ATOM     41  C   UNL A   1      43.417  26.322  36.809  1.00  0.00     0.002 A 
ATOM     42  C   UNL A   1      43.993  24.744  35.078  1.00  0.00     0.091 A 
ATOM     43  F   UNL A   1      43.951  25.404  32.813  1.00  0.00    -0.205 F 
ATOM     44  C   UNL A   1      43.863  25.060  36.436  1.00  0.00     0.022 A 
BRANCH  42  45
ATOM     45  S   UNL A   1      44.590  23.097  34.673  1.00  0.00     0.127 S 
ATOM     46  O   UNL A   1      43.524  22.599  33.810  1.00  0.00    -0.237 OA
ATOM     47  O   UNL A   1      45.851  23.398  33.995  1.00  0.00    -0.237 OA
ATOM     48  O   UNL A   1      44.751  22.404  35.947  1.00  0.00    -0.744 OA
ENDBRANCH  42  45
ENDBRANCH  24  38
BRANCH  25  49
ATOM     49  C   UNL A   1      43.311  24.777  26.364  1.00  0.00     0.023 A 
ATOM     50  C   UNL A   1      44.158  24.451  25.289  1.00  0.00     0.012 A 
ATOM     51  C   UNL A   1      42.343  23.825  26.768  1.00  0.00     0.148 A 
ATOM     52  C   UNL A   1      44.049  23.215  24.640  1.00  0.00     0.002 A 
ATOM     53  C   UNL A   1      42.229  22.605  26.109  1.00  0.00     0.091 A 
ATOM     54  F   UNL A   1      41.594  24.084  27.849  1.00  0.00    -0.205 F 
ATOM     55  C   UNL A   1      43.088  22.294  25.048  1.00  0.00     0.022 A 
BRANCH  53  56
ATOM     56  S   UNL A   1      41.006  21.372  26.575  1.00  0.00     0.127 S 
ATOM     57  O   UNL A   1      41.052  21.433  28.037  1.00  0.00    -0.237 OA
ATOM     58  O   UNL A   1      39.787  21.914  25.981  1.00  0.00    -0.237 OA
ATOM     59  O   UNL A   1      41.485  20.113  26.019  1.00  0.00    -0.744 OA
ENDBRANCH  53  56
ENDBRANCH  25  49
BRANCH  37  60
ATOM     60  C   UNL A   1      46.535  29.473  29.056  1.00  0.00     0.023 A 
ATOM     61  C   UNL A   1      47.825  29.495  28.484  1.00  0.00     0.012 A 
ATOM     62  C   UNL A   1      45.543  30.292  28.490  1.00  0.00     0.148 A 
ATOM     63  C   UNL A   1      48.131  30.318  27.400  1.00  0.00     0.002 A 
ATOM     64  C   UNL A   1      45.835  31.078  27.379  1.00  0.00     0.091 A 
ATOM     65  F   UNL A   1      44.309  30.251  29.017  1.00  0.00    -0.205 F 
ATOM     66  C   UNL A   1      47.131  31.101  26.837  1.00  0.00     0.022 A 
BRANCH  64  67
ATOM     67  S   UNL A   1      44.561  31.996  26.507  1.00  0.00     0.127 S 
ATOM     68  O   UNL A   1      44.161  32.987  27.504  1.00  0.00    -0.237 OA
ATOM     69  O   UNL A   1      45.292  32.544  25.362  1.00  0.00    -0.237 OA
ATOM     70  O   UNL A   1      43.542  31.019  26.146  1.00  0.00    -0.744 OA
ENDBRANCH  64  67
ENDBRANCH  37  60
ENDBRANCH  11  12
ENDBRANCH   4   6
ENDBRANCH   3   4
ENDBRANCH   2   3
ENDBRANCH   1   2
BRANCH   1  71
ATOM     71  O   UNL A   1      33.020  28.938  26.777  1.00  0.00    -0.458 OA
BRANCH  71  72
ATOM     72  C   UNL A   1      32.886  28.285  25.591  1.00  0.00     0.338 C 
ATOM     73  O   UNL A   1      32.797  28.782  24.477  1.00  0.00    -0.246 OA
BRANCH  72  74
ATOM     74  C   UNL A   1      32.721  26.844  25.849  1.00  0.00     0.061 A 
ATOM     75  C   UNL A   1      31.434  26.392  26.112  1.00  0.00     0.019 A 
ATOM     76  C   UNL A   1      33.796  25.938  25.763  1.00  0.00     0.038 A 
ATOM     77  C   UNL A   1      31.270  25.044  26.358  1.00  0.00    -0.043 A 
ATOM     78  C   UNL A   1      33.633  24.555  26.052  1.00  0.00     0.092 A 
ATOM     79  C   UNL A   1      32.358  24.136  26.414  1.00  0.00    -0.024 A 
ATOM     80  C   UNL A   1      29.957  24.363  26.614  1.00  0.00     0.036 C 
ATOM     81  C   UNL A   1      31.819  22.856  26.973  1.00  0.00     0.037 C 
ATOM     82  C   UNL A   1      30.377  22.904  26.454  1.00  0.00     0.010 C 
BRANCH  78  83
ATOM     83  S   UNL A   1      35.133  23.561  25.978  1.00  0.00     0.262 S 
ATOM     84  O   UNL A   1      36.224  24.512  25.836  1.00  0.00    -0.201 OA
ATOM     85  O   UNL A   1      35.109  22.724  27.146  1.00  0.00    -0.201 OA
BRANCH  83  86
ATOM     86  N   UNL A   1      35.249  22.495  24.677  1.00  0.00    -0.277 N 
ATOM     87  H   UNL A   1      36.127  22.444  24.234  1.00  0.00     0.180 HD
BRANCH  86  88
ATOM     88  C   UNL A   1      34.222  21.659  24.142  1.00  0.00     0.075 A 
ATOM     89  C   UNL A   1      34.354  20.290  24.463  1.00  0.00     0.042 A 
ATOM     90  C   UNL A   1      33.096  22.065  23.420  1.00  0.00     0.089 A 
ATOM     91  C   UNL A   1      33.326  19.365  24.223  1.00  0.00     0.058 A 
ATOM     92  C   UNL A   1      32.072  21.137  23.144  1.00  0.00     0.031 A 
ATOM     93  C   UNL A   1      32.186  19.803  23.545  1.00  0.00     0.015 A 
BRANCH  90  94
ATOM     94  N   UNL A   1      32.911  23.387  22.964  1.00  0.00    -0.239 N 
ATOM     95  C   UNL A   1      31.745  24.105  22.892  1.00  0.00     0.115 A 
ATOM     96  N   UNL A   1      33.966  24.106  22.484  1.00  0.00    -0.177 NA
ATOM     97  C   UNL A   1      32.009  25.212  22.120  1.00  0.00     0.042 A 
ATOM     98  C   UNL A   1      33.386  25.140  21.869  1.00  0.00     0.135 A 
ENDBRANCH  90  94
BRANCH  91  99
ATOM     99  C   UNL A   1      33.427  17.958  24.773  1.00  0.00     0.416 C 
ATOM    100  F   UNL A   1      32.686  17.053  24.087  1.00  0.00    -0.166 F 
ATOM    101  F   UNL A   1      34.706  17.503  24.827  1.00  0.00    -0.166 F 
ATOM    102  F   UNL A   1      32.978  17.886  26.066  1.00  0.00    -0.166 F 
ENDBRANCH  91  99
ENDBRANCH  86  88
ENDBRANCH  83  86
ENDBRANCH  78  83
ENDBRANCH  72  74
ENDBRANCH  71  72
ENDBRANCH   1  71
TORSDOF 19
ENDMDL
MODEL 2
REMARK VINA RESULT:     -12.2      1.848      2.808
REMARK SMILES O=C(OCCOC(=O)c1cc2c(c(S(=O)(=O)Nc3cc(C(F)(F)F)ccc3-n3cccn3)c1)CCC2)c1ccc(-c2c3nc(c(-c4cccc(S(=O)(=O)[O-])c4F)c4ccc([nH]4)c(-c4cccc(S(=O)(=O)[O-])c4F)c4nc(c(-c5cccc(S(=O)(=O)[O-])c5F)c5ccc2[nH]5)C=C4)C=C3)cc1
REMARK SMILES IDX 5 1 4 2 3 3 2 4 1 5 37 6 38 7 99 8 39 9 98 10 40 11 41 12
REMARK SMILES IDX 42 13 92 14 43 15 97 16 91 17 93 18 44 19 96 20 90 21 89 22
REMARK SMILES IDX 45 24 77 25 57 26 76 27 58 28 61 29 75 30 94 31 59 32 60 33
REMARK SMILES IDX 74 35 95 36 62 37 46 38 47 39 55 40 48 41 50 42 56 43 49 44
REMARK SMILES IDX 51 45 52 46 53 47 54 48 78 49 79 50 87 51 80 52 82 53 88 54
REMARK SMILES IDX 81 55 83 56 84 57 85 58 86 59 63 60 64 61 72 62 65 63 67 64
REMARK SMILES IDX 73 65 66 66 68 67 69 68 70 69 71 70 6 71 7 72 8 73 9 74
REMARK SMILES IDX 10 75 33 76 11 77 13 78 12 79 36 80 34 81 35 82 14 83 15 84
REMARK SMILES IDX 16 85 17 86 18 88 19 89 27 90 20 91 26 92 25 93 28 94 29 95
REMARK SMILES IDX 32 96 30 97 31 98 21 99 22 100 23 101 24 102
REMARK H PARENT 93 23 61 34 17 87
REMARK Flexibility Score: inf
ROOT
ATOM      1  C   UNL A   1      34.042  29.675  26.296  1.00  0.00     0.275 C 
ENDROOT
BRANCH   1   2
ATOM      2  C   UNL A   1      34.919  30.582  27.168  1.00  0.00     0.275 C 
BRANCH   2   3
ATOM      3  O   UNL A   1      34.716  30.540  28.593  1.00  0.00    -0.458 OA
BRANCH   3   4
ATOM      4  C   UNL A   1      35.582  31.204  29.390  1.00  0.00     0.338 C 
ATOM      5  O   UNL A   1      35.241  32.098  30.149  1.00  0.00    -0.246 OA
BRANCH   4   6
ATOM      6  C   UNL A   1      36.943  30.611  29.362  1.00  0.00     0.060 A 
ATOM      7  C   UNL A   1      37.157  29.223  29.325  1.00  0.00     0.016 A 
ATOM      8  C   UNL A   1      38.034  31.483  29.363  1.00  0.00     0.016 A 
ATOM      9  C   UNL A   1      38.438  28.701  29.370  1.00  0.00     0.010 A 
ATOM     10  C   UNL A   1      39.320  30.961  29.375  1.00  0.00     0.010 A 
ATOM     11  C   UNL A   1      39.517  29.572  29.451  1.00  0.00    -0.014 A 
BRANCH  11  12
ATOM     12  C   UNL A   1      40.848  29.017  29.711  1.00  0.00     0.031 A 
ATOM     13  C   UNL A   1      41.306  28.828  31.135  1.00  0.00     0.074 A 
ATOM     14  C   UNL A   1      41.516  28.509  28.651  1.00  0.00     0.049 A 
ATOM     15  N   UNL A   1      42.516  28.752  31.601  1.00  0.00    -0.248 NA
ATOM     16  C   UNL A   1      40.286  28.695  32.186  1.00  0.00     0.031 C 
ATOM     17  C   UNL A   1      41.067  28.466  27.250  1.00  0.00     0.029 A 
ATOM     18  N   UNL A   1      42.644  27.745  28.632  1.00  0.00    -0.354 N 
ATOM     19  C   UNL A   1      42.394  28.316  32.926  1.00  0.00     0.074 A 
ATOM     20  C   UNL A   1      40.995  28.271  33.230  1.00  0.00     0.031 C 
ATOM     21  C   UNL A   1      41.727  27.486  26.603  1.00  0.00     0.029 A 
ATOM     22  C   UNL A   1      42.733  26.948  27.495  1.00  0.00     0.049 A 
ATOM     23  H   UNL A   1      43.322  27.756  29.346  1.00  0.00     0.167 HD
ATOM     24  C   UNL A   1      43.446  27.923  33.691  1.00  0.00     0.034 A 
ATOM     25  C   UNL A   1      43.507  25.854  27.324  1.00  0.00     0.034 A 
ATOM     26  C   UNL A   1      44.655  28.590  33.319  1.00  0.00     0.049 A 
ATOM     27  C   UNL A   1      44.578  25.906  28.341  1.00  0.00     0.074 A 
ATOM     28  C   UNL A   1      45.035  29.916  33.272  1.00  0.00     0.029 A 
ATOM     29  N   UNL A   1      45.595  27.910  32.590  1.00  0.00    -0.354 N 
ATOM     30  N   UNL A   1      45.504  26.826  28.375  1.00  0.00    -0.248 NA
ATOM     31  C   UNL A   1      44.391  25.155  29.570  1.00  0.00     0.031 C 
ATOM     32  C   UNL A   1      45.841  30.016  32.103  1.00  0.00     0.029 A 
ATOM     33  C   UNL A   1      45.924  28.736  31.547  1.00  0.00     0.049 A 
ATOM     34  H   UNL A   1      45.957  27.014  32.776  1.00  0.00     0.167 HD
ATOM     35  C   UNL A   1      45.715  27.059  29.727  1.00  0.00     0.074 A 
ATOM     36  C   UNL A   1      45.095  25.922  30.407  1.00  0.00     0.031 C 
ATOM     37  C   UNL A   1      46.118  28.282  30.188  1.00  0.00     0.034 A 
BRANCH  24  38
ATOM     38  C   UNL A   1      43.429  26.740  34.624  1.00  0.00     0.023 A 
ATOM     39  C   UNL A   1      43.217  26.982  36.000  1.00  0.00     0.012 A 
ATOM     40  C   UNL A   1      43.919  25.465  34.254  1.00  0.00     0.148 A 
ATOM     41  C   UNL A   1      43.544  26.029  36.970  1.00  0.00     0.002 A 
ATOM     42  C   UNL A   1      44.221  24.511  35.222  1.00  0.00     0.091 A 
ATOM     43  F   UNL A   1      44.175  25.205  32.967  1.00  0.00    -0.205 F 
ATOM     44  C   UNL A   1      44.058  24.798  36.582  1.00  0.00     0.022 A 
BRANCH  42  45
ATOM     45  S   UNL A   1      44.905  22.903  34.799  1.00  0.00     0.127 S 
ATOM     46  O   UNL A   1      46.178  23.274  34.188  1.00  0.00    -0.237 OA
ATOM     47  O   UNL A   1      45.007  22.269  36.113  1.00  0.00    -0.237 OA
ATOM     48  O   UNL A   1      43.935  22.275  33.909  1.00  0.00    -0.744 OA
ENDBRANCH  42  45
ENDBRANCH  24  38
BRANCH  25  49
ATOM     49  C   UNL A   1      43.231  24.660  26.499  1.00  0.00     0.023 A 
ATOM     50  C   UNL A   1      44.098  24.320  25.446  1.00  0.00     0.012 A 
ATOM     51  C   UNL A   1      42.231  23.728  26.872  1.00  0.00     0.148 A 
ATOM     52  C   UNL A   1      43.980  23.090  24.787  1.00  0.00     0.002 A 
ATOM     53  C   UNL A   1      42.108  22.514  26.203  1.00  0.00     0.091 A 
ATOM     54  F   UNL A   1      41.459  23.999  27.933  1.00  0.00    -0.205 F 
ATOM     55  C   UNL A   1      42.988  22.189  25.165  1.00  0.00     0.022 A 
BRANCH  53  56
ATOM     56  S   UNL A   1      40.845  21.307  26.630  1.00  0.00     0.127 S 
ATOM     57  O   UNL A   1      41.171  21.003  28.025  1.00  0.00    -0.237 OA
ATOM     58  O   UNL A   1      39.616  22.074  26.445  1.00  0.00    -0.237 OA
ATOM     59  O   UNL A   1      41.046  20.188  25.717  1.00  0.00    -0.744 OA
ENDBRANCH  53  56
ENDBRANCH  25  49
BRANCH  37  60
ATOM     60  C   UNL A   1      46.457  29.361  29.180  1.00  0.00     0.023 A 
ATOM     61  C   UNL A   1      47.744  29.441  28.606  1.00  0.00     0.012 A 
ATOM     62  C   UNL A   1      45.430  30.141  28.623  1.00  0.00     0.148 A 
ATOM     63  C   UNL A   1      48.013  30.286  27.528  1.00  0.00     0.002 A 
ATOM     64  C   UNL A   1      45.687  30.949  27.518  1.00  0.00     0.091 A 
ATOM     65  F   UNL A   1      44.201  30.045  29.153  1.00  0.00    -0.205 F 
ATOM     66  C   UNL A   1      46.979  31.031  26.974  1.00  0.00     0.022 A 
BRANCH  64  67
ATOM     67  S   UNL A   1      44.374  31.820  26.657  1.00  0.00     0.127 S 
ATOM     68  O   UNL A   1      43.933  32.783  27.664  1.00  0.00    -0.237 OA
ATOM     69  O   UNL A   1      45.078  32.410  25.516  1.00  0.00    -0.237 OA
ATOM     70  O   UNL A   1      43.397  30.803  26.287  1.00  0.00    -0.744 OA
ENDBRANCH  64  67
ENDBRANCH  37  60
ENDBRANCH  11  12
ENDBRANCH   4   6
ENDBRANCH   3   4
ENDBRANCH   2   3
ENDBRANCH   1   2
BRANCH   1  71
ATOM     71  O   UNL A   1      33.924  28.342  26.833  1.00  0.00    -0.458 OA
BRANCH  71  72
ATOM     72  C   UNL A   1      32.663  27.842  26.932  1.00  0.00     0.338 C 
ATOM     73  O   UNL A   1      31.785  28.191  27.710  1.00  0.00    -0.246 OA
BRANCH  72  74
ATOM     74  C   UNL A   1      32.531  26.685  26.030  1.00  0.00     0.061 A 
ATOM     75  C   UNL A   1      32.796  26.898  24.684  1.00  0.00     0.019 A 
ATOM     76  C   UNL A   1      32.225  25.395  26.505  1.00  0.00     0.038 A 
ATOM     77  C   UNL A   1      32.672  25.820  23.831  1.00  0.00    -0.043 A 
ATOM     78  C   UNL A   1      32.062  24.292  25.622  1.00  0.00     0.092 A 
ATOM     79  C   UNL A   1      32.231  24.544  24.266  1.00  0.00    -0.024 A 
ATOM     80  C   UNL A   1      32.960  25.842  22.358  1.00  0.00     0.036 C 
ATOM     81  C   UNL A   1      31.960  23.742  23.031  1.00  0.00     0.037 C 
ATOM     82  C   UNL A   1      32.991  24.344  22.069  1.00  0.00     0.010 C 
BRANCH  78  83
ATOM     83  S   UNL A   1      31.585  22.737  26.396  1.00  0.00     0.262 S 
ATOM     84  O   UNL A   1      31.927  22.880  27.802  1.00  0.00    -0.201 OA
ATOM     85  O   UNL A   1      30.205  22.532  26.049  1.00  0.00    -0.201 OA
BRANCH  83  86
ATOM     86  N   UNL A   1      32.385  21.360  25.842  1.00  0.00    -0.277 N 
ATOM     87  H   UNL A   1      31.850  20.535  25.796  1.00  0.00     0.180 HD
BRANCH  86  88
ATOM     88  C   UNL A   1      33.749  21.251  25.433  1.00  0.00     0.075 A 
ATOM     89  C   UNL A   1      34.471  22.464  25.469  1.00  0.00     0.042 A 
ATOM     90  C   UNL A   1      34.434  20.082  25.086  1.00  0.00     0.089 A 
ATOM     91  C   UNL A   1      35.867  22.506  25.327  1.00  0.00     0.058 A 
ATOM     92  C   UNL A   1      35.831  20.118  24.907  1.00  0.00     0.031 A 
ATOM     93  C   UNL A   1      36.539  21.318  25.031  1.00  0.00     0.015 A 
BRANCH  90  94
ATOM     94  N   UNL A   1      33.793  18.835  24.925  1.00  0.00    -0.239 N 
ATOM     95  C   UNL A   1      34.082  17.842  24.025  1.00  0.00     0.115 A 
ATOM     96  N   UNL A   1      32.719  18.507  25.697  1.00  0.00    -0.177 NA
ATOM     97  C   UNL A   1      33.022  16.967  24.047  1.00  0.00     0.042 A 
ATOM     98  C   UNL A   1      32.196  17.448  25.073  1.00  0.00     0.135 A 
ENDBRANCH  90  94
BRANCH  91  99
ATOM     99  C   UNL A   1      36.618  23.795  25.582  1.00  0.00     0.416 C 
ATOM    100  F   UNL A   1      37.154  23.874  26.825  1.00  0.00    -0.166 F 
ATOM    101  F   UNL A   1      37.610  24.017  24.680  1.00  0.00    -0.166 F 
ATOM    102  F   UNL A   1      35.799  24.889  25.473  1.00  0.00    -0.166 F 
ENDBRANCH  91  99
ENDBRANCH  86  88
ENDBRANCH  83  86
ENDBRANCH  78  83
ENDBRANCH  72  74
ENDBRANCH  71  72
ENDBRANCH   1  71
TORSDOF 19
ENDMDL
MODEL 3
REMARK VINA RESULT:     -12.1      1.612      2.261
REMARK SMILES O=C(OCCOC(=O)c1cc2c(c(S(=O)(=O)Nc3cc(C(F)(F)F)ccc3-n3cccn3)c1)CCC2)c1ccc(-c2c3nc(c(-c4cccc(S(=O)(=O)[O-])c4F)c4ccc([nH]4)c(-c4cccc(S(=O)(=O)[O-])c4F)c4nc(c(-c5cccc(S(=O)(=O)[O-])c5F)c5ccc2[nH]5)C=C4)C=C3)cc1
REMARK SMILES IDX 5 1 4 2 3 3 2 4 1 5 37 6 38 7 99 8 39 9 98 10 40 11 41 12
REMARK SMILES IDX 42 13 92 14 43 15 97 16 91 17 93 18 44 19 96 20 90 21 89 22
REMARK SMILES IDX 45 24 77 25 57 26 76 27 58 28 61 29 75 30 94 31 59 32 60 33
REMARK SMILES IDX 74 35 95 36 62 37 46 38 47 39 55 40 48 41 50 42 56 43 49 44
REMARK SMILES IDX 51 45 52 46 53 47 54 48 78 49 79 50 87 51 80 52 82 53 88 54
REMARK SMILES IDX 81 55 83 56 84 57 85 58 86 59 63 60 64 61 72 62 65 63 67 64
REMARK SMILES IDX 73 65 66 66 68 67 69 68 70 69 71 70 6 71 7 72 8 73 9 74
REMARK SMILES IDX 10 75 33 76 11 77 13 78 12 79 36 80 34 81 35 82 14 83 15 84
REMARK SMILES IDX 16 85 17 86 18 88 19 89 27 90 20 91 26 92 25 93 28 94 29 95
REMARK SMILES IDX 32 96 30 97 31 98 21 99 22 100 23 101 24 102
REMARK H PARENT 93 23 61 34 17 87
REMARK Flexibility Score: inf
ROOT
ATOM      1  C   UNL A   1      34.251  29.843  27.193  1.00  0.00     0.275 C 
ENDROOT
BRANCH   1   2
ATOM      2  C   UNL A   1      35.605  30.345  27.708  1.00  0.00     0.275 C 
BRANCH   2   3
ATOM      3  O   UNL A   1      35.599  31.346  28.743  1.00  0.00    -0.458 OA
BRANCH   3   4
ATOM      4  C   UNL A   1      36.125  31.034  29.948  1.00  0.00     0.338 C 
ATOM      5  O   UNL A   1      35.509  31.146  30.996  1.00  0.00    -0.246 OA
BRANCH   4   6
ATOM      6  C   UNL A   1      37.457  30.386  29.831  1.00  0.00     0.060 A 
ATOM      7  C   UNL A   1      37.625  28.995  29.922  1.00  0.00     0.016 A 
ATOM      8  C   UNL A   1      38.564  31.208  29.615  1.00  0.00     0.016 A 
ATOM      9  C   UNL A   1      38.888  28.428  29.879  1.00  0.00     0.010 A 
ATOM     10  C   UNL A   1      39.828  30.639  29.539  1.00  0.00     0.010 A 
ATOM     11  C   UNL A   1      39.993  29.259  29.743  1.00  0.00    -0.014 A 
BRANCH  11  12
ATOM     12  C   UNL A   1      41.329  28.680  29.911  1.00  0.00     0.031 A 
ATOM     13  C   UNL A   1      41.894  28.513  31.298  1.00  0.00     0.074 A 
ATOM     14  C   UNL A   1      41.901  28.135  28.813  1.00  0.00     0.049 A 
ATOM     15  N   UNL A   1      43.136  28.420  31.670  1.00  0.00    -0.248 NA
ATOM     16  C   UNL A   1      40.958  28.424  32.429  1.00  0.00     0.031 C 
ATOM     17  C   UNL A   1      41.342  28.073  27.453  1.00  0.00     0.029 A 
ATOM     18  N   UNL A   1      43.009  27.347  28.724  1.00  0.00    -0.354 N 
ATOM     19  C   UNL A   1      43.110  28.016  33.010  1.00  0.00     0.074 A 
ATOM     20  C   UNL A   1      41.739  28.007  33.424  1.00  0.00     0.031 C 
ATOM     21  C   UNL A   1      41.929  27.064  26.779  1.00  0.00     0.029 A 
ATOM     22  C   UNL A   1      42.992  26.524  27.602  1.00  0.00     0.049 A 
ATOM     23  H   UNL A   1      43.741  27.359  29.382  1.00  0.00     0.167 HD
ATOM     24  C   UNL A   1      44.211  27.616  33.698  1.00  0.00     0.034 A 
ATOM     25  C   UNL A   1      43.728  25.410  27.397  1.00  0.00     0.034 A 
ATOM     26  C   UNL A   1      45.400  28.249  33.218  1.00  0.00     0.049 A 
ATOM     27  C   UNL A   1      44.877  25.460  28.325  1.00  0.00     0.074 A 
ATOM     28  C   UNL A   1      45.801  29.565  33.111  1.00  0.00     0.029 A 
ATOM     29  N   UNL A   1      46.265  27.533  32.433  1.00  0.00    -0.354 N 
ATOM     30  N   UNL A   1      45.820  26.360  28.265  1.00  0.00    -0.248 NA
ATOM     31  C   UNL A   1      44.772  24.740  29.581  1.00  0.00     0.031 C 
ATOM     32  C   UNL A   1      46.515  29.622  31.879  1.00  0.00     0.029 A 
ATOM     33  C   UNL A   1      46.528  28.329  31.349  1.00  0.00     0.049 A 
ATOM     34  H   UNL A   1      46.623  26.633  32.611  1.00  0.00     0.167 HD
ATOM     35  C   UNL A   1      46.142  26.618  29.590  1.00  0.00     0.074 A 
ATOM     36  C   UNL A   1      45.556  25.509  30.342  1.00  0.00     0.031 C 
ATOM     37  C   UNL A   1      46.605  27.841  29.989  1.00  0.00     0.034 A 
BRANCH  24  38
ATOM     38  C   UNL A   1      44.244  26.454  34.658  1.00  0.00     0.023 A 
ATOM     39  C   UNL A   1      43.522  25.289  34.316  1.00  0.00     0.012 A 
ATOM     40  C   UNL A   1      44.687  26.578  35.996  1.00  0.00     0.148 A 
ATOM     41  C   UNL A   1      43.191  24.326  35.274  1.00  0.00     0.002 A 
ATOM     42  C   UNL A   1      44.375  25.605  36.941  1.00  0.00     0.091 A 
ATOM     43  F   UNL A   1      45.338  27.683  36.375  1.00  0.00    -0.205 F 
ATOM     44  C   UNL A   1      43.606  24.489  36.589  1.00  0.00     0.022 A 
BRANCH  42  45
ATOM     45  S   UNL A   1      44.862  25.755  38.665  1.00  0.00     0.127 S 
ATOM     46  O   UNL A   1      44.821  24.365  39.107  1.00  0.00    -0.237 OA
ATOM     47  O   UNL A   1      46.201  26.331  38.545  1.00  0.00    -0.237 OA
ATOM     48  O   UNL A   1      43.885  26.646  39.282  1.00  0.00    -0.744 OA
ENDBRANCH  42  45
ENDBRANCH  24  38
BRANCH  25  49
ATOM     49  C   UNL A   1      43.364  24.205  26.623  1.00  0.00     0.023 A 
ATOM     50  C   UNL A   1      44.242  23.709  25.644  1.00  0.00     0.012 A 
ATOM     51  C   UNL A   1      42.248  23.412  26.988  1.00  0.00     0.148 A 
ATOM     52  C   UNL A   1      44.021  22.461  25.048  1.00  0.00     0.002 A 
ATOM     53  C   UNL A   1      42.025  22.179  26.381  1.00  0.00     0.091 A 
ATOM     54  F   UNL A   1      41.456  23.829  27.985  1.00  0.00    -0.205 F 
ATOM     55  C   UNL A   1      42.916  21.698  25.415  1.00  0.00     0.022 A 
BRANCH  53  56
ATOM     56  S   UNL A   1      40.614  21.145  26.798  1.00  0.00     0.127 S 
ATOM     57  O   UNL A   1      40.850  19.958  25.975  1.00  0.00    -0.237 OA
ATOM     58  O   UNL A   1      40.801  20.940  28.231  1.00  0.00    -0.237 OA
ATOM     59  O   UNL A   1      39.436  21.912  26.409  1.00  0.00    -0.744 OA
ENDBRANCH  53  56
ENDBRANCH  25  49
BRANCH  37  60
ATOM     60  C   UNL A   1      46.885  28.891  28.934  1.00  0.00     0.023 A 
ATOM     61  C   UNL A   1      48.079  28.865  28.181  1.00  0.00     0.012 A 
ATOM     62  C   UNL A   1      45.857  29.756  28.522  1.00  0.00     0.148 A 
ATOM     63  C   UNL A   1      48.259  29.687  27.068  1.00  0.00     0.002 A 
ATOM     64  C   UNL A   1      46.019  30.543  27.384  1.00  0.00     0.091 A 
ATOM     65  F   UNL A   1      44.713  29.762  29.222  1.00  0.00    -0.205 F 
ATOM     66  C   UNL A   1      47.223  30.518  26.660  1.00  0.00     0.022 A 
BRANCH  64  67
ATOM     67  S   UNL A   1      44.674  31.523  26.711  1.00  0.00     0.127 S 
ATOM     68  O   UNL A   1      44.401  32.457  27.801  1.00  0.00    -0.237 OA
ATOM     69  O   UNL A   1      45.284  32.130  25.526  1.00  0.00    -0.237 OA
ATOM     70  O   UNL A   1      43.605  30.578  26.408  1.00  0.00    -0.744 OA
ENDBRANCH  64  67
ENDBRANCH  37  60
ENDBRANCH  11  12
ENDBRANCH   4   6
ENDBRANCH   3   4
ENDBRANCH   2   3
ENDBRANCH   1   2
BRANCH   1  71
ATOM     71  O   UNL A   1      34.318  28.490  26.699  1.00  0.00    -0.458 OA
BRANCH  71  72
ATOM     72  C   UNL A   1      33.128  27.871  26.472  1.00  0.00     0.338 C 
ATOM     73  O   UNL A   1      32.092  27.998  27.110  1.00  0.00    -0.246 OA
BRANCH  72  74
ATOM     74  C   UNL A   1      33.295  26.885  25.391  1.00  0.00     0.061 A 
ATOM     75  C   UNL A   1      32.549  27.080  24.236  1.00  0.00     0.019 A 
ATOM     76  C   UNL A   1      34.222  25.828  25.476  1.00  0.00     0.038 A 
ATOM     77  C   UNL A   1      32.697  26.159  23.218  1.00  0.00    -0.043 A 
ATOM     78  C   UNL A   1      34.349  24.859  24.443  1.00  0.00     0.092 A 
ATOM     79  C   UNL A   1      33.521  25.010  23.337  1.00  0.00    -0.024 A 
ATOM     80  C   UNL A   1      32.015  26.225  21.883  1.00  0.00     0.036 C 
ATOM     81  C   UNL A   1      33.202  24.133  22.166  1.00  0.00     0.037 C 
ATOM     82  C   UNL A   1      32.827  25.185  21.116  1.00  0.00     0.010 C 
BRANCH  78  83
ATOM     83  S   UNL A   1      35.521  23.528  24.761  1.00  0.00     0.262 S 
ATOM     84  O   UNL A   1      35.847  22.978  23.455  1.00  0.00    -0.201 OA
ATOM     85  O   UNL A   1      36.580  24.113  25.536  1.00  0.00    -0.201 OA
BRANCH  83  86
ATOM     86  N   UNL A   1      34.948  22.248  25.695  1.00  0.00    -0.277 N 
ATOM     87  H   UNL A   1      35.267  22.212  26.626  1.00  0.00     0.180 HD
BRANCH  86  88
ATOM     88  C   UNL A   1      34.054  21.208  25.294  1.00  0.00     0.075 A 
ATOM     89  C   UNL A   1      34.689  20.037  24.824  1.00  0.00     0.042 A 
ATOM     90  C   UNL A   1      32.659  21.211  25.393  1.00  0.00     0.089 A 
ATOM     91  C   UNL A   1      33.987  18.842  24.609  1.00  0.00     0.058 A 
ATOM     92  C   UNL A   1      31.940  20.025  25.146  1.00  0.00     0.031 A 
ATOM     93  C   UNL A   1      32.599  18.853  24.763  1.00  0.00     0.015 A 
BRANCH  90  94
ATOM     94  N   UNL A   1      31.918  22.354  25.757  1.00  0.00    -0.239 N 
ATOM     95  C   UNL A   1      30.987  23.035  25.014  1.00  0.00     0.115 A 
ATOM     96  N   UNL A   1      32.111  22.945  26.971  1.00  0.00    -0.177 NA
ATOM     97  C   UNL A   1      30.761  24.227  25.660  1.00  0.00     0.042 A 
ATOM     98  C   UNL A   1      31.509  24.131  26.842  1.00  0.00     0.135 A 
ENDBRANCH  90  94
BRANCH  91  99
ATOM     99  C   UNL A   1      34.738  17.563  24.310  1.00  0.00     0.416 C 
ATOM    100  F   UNL A   1      34.268  16.486  24.987  1.00  0.00    -0.166 F 
ATOM    101  F   UNL A   1      34.753  17.255  22.986  1.00  0.00    -0.166 F 
ATOM    102  F   UNL A   1      36.061  17.658  24.658  1.00  0.00    -0.166 F 
ENDBRANCH  91  99
ENDBRANCH  86  88
ENDBRANCH  83  86
ENDBRANCH  78  83
ENDBRANCH  72  74
ENDBRANCH  71  72
ENDBRANCH   1  71
TORSDOF 19
ENDMDL
