MODEL 1
REMARK VINA RESULT:     -12.4      0.000      0.000
REMARK SMILES CCc1cc(C(=O)c2[nH]c3cc(Cl)ccc3c2CC(=O)OCCOC(=O)c2ccc(-c3c4nc(c(-c5cccc(S(=O)(=O)[O-])c5F)c5ccc([nH]5)c(-c5cccc(S(=O)(=O)[O-])c5F)c5nc(c(-c6cccc(S(=O)(=O)[O-])c6F)c6ccc3[nH]6)C=C5)C=C4)cc2)ncc1Cl
REMARK SMILES IDX 22 1 21 2 19 3 20 4 18 5 17 6 8 7 9 8 10 9 16 11 11 12 15 13
REMARK SMILES IDX 12 14 14 15 13 16 6 17 7 18 5 19 3 20 4 21 92 22 91 23 93 24
REMARK SMILES IDX 90 25 2 26 1 27 23 28 24 29 25 30 26 31 27 32 28 33 89 34
REMARK SMILES IDX 29 35 88 36 30 37 31 38 32 39 82 40 33 41 87 42 81 43 83 44
REMARK SMILES IDX 34 45 86 46 80 47 79 48 35 50 67 51 47 52 66 53 48 54 51 55
REMARK SMILES IDX 65 56 84 57 49 58 50 59 64 61 85 62 52 63 36 64 37 65 45 66
REMARK SMILES IDX 38 67 40 68 46 69 39 70 41 71 42 72 43 73 44 74 68 75 69 76
REMARK SMILES IDX 77 77 70 78 72 79 78 80 71 81 73 82 74 83 75 84 76 85 53 86
REMARK SMILES IDX 54 87 62 88 55 89 57 90 63 91 56 92 58 93 59 94 60 95 61 96
REMARK H PARENT 9 10 83 49 51 60
REMARK Flexibility Score: inf
ROOT
ATOM      1  C   UNL A   1      35.231  22.010  24.359  1.00  0.00     0.274 C 
ENDROOT
BRANCH   1   2
ATOM      2  O   UNL A   1      35.722  23.325  24.012  1.00  0.00    -0.462 OA
BRANCH   2   3
ATOM      3  C   UNL A   1      34.878  24.365  24.230  1.00  0.00     0.310 C 
ATOM      4  O   UNL A   1      34.177  24.877  23.360  1.00  0.00    -0.252 OA
BRANCH   3   5
ATOM      5  C   UNL A   1      34.740  24.764  25.686  1.00  0.00     0.161 C 
BRANCH   5   6
ATOM      6  C   UNL A   1      33.482  25.456  26.119  1.00  0.00     0.000 A 
ATOM      7  C   UNL A   1      32.236  24.901  26.412  1.00  0.00     0.093 A 
ATOM      8  N   UNL A   1      31.396  25.939  26.735  1.00  0.00    -0.351 N 
ATOM      9  C   UNL A   1      32.013  27.147  26.568  1.00  0.00     0.048 A 
ATOM     10  H   UNL A   1      30.468  25.826  27.045  1.00  0.00     0.167 HD
ATOM     11  C   UNL A   1      33.339  26.884  26.236  1.00  0.00     0.004 A 
ATOM     12  C   UNL A   1      31.499  28.440  26.707  1.00  0.00     0.047 A 
ATOM     13  C   UNL A   1      34.216  27.978  26.071  1.00  0.00     0.012 A 
ATOM     14  C   UNL A   1      32.384  29.502  26.520  1.00  0.00     0.043 A 
ATOM     15  C   UNL A   1      33.725  29.283  26.219  1.00  0.00     0.021 A 
ATOM     16  Cl  UNL A   1      31.798  31.116  26.673  1.00  0.00    -0.084 Cl
BRANCH   7  17
ATOM     17  C   UNL A   1      31.742  23.536  26.532  1.00  0.00     0.227 C 
ATOM     18  O   UNL A   1      31.235  23.164  27.590  1.00  0.00    -0.285 OA
BRANCH  17  19
ATOM     19  C   UNL A   1      31.563  22.682  25.297  1.00  0.00     0.113 A 
ATOM     20  C   UNL A   1      32.085  20.633  24.064  1.00  0.00    -0.026 A 
ATOM     21  C   UNL A   1      31.914  21.329  25.290  1.00  0.00     0.037 A 
ATOM     22  C   UNL A   1      31.831  21.347  22.887  1.00  0.00     0.062 A 
ATOM     23  C   UNL A   1      31.409  22.671  22.992  1.00  0.00     0.132 A 
ATOM     24  Cl  UNL A   1      32.057  20.744  21.295  1.00  0.00    -0.082 Cl
ATOM     25  N   UNL A   1      31.286  23.352  24.154  1.00  0.00    -0.251 NA
BRANCH  20  26
ATOM     26  C   UNL A   1      32.562  19.198  24.198  1.00  0.00     0.034 C 
ATOM     27  C   UNL A   1      32.771  18.545  25.556  1.00  0.00     0.009 C 
ENDBRANCH  20  26
ENDBRANCH  17  19
ENDBRANCH   7  17
ENDBRANCH   5   6
ENDBRANCH   3   5
ENDBRANCH   2   3
ENDBRANCH   1   2
BRANCH   1  28
ATOM     28  C   UNL A   1      36.347  21.147  24.966  1.00  0.00     0.275 C 
BRANCH  28  29
ATOM     29  O   UNL A   1      37.663  21.688  24.721  1.00  0.00    -0.458 OA
BRANCH  29  30
ATOM     30  C   UNL A   1      38.567  21.350  25.656  1.00  0.00     0.338 C 
ATOM     31  O   UNL A   1      39.008  20.224  25.879  1.00  0.00    -0.246 OA
BRANCH  30  32
ATOM     32  C   UNL A   1      39.112  22.477  26.391  1.00  0.00     0.060 A 
ATOM     33  C   UNL A   1      38.676  23.759  26.046  1.00  0.00     0.016 A 
ATOM     34  C   UNL A   1      40.240  22.281  27.186  1.00  0.00     0.016 A 
ATOM     35  C   UNL A   1      39.402  24.866  26.470  1.00  0.00     0.010 A 
ATOM     36  C   UNL A   1      40.939  23.393  27.645  1.00  0.00     0.010 A 
ATOM     37  C   UNL A   1      40.537  24.688  27.273  1.00  0.00    -0.014 A 
BRANCH  37  38
ATOM     38  C   UNL A   1      41.293  25.851  27.782  1.00  0.00     0.031 A 
ATOM     39  C   UNL A   1      40.602  26.929  28.559  1.00  0.00     0.074 A 
ATOM     40  C   UNL A   1      42.590  25.961  27.450  1.00  0.00     0.049 A 
ATOM     41  N   UNL A   1      41.039  28.112  28.896  1.00  0.00    -0.248 NA
ATOM     42  C   UNL A   1      39.232  26.640  29.012  1.00  0.00     0.031 C 
ATOM     43  C   UNL A   1      43.354  24.961  26.704  1.00  0.00     0.029 A 
ATOM     44  N   UNL A   1      43.479  26.983  27.654  1.00  0.00    -0.354 N 
ATOM     45  C   UNL A   1      39.990  28.728  29.565  1.00  0.00     0.074 A 
ATOM     46  C   UNL A   1      38.894  27.786  29.587  1.00  0.00     0.031 C 
ATOM     47  C   UNL A   1      44.590  25.430  26.484  1.00  0.00     0.029 A 
ATOM     48  C   UNL A   1      44.682  26.782  27.023  1.00  0.00     0.049 A 
ATOM     49  H   UNL A   1      43.277  27.778  28.199  1.00  0.00     0.167 HD
ATOM     50  C   UNL A   1      39.949  29.964  30.116  1.00  0.00     0.034 A 
ATOM     51  C   UNL A   1      45.724  27.615  26.852  1.00  0.00     0.034 A 
ATOM     52  C   UNL A   1      41.055  30.881  30.097  1.00  0.00     0.049 A 
ATOM     53  C   UNL A   1      45.649  28.993  27.442  1.00  0.00     0.074 A 
ATOM     54  C   UNL A   1      41.132  32.155  30.631  1.00  0.00     0.029 A 
ATOM     55  N   UNL A   1      42.283  30.617  29.508  1.00  0.00    -0.354 N 
ATOM     56  N   UNL A   1      44.674  29.541  28.127  1.00  0.00    -0.248 NA
ATOM     57  C   UNL A   1      46.818  29.860  27.255  1.00  0.00     0.031 C 
ATOM     58  C   UNL A   1      42.410  32.661  30.364  1.00  0.00     0.029 A 
ATOM     59  C   UNL A   1      43.128  31.700  29.668  1.00  0.00     0.049 A 
ATOM     60  H   UNL A   1      42.518  29.781  29.044  1.00  0.00     0.167 HD
ATOM     61  C   UNL A   1      45.120  30.807  28.479  1.00  0.00     0.074 A 
ATOM     62  C   UNL A   1      46.461  30.939  27.940  1.00  0.00     0.031 C 
ATOM     63  C   UNL A   1      44.478  31.778  29.172  1.00  0.00     0.034 A 
BRANCH  50  64
ATOM     64  C   UNL A   1      38.684  30.379  30.821  1.00  0.00     0.023 A 
ATOM     65  C   UNL A   1      38.525  30.074  32.189  1.00  0.00     0.012 A 
ATOM     66  C   UNL A   1      37.679  31.108  30.156  1.00  0.00     0.148 A 
ATOM     67  C   UNL A   1      37.379  30.472  32.877  1.00  0.00     0.002 A 
ATOM     68  C   UNL A   1      36.553  31.528  30.858  1.00  0.00     0.091 A 
ATOM     69  F   UNL A   1      37.827  31.361  28.848  1.00  0.00    -0.205 F 
ATOM     70  C   UNL A   1      36.398  31.207  32.216  1.00  0.00     0.022 A 
BRANCH  68  71
ATOM     71  S   UNL A   1      35.273  32.533  30.092  1.00  0.00     0.127 S 
ATOM     72  O   UNL A   1      36.024  33.725  29.703  1.00  0.00    -0.237 OA
ATOM     73  O   UNL A   1      34.837  31.695  28.973  1.00  0.00    -0.237 OA
ATOM     74  O   UNL A   1      34.263  32.727  31.124  1.00  0.00    -0.744 OA
ENDBRANCH  68  71
ENDBRANCH  50  64
BRANCH  51  75
ATOM     75  C   UNL A   1      46.926  27.129  26.124  1.00  0.00     0.023 A 
ATOM     76  C   UNL A   1      47.058  27.417  24.754  1.00  0.00     0.012 A 
ATOM     77  C   UNL A   1      47.984  26.489  26.800  1.00  0.00     0.148 A 
ATOM     78  C   UNL A   1      48.222  27.072  24.066  1.00  0.00     0.002 A 
ATOM     79  C   UNL A   1      49.163  26.199  26.122  1.00  0.00     0.091 A 
ATOM     80  F   UNL A   1      47.832  26.208  28.102  1.00  0.00    -0.205 F 
ATOM     81  C   UNL A   1      49.279  26.479  24.752  1.00  0.00     0.022 A 
BRANCH  79  82
ATOM     82  S   UNL A   1      50.619  25.579  26.974  1.00  0.00     0.127 S 
ATOM     83  O   UNL A   1      50.889  26.654  27.925  1.00  0.00    -0.237 OA
ATOM     84  O   UNL A   1      50.124  24.338  27.571  1.00  0.00    -0.237 OA
ATOM     85  O   UNL A   1      51.616  25.379  25.931  1.00  0.00    -0.744 OA
ENDBRANCH  79  82
ENDBRANCH  51  75
BRANCH  63  86
ATOM     86  C   UNL A   1      45.223  33.058  29.418  1.00  0.00     0.023 A 
ATOM     87  C   UNL A   1      46.005  33.190  30.581  1.00  0.00     0.012 A 
ATOM     88  C   UNL A   1      45.220  34.086  28.457  1.00  0.00     0.148 A 
ATOM     89  C   UNL A   1      46.764  34.340  30.793  1.00  0.00     0.002 A 
ATOM     90  C   UNL A   1      46.008  35.214  28.658  1.00  0.00     0.091 A 
ATOM     91  F   UNL A   1      44.449  33.945  27.369  1.00  0.00    -0.205 F 
ATOM     92  C   UNL A   1      46.775  35.345  29.827  1.00  0.00     0.022 A 
BRANCH  90  93
ATOM     93  S   UNL A   1      46.139  36.514  27.426  1.00  0.00     0.127 S 
ATOM     94  O   UNL A   1      44.785  37.065  27.429  1.00  0.00    -0.237 OA
ATOM     95  O   UNL A   1      47.156  37.394  28.005  1.00  0.00    -0.237 OA
ATOM     96  O   UNL A   1      46.549  35.855  26.194  1.00  0.00    -0.744 OA
ENDBRANCH  90  93
ENDBRANCH  63  86
ENDBRANCH  37  38
ENDBRANCH  30  32
ENDBRANCH  29  30
ENDBRANCH  28  29
ENDBRANCH   1  28
TORSDOF 18
ENDMDL
MODEL 2
REMARK VINA RESULT:     -12.2      1.161      3.898
REMARK SMILES CCc1cc(C(=O)c2[nH]c3cc(Cl)ccc3c2CC(=O)OCCOC(=O)c2ccc(-c3c4nc(c(-c5cccc(S(=O)(=O)[O-])c5F)c5ccc([nH]5)c(-c5cccc(S(=O)(=O)[O-])c5F)c5nc(c(-c6cccc(S(=O)(=O)[O-])c6F)c6ccc3[nH]6)C=C5)C=C4)cc2)ncc1Cl
REMARK SMILES IDX 22 1 21 2 19 3 20 4 18 5 17 6 8 7 9 8 10 9 16 11 11 12 15 13
REMARK SMILES IDX 12 14 14 15 13 16 6 17 7 18 5 19 3 20 4 21 92 22 91 23 93 24
REMARK SMILES IDX 90 25 2 26 1 27 23 28 24 29 25 30 26 31 27 32 28 33 89 34
REMARK SMILES IDX 29 35 88 36 30 37 31 38 32 39 82 40 33 41 87 42 81 43 83 44
REMARK SMILES IDX 34 45 86 46 80 47 79 48 35 50 67 51 47 52 66 53 48 54 51 55
REMARK SMILES IDX 65 56 84 57 49 58 50 59 64 61 85 62 52 63 36 64 37 65 45 66
REMARK SMILES IDX 38 67 40 68 46 69 39 70 41 71 42 72 43 73 44 74 68 75 69 76
REMARK SMILES IDX 77 77 70 78 72 79 78 80 71 81 73 82 74 83 75 84 76 85 53 86
REMARK SMILES IDX 54 87 62 88 55 89 57 90 63 91 56 92 58 93 59 94 60 95 61 96
REMARK H PARENT 9 10 83 49 51 60
REMARK Flexibility Score: inf
ROOT
ATOM      1  C   UNL A   1      36.515  22.562  23.619  1.00  0.00     0.274 C 
ENDROOT
BRANCH   1   2
ATOM      2  O   UNL A   1      35.161  22.678  24.115  1.00  0.00    -0.462 OA
BRANCH   2   3
ATOM      3  C   UNL A   1      34.197  22.924  23.193  1.00  0.00     0.310 C 
ATOM      4  O   UNL A   1      34.358  23.630  22.200  1.00  0.00    -0.252 OA
BRANCH   3   5
ATOM      5  C   UNL A   1      32.922  22.129  23.393  1.00  0.00     0.161 C 
BRANCH   5   6
ATOM      6  C   UNL A   1      32.866  21.143  24.521  1.00  0.00     0.000 A 
ATOM      7  C   UNL A   1      32.912  21.384  25.894  1.00  0.00     0.093 A 
ATOM      8  N   UNL A   1      32.856  20.162  26.522  1.00  0.00    -0.351 N 
ATOM      9  C   UNL A   1      32.876  19.138  25.616  1.00  0.00     0.048 A 
ATOM     10  H   UNL A   1      32.809  20.041  27.498  1.00  0.00     0.167 HD
ATOM     11  C   UNL A   1      32.826  19.714  24.350  1.00  0.00     0.004 A 
ATOM     12  C   UNL A   1      32.914  17.757  25.831  1.00  0.00     0.047 A 
ATOM     13  C   UNL A   1      32.771  18.858  23.229  1.00  0.00     0.012 A 
ATOM     14  C   UNL A   1      32.877  16.935  24.704  1.00  0.00     0.043 A 
ATOM     15  C   UNL A   1      32.793  17.469  23.421  1.00  0.00     0.021 A 
ATOM     16  Cl  UNL A   1      32.927  15.226  24.913  1.00  0.00    -0.084 Cl
BRANCH   7  17
ATOM     17  C   UNL A   1      32.900  22.591  26.709  1.00  0.00     0.227 C 
ATOM     18  O   UNL A   1      33.436  22.582  27.816  1.00  0.00    -0.285 OA
BRANCH  17  19
ATOM     19  C   UNL A   1      32.518  23.919  26.093  1.00  0.00     0.113 A 
ATOM     20  C   UNL A   1      32.956  26.311  25.817  1.00  0.00    -0.026 A 
ATOM     21  C   UNL A   1      33.417  24.989  26.056  1.00  0.00     0.037 A 
ATOM     22  C   UNL A   1      31.588  26.472  25.567  1.00  0.00     0.062 A 
ATOM     23  C   UNL A   1      30.779  25.337  25.546  1.00  0.00     0.132 A 
ATOM     24  Cl  UNL A   1      30.793  27.977  25.341  1.00  0.00    -0.082 Cl
ATOM     25  N   UNL A   1      31.204  24.082  25.816  1.00  0.00    -0.251 NA
BRANCH  20  26
ATOM     26  C   UNL A   1      34.020  27.390  25.901  1.00  0.00     0.034 C 
ATOM     27  C   UNL A   1      33.898  28.564  26.861  1.00  0.00     0.009 C 
ENDBRANCH  20  26
ENDBRANCH  17  19
ENDBRANCH   7  17
ENDBRANCH   5   6
ENDBRANCH   3   5
ENDBRANCH   2   3
ENDBRANCH   1   2
BRANCH   1  28
ATOM     28  C   UNL A   1      37.221  21.340  24.226  1.00  0.00     0.275 C 
BRANCH  28  29
ATOM     29  O   UNL A   1      37.446  21.476  25.645  1.00  0.00    -0.458 OA
BRANCH  29  30
ATOM     30  C   UNL A   1      38.739  21.381  25.997  1.00  0.00     0.338 C 
ATOM     31  O   UNL A   1      39.505  20.453  25.740  1.00  0.00    -0.246 OA
BRANCH  30  32
ATOM     32  C   UNL A   1      39.260  22.556  26.671  1.00  0.00     0.060 A 
ATOM     33  C   UNL A   1      38.847  23.811  26.216  1.00  0.00     0.016 A 
ATOM     34  C   UNL A   1      40.353  22.415  27.525  1.00  0.00     0.016 A 
ATOM     35  C   UNL A   1      39.561  24.943  26.589  1.00  0.00     0.010 A 
ATOM     36  C   UNL A   1      41.039  23.555  27.932  1.00  0.00     0.010 A 
ATOM     37  C   UNL A   1      40.661  24.821  27.450  1.00  0.00    -0.014 A 
BRANCH  37  38
ATOM     38  C   UNL A   1      41.402  26.015  27.904  1.00  0.00     0.031 A 
ATOM     39  C   UNL A   1      40.703  27.105  28.657  1.00  0.00     0.074 A 
ATOM     40  C   UNL A   1      42.690  26.139  27.544  1.00  0.00     0.049 A 
ATOM     41  N   UNL A   1      41.123  28.308  28.945  1.00  0.00    -0.248 NA
ATOM     42  C   UNL A   1      39.348  26.805  29.145  1.00  0.00     0.031 C 
ATOM     43  C   UNL A   1      43.460  25.129  26.818  1.00  0.00     0.029 A 
ATOM     44  N   UNL A   1      43.562  27.185  27.697  1.00  0.00    -0.354 N 
ATOM     45  C   UNL A   1      40.073  28.926  29.612  1.00  0.00     0.074 A 
ATOM     46  C   UNL A   1      38.997  27.964  29.688  1.00  0.00     0.031 C 
ATOM     47  C   UNL A   1      44.682  25.615  26.558  1.00  0.00     0.029 A 
ATOM     48  C   UNL A   1      44.757  26.986  27.049  1.00  0.00     0.049 A 
ATOM     49  H   UNL A   1      43.354  27.994  28.218  1.00  0.00     0.167 HD
ATOM     50  C   UNL A   1      40.017  30.179  30.122  1.00  0.00     0.034 A 
ATOM     51  C   UNL A   1      45.779  27.834  26.830  1.00  0.00     0.034 A 
ATOM     52  C   UNL A   1      41.105  31.117  30.051  1.00  0.00     0.049 A 
ATOM     53  C   UNL A   1      45.687  29.229  27.374  1.00  0.00     0.074 A 
ATOM     54  C   UNL A   1      41.165  32.409  30.539  1.00  0.00     0.029 A 
ATOM     55  N   UNL A   1      42.327  30.856  29.447  1.00  0.00    -0.354 N 
ATOM     56  N   UNL A   1      44.713  29.781  28.059  1.00  0.00    -0.248 NA
ATOM     57  C   UNL A   1      46.834  30.112  27.136  1.00  0.00     0.031 C 
ATOM     58  C   UNL A   1      42.427  32.931  30.231  1.00  0.00     0.029 A 
ATOM     59  C   UNL A   1      43.151  31.961  29.555  1.00  0.00     0.049 A 
ATOM     60  H   UNL A   1      42.570  30.010  29.008  1.00  0.00     0.167 HD
ATOM     61  C   UNL A   1      45.140  31.067  28.359  1.00  0.00     0.074 A 
ATOM     62  C   UNL A   1      46.467  31.207  27.790  1.00  0.00     0.031 C 
ATOM     63  C   UNL A   1      44.491  32.049  29.031  1.00  0.00     0.034 A 
BRANCH  50  64
ATOM     64  C   UNL A   1      38.757  30.593  30.836  1.00  0.00     0.023 A 
ATOM     65  C   UNL A   1      38.642  30.359  32.222  1.00  0.00     0.012 A 
ATOM     66  C   UNL A   1      37.714  31.253  30.160  1.00  0.00     0.148 A 
ATOM     67  C   UNL A   1      37.501  30.759  32.917  1.00  0.00     0.002 A 
ATOM     68  C   UNL A   1      36.592  31.677  30.867  1.00  0.00     0.091 A 
ATOM     69  F   UNL A   1      37.822  31.439  28.836  1.00  0.00    -0.205 F 
ATOM     70  C   UNL A   1      36.481  31.426  32.244  1.00  0.00     0.022 A 
BRANCH  68  71
ATOM     71  S   UNL A   1      35.263  32.599  30.082  1.00  0.00     0.127 S 
ATOM     72  O   UNL A   1      34.833  31.671  29.037  1.00  0.00    -0.237 OA
ATOM     73  O   UNL A   1      34.306  32.771  31.176  1.00  0.00    -0.237 OA
ATOM     74  O   UNL A   1      35.872  33.839  29.619  1.00  0.00    -0.744 OA
ENDBRANCH  68  71
ENDBRANCH  50  64
BRANCH  51  75
ATOM     75  C   UNL A   1      46.976  27.346  26.097  1.00  0.00     0.023 A 
ATOM     76  C   UNL A   1      47.111  27.650  24.730  1.00  0.00     0.012 A 
ATOM     77  C   UNL A   1      48.029  26.689  26.765  1.00  0.00     0.148 A 
ATOM     78  C   UNL A   1      48.272  27.304  24.038  1.00  0.00     0.002 A 
ATOM     79  C   UNL A   1      49.205  26.398  26.083  1.00  0.00     0.091 A 
ATOM     80  F   UNL A   1      47.875  26.393  28.063  1.00  0.00    -0.205 F 
ATOM     81  C   UNL A   1      49.324  26.693  24.717  1.00  0.00     0.022 A 
BRANCH  79  82
ATOM     82  S   UNL A   1      50.656  25.756  26.928  1.00  0.00     0.127 S 
ATOM     83  O   UNL A   1      51.644  25.732  25.854  1.00  0.00    -0.237 OA
ATOM     84  O   UNL A   1      50.889  26.769  27.958  1.00  0.00    -0.237 OA
ATOM     85  O   UNL A   1      50.249  24.459  27.455  1.00  0.00    -0.744 OA
ENDBRANCH  79  82
ENDBRANCH  51  75
BRANCH  63  86
ATOM     86  C   UNL A   1      45.214  33.350  29.219  1.00  0.00     0.023 A 
ATOM     87  C   UNL A   1      46.084  33.506  30.315  1.00  0.00     0.012 A 
ATOM     88  C   UNL A   1      45.101  34.378  28.265  1.00  0.00     0.148 A 
ATOM     89  C   UNL A   1      46.823  34.678  30.467  1.00  0.00     0.002 A 
ATOM     90  C   UNL A   1      45.868  35.529  28.403  1.00  0.00     0.091 A 
ATOM     91  F   UNL A   1      44.248  34.214  27.243  1.00  0.00    -0.205 F 
ATOM     92  C   UNL A   1      46.724  35.683  29.506  1.00  0.00     0.022 A 
BRANCH  90  93
ATOM     93  S   UNL A   1      45.857  36.834  27.169  1.00  0.00     0.127 S 
ATOM     94  O   UNL A   1      46.718  37.839  27.791  1.00  0.00    -0.237 OA
ATOM     95  O   UNL A   1      46.441  36.169  26.003  1.00  0.00    -0.237 OA
ATOM     96  O   UNL A   1      44.461  37.215  27.005  1.00  0.00    -0.744 OA
ENDBRANCH  90  93
ENDBRANCH  63  86
ENDBRANCH  37  38
ENDBRANCH  30  32
ENDBRANCH  29  30
ENDBRANCH  28  29
ENDBRANCH   1  28
TORSDOF 18
ENDMDL
MODEL 3
REMARK VINA RESULT:     -12.1      1.390      1.740
REMARK SMILES CCc1cc(C(=O)c2[nH]c3cc(Cl)ccc3c2CC(=O)OCCOC(=O)c2ccc(-c3c4nc(c(-c5cccc(S(=O)(=O)[O-])c5F)c5ccc([nH]5)c(-c5cccc(S(=O)(=O)[O-])c5F)c5nc(c(-c6cccc(S(=O)(=O)[O-])c6F)c6ccc3[nH]6)C=C5)C=C4)cc2)ncc1Cl
REMARK SMILES IDX 22 1 21 2 19 3 20 4 18 5 17 6 8 7 9 8 10 9 16 11 11 12 15 13
REMARK SMILES IDX 12 14 14 15 13 16 6 17 7 18 5 19 3 20 4 21 92 22 91 23 93 24
REMARK SMILES IDX 90 25 2 26 1 27 23 28 24 29 25 30 26 31 27 32 28 33 89 34
REMARK SMILES IDX 29 35 88 36 30 37 31 38 32 39 82 40 33 41 87 42 81 43 83 44
REMARK SMILES IDX 34 45 86 46 80 47 79 48 35 50 67 51 47 52 66 53 48 54 51 55
REMARK SMILES IDX 65 56 84 57 49 58 50 59 64 61 85 62 52 63 36 64 37 65 45 66
REMARK SMILES IDX 38 67 40 68 46 69 39 70 41 71 42 72 43 73 44 74 68 75 69 76
REMARK SMILES IDX 77 77 70 78 72 79 78 80 71 81 73 82 74 83 75 84 76 85 53 86
REMARK SMILES IDX 54 87 62 88 55 89 57 90 63 91 56 92 58 93 59 94 60 95 61 96
REMARK H PARENT 9 10 83 49 51 60
REMARK Flexibility Score: inf
ROOT
ATOM      1  C   UNL A   1      36.183  22.952  23.507  1.00  0.00     0.274 C 
ENDROOT
BRANCH   1   2
ATOM      2  O   UNL A   1      35.311  23.670  24.409  1.00  0.00    -0.462 OA
BRANCH   2   3
ATOM      3  C   UNL A   1      34.420  24.522  23.842  1.00  0.00     0.310 C 
ATOM      4  O   UNL A   1      34.081  24.478  22.662  1.00  0.00    -0.252 OA
BRANCH   3   5
ATOM      5  C   UNL A   1      33.739  25.460  24.820  1.00  0.00     0.161 C 
BRANCH   5   6
ATOM      6  C   UNL A   1      32.243  25.429  24.912  1.00  0.00     0.000 A 
ATOM      7  C   UNL A   1      31.422  24.454  25.476  1.00  0.00     0.093 A 
ATOM      8  N   UNL A   1      30.122  24.862  25.291  1.00  0.00    -0.351 N 
ATOM      9  C   UNL A   1      30.063  26.007  24.546  1.00  0.00     0.048 A 
ATOM     10  H   UNL A   1      29.336  24.389  25.649  1.00  0.00     0.167 HD
ATOM     11  C   UNL A   1      31.374  26.423  24.337  1.00  0.00     0.004 A 
ATOM     12  C   UNL A   1      28.949  26.704  24.068  1.00  0.00     0.047 A 
ATOM     13  C   UNL A   1      31.587  27.632  23.639  1.00  0.00     0.012 A 
ATOM     14  C   UNL A   1      29.190  27.885  23.366  1.00  0.00     0.043 A 
ATOM     15  C   UNL A   1      30.485  28.356  23.162  1.00  0.00     0.021 A 
ATOM     16  Cl  UNL A   1      27.852  28.779  22.749  1.00  0.00    -0.084 Cl
BRANCH   7  17
ATOM     17  C   UNL A   1      31.673  23.247  26.250  1.00  0.00     0.227 C 
ATOM     18  O   UNL A   1      31.041  23.046  27.287  1.00  0.00    -0.285 OA
BRANCH  17  19
ATOM     19  C   UNL A   1      32.463  22.107  25.645  1.00  0.00     0.113 A 
ATOM     20  C   UNL A   1      32.641  20.330  23.972  1.00  0.00    -0.026 A 
ATOM     21  C   UNL A   1      32.155  21.601  24.379  1.00  0.00     0.037 A 
ATOM     22  C   UNL A   1      33.478  19.652  24.867  1.00  0.00     0.062 A 
ATOM     23  C   UNL A   1      33.794  20.269  26.076  1.00  0.00     0.132 A 
ATOM     24  Cl  UNL A   1      34.109  18.073  24.630  1.00  0.00    -0.082 Cl
ATOM     25  N   UNL A   1      33.300  21.459  26.488  1.00  0.00    -0.251 NA
BRANCH  20  26
ATOM     26  C   UNL A   1      32.153  19.857  22.614  1.00  0.00     0.034 C 
ATOM     27  C   UNL A   1      31.778  20.835  21.511  1.00  0.00     0.009 C 
ENDBRANCH  20  26
ENDBRANCH  17  19
ENDBRANCH   7  17
ENDBRANCH   5   6
ENDBRANCH   3   5
ENDBRANCH   2   3
ENDBRANCH   1   2
BRANCH   1  28
ATOM     28  C   UNL A   1      36.651  21.628  24.129  1.00  0.00     0.275 C 
BRANCH  28  29
ATOM     29  O   UNL A   1      36.975  21.757  25.530  1.00  0.00    -0.458 OA
BRANCH  29  30
ATOM     30  C   UNL A   1      38.285  21.622  25.795  1.00  0.00     0.338 C 
ATOM     31  O   UNL A   1      39.016  20.698  25.438  1.00  0.00    -0.246 OA
BRANCH  30  32
ATOM     32  C   UNL A   1      38.869  22.748  26.500  1.00  0.00     0.060 A 
ATOM     33  C   UNL A   1      38.431  24.032  26.164  1.00  0.00     0.016 A 
ATOM     34  C   UNL A   1      40.026  22.547  27.251  1.00  0.00     0.016 A 
ATOM     35  C   UNL A   1      39.182  25.135  26.552  1.00  0.00     0.010 A 
ATOM     36  C   UNL A   1      40.752  23.656  27.675  1.00  0.00     0.010 A 
ATOM     37  C   UNL A   1      40.347  24.952  27.310  1.00  0.00    -0.014 A 
BRANCH  37  38
ATOM     38  C   UNL A   1      41.132  26.111  27.780  1.00  0.00     0.031 A 
ATOM     39  C   UNL A   1      40.477  27.213  28.555  1.00  0.00     0.074 A 
ATOM     40  C   UNL A   1      42.423  26.195  27.416  1.00  0.00     0.049 A 
ATOM     41  N   UNL A   1      40.940  28.395  28.861  1.00  0.00    -0.248 NA
ATOM     42  C   UNL A   1      39.114  26.953  29.045  1.00  0.00     0.031 C 
ATOM     43  C   UNL A   1      43.153  25.171  26.669  1.00  0.00     0.029 A 
ATOM     44  N   UNL A   1      43.332  27.206  27.581  1.00  0.00    -0.354 N 
ATOM     45  C   UNL A   1      39.917  29.039  29.543  1.00  0.00     0.074 A 
ATOM     46  C   UNL A   1      38.807  28.115  29.608  1.00  0.00     0.031 C 
ATOM     47  C   UNL A   1      44.390  25.616  26.412  1.00  0.00     0.029 A 
ATOM     48  C   UNL A   1      44.516  26.976  26.925  1.00  0.00     0.049 A 
ATOM     49  H   UNL A   1      43.155  28.014  28.117  1.00  0.00     0.167 HD
ATOM     50  C   UNL A   1      39.908  30.285  30.074  1.00  0.00     0.034 A 
ATOM     51  C   UNL A   1      45.567  27.790  26.715  1.00  0.00     0.034 A 
ATOM     52  C   UNL A   1      41.028  31.184  30.013  1.00  0.00     0.049 A 
ATOM     53  C   UNL A   1      45.527  29.178  27.283  1.00  0.00     0.074 A 
ATOM     54  C   UNL A   1      41.137  32.464  30.522  1.00  0.00     0.029 A 
ATOM     55  N   UNL A   1      42.237  30.890  29.399  1.00  0.00    -0.354 N 
ATOM     56  N   UNL A   1      44.577  29.753  27.981  1.00  0.00    -0.248 NA
ATOM     57  C   UNL A   1      46.705  30.023  27.053  1.00  0.00     0.031 C 
ATOM     58  C   UNL A   1      42.415  32.946  30.217  1.00  0.00     0.029 A 
ATOM     59  C   UNL A   1      43.101  31.962  29.520  1.00  0.00     0.049 A 
ATOM     60  H   UNL A   1      42.448  30.042  28.944  1.00  0.00     0.167 HD
ATOM     61  C   UNL A   1      45.051  31.017  28.301  1.00  0.00     0.074 A 
ATOM     62  C   UNL A   1      46.380  31.120  27.727  1.00  0.00     0.031 C 
ATOM     63  C   UNL A   1      44.440  32.011  28.992  1.00  0.00     0.034 A 
BRANCH  50  64
ATOM     64  C   UNL A   1      38.667  30.731  30.801  1.00  0.00     0.023 A 
ATOM     65  C   UNL A   1      38.566  30.513  32.191  1.00  0.00     0.012 A 
ATOM     66  C   UNL A   1      37.627  31.405  30.132  1.00  0.00     0.148 A 
ATOM     67  C   UNL A   1      37.443  30.943  32.898  1.00  0.00     0.002 A 
ATOM     68  C   UNL A   1      36.524  31.859  30.850  1.00  0.00     0.091 A 
ATOM     69  F   UNL A   1      37.721  31.576  28.805  1.00  0.00    -0.205 F 
ATOM     70  C   UNL A   1      36.428  31.624  32.231  1.00  0.00     0.022 A 
BRANCH  68  71
ATOM     71  S   UNL A   1      35.203  32.800  30.074  1.00  0.00     0.127 S 
ATOM     72  O   UNL A   1      34.322  33.068  31.209  1.00  0.00    -0.237 OA
ATOM     73  O   UNL A   1      35.909  33.975  29.559  1.00  0.00    -0.237 OA
ATOM     74  O   UNL A   1      34.661  31.927  29.041  1.00  0.00    -0.744 OA
ENDBRANCH  68  71
ENDBRANCH  50  64
BRANCH  51  75
ATOM     75  C   UNL A   1      46.743  27.272  25.968  1.00  0.00     0.023 A 
ATOM     76  C   UNL A   1      46.840  27.523  24.587  1.00  0.00     0.012 A 
ATOM     77  C   UNL A   1      47.813  26.639  26.630  1.00  0.00     0.148 A 
ATOM     78  C   UNL A   1      47.981  27.148  23.877  1.00  0.00     0.002 A 
ATOM     79  C   UNL A   1      48.970  26.319  25.928  1.00  0.00     0.091 A 
ATOM     80  F   UNL A   1      47.695  26.393  27.943  1.00  0.00    -0.205 F 
ATOM     81  C   UNL A   1      49.051  26.562  24.549  1.00  0.00     0.022 A 
BRANCH  79  82
ATOM     82  S   UNL A   1      50.443  25.707  26.756  1.00  0.00     0.127 S 
ATOM     83  O   UNL A   1      50.713  26.773  27.716  1.00  0.00    -0.237 OA
ATOM     84  O   UNL A   1      49.970  24.453  27.344  1.00  0.00    -0.237 OA
ATOM     85  O   UNL A   1      51.430  25.530  25.699  1.00  0.00    -0.744 OA
ENDBRANCH  79  82
ENDBRANCH  51  75
BRANCH  63  86
ATOM     86  C   UNL A   1      45.211  33.282  29.197  1.00  0.00     0.023 A 
ATOM     87  C   UNL A   1      46.056  33.406  30.316  1.00  0.00     0.012 A 
ATOM     88  C   UNL A   1      45.167  34.311  28.239  1.00  0.00     0.148 A 
ATOM     89  C   UNL A   1      46.837  34.547  30.487  1.00  0.00     0.002 A 
ATOM     90  C   UNL A   1      45.975  35.431  28.397  1.00  0.00     0.091 A 
ATOM     91  F   UNL A   1      44.336  34.179  27.194  1.00  0.00    -0.205 F 
ATOM     92  C   UNL A   1      46.806  35.553  29.522  1.00  0.00     0.022 A 
BRANCH  90  93
ATOM     93  S   UNL A   1      46.052  36.732  27.161  1.00  0.00     0.127 S 
ATOM     94  O   UNL A   1      46.470  35.991  25.973  1.00  0.00    -0.237 OA
ATOM     95  O   UNL A   1      44.670  37.213  27.124  1.00  0.00    -0.237 OA
ATOM     96  O   UNL A   1      47.012  37.704  27.668  1.00  0.00    -0.744 OA
ENDBRANCH  90  93
ENDBRANCH  63  86
ENDBRANCH  37  38
ENDBRANCH  30  32
ENDBRANCH  29  30
ENDBRANCH  28  29
ENDBRANCH   1  28
TORSDOF 18
ENDMDL
