MODEL 1
REMARK VINA RESULT:     -11.6      0.000      0.000
REMARK SMILES C[C@H](C(=O)OCCOC(=O)c1ccc(-c2c3nc(c(-c4cccc(S(=O)(=O)[O-])c4F)c4ccc([nH]4)c(-c4cccc(S(=O)(=O)[O-])c4F)c4nc(c(-c5cccc(S(=O)(=O)[O-])c5F)c5ccc2[nH]5)C=C4)C=C3)cc1)c1ccc(C[C@H]2CCC[C@@H]2O)cc1
REMARK SMILES IDX 6 1 5 2 3 3 4 4 2 5 1 6 74 7 75 8 86 9 76 10 85 11 77 12
REMARK SMILES IDX 78 13 79 14 80 15 83 16 81 17 82 18 84 19 7 21 8 22 9 23
REMARK SMILES IDX 10 24 11 25 12 26 73 27 13 28 72 29 14 30 15 31 16 32 66 33
REMARK SMILES IDX 17 34 71 35 65 36 67 37 18 38 70 39 64 40 63 41 19 43 51 44
REMARK SMILES IDX 31 45 50 46 32 47 35 48 49 49 68 50 33 51 34 52 48 54 69 55
REMARK SMILES IDX 36 56 20 57 21 58 29 59 22 60 24 61 30 62 23 63 25 64 26 65
REMARK SMILES IDX 27 66 28 67 52 68 53 69 61 70 54 71 56 72 62 73 55 74 57 75
REMARK SMILES IDX 58 76 59 77 60 78 37 79 38 80 46 81 39 82 41 83 47 84 40 85
REMARK SMILES IDX 42 86 43 87 44 88 45 89
REMARK H PARENT 84 20 67 42 35 53
REMARK Flexibility Score: inf
ROOT
ATOM      1  C   UNL A   1      35.035  20.366  24.850  1.00  0.00     0.274 C 
ENDROOT
BRANCH   1   2
ATOM      2  O   UNL A   1      34.181  20.770  25.940  1.00  0.00    -0.462 OA
BRANCH   2   3
ATOM      3  C   UNL A   1      33.203  21.670  25.648  1.00  0.00     0.313 C 
ATOM      4  O   UNL A   1      32.561  21.685  24.603  1.00  0.00    -0.252 OA
BRANCH   3   5
ATOM      5  C   UNL A   1      32.960  22.680  26.764  1.00  0.00     0.126 C 
ATOM      6  C   UNL A   1      33.808  22.316  27.982  1.00  0.00     0.025 C 
BRANCH   5   7
ATOM      7  C   UNL A   1      33.003  24.145  26.345  1.00  0.00    -0.034 A 
ATOM      8  C   UNL A   1      31.910  25.007  26.510  1.00  0.00     0.005 A 
ATOM      9  C   UNL A   1      34.114  24.615  25.629  1.00  0.00     0.005 A 
ATOM     10  C   UNL A   1      31.884  26.255  25.886  1.00  0.00     0.004 A 
ATOM     11  C   UNL A   1      34.098  25.871  25.026  1.00  0.00     0.004 A 
ATOM     12  C   UNL A   1      32.950  26.664  25.080  1.00  0.00    -0.048 A 
BRANCH  12  13
ATOM     13  C   UNL A   1      32.821  27.867  24.180  1.00  0.00     0.041 C 
BRANCH  13  14
ATOM     14  C   UNL A   1      31.365  28.260  23.851  1.00  0.00     0.022 C 
ATOM     15  C   UNL A   1      30.794  29.474  24.609  1.00  0.00     0.007 C 
ATOM     16  C   UNL A   1      31.079  28.571  22.377  1.00  0.00     0.117 C 
ATOM     17  C   UNL A   1      29.882  30.208  23.620  1.00  0.00     0.003 C 
ATOM     18  C   UNL A   1      29.729  29.269  22.436  1.00  0.00     0.032 C 
BRANCH  16  19
ATOM     19  O   UNL A   1      30.992  27.390  21.600  1.00  0.00    -0.393 OA
ATOM     20  H   UNL A   1      31.580  27.464  20.832  1.00  0.00     0.210 HD
ENDBRANCH  16  19
ENDBRANCH  13  14
ENDBRANCH  12  13
ENDBRANCH   5   7
ENDBRANCH   3   5
ENDBRANCH   2   3
ENDBRANCH   1   2
BRANCH   1  21
ATOM     21  C   UNL A   1      36.108  21.421  24.610  1.00  0.00     0.275 C 
BRANCH  21  22
ATOM     22  O   UNL A   1      36.809  21.632  25.843  1.00  0.00    -0.458 OA
BRANCH  22  23
ATOM     23  C   UNL A   1      38.145  21.424  25.805  1.00  0.00     0.338 C 
ATOM     24  O   UNL A   1      38.739  20.480  25.316  1.00  0.00    -0.246 OA
BRANCH  23  25
ATOM     25  C   UNL A   1      38.818  22.577  26.423  1.00  0.00     0.060 A 
ATOM     26  C   UNL A   1      38.351  23.864  26.164  1.00  0.00     0.016 A 
ATOM     27  C   UNL A   1      39.978  22.386  27.168  1.00  0.00     0.016 A 
ATOM     28  C   UNL A   1      39.100  24.971  26.553  1.00  0.00     0.010 A 
ATOM     29  C   UNL A   1      40.665  23.501  27.660  1.00  0.00     0.010 A 
ATOM     30  C   UNL A   1      40.260  24.807  27.321  1.00  0.00    -0.014 A 
BRANCH  30  31
ATOM     31  C   UNL A   1      41.071  25.980  27.755  1.00  0.00     0.031 A 
ATOM     32  C   UNL A   1      40.453  27.036  28.637  1.00  0.00     0.074 A 
ATOM     33  C   UNL A   1      42.345  26.128  27.337  1.00  0.00     0.049 A 
ATOM     34  N   UNL A   1      40.896  28.231  28.931  1.00  0.00    -0.248 NA
ATOM     35  C   UNL A   1      39.152  26.715  29.250  1.00  0.00     0.031 C 
ATOM     36  C   UNL A   1      43.079  25.180  26.496  1.00  0.00     0.029 A 
ATOM     37  N   UNL A   1      43.245  27.145  27.547  1.00  0.00    -0.354 N 
ATOM     38  C   UNL A   1      39.892  28.836  29.678  1.00  0.00     0.074 A 
ATOM     39  C   UNL A   1      38.826  27.869  29.815  1.00  0.00     0.031 C 
ATOM     40  C   UNL A   1      44.318  25.645  26.281  1.00  0.00     0.029 A 
ATOM     41  C   UNL A   1      44.442  26.963  26.893  1.00  0.00     0.049 A 
ATOM     42  H   UNL A   1      43.051  27.928  28.112  1.00  0.00     0.167 HD
ATOM     43  C   UNL A   1      39.865  30.082  30.208  1.00  0.00     0.034 A 
ATOM     44  C   UNL A   1      45.506  27.780  26.759  1.00  0.00     0.034 A 
ATOM     45  C   UNL A   1      40.968  31.003  30.159  1.00  0.00     0.049 A 
ATOM     46  C   UNL A   1      45.465  29.142  27.391  1.00  0.00     0.074 A 
ATOM     47  C   UNL A   1      41.058  32.268  30.713  1.00  0.00     0.029 A 
ATOM     48  N   UNL A   1      42.182  30.752  29.540  1.00  0.00    -0.354 N 
ATOM     49  N   UNL A   1      44.522  29.685  28.120  1.00  0.00    -0.248 NA
ATOM     50  C   UNL A   1      46.638  30.005  27.183  1.00  0.00     0.031 C 
ATOM     51  C   UNL A   1      42.329  32.781  30.432  1.00  0.00     0.029 A 
ATOM     52  C   UNL A   1      43.031  31.834  29.704  1.00  0.00     0.049 A 
ATOM     53  H   UNL A   1      42.409  29.925  29.055  1.00  0.00     0.167 HD
ATOM     54  C   UNL A   1      44.990  30.945  28.472  1.00  0.00     0.074 A 
ATOM     55  C   UNL A   1      46.315  31.073  27.901  1.00  0.00     0.031 C 
ATOM     56  C   UNL A   1      44.367  31.920  29.179  1.00  0.00     0.034 A 
BRANCH  43  57
ATOM     57  C   UNL A   1      38.612  30.517  30.918  1.00  0.00     0.023 A 
ATOM     58  C   UNL A   1      38.482  30.299  32.303  1.00  0.00     0.012 A 
ATOM     59  C   UNL A   1      37.593  31.201  30.226  1.00  0.00     0.148 A 
ATOM     60  C   UNL A   1      37.345  30.732  32.985  1.00  0.00     0.002 A 
ATOM     61  C   UNL A   1      36.479  31.663  30.919  1.00  0.00     0.091 A 
ATOM     62  F   UNL A   1      37.722  31.375  28.903  1.00  0.00    -0.205 F 
ATOM     63  C   UNL A   1      36.350  31.424  32.297  1.00  0.00     0.022 A 
BRANCH  61  64
ATOM     64  S   UNL A   1      35.185  32.624  30.126  1.00  0.00     0.127 S 
ATOM     65  O   UNL A   1      34.241  32.816  31.226  1.00  0.00    -0.237 OA
ATOM     66  O   UNL A   1      35.899  33.835  29.718  1.00  0.00    -0.237 OA
ATOM     67  O   UNL A   1      34.706  31.806  29.019  1.00  0.00    -0.744 OA
ENDBRANCH  61  64
ENDBRANCH  43  57
BRANCH  44  68
ATOM     68  C   UNL A   1      46.706  27.312  26.009  1.00  0.00     0.023 A 
ATOM     69  C   UNL A   1      46.820  27.609  24.639  1.00  0.00     0.012 A 
ATOM     70  C   UNL A   1      47.758  26.629  26.652  1.00  0.00     0.148 A 
ATOM     71  C   UNL A   1      47.954  27.227  23.919  1.00  0.00     0.002 A 
ATOM     72  C   UNL A   1      48.910  26.306  25.944  1.00  0.00     0.091 A 
ATOM     73  F   UNL A   1      47.622  26.324  27.951  1.00  0.00    -0.205 F 
ATOM     74  C   UNL A   1      49.005  26.591  24.575  1.00  0.00     0.022 A 
BRANCH  72  75
ATOM     75  S   UNL A   1      50.361  25.631  26.763  1.00  0.00     0.127 S 
ATOM     76  O   UNL A   1      51.290  25.473  25.647  1.00  0.00    -0.237 OA
ATOM     77  O   UNL A   1      50.708  26.695  27.707  1.00  0.00    -0.237 OA
ATOM     78  O   UNL A   1      49.903  24.402  27.397  1.00  0.00    -0.744 OA
ENDBRANCH  72  75
ENDBRANCH  44  68
BRANCH  56  79
ATOM     79  C   UNL A   1      45.116  33.206  29.391  1.00  0.00     0.023 A 
ATOM     80  C   UNL A   1      45.954  33.338  30.516  1.00  0.00     0.012 A 
ATOM     81  C   UNL A   1      45.048  34.250  28.450  1.00  0.00     0.148 A 
ATOM     82  C   UNL A   1      46.697  34.502  30.711  1.00  0.00     0.002 A 
ATOM     83  C   UNL A   1      45.821  35.391  28.632  1.00  0.00     0.091 A 
ATOM     84  F   UNL A   1      44.225  34.114  27.399  1.00  0.00    -0.205 F 
ATOM     85  C   UNL A   1      46.639  35.522  29.765  1.00  0.00     0.022 A 
BRANCH  83  86
ATOM     86  S   UNL A   1      45.863  36.714  27.416  1.00  0.00     0.127 S 
ATOM     87  O   UNL A   1      46.116  35.977  26.180  1.00  0.00    -0.237 OA
ATOM     88  O   UNL A   1      44.519  37.285  27.522  1.00  0.00    -0.237 OA
ATOM     89  O   UNL A   1      46.928  37.610  27.848  1.00  0.00    -0.744 OA
ENDBRANCH  83  86
ENDBRANCH  56  79
ENDBRANCH  30  31
ENDBRANCH  23  25
ENDBRANCH  22  23
ENDBRANCH  21  22
ENDBRANCH   1  21
TORSDOF 18
ENDMDL
MODEL 2
REMARK VINA RESULT:     -11.4      4.850     10.188
REMARK SMILES C[C@H](C(=O)OCCOC(=O)c1ccc(-c2c3nc(c(-c4cccc(S(=O)(=O)[O-])c4F)c4ccc([nH]4)c(-c4cccc(S(=O)(=O)[O-])c4F)c4nc(c(-c5cccc(S(=O)(=O)[O-])c5F)c5ccc2[nH]5)C=C4)C=C3)cc1)c1ccc(C[C@H]2CCC[C@@H]2O)cc1
REMARK SMILES IDX 6 1 5 2 3 3 4 4 2 5 1 6 74 7 75 8 86 9 76 10 85 11 77 12
REMARK SMILES IDX 78 13 79 14 80 15 83 16 81 17 82 18 84 19 7 21 8 22 9 23
REMARK SMILES IDX 10 24 11 25 12 26 73 27 13 28 72 29 14 30 15 31 16 32 66 33
REMARK SMILES IDX 17 34 71 35 65 36 67 37 18 38 70 39 64 40 63 41 19 43 51 44
REMARK SMILES IDX 31 45 50 46 32 47 35 48 49 49 68 50 33 51 34 52 48 54 69 55
REMARK SMILES IDX 36 56 20 57 21 58 29 59 22 60 24 61 30 62 23 63 25 64 26 65
REMARK SMILES IDX 27 66 28 67 52 68 53 69 61 70 54 71 56 72 62 73 55 74 57 75
REMARK SMILES IDX 58 76 59 77 60 78 37 79 38 80 46 81 39 82 41 83 47 84 40 85
REMARK SMILES IDX 42 86 43 87 44 88 45 89
REMARK H PARENT 84 20 67 42 35 53
REMARK Flexibility Score: inf
ROOT
ATOM      1  C   UNL A   1      32.528  29.165  24.505  1.00  0.00     0.274 C 
ENDROOT
BRANCH   1   2
ATOM      2  O   UNL A   1      32.007  27.821  24.551  1.00  0.00    -0.462 OA
BRANCH   2   3
ATOM      3  C   UNL A   1      30.900  27.569  23.801  1.00  0.00     0.313 C 
ATOM      4  O   UNL A   1      30.644  28.117  22.734  1.00  0.00    -0.252 OA
BRANCH   3   5
ATOM      5  C   UNL A   1      29.985  26.513  24.411  1.00  0.00     0.126 C 
ATOM      6  C   UNL A   1      28.564  26.694  23.876  1.00  0.00     0.025 C 
BRANCH   5   7
ATOM      7  C   UNL A   1      30.521  25.087  24.388  1.00  0.00    -0.034 A 
ATOM      8  C   UNL A   1      30.673  24.322  25.553  1.00  0.00     0.005 A 
ATOM      9  C   UNL A   1      31.027  24.569  23.186  1.00  0.00     0.005 A 
ATOM     10  C   UNL A   1      31.403  23.133  25.536  1.00  0.00     0.004 A 
ATOM     11  C   UNL A   1      31.735  23.370  23.165  1.00  0.00     0.004 A 
ATOM     12  C   UNL A   1      32.000  22.687  24.354  1.00  0.00    -0.048 A 
BRANCH  12  13
ATOM     13  C   UNL A   1      33.016  21.573  24.375  1.00  0.00     0.041 C 
BRANCH  13  14
ATOM     14  C   UNL A   1      32.407  20.156  24.325  1.00  0.00     0.022 C 
ATOM     15  C   UNL A   1      32.237  19.531  22.926  1.00  0.00     0.007 C 
ATOM     16  C   UNL A   1      33.155  19.083  25.126  1.00  0.00     0.117 C 
ATOM     17  C   UNL A   1      32.519  18.034  23.087  1.00  0.00     0.003 C 
ATOM     18  C   UNL A   1      32.566  17.789  24.585  1.00  0.00     0.032 C 
BRANCH  16  19
ATOM     19  O   UNL A   1      32.908  19.199  26.515  1.00  0.00    -0.393 OA
ATOM     20  H   UNL A   1      32.020  18.863  26.715  1.00  0.00     0.210 HD
ENDBRANCH  16  19
ENDBRANCH  13  14
ENDBRANCH  12  13
ENDBRANCH   5   7
ENDBRANCH   3   5
ENDBRANCH   2   3
ENDBRANCH   1   2
BRANCH   1  21
ATOM     21  C   UNL A   1      31.700  30.076  25.403  1.00  0.00     0.275 C 
BRANCH  21  22
ATOM     22  O   UNL A   1      32.326  30.122  26.692  1.00  0.00    -0.458 OA
BRANCH  22  23
ATOM     23  C   UNL A   1      32.909  31.296  27.024  1.00  0.00     0.338 C 
ATOM     24  O   UNL A   1      32.430  32.413  26.948  1.00  0.00    -0.246 OA
BRANCH  23  25
ATOM     25  C   UNL A   1      34.250  31.020  27.561  1.00  0.00     0.060 A 
ATOM     26  C   UNL A   1      34.626  29.704  27.823  1.00  0.00     0.016 A 
ATOM     27  C   UNL A   1      35.090  32.074  27.908  1.00  0.00     0.016 A 
ATOM     28  C   UNL A   1      35.794  29.439  28.534  1.00  0.00     0.010 A 
ATOM     29  C   UNL A   1      36.318  31.796  28.516  1.00  0.00     0.010 A 
ATOM     30  C   UNL A   1      36.666  30.480  28.877  1.00  0.00    -0.014 A 
BRANCH  30  31
ATOM     31  C   UNL A   1      37.924  30.215  29.630  1.00  0.00     0.031 A 
ATOM     32  C   UNL A   1      38.995  29.343  29.023  1.00  0.00     0.074 A 
ATOM     33  C   UNL A   1      38.103  30.719  30.869  1.00  0.00     0.049 A 
ATOM     34  N   UNL A   1      40.042  28.803  29.590  1.00  0.00    -0.248 NA
ATOM     35  C   UNL A   1      38.855  29.015  27.594  1.00  0.00     0.031 C 
ATOM     36  C   UNL A   1      37.164  31.592  31.575  1.00  0.00     0.029 A 
ATOM     37  N   UNL A   1      39.133  30.553  31.764  1.00  0.00    -0.354 N 
ATOM     38  C   UNL A   1      40.629  27.999  28.620  1.00  0.00     0.074 A 
ATOM     39  C   UNL A   1      39.836  28.140  27.419  1.00  0.00     0.031 C 
ATOM     40  C   UNL A   1      37.667  31.902  32.779  1.00  0.00     0.029 A 
ATOM     41  C   UNL A   1      38.921  31.183  32.968  1.00  0.00     0.049 A 
ATOM     42  H   UNL A   1      39.945  30.033  31.561  1.00  0.00     0.167 HD
ATOM     43  C   UNL A   1      41.732  27.220  28.719  1.00  0.00     0.034 A 
ATOM     44  C   UNL A   1      39.629  31.154  34.115  1.00  0.00     0.034 A 
ATOM     45  C   UNL A   1      42.577  27.163  29.882  1.00  0.00     0.049 A 
ATOM     46  C   UNL A   1      40.871  30.312  34.185  1.00  0.00     0.074 A 
ATOM     47  C   UNL A   1      43.747  26.445  30.060  1.00  0.00     0.029 A 
ATOM     48  N   UNL A   1      42.357  27.866  31.055  1.00  0.00    -0.354 N 
ATOM     49  N   UNL A   1      41.428  29.585  33.249  1.00  0.00    -0.248 NA
ATOM     50  C   UNL A   1      41.585  30.289  35.471  1.00  0.00     0.031 C 
ATOM     51  C   UNL A   1      44.236  26.718  31.342  1.00  0.00     0.029 A 
ATOM     52  C   UNL A   1      43.371  27.607  31.960  1.00  0.00     0.049 A 
ATOM     53  H   UNL A   1      41.591  28.463  31.221  1.00  0.00     0.167 HD
ATOM     54  C   UNL A   1      42.564  29.029  33.824  1.00  0.00     0.074 A 
ATOM     55  C   UNL A   1      42.634  29.529  35.182  1.00  0.00     0.031 C 
ATOM     56  C   UNL A   1      43.455  28.159  33.286  1.00  0.00     0.034 A 
BRANCH  43  57
ATOM     57  C   UNL A   1      42.114  26.386  27.527  1.00  0.00     0.023 A 
ATOM     58  C   UNL A   1      42.822  26.973  26.461  1.00  0.00     0.012 A 
ATOM     59  C   UNL A   1      41.827  25.006  27.492  1.00  0.00     0.148 A 
ATOM     60  C   UNL A   1      43.220  26.204  25.366  1.00  0.00     0.002 A 
ATOM     61  C   UNL A   1      42.258  24.239  26.415  1.00  0.00     0.091 A 
ATOM     62  F   UNL A   1      41.128  24.471  28.503  1.00  0.00    -0.205 F 
ATOM     63  C   UNL A   1      42.948  24.837  25.348  1.00  0.00     0.022 A 
BRANCH  61  64
ATOM     64  S   UNL A   1      42.015  22.461  26.344  1.00  0.00     0.127 S 
ATOM     65  O   UNL A   1      40.558  22.363  26.290  1.00  0.00    -0.237 OA
ATOM     66  O   UNL A   1      42.697  22.100  25.099  1.00  0.00    -0.237 OA
ATOM     67  O   UNL A   1      42.640  21.928  27.548  1.00  0.00    -0.744 OA
ENDBRANCH  61  64
ENDBRANCH  43  57
BRANCH  44  68
ATOM     68  C   UNL A   1      39.182  31.970  35.280  1.00  0.00     0.023 A 
ATOM     69  C   UNL A   1      38.336  31.388  36.242  1.00  0.00     0.012 A 
ATOM     70  C   UNL A   1      39.633  33.291  35.472  1.00  0.00     0.148 A 
ATOM     71  C   UNL A   1      37.938  32.110  37.369  1.00  0.00     0.002 A 
ATOM     72  C   UNL A   1      39.283  33.982  36.627  1.00  0.00     0.091 A 
ATOM     73  F   UNL A   1      40.413  33.843  34.531  1.00  0.00    -0.205 F 
ATOM     74  C   UNL A   1      38.425  33.400  37.569  1.00  0.00     0.022 A 
BRANCH  72  75
ATOM     75  S   UNL A   1      40.002  35.581  37.022  1.00  0.00     0.127 S 
ATOM     76  O   UNL A   1      39.366  35.890  38.299  1.00  0.00    -0.237 OA
ATOM     77  O   UNL A   1      41.430  35.269  37.105  1.00  0.00    -0.237 OA
ATOM     78  O   UNL A   1      39.649  36.444  35.902  1.00  0.00    -0.744 OA
ENDBRANCH  72  75
ENDBRANCH  44  68
BRANCH  56  79
ATOM     79  C   UNL A   1      44.592  27.704  34.159  1.00  0.00     0.023 A 
ATOM     80  C   UNL A   1      45.736  28.516  34.278  1.00  0.00     0.012 A 
ATOM     81  C   UNL A   1      44.500  26.518  34.911  1.00  0.00     0.148 A 
ATOM     82  C   UNL A   1      46.784  28.141  35.118  1.00  0.00     0.002 A 
ATOM     83  C   UNL A   1      45.531  26.171  35.775  1.00  0.00     0.091 A 
ATOM     84  F   UNL A   1      43.412  25.748  34.764  1.00  0.00    -0.205 F 
ATOM     85  C   UNL A   1      46.677  26.976  35.875  1.00  0.00     0.022 A 
BRANCH  83  86
ATOM     86  S   UNL A   1      45.432  24.729  36.842  1.00  0.00     0.127 S 
ATOM     87  O   UNL A   1      46.645  24.001  36.478  1.00  0.00    -0.237 OA
ATOM     88  O   UNL A   1      45.455  25.322  38.180  1.00  0.00    -0.237 OA
ATOM     89  O   UNL A   1      44.175  24.074  36.501  1.00  0.00    -0.744 OA
ENDBRANCH  83  86
ENDBRANCH  56  79
ENDBRANCH  30  31
ENDBRANCH  23  25
ENDBRANCH  22  23
ENDBRANCH  21  22
ENDBRANCH   1  21
TORSDOF 18
ENDMDL
MODEL 3
REMARK VINA RESULT:     -11.4      3.747     10.265
REMARK SMILES C[C@H](C(=O)OCCOC(=O)c1ccc(-c2c3nc(c(-c4cccc(S(=O)(=O)[O-])c4F)c4ccc([nH]4)c(-c4cccc(S(=O)(=O)[O-])c4F)c4nc(c(-c5cccc(S(=O)(=O)[O-])c5F)c5ccc2[nH]5)C=C4)C=C3)cc1)c1ccc(C[C@H]2CCC[C@@H]2O)cc1
REMARK SMILES IDX 6 1 5 2 3 3 4 4 2 5 1 6 74 7 75 8 86 9 76 10 85 11 77 12
REMARK SMILES IDX 78 13 79 14 80 15 83 16 81 17 82 18 84 19 7 21 8 22 9 23
REMARK SMILES IDX 10 24 11 25 12 26 73 27 13 28 72 29 14 30 15 31 16 32 66 33
REMARK SMILES IDX 17 34 71 35 65 36 67 37 18 38 70 39 64 40 63 41 19 43 51 44
REMARK SMILES IDX 31 45 50 46 32 47 35 48 49 49 68 50 33 51 34 52 48 54 69 55
REMARK SMILES IDX 36 56 20 57 21 58 29 59 22 60 24 61 30 62 23 63 25 64 26 65
REMARK SMILES IDX 27 66 28 67 52 68 53 69 61 70 54 71 56 72 62 73 55 74 57 75
REMARK SMILES IDX 58 76 59 77 60 78 37 79 38 80 46 81 39 82 41 83 47 84 40 85
REMARK SMILES IDX 42 86 43 87 44 88 45 89
REMARK H PARENT 84 20 67 42 35 53
REMARK Flexibility Score: inf
ROOT
ATOM      1  C   UNL A   1      42.637  19.599  26.301  1.00  0.00     0.274 C 
ENDROOT
BRANCH   1   2
ATOM      2  O   UNL A   1      43.115  20.425  25.219  1.00  0.00    -0.462 OA
BRANCH   2   3
ATOM      3  C   UNL A   1      44.428  20.777  25.254  1.00  0.00     0.313 C 
ATOM      4  O   UNL A   1      45.359  19.984  25.344  1.00  0.00    -0.252 OA
BRANCH   3   5
ATOM      5  C   UNL A   1      44.653  22.283  25.160  1.00  0.00     0.126 C 
ATOM      6  C   UNL A   1      43.401  22.955  24.596  1.00  0.00     0.025 C 
BRANCH   5   7
ATOM      7  C   UNL A   1      45.251  22.937  26.400  1.00  0.00    -0.034 A 
ATOM      8  C   UNL A   1      44.597  22.935  27.640  1.00  0.00     0.005 A 
ATOM      9  C   UNL A   1      46.420  23.701  26.269  1.00  0.00     0.005 A 
ATOM     10  C   UNL A   1      45.036  23.757  28.679  1.00  0.00     0.004 A 
ATOM     11  C   UNL A   1      46.872  24.503  27.314  1.00  0.00     0.004 A 
ATOM     12  C   UNL A   1      46.135  24.600  28.497  1.00  0.00    -0.048 A 
BRANCH  12  13
ATOM     13  C   UNL A   1      46.447  25.688  29.493  1.00  0.00     0.041 C 
BRANCH  13  14
ATOM     14  C   UNL A   1      45.587  25.643  30.773  1.00  0.00     0.022 C 
ATOM     15  C   UNL A   1      46.351  25.583  32.111  1.00  0.00     0.007 C 
ATOM     16  C   UNL A   1      44.605  26.807  30.955  1.00  0.00     0.117 C 
ATOM     17  C   UNL A   1      45.536  26.411  33.109  1.00  0.00     0.003 C 
ATOM     18  C   UNL A   1      44.211  26.688  32.420  1.00  0.00     0.032 C 
BRANCH  16  19
ATOM     19  O   UNL A   1      43.468  26.668  30.123  1.00  0.00    -0.393 OA
ATOM     20  H   UNL A   1      43.188  27.542  29.809  1.00  0.00     0.210 HD
ENDBRANCH  16  19
ENDBRANCH  13  14
ENDBRANCH  12  13
ENDBRANCH   5   7
ENDBRANCH   3   5
ENDBRANCH   2   3
ENDBRANCH   1   2
BRANCH   1  21
ATOM     21  C   UNL A   1      41.156  19.297  26.112  1.00  0.00     0.275 C 
BRANCH  21  22
ATOM     22  O   UNL A   1      40.410  20.167  26.974  1.00  0.00    -0.458 OA
BRANCH  22  23
ATOM     23  C   UNL A   1      39.558  21.019  26.360  1.00  0.00     0.338 C 
ATOM     24  O   UNL A   1      38.629  20.741  25.623  1.00  0.00    -0.246 OA
BRANCH  23  25
ATOM     25  C   UNL A   1      39.895  22.393  26.762  1.00  0.00     0.060 A 
ATOM     26  C   UNL A   1      39.246  23.465  26.151  1.00  0.00     0.016 A 
ATOM     27  C   UNL A   1      40.932  22.619  27.662  1.00  0.00     0.016 A 
ATOM     28  C   UNL A   1      39.704  24.764  26.351  1.00  0.00     0.010 A 
ATOM     29  C   UNL A   1      41.310  23.934  27.951  1.00  0.00     0.010 A 
ATOM     30  C   UNL A   1      40.732  25.021  27.267  1.00  0.00    -0.014 A 
BRANCH  30  31
ATOM     31  C   UNL A   1      41.229  26.406  27.502  1.00  0.00     0.031 A 
ATOM     32  C   UNL A   1      42.549  26.841  26.917  1.00  0.00     0.074 A 
ATOM     33  C   UNL A   1      40.527  27.267  28.266  1.00  0.00     0.049 A 
ATOM     34  N   UNL A   1      43.265  27.900  27.188  1.00  0.00    -0.248 NA
ATOM     35  C   UNL A   1      43.156  25.953  25.909  1.00  0.00     0.031 C 
ATOM     36  C   UNL A   1      39.228  26.993  28.883  1.00  0.00     0.029 A 
ATOM     37  N   UNL A   1      40.818  28.548  28.671  1.00  0.00    -0.354 N 
ATOM     38  C   UNL A   1      44.443  27.760  26.463  1.00  0.00     0.074 A 
ATOM     39  C   UNL A   1      44.337  26.525  25.720  1.00  0.00     0.031 C 
ATOM     40  C   UNL A   1      38.824  28.073  29.567  1.00  0.00     0.029 A 
ATOM     41  C   UNL A   1      39.871  29.087  29.511  1.00  0.00     0.049 A 
ATOM     42  H   UNL A   1      41.626  29.034  28.386  1.00  0.00     0.167 HD
ATOM     43  C   UNL A   1      45.513  28.589  26.416  1.00  0.00     0.034 A 
ATOM     44  C   UNL A   1      39.860  30.246  30.199  1.00  0.00     0.034 A 
ATOM     45  C   UNL A   1      45.572  29.867  27.074  1.00  0.00     0.049 A 
ATOM     46  C   UNL A   1      41.043  31.167  30.097  1.00  0.00     0.074 A 
ATOM     47  C   UNL A   1      46.590  30.804  27.043  1.00  0.00     0.029 A 
ATOM     48  N   UNL A   1      44.564  30.398  27.863  1.00  0.00    -0.354 N 
ATOM     49  N   UNL A   1      42.132  31.033  29.383  1.00  0.00    -0.248 NA
ATOM     50  C   UNL A   1      40.993  32.401  30.896  1.00  0.00     0.031 C 
ATOM     51  C   UNL A   1      46.195  31.905  27.811  1.00  0.00     0.029 A 
ATOM     52  C   UNL A   1      44.931  31.653  28.319  1.00  0.00     0.049 A 
ATOM     53  H   UNL A   1      43.712  29.949  28.069  1.00  0.00     0.167 HD
ATOM     54  C   UNL A   1      42.893  32.169  29.632  1.00  0.00     0.074 A 
ATOM     55  C   UNL A   1      42.124  32.997  30.540  1.00  0.00     0.031 C 
ATOM     56  C   UNL A   1      44.129  32.487  29.174  1.00  0.00     0.034 A 
BRANCH  43  57
ATOM     57  C   UNL A   1      46.701  28.160  25.599  1.00  0.00     0.023 A 
ATOM     58  C   UNL A   1      46.627  28.180  24.193  1.00  0.00     0.012 A 
ATOM     59  C   UNL A   1      47.911  27.799  26.224  1.00  0.00     0.148 A 
ATOM     60  C   UNL A   1      47.733  27.824  23.420  1.00  0.00     0.002 A 
ATOM     61  C   UNL A   1      49.020  27.480  25.447  1.00  0.00     0.091 A 
ATOM     62  F   UNL A   1      47.954  27.758  27.563  1.00  0.00    -0.205 F 
ATOM     63  C   UNL A   1      48.931  27.486  24.046  1.00  0.00     0.022 A 
BRANCH  61  64
ATOM     64  S   UNL A   1      50.622  27.103  26.169  1.00  0.00     0.127 S 
ATOM     65  O   UNL A   1      51.434  26.861  24.977  1.00  0.00    -0.237 OA
ATOM     66  O   UNL A   1      50.943  28.340  26.884  1.00  0.00    -0.237 OA
ATOM     67  O   UNL A   1      50.405  25.949  27.031  1.00  0.00    -0.744 OA
ENDBRANCH  61  64
ENDBRANCH  43  57
BRANCH  44  68
ATOM     68  C   UNL A   1      38.672  30.604  31.026  1.00  0.00     0.023 A 
ATOM     69  C   UNL A   1      38.682  30.318  32.404  1.00  0.00     0.012 A 
ATOM     70  C   UNL A   1      37.562  31.273  30.472  1.00  0.00     0.148 A 
ATOM     71  C   UNL A   1      37.606  30.683  33.214  1.00  0.00     0.002 A 
ATOM     72  C   UNL A   1      36.521  31.688  31.297  1.00  0.00     0.091 A 
ATOM     73  F   UNL A   1      37.552  31.510  29.153  1.00  0.00    -0.205 F 
ATOM     74  C   UNL A   1      36.534  31.382  32.664  1.00  0.00     0.022 A 
BRANCH  72  75
ATOM     75  S   UNL A   1      35.191  32.729  30.682  1.00  0.00     0.127 S 
ATOM     76  O   UNL A   1      34.747  31.986  29.506  1.00  0.00    -0.237 OA
ATOM     77  O   UNL A   1      34.250  32.728  31.803  1.00  0.00    -0.237 OA
ATOM     78  O   UNL A   1      35.809  34.024  30.429  1.00  0.00    -0.744 OA
ENDBRANCH  72  75
ENDBRANCH  44  68
BRANCH  56  79
ATOM     79  C   UNL A   1      44.723  33.790  29.631  1.00  0.00     0.023 A 
ATOM     80  C   UNL A   1      45.553  33.807  30.769  1.00  0.00     0.012 A 
ATOM     81  C   UNL A   1      44.519  34.976  28.901  1.00  0.00     0.148 A 
ATOM     82  C   UNL A   1      46.155  34.994  31.186  1.00  0.00     0.002 A 
ATOM     83  C   UNL A   1      45.154  36.146  29.301  1.00  0.00     0.091 A 
ATOM     84  F   UNL A   1      43.706  34.942  27.836  1.00  0.00    -0.205 F 
ATOM     85  C   UNL A   1      45.966  36.159  30.446  1.00  0.00     0.022 A 
BRANCH  83  86
ATOM     86  S   UNL A   1      45.024  37.668  28.355  1.00  0.00     0.127 S 
ATOM     87  O   UNL A   1      45.745  37.324  27.132  1.00  0.00    -0.237 OA
ATOM     88  O   UNL A   1      43.577  37.816  28.190  1.00  0.00    -0.237 OA
ATOM     89  O   UNL A   1      45.640  38.698  29.182  1.00  0.00    -0.744 OA
ENDBRANCH  83  86
ENDBRANCH  56  79
ENDBRANCH  30  31
ENDBRANCH  23  25
ENDBRANCH  22  23
ENDBRANCH  21  22
ENDBRANCH   1  21
TORSDOF 18
ENDMDL
