MODEL 1
REMARK VINA RESULT:     -12.0      0.000      0.000
REMARK SMILES CC1=C(C(=O)OCCOC(=O)c2ccc(-c3c4nc(c(-c5cccc(S(=O)(=O)[O-])c5F)c5ccc([nH]5)c(-c5cccc(S(=O)(=O)[O-])c5F)c5nc(c(-c6cccc(S(=O)(=O)[O-])c6F)c6ccc3[nH]6)C=C5)C=C4)cc2)N2C(=O)[C@H](NC(=O)c3cc(C(F)(F)F)nn3C)[C@@H]2SC1
REMARK SMILES IDX 7 1 6 2 4 3 5 4 3 5 1 6 2 7 94 8 75 9 93 10 76 11 92 12
REMARK SMILES IDX 77 13 78 14 79 15 80 16 81 18 82 19 83 20 90 21 84 22 89 23
REMARK SMILES IDX 91 24 85 25 86 26 87 27 88 28 8 29 9 30 10 31 11 32 12 33
REMARK SMILES IDX 13 34 74 35 14 36 73 37 15 38 16 39 17 40 67 41 18 42 72 43
REMARK SMILES IDX 66 44 68 45 19 46 71 47 65 48 64 49 20 51 52 52 32 53 51 54
REMARK SMILES IDX 33 55 36 56 50 57 69 58 34 59 35 60 49 62 70 63 37 64 21 65
REMARK SMILES IDX 22 66 30 67 23 68 25 69 31 70 24 71 26 72 27 73 28 74 29 75
REMARK SMILES IDX 53 76 54 77 62 78 55 79 57 80 63 81 56 82 58 83 59 84 60 85
REMARK SMILES IDX 61 86 38 87 39 88 47 89 40 90 42 91 48 92 41 93 43 94 44 95
REMARK SMILES IDX 45 96 46 97
REMARK H PARENT 79 17 68 50 36 61
REMARK Flexibility Score: inf
ROOT
ATOM      1  C   UNL A   1      32.544  30.759  26.879  1.00  0.00     0.275 C 
ENDROOT
BRANCH   1   2
ATOM      2  O   UNL A   1      32.054  29.985  25.763  1.00  0.00    -0.457 OA
BRANCH   2   3
ATOM      3  C   UNL A   1      31.633  28.717  26.022  1.00  0.00     0.355 C 
ATOM      4  O   UNL A   1      31.401  28.264  27.129  1.00  0.00    -0.244 OA
BRANCH   3   5
ATOM      5  C   UNL A   1      31.437  27.957  24.731  1.00  0.00     0.131 C 
ATOM      6  C   UNL A   1      29.897  29.724  23.801  1.00  0.00     0.043 C 
ATOM      7  C   UNL A   1      30.657  28.420  23.720  1.00  0.00    -0.032 C 
ATOM      8  C   UNL A   1      30.513  27.733  22.369  1.00  0.00     0.105 C 
ATOM      9  N   UNL A   1      32.094  26.773  24.576  1.00  0.00    -0.289 N 
ATOM     10  S   UNL A   1      31.780  26.475  22.001  1.00  0.00    -0.129 SA
ATOM     11  C   UNL A   1      33.110  26.080  25.129  1.00  0.00     0.253 C 
ATOM     12  C   UNL A   1      31.664  25.748  23.646  1.00  0.00     0.181 C 
ATOM     13  O   UNL A   1      33.902  26.316  26.006  1.00  0.00    -0.272 OA
ATOM     14  C   UNL A   1      32.824  24.872  24.181  1.00  0.00     0.206 C 
BRANCH  14  15
ATOM     15  N   UNL A   1      33.935  24.484  23.283  1.00  0.00    -0.336 N 
ATOM     16  C   UNL A   1      34.761  23.390  23.405  1.00  0.00     0.270 C 
ATOM     17  H   UNL A   1      34.101  25.074  22.513  1.00  0.00     0.164 HD
ATOM     18  O   UNL A   1      35.827  23.396  22.794  1.00  0.00    -0.268 OA
BRANCH  16  19
ATOM     19  C   UNL A   1      34.329  22.279  24.218  1.00  0.00     0.126 A 
ATOM     20  C   UNL A   1      33.703  21.100  23.847  1.00  0.00     0.069 A 
ATOM     21  N   UNL A   1      34.558  22.140  25.565  1.00  0.00    -0.262 N 
ATOM     22  C   UNL A   1      33.599  20.310  25.022  1.00  0.00     0.167 A 
ATOM     23  N   UNL A   1      34.131  20.965  26.065  1.00  0.00    -0.168 NA
ATOM     24  C   UNL A   1      35.155  23.087  26.482  1.00  0.00     0.174 C 
BRANCH  22  25
ATOM     25  C   UNL A   1      33.019  18.923  25.132  1.00  0.00     0.435 C 
ATOM     26  F   UNL A   1      33.908  17.950  24.801  1.00  0.00    -0.164 F 
ATOM     27  F   UNL A   1      32.527  18.634  26.362  1.00  0.00    -0.164 F 
ATOM     28  F   UNL A   1      31.968  18.774  24.267  1.00  0.00    -0.164 F 
ENDBRANCH  22  25
ENDBRANCH  16  19
ENDBRANCH  14  15
ENDBRANCH   3   5
ENDBRANCH   2   3
ENDBRANCH   1   2
BRANCH   1  29
ATOM     29  C   UNL A   1      31.924  32.159  26.863  1.00  0.00     0.275 C 
BRANCH  29  30
ATOM     30  O   UNL A   1      32.948  33.162  26.716  1.00  0.00    -0.458 OA
BRANCH  30  31
ATOM     31  C   UNL A   1      33.360  33.731  27.871  1.00  0.00     0.338 C 
ATOM     32  O   UNL A   1      32.760  34.548  28.553  1.00  0.00    -0.246 OA
BRANCH  31  33
ATOM     33  C   UNL A   1      34.568  33.040  28.342  1.00  0.00     0.060 A 
ATOM     34  C   UNL A   1      34.358  31.885  29.090  1.00  0.00     0.016 A 
ATOM     35  C   UNL A   1      35.859  33.519  28.137  1.00  0.00     0.016 A 
ATOM     36  C   UNL A   1      35.428  31.206  29.659  1.00  0.00     0.010 A 
ATOM     37  C   UNL A   1      36.941  32.829  28.703  1.00  0.00     0.010 A 
ATOM     38  C   UNL A   1      36.731  31.675  29.484  1.00  0.00    -0.014 A 
BRANCH  38  39
ATOM     39  C   UNL A   1      37.841  30.984  30.190  1.00  0.00     0.031 A 
ATOM     40  C   UNL A   1      38.106  31.287  31.638  1.00  0.00     0.074 A 
ATOM     41  C   UNL A   1      38.573  30.044  29.561  1.00  0.00     0.049 A 
ATOM     42  N   UNL A   1      39.079  30.872  32.407  1.00  0.00    -0.248 NA
ATOM     43  C   UNL A   1      37.145  32.176  32.313  1.00  0.00     0.031 C 
ATOM     44  C   UNL A   1      38.381  29.604  28.177  1.00  0.00     0.029 A 
ATOM     45  N   UNL A   1      39.639  29.296  30.001  1.00  0.00    -0.354 N 
ATOM     46  C   UNL A   1      38.876  31.479  33.640  1.00  0.00     0.074 A 
ATOM     47  C   UNL A   1      37.687  32.296  33.516  1.00  0.00     0.031 C 
ATOM     48  C   UNL A   1      39.309  28.683  27.877  1.00  0.00     0.029 A 
ATOM     49  C   UNL A   1      40.197  28.508  29.022  1.00  0.00     0.049 A 
ATOM     50  H   UNL A   1      39.971  29.324  30.927  1.00  0.00     0.167 HD
ATOM     51  C   UNL A   1      39.606  31.363  34.774  1.00  0.00     0.034 A 
ATOM     52  C   UNL A   1      41.321  27.765  29.030  1.00  0.00     0.034 A 
ATOM     53  C   UNL A   1      40.764  30.520  34.909  1.00  0.00     0.049 A 
ATOM     54  C   UNL A   1      42.151  27.700  30.284  1.00  0.00     0.074 A 
ATOM     55  C   UNL A   1      41.566  30.332  36.022  1.00  0.00     0.029 A 
ATOM     56  N   UNL A   1      41.281  29.718  33.904  1.00  0.00    -0.354 N 
ATOM     57  N   UNL A   1      41.923  28.245  31.454  1.00  0.00    -0.248 NA
ATOM     58  C   UNL A   1      43.383  26.899  30.227  1.00  0.00     0.031 C 
ATOM     59  C   UNL A   1      42.588  29.443  35.677  1.00  0.00     0.029 A 
ATOM     60  C   UNL A   1      42.404  29.051  34.360  1.00  0.00     0.049 A 
ATOM     61  H   UNL A   1      40.905  29.637  32.998  1.00  0.00     0.167 HD
ATOM     62  C   UNL A   1      42.962  27.829  32.279  1.00  0.00     0.074 A 
ATOM     63  C   UNL A   1      43.809  26.967  31.481  1.00  0.00     0.031 C 
ATOM     64  C   UNL A   1      43.204  28.146  33.576  1.00  0.00     0.034 A 
BRANCH  51  65
ATOM     65  C   UNL A   1      39.177  32.179  35.965  1.00  0.00     0.023 A 
ATOM     66  C   UNL A   1      38.302  31.624  36.919  1.00  0.00     0.012 A 
ATOM     67  C   UNL A   1      39.678  33.481  36.158  1.00  0.00     0.148 A 
ATOM     68  C   UNL A   1      37.906  32.366  38.032  1.00  0.00     0.002 A 
ATOM     69  C   UNL A   1      39.313  34.198  37.291  1.00  0.00     0.091 A 
ATOM     70  F   UNL A   1      40.491  33.999  35.227  1.00  0.00    -0.205 F 
ATOM     71  C   UNL A   1      38.419  33.647  38.223  1.00  0.00     0.022 A 
BRANCH  69  72
ATOM     72  S   UNL A   1      39.975  35.827  37.660  1.00  0.00     0.127 S 
ATOM     73  O   UNL A   1      41.397  35.535  37.838  1.00  0.00    -0.237 OA
ATOM     74  O   UNL A   1      39.655  36.573  36.442  1.00  0.00    -0.237 OA
ATOM     75  O   UNL A   1      39.277  36.284  38.852  1.00  0.00    -0.744 OA
ENDBRANCH  69  72
ENDBRANCH  51  65
BRANCH  52  76
ATOM     76  C   UNL A   1      41.736  27.022  27.805  1.00  0.00     0.023 A 
ATOM     77  C   UNL A   1      42.296  27.723  26.720  1.00  0.00     0.012 A 
ATOM     78  C   UNL A   1      41.582  25.624  27.714  1.00  0.00     0.148 A 
ATOM     79  C   UNL A   1      42.669  27.050  25.556  1.00  0.00     0.002 A 
ATOM     80  C   UNL A   1      42.006  24.952  26.573  1.00  0.00     0.091 A 
ATOM     81  F   UNL A   1      41.025  24.977  28.747  1.00  0.00    -0.205 F 
ATOM     82  C   UNL A   1      42.535  25.665  25.487  1.00  0.00     0.022 A 
BRANCH  80  83
ATOM     83  S   UNL A   1      41.979  23.161  26.443  1.00  0.00     0.127 S 
ATOM     84  O   UNL A   1      40.545  22.881  26.477  1.00  0.00    -0.237 OA
ATOM     85  O   UNL A   1      42.618  22.943  25.145  1.00  0.00    -0.237 OA
ATOM     86  O   UNL A   1      42.746  22.672  27.581  1.00  0.00    -0.744 OA
ENDBRANCH  80  83
ENDBRANCH  52  76
BRANCH  64  87
ATOM     87  C   UNL A   1      44.409  27.527  34.238  1.00  0.00     0.023 A 
ATOM     88  C   UNL A   1      45.655  28.182  34.181  1.00  0.00     0.012 A 
ATOM     89  C   UNL A   1      44.286  26.336  34.980  1.00  0.00     0.148 A 
ATOM     90  C   UNL A   1      46.768  27.645  34.828  1.00  0.00     0.002 A 
ATOM     91  C   UNL A   1      45.387  25.833  35.664  1.00  0.00     0.091 A 
ATOM     92  F   UNL A   1      43.097  25.717  35.007  1.00  0.00    -0.205 F 
ATOM     93  C   UNL A   1      46.631  26.480  35.578  1.00  0.00     0.022 A 
BRANCH  91  94
ATOM     94  S   UNL A   1      45.285  24.392  36.732  1.00  0.00     0.127 S 
ATOM     95  O   UNL A   1      44.275  24.812  37.703  1.00  0.00    -0.237 OA
ATOM     96  O   UNL A   1      44.841  23.350  35.806  1.00  0.00    -0.237 OA
ATOM     97  O   UNL A   1      46.624  24.192  37.269  1.00  0.00    -0.744 OA
ENDBRANCH  91  94
ENDBRANCH  64  87
ENDBRANCH  38  39
ENDBRANCH  31  33
ENDBRANCH  30  31
ENDBRANCH  29  30
ENDBRANCH   1  29
TORSDOF 17
ENDMDL
MODEL 2
REMARK VINA RESULT:     -11.5      1.802      7.712
REMARK SMILES CC1=C(C(=O)OCCOC(=O)c2ccc(-c3c4nc(c(-c5cccc(S(=O)(=O)[O-])c5F)c5ccc([nH]5)c(-c5cccc(S(=O)(=O)[O-])c5F)c5nc(c(-c6cccc(S(=O)(=O)[O-])c6F)c6ccc3[nH]6)C=C5)C=C4)cc2)N2C(=O)[C@H](NC(=O)c3cc(C(F)(F)F)nn3C)[C@@H]2SC1
REMARK SMILES IDX 7 1 6 2 4 3 5 4 3 5 1 6 2 7 94 8 75 9 93 10 76 11 92 12
REMARK SMILES IDX 77 13 78 14 79 15 80 16 81 18 82 19 83 20 90 21 84 22 89 23
REMARK SMILES IDX 91 24 85 25 86 26 87 27 88 28 8 29 9 30 10 31 11 32 12 33
REMARK SMILES IDX 13 34 74 35 14 36 73 37 15 38 16 39 17 40 67 41 18 42 72 43
REMARK SMILES IDX 66 44 68 45 19 46 71 47 65 48 64 49 20 51 52 52 32 53 51 54
REMARK SMILES IDX 33 55 36 56 50 57 69 58 34 59 35 60 49 62 70 63 37 64 21 65
REMARK SMILES IDX 22 66 30 67 23 68 25 69 31 70 24 71 26 72 27 73 28 74 29 75
REMARK SMILES IDX 53 76 54 77 62 78 55 79 57 80 63 81 56 82 58 83 59 84 60 85
REMARK SMILES IDX 61 86 38 87 39 88 47 89 40 90 42 91 48 92 41 93 43 94 44 95
REMARK SMILES IDX 45 96 46 97
REMARK H PARENT 79 17 68 50 36 61
REMARK Flexibility Score: inf
ROOT
ATOM      1  C   UNL A   1      31.401  29.035  25.526  1.00  0.00     0.275 C 
ENDROOT
BRANCH   1   2
ATOM      2  O   UNL A   1      30.978  28.996  24.146  1.00  0.00    -0.457 OA
BRANCH   2   3
ATOM      3  C   UNL A   1      30.658  27.779  23.628  1.00  0.00     0.355 C 
ATOM      4  O   UNL A   1      29.595  27.494  23.103  1.00  0.00    -0.244 OA
BRANCH   3   5
ATOM      5  C   UNL A   1      31.833  26.836  23.742  1.00  0.00     0.131 C 
ATOM      6  C   UNL A   1      33.230  28.217  22.161  1.00  0.00     0.043 C 
ATOM      7  C   UNL A   1      33.003  27.042  23.083  1.00  0.00    -0.032 C 
ATOM      8  C   UNL A   1      34.240  26.169  23.247  1.00  0.00     0.105 C 
ATOM      9  N   UNL A   1      31.711  25.752  24.560  1.00  0.00    -0.289 N 
ATOM     10  S   UNL A   1      34.228  25.076  24.707  1.00  0.00    -0.129 SA
ATOM     11  C   UNL A   1      30.920  25.297  25.553  1.00  0.00     0.253 C 
ATOM     12  C   UNL A   1      32.525  24.563  24.420  1.00  0.00     0.181 C 
ATOM     13  O   UNL A   1      29.985  25.761  26.156  1.00  0.00    -0.272 OA
ATOM     14  C   UNL A   1      31.704  23.946  25.579  1.00  0.00     0.206 C 
BRANCH  14  15
ATOM     15  N   UNL A   1      32.366  23.614  26.861  1.00  0.00    -0.336 N 
ATOM     16  C   UNL A   1      32.891  22.398  27.236  1.00  0.00     0.270 C 
ATOM     17  H   UNL A   1      32.439  24.344  27.517  1.00  0.00     0.164 HD
ATOM     18  O   UNL A   1      33.089  22.195  28.432  1.00  0.00    -0.268 OA
BRANCH  16  19
ATOM     19  C   UNL A   1      33.210  21.432  26.213  1.00  0.00     0.126 A 
ATOM     20  C   UNL A   1      32.381  20.547  25.541  1.00  0.00     0.069 A 
ATOM     21  N   UNL A   1      34.439  21.273  25.620  1.00  0.00    -0.262 N 
ATOM     22  C   UNL A   1      33.185  19.903  24.563  1.00  0.00     0.167 A 
ATOM     23  N   UNL A   1      34.443  20.364  24.626  1.00  0.00    -0.168 NA
ATOM     24  C   UNL A   1      35.690  21.923  25.947  1.00  0.00     0.174 C 
BRANCH  22  25
ATOM     25  C   UNL A   1      32.736  18.876  23.556  1.00  0.00     0.435 C 
ATOM     26  F   UNL A   1      32.162  19.428  22.456  1.00  0.00    -0.164 F 
ATOM     27  F   UNL A   1      33.729  18.054  23.136  1.00  0.00    -0.164 F 
ATOM     28  F   UNL A   1      31.782  18.058  24.100  1.00  0.00    -0.164 F 
ENDBRANCH  22  25
ENDBRANCH  16  19
ENDBRANCH  14  15
ENDBRANCH   3   5
ENDBRANCH   2   3
ENDBRANCH   1   2
BRANCH   1  29
ATOM     29  C   UNL A   1      31.819  30.459  25.908  1.00  0.00     0.275 C 
BRANCH  29  30
ATOM     30  O   UNL A   1      33.203  30.487  26.309  1.00  0.00    -0.458 OA
BRANCH  30  31
ATOM     31  C   UNL A   1      33.549  31.531  27.094  1.00  0.00     0.338 C 
ATOM     32  O   UNL A   1      32.922  32.564  27.277  1.00  0.00    -0.246 OA
BRANCH  31  33
ATOM     33  C   UNL A   1      34.708  31.153  27.912  1.00  0.00     0.060 A 
ATOM     34  C   UNL A   1      35.692  32.126  28.066  1.00  0.00     0.016 A 
ATOM     35  C   UNL A   1      34.884  29.883  28.457  1.00  0.00     0.016 A 
ATOM     36  C   UNL A   1      36.869  31.841  28.745  1.00  0.00     0.010 A 
ATOM     37  C   UNL A   1      36.070  29.598  29.152  1.00  0.00     0.010 A 
ATOM     38  C   UNL A   1      37.080  30.571  29.286  1.00  0.00    -0.014 A 
BRANCH  38  39
ATOM     39  C   UNL A   1      38.391  30.270  29.916  1.00  0.00     0.031 A 
ATOM     40  C   UNL A   1      39.321  29.284  29.266  1.00  0.00     0.074 A 
ATOM     41  C   UNL A   1      38.780  30.918  31.032  1.00  0.00     0.049 A 
ATOM     42  N   UNL A   1      40.460  28.810  29.700  1.00  0.00    -0.248 NA
ATOM     43  C   UNL A   1      38.916  28.764  27.949  1.00  0.00     0.031 C 
ATOM     44  C   UNL A   1      38.004  31.947  31.729  1.00  0.00     0.029 A 
ATOM     45  N   UNL A   1      39.923  30.796  31.785  1.00  0.00    -0.354 N 
ATOM     46  C   UNL A   1      40.887  27.906  28.736  1.00  0.00     0.074 A 
ATOM     47  C   UNL A   1      39.882  27.895  27.694  1.00  0.00     0.031 C 
ATOM     48  C   UNL A   1      38.683  32.345  32.817  1.00  0.00     0.029 A 
ATOM     49  C   UNL A   1      39.910  31.562  32.928  1.00  0.00     0.049 A 
ATOM     50  H   UNL A   1      40.677  30.217  31.531  1.00  0.00     0.167 HD
ATOM     51  C   UNL A   1      42.015  27.157  28.714  1.00  0.00     0.034 A 
ATOM     52  C   UNL A   1      40.765  31.597  33.969  1.00  0.00     0.034 A 
ATOM     53  C   UNL A   1      43.033  27.198  29.730  1.00  0.00     0.049 A 
ATOM     54  C   UNL A   1      41.982  30.710  33.952  1.00  0.00     0.074 A 
ATOM     55  C   UNL A   1      44.215  26.480  29.792  1.00  0.00     0.029 A 
ATOM     56  N   UNL A   1      42.996  28.004  30.856  1.00  0.00    -0.354 N 
ATOM     57  N   UNL A   1      42.394  29.892  33.014  1.00  0.00    -0.248 NA
ATOM     58  C   UNL A   1      42.864  30.767  35.127  1.00  0.00     0.031 C 
ATOM     59  C   UNL A   1      44.876  26.828  30.974  1.00  0.00     0.029 A 
ATOM     60  C   UNL A   1      44.121  27.787  31.632  1.00  0.00     0.049 A 
ATOM     61  H   UNL A   1      42.274  28.637  31.073  1.00  0.00     0.167 HD
ATOM     62  C   UNL A   1      43.596  29.363  33.470  1.00  0.00     0.074 A 
ATOM     63  C   UNL A   1      43.857  29.970  34.759  1.00  0.00     0.031 C 
ATOM     64  C   UNL A   1      44.403  28.443  32.884  1.00  0.00     0.034 A 
BRANCH  51  65
ATOM     65  C   UNL A   1      42.206  26.218  27.553  1.00  0.00     0.023 A 
ATOM     66  C   UNL A   1      42.864  26.662  26.389  1.00  0.00     0.012 A 
ATOM     67  C   UNL A   1      41.770  24.881  27.635  1.00  0.00     0.148 A 
ATOM     68  C   UNL A   1      43.056  25.798  25.311  1.00  0.00     0.002 A 
ATOM     69  C   UNL A   1      42.003  24.014  26.574  1.00  0.00     0.091 A 
ATOM     70  F   UNL A   1      41.126  24.484  28.740  1.00  0.00    -0.205 F 
ATOM     71  C   UNL A   1      42.636  24.474  25.407  1.00  0.00     0.022 A 
BRANCH  69  72
ATOM     72  S   UNL A   1      41.561  22.274  26.631  1.00  0.00     0.127 S 
ATOM     73  O   UNL A   1      42.269  21.829  27.831  1.00  0.00    -0.237 OA
ATOM     74  O   UNL A   1      40.105  22.330  26.768  1.00  0.00    -0.237 OA
ATOM     75  O   UNL A   1      42.031  21.699  25.379  1.00  0.00    -0.744 OA
ENDBRANCH  69  72
ENDBRANCH  51  65
BRANCH  52  76
ATOM     76  C   UNL A   1      40.501  32.502  35.124  1.00  0.00     0.023 A 
ATOM     77  C   UNL A   1      41.280  33.663  35.294  1.00  0.00     0.012 A 
ATOM     78  C   UNL A   1      39.478  32.220  36.052  1.00  0.00     0.148 A 
ATOM     79  C   UNL A   1      41.065  34.510  36.381  1.00  0.00     0.002 A 
ATOM     80  C   UNL A   1      39.232  33.097  37.101  1.00  0.00     0.091 A 
ATOM     81  F   UNL A   1      38.763  31.099  35.887  1.00  0.00    -0.205 F 
ATOM     82  C   UNL A   1      40.034  34.235  37.277  1.00  0.00     0.022 A 
BRANCH  80  83
ATOM     83  S   UNL A   1      37.855  32.883  38.234  1.00  0.00     0.127 S 
ATOM     84  O   UNL A   1      38.148  31.576  38.817  1.00  0.00    -0.237 OA
ATOM     85  O   UNL A   1      38.032  34.016  39.143  1.00  0.00    -0.237 OA
ATOM     86  O   UNL A   1      36.654  32.954  37.412  1.00  0.00    -0.744 OA
ENDBRANCH  80  83
ENDBRANCH  52  76
BRANCH  64  87
ATOM     87  C   UNL A   1      45.671  28.061  33.602  1.00  0.00     0.023 A 
ATOM     88  C   UNL A   1      46.849  28.804  33.388  1.00  0.00     0.012 A 
ATOM     89  C   UNL A   1      45.674  27.015  34.546  1.00  0.00     0.148 A 
ATOM     90  C   UNL A   1      48.019  28.491  34.080  1.00  0.00     0.002 A 
ATOM     91  C   UNL A   1      46.830  26.741  35.268  1.00  0.00     0.091 A 
ATOM     92  F   UNL A   1      44.548  26.307  34.721  1.00  0.00    -0.205 F 
ATOM     93  C   UNL A   1      48.006  27.470  35.027  1.00  0.00     0.022 A 
BRANCH  91  94
ATOM     94  S   UNL A   1      46.882  25.510  36.576  1.00  0.00     0.127 S 
ATOM     95  O   UNL A   1      48.174  24.871  36.332  1.00  0.00    -0.237 OA
ATOM     96  O   UNL A   1      46.830  26.337  37.783  1.00  0.00    -0.237 OA
ATOM     97  O   UNL A   1      45.716  24.660  36.375  1.00  0.00    -0.744 OA
ENDBRANCH  91  94
ENDBRANCH  64  87
ENDBRANCH  38  39
ENDBRANCH  31  33
ENDBRANCH  30  31
ENDBRANCH  29  30
ENDBRANCH   1  29
TORSDOF 17
ENDMDL
MODEL 3
REMARK VINA RESULT:     -11.4      3.385      5.378
REMARK SMILES CC1=C(C(=O)OCCOC(=O)c2ccc(-c3c4nc(c(-c5cccc(S(=O)(=O)[O-])c5F)c5ccc([nH]5)c(-c5cccc(S(=O)(=O)[O-])c5F)c5nc(c(-c6cccc(S(=O)(=O)[O-])c6F)c6ccc3[nH]6)C=C5)C=C4)cc2)N2C(=O)[C@H](NC(=O)c3cc(C(F)(F)F)nn3C)[C@@H]2SC1
REMARK SMILES IDX 7 1 6 2 4 3 5 4 3 5 1 6 2 7 94 8 75 9 93 10 76 11 92 12
REMARK SMILES IDX 77 13 78 14 79 15 80 16 81 18 82 19 83 20 90 21 84 22 89 23
REMARK SMILES IDX 91 24 85 25 86 26 87 27 88 28 8 29 9 30 10 31 11 32 12 33
REMARK SMILES IDX 13 34 74 35 14 36 73 37 15 38 16 39 17 40 67 41 18 42 72 43
REMARK SMILES IDX 66 44 68 45 19 46 71 47 65 48 64 49 20 51 52 52 32 53 51 54
REMARK SMILES IDX 33 55 36 56 50 57 69 58 34 59 35 60 49 62 70 63 37 64 21 65
REMARK SMILES IDX 22 66 30 67 23 68 25 69 31 70 24 71 26 72 27 73 28 74 29 75
REMARK SMILES IDX 53 76 54 77 62 78 55 79 57 80 63 81 56 82 58 83 59 84 60 85
REMARK SMILES IDX 61 86 38 87 39 88 47 89 40 90 42 91 48 92 41 93 43 94 44 95
REMARK SMILES IDX 45 96 46 97
REMARK H PARENT 79 17 68 50 36 61
REMARK Flexibility Score: inf
ROOT
ATOM      1  C   UNL A   1      34.059  36.014  29.277  1.00  0.00     0.275 C 
ENDROOT
BRANCH   1   2
ATOM      2  O   UNL A   1      34.375  34.615  29.114  1.00  0.00    -0.457 OA
BRANCH   2   3
ATOM      3  C   UNL A   1      34.858  34.223  27.903  1.00  0.00     0.355 C 
ATOM      4  O   UNL A   1      34.905  34.920  26.904  1.00  0.00    -0.244 OA
BRANCH   3   5
ATOM      5  C   UNL A   1      35.385  32.810  27.982  1.00  0.00     0.131 C 
ATOM      6  C   UNL A   1      37.626  33.581  28.841  1.00  0.00     0.043 C 
ATOM      7  C   UNL A   1      36.638  32.519  28.418  1.00  0.00    -0.032 C 
ATOM      8  C   UNL A   1      37.171  31.105  28.604  1.00  0.00     0.105 C 
ATOM      9  N   UNL A   1      34.552  31.792  27.623  1.00  0.00    -0.289 N 
ATOM     10  S   UNL A   1      35.901  29.796  28.630  1.00  0.00    -0.129 SA
ATOM     11  C   UNL A   1      33.241  31.565  27.403  1.00  0.00     0.253 C 
ATOM     12  C   UNL A   1      35.031  30.488  27.212  1.00  0.00     0.181 C 
ATOM     13  O   UNL A   1      32.247  32.237  27.509  1.00  0.00    -0.272 OA
ATOM     14  C   UNL A   1      33.554  30.101  26.954  1.00  0.00     0.206 C 
BRANCH  14  15
ATOM     15  N   UNL A   1      32.917  29.034  27.759  1.00  0.00    -0.336 N 
ATOM     16  C   UNL A   1      31.980  28.118  27.335  1.00  0.00     0.270 C 
ATOM     17  H   UNL A   1      33.194  28.972  28.701  1.00  0.00     0.164 HD
ATOM     18  O   UNL A   1      31.310  27.538  28.185  1.00  0.00    -0.268 OA
BRANCH  16  19
ATOM     19  C   UNL A   1      31.847  27.863  25.921  1.00  0.00     0.126 A 
ATOM     20  C   UNL A   1      30.931  28.366  25.012  1.00  0.00     0.069 A 
ATOM     21  N   UNL A   1      32.710  27.110  25.162  1.00  0.00    -0.262 N 
ATOM     22  C   UNL A   1      31.315  27.875  23.736  1.00  0.00     0.167 A 
ATOM     23  N   UNL A   1      32.409  27.108  23.849  1.00  0.00    -0.168 NA
ATOM     24  C   UNL A   1      33.844  26.323  25.596  1.00  0.00     0.174 C 
BRANCH  22  25
ATOM     25  C   UNL A   1      30.649  28.168  22.416  1.00  0.00     0.435 C 
ATOM     26  F   UNL A   1      29.293  28.200  22.502  1.00  0.00    -0.164 F 
ATOM     27  F   UNL A   1      31.055  29.330  21.847  1.00  0.00    -0.164 F 
ATOM     28  F   UNL A   1      30.939  27.188  21.505  1.00  0.00    -0.164 F 
ENDBRANCH  22  25
ENDBRANCH  16  19
ENDBRANCH  14  15
ENDBRANCH   3   5
ENDBRANCH   2   3
ENDBRANCH   1   2
BRANCH   1  29
ATOM     29  C   UNL A   1      32.681  36.170  29.929  1.00  0.00     0.275 C 
BRANCH  29  30
ATOM     30  O   UNL A   1      32.579  35.332  31.097  1.00  0.00    -0.458 OA
BRANCH  30  31
ATOM     31  C   UNL A   1      32.995  35.905  32.248  1.00  0.00     0.338 C 
ATOM     32  O   UNL A   1      32.475  36.834  32.847  1.00  0.00    -0.246 OA
BRANCH  31  33
ATOM     33  C   UNL A   1      34.062  35.082  32.834  1.00  0.00     0.060 A 
ATOM     34  C   UNL A   1      35.359  35.566  32.684  1.00  0.00     0.016 A 
ATOM     35  C   UNL A   1      33.838  33.852  33.446  1.00  0.00     0.016 A 
ATOM     36  C   UNL A   1      36.446  34.822  33.121  1.00  0.00     0.010 A 
ATOM     37  C   UNL A   1      34.936  33.104  33.897  1.00  0.00     0.010 A 
ATOM     38  C   UNL A   1      36.252  33.576  33.721  1.00  0.00    -0.014 A 
BRANCH  38  39
ATOM     39  C   UNL A   1      37.440  32.763  34.084  1.00  0.00     0.031 A 
ATOM     40  C   UNL A   1      38.210  33.084  35.335  1.00  0.00     0.074 A 
ATOM     41  C   UNL A   1      37.799  31.701  33.335  1.00  0.00     0.049 A 
ATOM     42  N   UNL A   1      39.325  32.565  35.778  1.00  0.00    -0.248 NA
ATOM     43  C   UNL A   1      37.646  34.130  36.206  1.00  0.00     0.031 C 
ATOM     44  C   UNL A   1      37.102  31.237  32.134  1.00  0.00     0.029 A 
ATOM     45  N   UNL A   1      38.851  30.827  33.468  1.00  0.00    -0.354 N 
ATOM     46  C   UNL A   1      39.622  33.245  36.952  1.00  0.00     0.074 A 
ATOM     47  C   UNL A   1      38.569  34.220  37.151  1.00  0.00     0.031 C 
ATOM     48  C   UNL A   1      37.756  30.179  31.628  1.00  0.00     0.029 A 
ATOM     49  C   UNL A   1      38.948  29.926  32.433  1.00  0.00     0.049 A 
ATOM     50  H   UNL A   1      39.474  30.844  34.229  1.00  0.00     0.167 HD
ATOM     51  C   UNL A   1      40.670  33.073  37.791  1.00  0.00     0.034 A 
ATOM     52  C   UNL A   1      39.910  29.029  32.139  1.00  0.00     0.034 A 
ATOM     53  C   UNL A   1      41.694  32.078  37.615  1.00  0.00     0.049 A 
ATOM     54  C   UNL A   1      41.098  28.897  33.055  1.00  0.00     0.074 A 
ATOM     55  C   UNL A   1      42.792  31.823  38.417  1.00  0.00     0.029 A 
ATOM     56  N   UNL A   1      41.742  31.169  36.570  1.00  0.00    -0.354 N 
ATOM     57  N   UNL A   1      41.342  29.518  34.183  1.00  0.00    -0.248 NA
ATOM     58  C   UNL A   1      42.131  27.926  32.669  1.00  0.00     0.031 C 
ATOM     59  C   UNL A   1      43.523  30.781  37.837  1.00  0.00     0.029 A 
ATOM     60  C   UNL A   1      42.863  30.366  36.692  1.00  0.00     0.049 A 
ATOM     61  H   UNL A   1      41.078  31.105  35.847  1.00  0.00     0.167 HD
ATOM     62  C   UNL A   1      42.539  28.991  34.657  1.00  0.00     0.074 A 
ATOM     63  C   UNL A   1      42.957  27.983  33.705  1.00  0.00     0.031 C 
ATOM     64  C   UNL A   1      43.237  29.323  35.772  1.00  0.00     0.034 A 
BRANCH  51  65
ATOM     65  C   UNL A   1      40.767  33.991  38.982  1.00  0.00     0.023 A 
ATOM     66  C   UNL A   1      40.171  33.624  40.204  1.00  0.00     0.012 A 
ATOM     67  C   UNL A   1      41.489  35.198  38.897  1.00  0.00     0.148 A 
ATOM     68  C   UNL A   1      40.264  34.460  41.316  1.00  0.00     0.002 A 
ATOM     69  C   UNL A   1      41.614  36.005  40.021  1.00  0.00     0.091 A 
ATOM     70  F   UNL A   1      42.029  35.540  37.720  1.00  0.00    -0.205 F 
ATOM     71  C   UNL A   1      40.992  35.645  41.228  1.00  0.00     0.022 A 
BRANCH  69  72
ATOM     72  S   UNL A   1      42.590  37.514  40.025  1.00  0.00     0.127 S 
ATOM     73  O   UNL A   1      41.653  38.473  39.440  1.00  0.00    -0.237 OA
ATOM     74  O   UNL A   1      42.850  37.709  41.451  1.00  0.00    -0.237 OA
ATOM     75  O   UNL A   1      43.772  37.229  39.226  1.00  0.00    -0.744 OA
ENDBRANCH  69  72
ENDBRANCH  51  65
BRANCH  52  76
ATOM     76  C   UNL A   1      39.797  28.184  30.915  1.00  0.00     0.023 A 
ATOM     77  C   UNL A   1      38.961  27.050  30.926  1.00  0.00     0.012 A 
ATOM     78  C   UNL A   1      40.508  28.502  29.741  1.00  0.00     0.148 A 
ATOM     79  C   UNL A   1      38.860  26.233  29.800  1.00  0.00     0.002 A 
ATOM     80  C   UNL A   1      40.360  27.715  28.606  1.00  0.00     0.091 A 
ATOM     81  F   UNL A   1      41.316  29.571  29.758  1.00  0.00    -0.205 F 
ATOM     82  C   UNL A   1      39.548  26.571  28.637  1.00  0.00     0.022 A 
BRANCH  80  83
ATOM     83  S   UNL A   1      41.116  28.139  27.033  1.00  0.00     0.127 S 
ATOM     84  O   UNL A   1      40.431  29.386  26.699  1.00  0.00    -0.237 OA
ATOM     85  O   UNL A   1      42.523  28.291  27.405  1.00  0.00    -0.237 OA
ATOM     86  O   UNL A   1      40.846  27.013  26.149  1.00  0.00    -0.744 OA
ENDBRANCH  80  83
ENDBRANCH  52  76
BRANCH  64  87
ATOM     87  C   UNL A   1      44.509  28.565  36.056  1.00  0.00     0.023 A 
ATOM     88  C   UNL A   1      45.741  29.061  35.588  1.00  0.00     0.012 A 
ATOM     89  C   UNL A   1      44.488  27.404  36.854  1.00  0.00     0.148 A 
ATOM     90  C   UNL A   1      46.931  28.395  35.883  1.00  0.00     0.002 A 
ATOM     91  C   UNL A   1      45.682  26.774  37.186  1.00  0.00     0.091 A 
ATOM     92  F   UNL A   1      43.303  26.936  37.275  1.00  0.00    -0.205 F 
ATOM     93  C   UNL A   1      46.903  27.261  36.690  1.00  0.00     0.022 A 
BRANCH  91  94
ATOM     94  S   UNL A   1      45.753  25.365  38.298  1.00  0.00     0.127 S 
ATOM     95  O   UNL A   1      47.192  25.119  38.377  1.00  0.00    -0.237 OA
ATOM     96  O   UNL A   1      45.160  25.905  39.522  1.00  0.00    -0.237 OA
ATOM     97  O   UNL A   1      44.973  24.311  37.663  1.00  0.00    -0.744 OA
ENDBRANCH  91  94
ENDBRANCH  64  87
ENDBRANCH  38  39
ENDBRANCH  31  33
ENDBRANCH  30  31
ENDBRANCH  29  30
ENDBRANCH   1  29
TORSDOF 17
ENDMDL
