MODEL 1
REMARK VINA RESULT:     -13.4      0.000      0.000
REMARK SMILES Cc1ccccc1[C@@H]1[NH2+][C@H](C(=O)OCCOC(=O)c2ccc(-c3c4nc(c(-c5cccc(S(=O)(=O)[O-])c5F)c5ccc([nH]5)c(-c5cccc(S(=O)(=O)[O-])c5F)c5nc(c(-c6cccc(S(=O)(=O)[O-])c6F)c6ccc3[nH]6)C=C5)C=C4)cc2)CC2=c3ccccc3=N[C@H]21
REMARK SMILES IDX 15 1 14 2 13 3 11 4 12 5 10 6 8 7 9 8 91 9 83 12 90 13 82 14
REMARK SMILES IDX 84 15 89 16 85 17 88 18 86 19 87 20 7 21 1 22 2 23 3 24 4 25
REMARK SMILES IDX 6 26 5 27 16 28 17 29 18 30 19 31 20 32 81 33 21 34 80 35
REMARK SMILES IDX 22 36 23 37 24 38 74 39 25 40 79 41 73 42 75 43 26 44 78 45
REMARK SMILES IDX 72 46 71 47 27 49 59 50 39 51 58 52 40 53 43 54 57 55 76 56
REMARK SMILES IDX 41 57 42 58 56 60 77 61 44 62 28 63 29 64 37 65 30 66 32 67
REMARK SMILES IDX 38 68 31 69 33 70 34 71 35 72 36 73 60 74 61 75 69 76 62 77
REMARK SMILES IDX 64 78 70 79 63 80 65 81 66 82 67 83 68 84 45 85 46 86 54 87
REMARK SMILES IDX 47 88 49 89 55 90 48 91 50 92 51 93 52 94 53 95
REMARK H PARENT 9 10 9 11 75 48 43 59
REMARK Flexibility Score: inf
ROOT
ATOM      1  C   UNL A   1      46.059  19.754  36.682  1.00  0.00     0.275 C 
ENDROOT
BRANCH   1   2
ATOM      2  C   UNL A   1      45.264  18.457  36.805  1.00  0.00     0.274 C 
BRANCH   2   3
ATOM      3  O   UNL A   1      45.056  18.083  38.168  1.00  0.00    -0.458 OA
BRANCH   3   4
ATOM      4  C   UNL A   1      44.521  16.839  38.280  1.00  0.00     0.365 C 
ATOM      5  O   UNL A   1      44.060  16.208  37.329  1.00  0.00    -0.245 OA
BRANCH   4   6
ATOM      6  C   UNL A   1      44.403  16.320  39.695  1.00  0.00     0.298 C 
ATOM      7  C   UNL A   1      45.143  16.175  42.032  1.00  0.00     0.243 C 
ATOM      8  N   UNL A   1      45.384  16.830  40.697  1.00  0.00    -0.326 N 
ATOM      9  C   UNL A   1      43.638  16.144  42.519  1.00  0.00     0.196 C 
ATOM     10  H   UNL A   1      46.330  16.618  40.382  1.00  0.00     0.347 HD
ATOM     11  H   UNL A   1      45.271  17.840  40.794  1.00  0.00     0.347 HD
ATOM     12  C   UNL A   1      42.747  15.879  41.345  1.00  0.00    -0.024 C 
ATOM     13  N   UNL A   1      43.373  14.987  43.438  1.00  0.00    -0.270 NA
ATOM     14  C   UNL A   1      42.979  16.680  40.127  1.00  0.00     0.111 C 
ATOM     15  C   UNL A   1      42.118  14.717  41.440  1.00  0.00     0.002 A 
ATOM     16  C   UNL A   1      42.560  14.236  42.756  1.00  0.00     0.066 A 
ATOM     17  C   UNL A   1      41.417  13.894  40.514  1.00  0.00     0.010 A 
ATOM     18  C   UNL A   1      42.053  12.903  43.147  1.00  0.00     0.028 A 
ATOM     19  C   UNL A   1      41.071  12.658  40.902  1.00  0.00     0.001 A 
ATOM     20  C   UNL A   1      41.360  12.182  42.247  1.00  0.00     0.002 A 
BRANCH   7  21
ATOM     21  C   UNL A   1      46.027  16.758  43.139  1.00  0.00     0.015 A 
ATOM     22  C   UNL A   1      46.749  14.489  44.114  1.00  0.00     0.045 C 
ATOM     23  C   UNL A   1      46.794  15.991  44.047  1.00  0.00    -0.042 A 
ATOM     24  C   UNL A   1      47.709  16.647  44.896  1.00  0.00     0.004 A 
ATOM     25  C   UNL A   1      47.845  18.034  44.887  1.00  0.00     0.000 A 
ATOM     26  C   UNL A   1      46.161  18.164  43.174  1.00  0.00     0.010 A 
ATOM     27  C   UNL A   1      47.057  18.796  44.037  1.00  0.00     0.001 A 
ENDBRANCH   7  21
ENDBRANCH   4   6
ENDBRANCH   3   4
ENDBRANCH   2   3
ENDBRANCH   1   2
BRANCH   1  28
ATOM     28  O   UNL A   1      45.520  20.822  35.853  1.00  0.00    -0.458 OA
BRANCH  28  29
ATOM     29  C   UNL A   1      46.011  21.373  34.718  1.00  0.00     0.338 C 
ATOM     30  O   UNL A   1      46.901  20.816  34.069  1.00  0.00    -0.246 OA
BRANCH  29  31
ATOM     31  C   UNL A   1      45.471  22.665  34.275  1.00  0.00     0.060 A 
ATOM     32  C   UNL A   1      46.295  23.802  34.210  1.00  0.00     0.016 A 
ATOM     33  C   UNL A   1      44.138  22.734  33.890  1.00  0.00     0.016 A 
ATOM     34  C   UNL A   1      45.812  24.988  33.643  1.00  0.00     0.010 A 
ATOM     35  C   UNL A   1      43.687  23.877  33.263  1.00  0.00     0.010 A 
ATOM     36  C   UNL A   1      44.511  25.017  33.143  1.00  0.00    -0.014 A 
BRANCH  36  37
ATOM     37  C   UNL A   1      43.785  26.229  32.763  1.00  0.00     0.031 A 
ATOM     38  C   UNL A   1      42.860  27.025  33.602  1.00  0.00     0.074 A 
ATOM     39  C   UNL A   1      44.210  26.732  31.584  1.00  0.00     0.049 A 
ATOM     40  N   UNL A   1      42.118  27.968  33.116  1.00  0.00    -0.248 NA
ATOM     41  C   UNL A   1      42.664  26.834  35.031  1.00  0.00     0.031 C 
ATOM     42  C   UNL A   1      44.165  28.103  31.113  1.00  0.00     0.029 A 
ATOM     43  N   UNL A   1      44.690  25.998  30.494  1.00  0.00    -0.354 N 
ATOM     44  C   UNL A   1      41.565  28.673  34.166  1.00  0.00     0.074 A 
ATOM     45  C   UNL A   1      41.865  27.872  35.331  1.00  0.00     0.031 C 
ATOM     46  C   UNL A   1      44.358  28.098  29.785  1.00  0.00     0.029 A 
ATOM     47  C   UNL A   1      44.327  26.708  29.351  1.00  0.00     0.049 A 
ATOM     48  H   UNL A   1      45.187  25.149  30.528  1.00  0.00     0.167 HD
ATOM     49  C   UNL A   1      41.046  29.918  33.933  1.00  0.00     0.034 A 
ATOM     50  C   UNL A   1      43.544  26.189  28.365  1.00  0.00     0.034 A 
ATOM     51  C   UNL A   1      41.145  30.271  32.510  1.00  0.00     0.049 A 
ATOM     52  C   UNL A   1      42.335  27.046  28.083  1.00  0.00     0.074 A 
ATOM     53  C   UNL A   1      42.072  31.019  31.800  1.00  0.00     0.029 A 
ATOM     54  N   UNL A   1      40.318  29.667  31.573  1.00  0.00    -0.354 N 
ATOM     55  N   UNL A   1      41.920  27.994  28.872  1.00  0.00    -0.248 NA
ATOM     56  C   UNL A   1      41.493  26.898  26.903  1.00  0.00     0.031 C 
ATOM     57  C   UNL A   1      41.830  30.818  30.418  1.00  0.00     0.029 A 
ATOM     58  C   UNL A   1      40.743  29.970  30.289  1.00  0.00     0.049 A 
ATOM     59  H   UNL A   1      39.541  29.105  31.790  1.00  0.00     0.167 HD
ATOM     60  C   UNL A   1      40.753  28.525  28.395  1.00  0.00     0.074 A 
ATOM     61  C   UNL A   1      40.564  27.847  27.123  1.00  0.00     0.031 C 
ATOM     62  C   UNL A   1      40.040  29.438  29.125  1.00  0.00     0.034 A 
BRANCH  49  63
ATOM     63  C   UNL A   1      40.702  30.985  34.973  1.00  0.00     0.023 A 
ATOM     64  C   UNL A   1      41.765  31.814  35.419  1.00  0.00     0.012 A 
ATOM     65  C   UNL A   1      39.451  31.221  35.583  1.00  0.00     0.148 A 
ATOM     66  C   UNL A   1      41.635  32.730  36.469  1.00  0.00     0.002 A 
ATOM     67  C   UNL A   1      39.326  32.108  36.665  1.00  0.00     0.091 A 
ATOM     68  F   UNL A   1      38.357  30.639  35.088  1.00  0.00    -0.205 F 
ATOM     69  C   UNL A   1      40.418  32.855  37.116  1.00  0.00     0.022 A 
BRANCH  67  70
ATOM     70  S   UNL A   1      37.793  32.316  37.590  1.00  0.00     0.127 S 
ATOM     71  O   UNL A   1      38.229  33.141  38.719  1.00  0.00    -0.237 OA
ATOM     72  O   UNL A   1      36.933  33.008  36.632  1.00  0.00    -0.237 OA
ATOM     73  O   UNL A   1      37.354  30.976  37.960  1.00  0.00    -0.744 OA
ENDBRANCH  67  70
ENDBRANCH  49  63
BRANCH  50  74
ATOM     74  C   UNL A   1      43.590  24.701  28.246  1.00  0.00     0.023 A 
ATOM     75  C   UNL A   1      42.714  23.957  29.074  1.00  0.00     0.012 A 
ATOM     76  C   UNL A   1      44.180  24.059  27.140  1.00  0.00     0.148 A 
ATOM     77  C   UNL A   1      42.366  22.642  28.762  1.00  0.00     0.002 A 
ATOM     78  C   UNL A   1      43.822  22.745  26.835  1.00  0.00     0.091 A 
ATOM     79  F   UNL A   1      44.983  24.770  26.339  1.00  0.00    -0.205 F 
ATOM     80  C   UNL A   1      42.907  22.042  27.633  1.00  0.00     0.022 A 
BRANCH  78  81
ATOM     81  S   UNL A   1      44.437  21.911  25.366  1.00  0.00     0.127 S 
ATOM     82  O   UNL A   1      45.886  21.944  25.574  1.00  0.00    -0.237 OA
ATOM     83  O   UNL A   1      43.829  20.588  25.501  1.00  0.00    -0.237 OA
ATOM     84  O   UNL A   1      43.975  22.725  24.253  1.00  0.00    -0.744 OA
ENDBRANCH  78  81
ENDBRANCH  50  74
BRANCH  62  85
ATOM     85  C   UNL A   1      38.637  29.931  28.819  1.00  0.00     0.023 A 
ATOM     86  C   UNL A   1      37.652  29.099  28.254  1.00  0.00     0.012 A 
ATOM     87  C   UNL A   1      38.214  31.228  29.213  1.00  0.00     0.148 A 
ATOM     88  C   UNL A   1      36.342  29.538  28.030  1.00  0.00     0.002 A 
ATOM     89  C   UNL A   1      36.884  31.625  29.085  1.00  0.00     0.091 A 
ATOM     90  F   UNL A   1      39.102  32.107  29.700  1.00  0.00    -0.205 F 
ATOM     91  C   UNL A   1      35.950  30.794  28.466  1.00  0.00     0.022 A 
BRANCH  89  92
ATOM     92  S   UNL A   1      36.300  33.148  29.843  1.00  0.00     0.127 S 
ATOM     93  O   UNL A   1      37.068  34.161  29.123  1.00  0.00    -0.237 OA
ATOM     94  O   UNL A   1      34.870  33.133  29.527  1.00  0.00    -0.237 OA
ATOM     95  O   UNL A   1      36.596  32.995  31.260  1.00  0.00    -0.744 OA
ENDBRANCH  89  92
ENDBRANCH  62  85
ENDBRANCH  36  37
ENDBRANCH  29  31
ENDBRANCH  28  29
ENDBRANCH   1  28
TORSDOF 15
ENDMDL
MODEL 2
REMARK VINA RESULT:     -13.4      9.179     12.634
REMARK SMILES Cc1ccccc1[C@@H]1[NH2+][C@H](C(=O)OCCOC(=O)c2ccc(-c3c4nc(c(-c5cccc(S(=O)(=O)[O-])c5F)c5ccc([nH]5)c(-c5cccc(S(=O)(=O)[O-])c5F)c5nc(c(-c6cccc(S(=O)(=O)[O-])c6F)c6ccc3[nH]6)C=C5)C=C4)cc2)CC2=c3ccccc3=N[C@H]21
REMARK SMILES IDX 15 1 14 2 13 3 11 4 12 5 10 6 8 7 9 8 91 9 83 12 90 13 82 14
REMARK SMILES IDX 84 15 89 16 85 17 88 18 86 19 87 20 7 21 1 22 2 23 3 24 4 25
REMARK SMILES IDX 6 26 5 27 16 28 17 29 18 30 19 31 20 32 81 33 21 34 80 35
REMARK SMILES IDX 22 36 23 37 24 38 74 39 25 40 79 41 73 42 75 43 26 44 78 45
REMARK SMILES IDX 72 46 71 47 27 49 59 50 39 51 58 52 40 53 43 54 57 55 76 56
REMARK SMILES IDX 41 57 42 58 56 60 77 61 44 62 28 63 29 64 37 65 30 66 32 67
REMARK SMILES IDX 38 68 31 69 33 70 34 71 35 72 36 73 60 74 61 75 69 76 62 77
REMARK SMILES IDX 64 78 70 79 63 80 65 81 66 82 67 83 68 84 45 85 46 86 54 87
REMARK SMILES IDX 47 88 49 89 55 90 48 91 50 92 51 93 52 94 53 95
REMARK H PARENT 9 10 9 11 75 48 43 59
REMARK Flexibility Score: inf
ROOT
ATOM      1  C   UNL A   1      39.657  20.733  26.002  1.00  0.00     0.275 C 
ENDROOT
BRANCH   1   2
ATOM      2  C   UNL A   1      38.464  21.406  25.328  1.00  0.00     0.274 C 
BRANCH   2   3
ATOM      3  O   UNL A   1      37.586  22.013  26.276  1.00  0.00    -0.458 OA
BRANCH   3   4
ATOM      4  C   UNL A   1      36.950  23.098  25.760  1.00  0.00     0.365 C 
ATOM      5  O   UNL A   1      37.468  24.210  25.664  1.00  0.00    -0.245 OA
BRANCH   4   6
ATOM      6  C   UNL A   1      35.491  22.883  25.427  1.00  0.00     0.298 C 
ATOM      7  C   UNL A   1      33.627  21.532  24.572  1.00  0.00     0.243 C 
ATOM      8  N   UNL A   1      35.100  21.549  24.885  1.00  0.00    -0.326 N 
ATOM      9  C   UNL A   1      32.679  22.103  25.704  1.00  0.00     0.196 C 
ATOM     10  H   UNL A   1      35.629  21.362  24.034  1.00  0.00     0.347 HD
ATOM     11  H   UNL A   1      35.303  20.831  25.582  1.00  0.00     0.347 HD
ATOM     12  C   UNL A   1      33.331  23.293  26.337  1.00  0.00    -0.024 C 
ATOM     13  N   UNL A   1      31.404  22.654  25.136  1.00  0.00    -0.270 NA
ATOM     14  C   UNL A   1      34.745  23.154  26.737  1.00  0.00     0.111 C 
ATOM     15  C   UNL A   1      32.660  24.413  26.119  1.00  0.00     0.002 A 
ATOM     16  C   UNL A   1      31.490  23.929  25.375  1.00  0.00     0.066 A 
ATOM     17  C   UNL A   1      32.977  25.796  26.243  1.00  0.00     0.010 A 
ATOM     18  C   UNL A   1      30.542  24.975  24.932  1.00  0.00     0.028 A 
ATOM     19  C   UNL A   1      32.117  26.690  25.733  1.00  0.00     0.001 A 
ATOM     20  C   UNL A   1      30.871  26.267  25.110  1.00  0.00     0.002 A 
BRANCH   7  21
ATOM     21  C   UNL A   1      33.134  20.146  24.143  1.00  0.00     0.015 A 
ATOM     22  C   UNL A   1      31.899  20.953  22.036  1.00  0.00     0.045 C 
ATOM     23  C   UNL A   1      32.396  19.881  22.966  1.00  0.00    -0.042 A 
ATOM     24  C   UNL A   1      32.164  18.543  22.589  1.00  0.00     0.004 A 
ATOM     25  C   UNL A   1      32.611  17.478  23.371  1.00  0.00     0.000 A 
ATOM     26  C   UNL A   1      33.547  19.050  24.934  1.00  0.00     0.010 A 
ATOM     27  C   UNL A   1      33.289  17.733  24.554  1.00  0.00     0.001 A 
ENDBRANCH   7  21
ENDBRANCH   4   6
ENDBRANCH   3   4
ENDBRANCH   2   3
ENDBRANCH   1   2
BRANCH   1  28
ATOM     28  O   UNL A   1      40.605  21.566  26.728  1.00  0.00    -0.458 OA
BRANCH  28  29
ATOM     29  C   UNL A   1      41.451  22.519  26.272  1.00  0.00     0.338 C 
ATOM     30  O   UNL A   1      42.243  22.286  25.354  1.00  0.00    -0.246 OA
BRANCH  29  31
ATOM     31  C   UNL A   1      41.421  23.844  26.904  1.00  0.00     0.060 A 
ATOM     32  C   UNL A   1      42.294  24.861  26.482  1.00  0.00     0.016 A 
ATOM     33  C   UNL A   1      40.488  24.083  27.907  1.00  0.00     0.016 A 
ATOM     34  C   UNL A   1      42.153  26.161  26.982  1.00  0.00     0.010 A 
ATOM     35  C   UNL A   1      40.300  25.379  28.342  1.00  0.00     0.010 A 
ATOM     36  C   UNL A   1      41.135  26.426  27.897  1.00  0.00    -0.014 A 
BRANCH  36  37
ATOM     37  C   UNL A   1      41.020  27.647  28.694  1.00  0.00     0.031 A 
ATOM     38  C   UNL A   1      39.988  28.703  28.580  1.00  0.00     0.074 A 
ATOM     39  C   UNL A   1      41.851  27.644  29.759  1.00  0.00     0.049 A 
ATOM     40  N   UNL A   1      40.082  29.837  29.198  1.00  0.00    -0.248 NA
ATOM     41  C   UNL A   1      38.785  28.604  27.767  1.00  0.00     0.031 C 
ATOM     42  C   UNL A   1      41.708  28.339  31.024  1.00  0.00     0.029 A 
ATOM     43  N   UNL A   1      43.114  27.046  29.824  1.00  0.00    -0.354 N 
ATOM     44  C   UNL A   1      38.873  30.494  29.094  1.00  0.00     0.074 A 
ATOM     45  C   UNL A   1      38.132  29.723  28.119  1.00  0.00     0.031 C 
ATOM     46  C   UNL A   1      42.900  28.343  31.638  1.00  0.00     0.029 A 
ATOM     47  C   UNL A   1      43.876  27.830  30.688  1.00  0.00     0.049 A 
ATOM     48  H   UNL A   1      43.405  26.232  29.354  1.00  0.00     0.167 HD
ATOM     49  C   UNL A   1      38.598  31.525  29.950  1.00  0.00     0.034 A 
ATOM     50  C   UNL A   1      45.038  28.437  30.317  1.00  0.00     0.034 A 
ATOM     51  C   UNL A   1      39.733  31.781  30.847  1.00  0.00     0.049 A 
ATOM     52  C   UNL A   1      45.015  29.923  30.576  1.00  0.00     0.074 A 
ATOM     53  C   UNL A   1      40.003  31.372  32.144  1.00  0.00     0.029 A 
ATOM     54  N   UNL A   1      40.889  32.383  30.371  1.00  0.00    -0.354 N 
ATOM     55  N   UNL A   1      43.930  30.597  30.832  1.00  0.00    -0.248 NA
ATOM     56  C   UNL A   1      46.200  30.769  30.554  1.00  0.00     0.031 C 
ATOM     57  C   UNL A   1      41.355  31.687  32.430  1.00  0.00     0.029 A 
ATOM     58  C   UNL A   1      41.898  32.308  31.317  1.00  0.00     0.049 A 
ATOM     59  H   UNL A   1      40.978  32.806  29.486  1.00  0.00     0.167 HD
ATOM     60  C   UNL A   1      44.217  31.931  30.926  1.00  0.00     0.074 A 
ATOM     61  C   UNL A   1      45.666  31.978  30.809  1.00  0.00     0.031 C 
ATOM     62  C   UNL A   1      43.220  32.862  31.045  1.00  0.00     0.034 A 
BRANCH  49  63
ATOM     63  C   UNL A   1      37.232  32.152  30.233  1.00  0.00     0.023 A 
ATOM     64  C   UNL A   1      36.639  31.863  31.490  1.00  0.00     0.012 A 
ATOM     65  C   UNL A   1      36.459  32.958  29.369  1.00  0.00     0.148 A 
ATOM     66  C   UNL A   1      35.335  32.242  31.829  1.00  0.00     0.002 A 
ATOM     67  C   UNL A   1      35.136  33.304  29.687  1.00  0.00     0.091 A 
ATOM     68  F   UNL A   1      37.012  33.451  28.258  1.00  0.00    -0.205 F 
ATOM     69  C   UNL A   1      34.569  32.938  30.912  1.00  0.00     0.022 A 
BRANCH  67  70
ATOM     70  S   UNL A   1      34.050  34.182  28.547  1.00  0.00     0.127 S 
ATOM     71  O   UNL A   1      34.791  35.426  28.319  1.00  0.00    -0.237 OA
ATOM     72  O   UNL A   1      34.004  33.285  27.395  1.00  0.00    -0.237 OA
ATOM     73  O   UNL A   1      32.783  34.358  29.245  1.00  0.00    -0.744 OA
ENDBRANCH  67  70
ENDBRANCH  49  63
BRANCH  50  74
ATOM     74  C   UNL A   1      45.765  27.770  29.196  1.00  0.00     0.023 A 
ATOM     75  C   UNL A   1      46.270  26.468  29.436  1.00  0.00     0.012 A 
ATOM     76  C   UNL A   1      45.656  28.216  27.866  1.00  0.00     0.148 A 
ATOM     77  C   UNL A   1      46.573  25.605  28.382  1.00  0.00     0.002 A 
ATOM     78  C   UNL A   1      45.959  27.344  26.819  1.00  0.00     0.091 A 
ATOM     79  F   UNL A   1      45.149  29.435  27.638  1.00  0.00    -0.205 F 
ATOM     80  C   UNL A   1      46.401  26.037  27.074  1.00  0.00     0.022 A 
BRANCH  78  81
ATOM     81  S   UNL A   1      45.718  27.806  25.099  1.00  0.00     0.127 S 
ATOM     82  O   UNL A   1      46.283  26.659  24.386  1.00  0.00    -0.237 OA
ATOM     83  O   UNL A   1      44.261  27.917  25.025  1.00  0.00    -0.237 OA
ATOM     84  O   UNL A   1      46.470  29.040  24.934  1.00  0.00    -0.744 OA
ENDBRANCH  78  81
ENDBRANCH  50  74
BRANCH  62  85
ATOM     85  C   UNL A   1      43.384  34.367  30.934  1.00  0.00     0.023 A 
ATOM     86  C   UNL A   1      43.806  35.161  32.017  1.00  0.00     0.012 A 
ATOM     87  C   UNL A   1      43.242  35.031  29.686  1.00  0.00     0.148 A 
ATOM     88  C   UNL A   1      44.016  36.540  31.896  1.00  0.00     0.002 A 
ATOM     89  C   UNL A   1      43.553  36.382  29.546  1.00  0.00     0.091 A 
ATOM     90  F   UNL A   1      42.782  34.364  28.618  1.00  0.00    -0.205 F 
ATOM     91  C   UNL A   1      43.912  37.148  30.655  1.00  0.00     0.022 A 
BRANCH  89  92
ATOM     92  S   UNL A   1      43.648  37.141  27.918  1.00  0.00     0.127 S 
ATOM     93  O   UNL A   1      44.147  38.477  28.233  1.00  0.00    -0.237 OA
ATOM     94  O   UNL A   1      44.610  36.282  27.222  1.00  0.00    -0.237 OA
ATOM     95  O   UNL A   1      42.293  37.061  27.392  1.00  0.00    -0.744 OA
ENDBRANCH  89  92
ENDBRANCH  62  85
ENDBRANCH  36  37
ENDBRANCH  29  31
ENDBRANCH  28  29
ENDBRANCH   1  28
TORSDOF 15
ENDMDL
MODEL 3
REMARK VINA RESULT:     -13.2      8.918     15.279
REMARK SMILES Cc1ccccc1[C@@H]1[NH2+][C@H](C(=O)OCCOC(=O)c2ccc(-c3c4nc(c(-c5cccc(S(=O)(=O)[O-])c5F)c5ccc([nH]5)c(-c5cccc(S(=O)(=O)[O-])c5F)c5nc(c(-c6cccc(S(=O)(=O)[O-])c6F)c6ccc3[nH]6)C=C5)C=C4)cc2)CC2=c3ccccc3=N[C@H]21
REMARK SMILES IDX 15 1 14 2 13 3 11 4 12 5 10 6 8 7 9 8 91 9 83 12 90 13 82 14
REMARK SMILES IDX 84 15 89 16 85 17 88 18 86 19 87 20 7 21 1 22 2 23 3 24 4 25
REMARK SMILES IDX 6 26 5 27 16 28 17 29 18 30 19 31 20 32 81 33 21 34 80 35
REMARK SMILES IDX 22 36 23 37 24 38 74 39 25 40 79 41 73 42 75 43 26 44 78 45
REMARK SMILES IDX 72 46 71 47 27 49 59 50 39 51 58 52 40 53 43 54 57 55 76 56
REMARK SMILES IDX 41 57 42 58 56 60 77 61 44 62 28 63 29 64 37 65 30 66 32 67
REMARK SMILES IDX 38 68 31 69 33 70 34 71 35 72 36 73 60 74 61 75 69 76 62 77
REMARK SMILES IDX 64 78 70 79 63 80 65 81 66 82 67 83 68 84 45 85 46 86 54 87
REMARK SMILES IDX 47 88 49 89 55 90 48 91 50 92 51 93 52 94 53 95
REMARK H PARENT 9 10 9 11 75 48 43 59
REMARK Flexibility Score: inf
ROOT
ATOM      1  C   UNL A   1      38.916  30.365  34.979  1.00  0.00     0.275 C 
ENDROOT
BRANCH   1   2
ATOM      2  C   UNL A   1      38.881  31.784  35.541  1.00  0.00     0.274 C 
BRANCH   2   3
ATOM      3  O   UNL A   1      38.550  32.748  34.540  1.00  0.00    -0.458 OA
BRANCH   3   4
ATOM      4  C   UNL A   1      37.223  33.044  34.537  1.00  0.00     0.365 C 
ATOM      5  O   UNL A   1      36.529  33.072  35.552  1.00  0.00    -0.245 OA
BRANCH   4   6
ATOM      6  C   UNL A   1      36.610  33.210  33.165  1.00  0.00     0.298 C 
ATOM      7  C   UNL A   1      36.409  32.642  30.784  1.00  0.00     0.243 C 
ATOM      8  N   UNL A   1      37.095  32.305  32.082  1.00  0.00    -0.326 N 
ATOM      9  C   UNL A   1      34.838  32.814  30.864  1.00  0.00     0.196 C 
ATOM     10  H   UNL A   1      38.103  32.420  31.972  1.00  0.00     0.347 HD
ATOM     11  H   UNL A   1      36.883  31.338  32.332  1.00  0.00     0.347 HD
ATOM     12  C   UNL A   1      34.484  33.512  32.141  1.00  0.00    -0.024 C 
ATOM     13  N   UNL A   1      34.324  33.736  29.797  1.00  0.00    -0.270 NA
ATOM     14  C   UNL A   1      35.107  33.008  33.380  1.00  0.00     0.111 C 
ATOM     15  C   UNL A   1      33.949  34.705  31.932  1.00  0.00     0.002 A 
ATOM     16  C   UNL A   1      33.887  34.762  30.466  1.00  0.00     0.066 A 
ATOM     17  C   UNL A   1      33.714  35.841  32.758  1.00  0.00     0.010 A 
ATOM     18  C   UNL A   1      33.364  36.025  29.901  1.00  0.00     0.028 A 
ATOM     19  C   UNL A   1      33.334  36.984  32.169  1.00  0.00     0.001 A 
ATOM     20  C   UNL A   1      33.119  37.055  30.731  1.00  0.00     0.002 A 
BRANCH   7  21
ATOM     21  C   UNL A   1      36.760  31.659  29.663  1.00  0.00     0.015 A 
ATOM     22  C   UNL A   1      39.308  31.970  29.835  1.00  0.00     0.045 C 
ATOM     23  C   UNL A   1      38.076  31.317  29.272  1.00  0.00    -0.042 A 
ATOM     24  C   UNL A   1      38.267  30.262  28.357  1.00  0.00     0.004 A 
ATOM     25  C   UNL A   1      37.188  29.576  27.801  1.00  0.00     0.000 A 
ATOM     26  C   UNL A   1      35.684  30.969  29.060  1.00  0.00     0.010 A 
ATOM     27  C   UNL A   1      35.894  29.942  28.140  1.00  0.00     0.001 A 
ENDBRANCH   7  21
ENDBRANCH   4   6
ENDBRANCH   3   4
ENDBRANCH   2   3
ENDBRANCH   1   2
BRANCH   1  28
ATOM     28  O   UNL A   1      38.561  30.163  33.582  1.00  0.00    -0.458 OA
BRANCH  28  29
ATOM     29  C   UNL A   1      38.226  29.026  32.926  1.00  0.00     0.338 C 
ATOM     30  O   UNL A   1      37.193  28.409  33.201  1.00  0.00    -0.246 OA
BRANCH  29  31
ATOM     31  C   UNL A   1      39.130  28.528  31.882  1.00  0.00     0.060 A 
ATOM     32  C   UNL A   1      38.631  27.799  30.789  1.00  0.00     0.016 A 
ATOM     33  C   UNL A   1      40.486  28.819  31.977  1.00  0.00     0.016 A 
ATOM     34  C   UNL A   1      39.475  27.462  29.723  1.00  0.00     0.010 A 
ATOM     35  C   UNL A   1      41.299  28.555  30.895  1.00  0.00     0.010 A 
ATOM     36  C   UNL A   1      40.809  27.866  29.766  1.00  0.00    -0.014 A 
BRANCH  36  37
ATOM     37  C   UNL A   1      41.861  27.380  28.872  1.00  0.00     0.031 A 
ATOM     38  C   UNL A   1      42.295  25.978  28.672  1.00  0.00     0.074 A 
ATOM     39  C   UNL A   1      42.294  28.336  28.023  1.00  0.00     0.049 A 
ATOM     40  N   UNL A   1      43.363  25.670  28.006  1.00  0.00    -0.248 NA
ATOM     41  C   UNL A   1      41.606  24.812  29.202  1.00  0.00     0.031 C 
ATOM     42  C   UNL A   1      42.887  28.182  26.708  1.00  0.00     0.029 A 
ATOM     43  N   UNL A   1      42.368  29.708  28.286  1.00  0.00    -0.354 N 
ATOM     44  C   UNL A   1      43.363  24.307  27.788  1.00  0.00     0.074 A 
ATOM     45  C   UNL A   1      42.296  23.812  28.629  1.00  0.00     0.031 C 
ATOM     46  C   UNL A   1      43.480  29.339  26.376  1.00  0.00     0.029 A 
ATOM     47  C   UNL A   1      43.453  30.191  27.557  1.00  0.00     0.049 A 
ATOM     48  H   UNL A   1      41.772  30.229  28.870  1.00  0.00     0.167 HD
ATOM     49  C   UNL A   1      44.174  23.788  26.816  1.00  0.00     0.034 A 
ATOM     50  C   UNL A   1      44.523  30.809  28.129  1.00  0.00     0.034 A 
ATOM     51  C   UNL A   1      44.972  24.844  26.177  1.00  0.00     0.049 A 
ATOM     52  C   UNL A   1      45.830  30.152  27.759  1.00  0.00     0.074 A 
ATOM     53  C   UNL A   1      44.792  25.567  25.008  1.00  0.00     0.029 A 
ATOM     54  N   UNL A   1      46.031  25.434  26.852  1.00  0.00    -0.354 N 
ATOM     55  N   UNL A   1      45.919  28.971  27.217  1.00  0.00    -0.248 NA
ATOM     56  C   UNL A   1      47.135  30.759  27.980  1.00  0.00     0.031 C 
ATOM     57  C   UNL A   1      45.720  26.637  25.008  1.00  0.00     0.029 A 
ATOM     58  C   UNL A   1      46.480  26.550  26.162  1.00  0.00     0.049 A 
ATOM     59  H   UNL A   1      46.410  25.107  27.699  1.00  0.00     0.167 HD
ATOM     60  C   UNL A   1      47.232  28.611  27.088  1.00  0.00     0.074 A 
ATOM     61  C   UNL A   1      47.955  29.796  27.521  1.00  0.00     0.031 C 
ATOM     62  C   UNL A   1      47.583  27.353  26.680  1.00  0.00     0.034 A 
BRANCH  49  63
ATOM     63  C   UNL A   1      44.089  22.395  26.189  1.00  0.00     0.023 A 
ATOM     64  C   UNL A   1      42.827  21.745  26.234  1.00  0.00     0.012 A 
ATOM     65  C   UNL A   1      45.135  21.651  25.602  1.00  0.00     0.148 A 
ATOM     66  C   UNL A   1      42.634  20.417  25.837  1.00  0.00     0.002 A 
ATOM     67  C   UNL A   1      44.956  20.306  25.241  1.00  0.00     0.091 A 
ATOM     68  F   UNL A   1      46.296  22.249  25.328  1.00  0.00    -0.205 F 
ATOM     69  C   UNL A   1      43.709  19.685  25.367  1.00  0.00     0.022 A 
BRANCH  67  70
ATOM     70  S   UNL A   1      46.300  19.261  24.650  1.00  0.00     0.127 S 
ATOM     71  O   UNL A   1      45.670  18.560  23.528  1.00  0.00    -0.237 OA
ATOM     72  O   UNL A   1      47.315  20.236  24.260  1.00  0.00    -0.237 OA
ATOM     73  O   UNL A   1      46.667  18.398  25.766  1.00  0.00    -0.744 OA
ENDBRANCH  67  70
ENDBRANCH  49  63
BRANCH  50  74
ATOM     74  C   UNL A   1      44.237  31.481  29.432  1.00  0.00     0.023 A 
ATOM     75  C   UNL A   1      43.306  32.549  29.418  1.00  0.00     0.012 A 
ATOM     76  C   UNL A   1      44.565  30.889  30.665  1.00  0.00     0.148 A 
ATOM     77  C   UNL A   1      42.654  32.955  30.584  1.00  0.00     0.002 A 
ATOM     78  C   UNL A   1      43.905  31.300  31.825  1.00  0.00     0.091 A 
ATOM     79  F   UNL A   1      45.421  29.859  30.674  1.00  0.00    -0.205 F 
ATOM     80  C   UNL A   1      42.942  32.319  31.784  1.00  0.00     0.022 A 
BRANCH  78  81
ATOM     81  S   UNL A   1      44.182  30.497  33.409  1.00  0.00     0.127 S 
ATOM     82  O   UNL A   1      43.801  29.112  33.126  1.00  0.00    -0.237 OA
ATOM     83  O   UNL A   1      45.616  30.711  33.602  1.00  0.00    -0.237 OA
ATOM     84  O   UNL A   1      43.295  31.182  34.336  1.00  0.00    -0.744 OA
ENDBRANCH  78  81
ENDBRANCH  50  74
BRANCH  62  85
ATOM     85  C   UNL A   1      48.981  26.760  26.708  1.00  0.00     0.023 A 
ATOM     86  C   UNL A   1      49.638  26.321  25.543  1.00  0.00     0.012 A 
ATOM     87  C   UNL A   1      49.745  26.742  27.905  1.00  0.00     0.148 A 
ATOM     88  C   UNL A   1      50.950  25.832  25.564  1.00  0.00     0.002 A 
ATOM     89  C   UNL A   1      51.084  26.354  27.903  1.00  0.00     0.091 A 
ATOM     90  F   UNL A   1      49.177  27.082  29.072  1.00  0.00    -0.205 F 
ATOM     91  C   UNL A   1      51.682  25.870  26.740  1.00  0.00     0.022 A 
BRANCH  89  92
ATOM     92  S   UNL A   1      52.118  26.606  29.354  1.00  0.00     0.127 S 
ATOM     93  O   UNL A   1      51.928  28.029  29.621  1.00  0.00    -0.237 OA
ATOM     94  O   UNL A   1      51.503  25.715  30.341  1.00  0.00    -0.237 OA
ATOM     95  O   UNL A   1      53.451  26.196  28.935  1.00  0.00    -0.744 OA
ENDBRANCH  89  92
ENDBRANCH  62  85
ENDBRANCH  36  37
ENDBRANCH  29  31
ENDBRANCH  28  29
ENDBRANCH   1  28
TORSDOF 15
ENDMDL
