MODEL 1
REMARK VINA RESULT:     -12.5      0.000      0.000
REMARK SMILES Nc1oc2ccc(F)cc2c(=O)c1[C@@H]1[NH2+][C@H](C(=O)OCCOC(=O)c2ccc(-c3c4nc(c(-c5cccc(S(=O)(=O)[O-])c5F)c5ccc([nH]5)c(-c5cccc(S(=O)(=O)[O-])c5F)c5nc(c(-c6cccc(S(=O)(=O)[O-])c6F)c6ccc3[nH]6)C=C5)C=C4)cc2)CS1
REMARK SMILES IDX 21 1 20 2 19 3 17 4 18 5 16 6 14 7 15 8 89 9 88 12 13 13
REMARK SMILES IDX 2 14 3 15 4 16 11 17 5 18 10 19 12 20 6 21 9 22 7 23 8 24
REMARK SMILES IDX 1 25 22 28 23 29 24 30 25 31 26 32 87 33 27 34 86 35 28 36
REMARK SMILES IDX 29 37 30 38 80 39 31 40 85 41 79 42 81 43 32 44 84 45 78 46
REMARK SMILES IDX 77 47 33 49 65 50 45 51 64 52 46 53 49 54 63 55 82 56 47 57
REMARK SMILES IDX 48 58 62 60 83 61 50 62 34 63 35 64 43 65 36 66 38 67 44 68
REMARK SMILES IDX 37 69 39 70 40 71 41 72 42 73 66 74 67 75 75 76 68 77 70 78
REMARK SMILES IDX 76 79 69 80 71 81 72 82 73 83 74 84 51 85 52 86 60 87 53 88
REMARK SMILES IDX 55 89 61 90 54 91 56 92 57 93 58 94 59 95
REMARK H PARENT 15 10 15 11 1 26 1 27 81 48 49 59
REMARK Flexibility Score: inf
ROOT
ATOM      1  C   UNL A   1      37.292  20.973  24.694  1.00  0.00     0.275 C 
ENDROOT
BRANCH   1   2
ATOM      2  C   UNL A   1      35.904  20.407  24.993  1.00  0.00     0.274 C 
BRANCH   2   3
ATOM      3  O   UNL A   1      34.996  21.487  25.283  1.00  0.00    -0.458 OA
BRANCH   3   4
ATOM      4  C   UNL A   1      34.015  21.264  26.196  1.00  0.00     0.365 C 
ATOM      5  O   UNL A   1      34.168  21.359  27.411  1.00  0.00    -0.245 OA
BRANCH   4   6
ATOM      6  C   UNL A   1      32.646  20.948  25.561  1.00  0.00     0.304 C 
ATOM      7  C   UNL A   1      31.501  22.919  24.778  1.00  0.00     0.283 C 
ATOM      8  N   UNL A   1      31.583  21.934  25.856  1.00  0.00    -0.319 N 
ATOM      9  S   UNL A   1      32.004  22.110  23.237  1.00  0.00    -0.087 SA
ATOM     10  H   UNL A   1      30.689  21.449  25.940  1.00  0.00     0.348 HD
ATOM     11  H   UNL A   1      31.801  22.410  26.730  1.00  0.00     0.348 HD
ATOM     12  C   UNL A   1      32.757  20.688  24.063  1.00  0.00     0.153 C 
BRANCH   7  13
ATOM     13  C   UNL A   1      32.254  24.187  25.097  1.00  0.00     0.128 A 
ATOM     14  C   UNL A   1      33.488  24.569  24.692  1.00  0.00     0.205 A 
ATOM     15  O   UNL A   1      34.146  25.683  25.182  1.00  0.00    -0.440 OA
ATOM     16  C   UNL A   1      33.446  26.611  25.892  1.00  0.00     0.140 A 
ATOM     17  C   UNL A   1      31.500  25.128  25.977  1.00  0.00     0.205 A 
ATOM     18  C   UNL A   1      34.098  27.809  26.185  1.00  0.00     0.051 A 
ATOM     19  C   UNL A   1      32.130  26.416  26.279  1.00  0.00     0.068 A 
ATOM     20  O   UNL A   1      30.369  24.897  26.394  1.00  0.00    -0.288 OA
ATOM     21  C   UNL A   1      33.399  28.835  26.816  1.00  0.00     0.043 A 
ATOM     22  C   UNL A   1      31.421  27.439  26.914  1.00  0.00     0.055 A 
ATOM     23  C   UNL A   1      32.064  28.647  27.160  1.00  0.00     0.124 A 
ATOM     24  F   UNL A   1      31.386  29.652  27.728  1.00  0.00    -0.207 F 
BRANCH  14  25
ATOM     25  N   UNL A   1      34.260  23.899  23.789  1.00  0.00    -0.369 N 
ATOM     26  H   UNL A   1      35.236  23.853  23.914  1.00  0.00     0.159 HD
ATOM     27  H   UNL A   1      33.843  23.462  23.012  1.00  0.00     0.159 HD
ENDBRANCH  14  25
ENDBRANCH   7  13
ENDBRANCH   4   6
ENDBRANCH   3   4
ENDBRANCH   2   3
ENDBRANCH   1   2
BRANCH   1  28
ATOM     28  O   UNL A   1      37.779  21.699  25.834  1.00  0.00    -0.458 OA
BRANCH  28  29
ATOM     29  C   UNL A   1      39.043  21.391  26.213  1.00  0.00     0.338 C 
ATOM     30  O   UNL A   1      39.635  20.337  26.069  1.00  0.00    -0.246 OA
BRANCH  29  31
ATOM     31  C   UNL A   1      39.672  22.629  26.683  1.00  0.00     0.060 A 
ATOM     32  C   UNL A   1      40.681  22.598  27.640  1.00  0.00     0.016 A 
ATOM     33  C   UNL A   1      39.230  23.839  26.146  1.00  0.00     0.016 A 
ATOM     34  C   UNL A   1      41.229  23.803  28.077  1.00  0.00     0.010 A 
ATOM     35  C   UNL A   1      39.785  25.039  26.566  1.00  0.00     0.010 A 
ATOM     36  C   UNL A   1      40.782  25.027  27.545  1.00  0.00    -0.014 A 
BRANCH  36  37
ATOM     37  C   UNL A   1      41.410  26.296  27.964  1.00  0.00     0.031 A 
ATOM     38  C   UNL A   1      42.827  26.616  27.592  1.00  0.00     0.074 A 
ATOM     39  C   UNL A   1      40.685  27.143  28.717  1.00  0.00     0.049 A 
ATOM     40  N   UNL A   1      43.488  27.725  27.786  1.00  0.00    -0.248 NA
ATOM     41  C   UNL A   1      43.611  25.559  26.931  1.00  0.00     0.031 C 
ATOM     42  C   UNL A   1      39.336  26.871  29.224  1.00  0.00     0.029 A 
ATOM     43  N   UNL A   1      40.972  28.396  29.185  1.00  0.00    -0.354 N 
ATOM     44  C   UNL A   1      44.762  27.502  27.281  1.00  0.00     0.074 A 
ATOM     45  C   UNL A   1      44.798  26.139  26.801  1.00  0.00     0.031 C 
ATOM     46  C   UNL A   1      38.897  27.945  29.896  1.00  0.00     0.029 A 
ATOM     47  C   UNL A   1      39.935  28.970  29.881  1.00  0.00     0.049 A 
ATOM     48  H   UNL A   1      41.837  28.844  29.038  1.00  0.00     0.167 HD
ATOM     49  C   UNL A   1      45.793  28.373  27.197  1.00  0.00     0.034 A 
ATOM     50  C   UNL A   1      39.825  30.196  30.425  1.00  0.00     0.034 A 
ATOM     51  C   UNL A   1      45.726  29.737  27.647  1.00  0.00     0.049 A 
ATOM     52  C   UNL A   1      40.962  31.162  30.267  1.00  0.00     0.074 A 
ATOM     53  C   UNL A   1      46.684  30.727  27.527  1.00  0.00     0.029 A 
ATOM     54  N   UNL A   1      44.645  30.298  28.306  1.00  0.00    -0.354 N 
ATOM     55  N   UNL A   1      42.105  30.986  29.647  1.00  0.00    -0.248 NA
ATOM     56  C   UNL A   1      40.791  32.497  30.852  1.00  0.00     0.031 C 
ATOM     57  C   UNL A   1      46.186  31.887  28.126  1.00  0.00     0.029 A 
ATOM     58  C   UNL A   1      44.912  31.621  28.606  1.00  0.00     0.049 A 
ATOM     59  H   UNL A   1      43.810  29.826  28.528  1.00  0.00     0.167 HD
ATOM     60  C   UNL A   1      42.784  32.191  29.752  1.00  0.00     0.074 A 
ATOM     61  C   UNL A   1      41.917  33.096  30.481  1.00  0.00     0.031 C 
ATOM     62  C   UNL A   1      44.020  32.513  29.300  1.00  0.00     0.034 A 
BRANCH  49  63
ATOM     63  C   UNL A   1      47.060  27.919  26.525  1.00  0.00     0.023 A 
ATOM     64  C   UNL A   1      48.049  27.277  27.298  1.00  0.00     0.012 A 
ATOM     65  C   UNL A   1      47.221  28.015  25.131  1.00  0.00     0.148 A 
ATOM     66  C   UNL A   1      49.183  26.739  26.693  1.00  0.00     0.002 A 
ATOM     67  C   UNL A   1      48.342  27.452  24.530  1.00  0.00     0.091 A 
ATOM     68  F   UNL A   1      46.273  28.640  24.420  1.00  0.00    -0.205 F 
ATOM     69  C   UNL A   1      49.324  26.817  25.310  1.00  0.00     0.022 A 
BRANCH  67  70
ATOM     70  S   UNL A   1      48.600  27.448  22.752  1.00  0.00     0.127 S 
ATOM     71  O   UNL A   1      49.896  28.117  22.641  1.00  0.00    -0.237 OA
ATOM     72  O   UNL A   1      48.625  26.016  22.452  1.00  0.00    -0.237 OA
ATOM     73  O   UNL A   1      47.479  28.178  22.178  1.00  0.00    -0.744 OA
ENDBRANCH  67  70
ENDBRANCH  49  63
BRANCH  50  74
ATOM     74  C   UNL A   1      38.549  30.584  31.078  1.00  0.00     0.023 A 
ATOM     75  C   UNL A   1      38.395  30.382  32.463  1.00  0.00     0.012 A 
ATOM     76  C   UNL A   1      37.536  31.243  30.357  1.00  0.00     0.148 A 
ATOM     77  C   UNL A   1      37.247  30.827  33.120  1.00  0.00     0.002 A 
ATOM     78  C   UNL A   1      36.412  31.716  31.024  1.00  0.00     0.091 A 
ATOM     79  F   UNL A   1      37.711  31.424  29.041  1.00  0.00    -0.205 F 
ATOM     80  C   UNL A   1      36.262  31.502  32.404  1.00  0.00     0.022 A 
BRANCH  78  81
ATOM     81  S   UNL A   1      35.140  32.688  30.210  1.00  0.00     0.127 S 
ATOM     82  O   UNL A   1      35.899  33.847  29.751  1.00  0.00    -0.237 OA
ATOM     83  O   UNL A   1      34.701  31.778  29.151  1.00  0.00    -0.237 OA
ATOM     84  O   UNL A   1      34.135  32.961  31.230  1.00  0.00    -0.744 OA
ENDBRANCH  78  81
ENDBRANCH  50  74
BRANCH  62  85
ATOM     85  C   UNL A   1      44.526  33.900  29.571  1.00  0.00     0.023 A 
ATOM     86  C   UNL A   1      45.191  34.164  30.784  1.00  0.00     0.012 A 
ATOM     87  C   UNL A   1      44.467  34.893  28.575  1.00  0.00     0.148 A 
ATOM     88  C   UNL A   1      45.785  35.404  31.005  1.00  0.00     0.002 A 
ATOM     89  C   UNL A   1      45.093  36.114  28.789  1.00  0.00     0.091 A 
ATOM     90  F   UNL A   1      43.824  34.612  27.432  1.00  0.00    -0.205 F 
ATOM     91  C   UNL A   1      45.748  36.372  30.005  1.00  0.00     0.022 A 
BRANCH  89  92
ATOM     92  S   UNL A   1      45.166  37.397  27.533  1.00  0.00     0.127 S 
ATOM     93  O   UNL A   1      43.748  37.620  27.254  1.00  0.00    -0.237 OA
ATOM     94  O   UNL A   1      45.828  38.489  28.247  1.00  0.00    -0.237 OA
ATOM     95  O   UNL A   1      45.932  36.839  26.427  1.00  0.00    -0.744 OA
ENDBRANCH  89  92
ENDBRANCH  62  85
ENDBRANCH  36  37
ENDBRANCH  29  31
ENDBRANCH  28  29
ENDBRANCH   1  28
TORSDOF 16
ENDMDL
MODEL 2
REMARK VINA RESULT:     -12.4      5.244     10.199
REMARK SMILES Nc1oc2ccc(F)cc2c(=O)c1[C@@H]1[NH2+][C@H](C(=O)OCCOC(=O)c2ccc(-c3c4nc(c(-c5cccc(S(=O)(=O)[O-])c5F)c5ccc([nH]5)c(-c5cccc(S(=O)(=O)[O-])c5F)c5nc(c(-c6cccc(S(=O)(=O)[O-])c6F)c6ccc3[nH]6)C=C5)C=C4)cc2)CS1
REMARK SMILES IDX 21 1 20 2 19 3 17 4 18 5 16 6 14 7 15 8 89 9 88 12 13 13
REMARK SMILES IDX 2 14 3 15 4 16 11 17 5 18 10 19 12 20 6 21 9 22 7 23 8 24
REMARK SMILES IDX 1 25 22 28 23 29 24 30 25 31 26 32 87 33 27 34 86 35 28 36
REMARK SMILES IDX 29 37 30 38 80 39 31 40 85 41 79 42 81 43 32 44 84 45 78 46
REMARK SMILES IDX 77 47 33 49 65 50 45 51 64 52 46 53 49 54 63 55 82 56 47 57
REMARK SMILES IDX 48 58 62 60 83 61 50 62 34 63 35 64 43 65 36 66 38 67 44 68
REMARK SMILES IDX 37 69 39 70 40 71 41 72 42 73 66 74 67 75 75 76 68 77 70 78
REMARK SMILES IDX 76 79 69 80 71 81 72 82 73 83 74 84 51 85 52 86 60 87 53 88
REMARK SMILES IDX 55 89 61 90 54 91 56 92 57 93 58 94 59 95
REMARK H PARENT 15 10 15 11 1 26 1 27 81 48 49 59
REMARK Flexibility Score: inf
ROOT
ATOM      1  C   UNL A   1      32.139  30.516  26.006  1.00  0.00     0.275 C 
ENDROOT
BRANCH   1   2
ATOM      2  C   UNL A   1      32.894  29.553  25.091  1.00  0.00     0.274 C 
BRANCH   2   3
ATOM      3  O   UNL A   1      31.951  28.789  24.314  1.00  0.00    -0.458 OA
BRANCH   3   4
ATOM      4  C   UNL A   1      32.285  28.479  23.034  1.00  0.00     0.365 C 
ATOM      5  O   UNL A   1      33.342  28.802  22.500  1.00  0.00    -0.245 OA
BRANCH   4   6
ATOM      6  C   UNL A   1      31.235  27.606  22.320  1.00  0.00     0.304 C 
ATOM      7  C   UNL A   1      31.467  25.261  22.826  1.00  0.00     0.283 C 
ATOM      8  N   UNL A   1      31.738  26.302  21.834  1.00  0.00    -0.319 N 
ATOM      9  S   UNL A   1      29.960  25.716  23.723  1.00  0.00    -0.087 SA
ATOM     10  H   UNL A   1      31.270  26.065  20.960  1.00  0.00     0.348 HD
ATOM     11  H   UNL A   1      32.744  26.367  21.682  1.00  0.00     0.348 HD
ATOM     12  C   UNL A   1      29.971  27.433  23.155  1.00  0.00     0.153 C 
BRANCH   7  13
ATOM     13  C   UNL A   1      32.661  24.978  23.705  1.00  0.00     0.128 A 
ATOM     14  C   UNL A   1      32.908  25.401  24.966  1.00  0.00     0.205 A 
ATOM     15  O   UNL A   1      34.116  25.214  25.617  1.00  0.00    -0.440 OA
ATOM     16  C   UNL A   1      35.017  24.330  25.105  1.00  0.00     0.140 A 
ATOM     17  C   UNL A   1      33.685  24.101  23.063  1.00  0.00     0.205 A 
ATOM     18  C   UNL A   1      36.121  24.021  25.899  1.00  0.00     0.051 A 
ATOM     19  C   UNL A   1      34.844  23.718  23.874  1.00  0.00     0.068 A 
ATOM     20  O   UNL A   1      33.564  23.645  21.931  1.00  0.00    -0.288 OA
ATOM     21  C   UNL A   1      37.021  23.046  25.474  1.00  0.00     0.043 A 
ATOM     22  C   UNL A   1      35.742  22.740  23.439  1.00  0.00     0.055 A 
ATOM     23  C   UNL A   1      36.815  22.404  24.256  1.00  0.00     0.124 A 
ATOM     24  F   UNL A   1      37.659  21.438  23.874  1.00  0.00    -0.207 F 
BRANCH  14  25
ATOM     25  N   UNL A   1      32.031  26.095  25.748  1.00  0.00    -0.369 N 
ATOM     26  H   UNL A   1      31.207  26.462  25.355  1.00  0.00     0.159 HD
ATOM     27  H   UNL A   1      32.224  26.230  26.703  1.00  0.00     0.159 HD
ENDBRANCH  14  25
ENDBRANCH   7  13
ENDBRANCH   4   6
ENDBRANCH   3   4
ENDBRANCH   2   3
ENDBRANCH   1   2
BRANCH   1  28
ATOM     28  O   UNL A   1      32.818  30.624  27.268  1.00  0.00    -0.458 OA
BRANCH  28  29
ATOM     29  C   UNL A   1      33.535  31.761  27.438  1.00  0.00     0.338 C 
ATOM     30  O   UNL A   1      33.169  32.911  27.276  1.00  0.00    -0.246 OA
BRANCH  29  31
ATOM     31  C   UNL A   1      34.816  31.384  28.043  1.00  0.00     0.060 A 
ATOM     32  C   UNL A   1      35.863  32.296  28.125  1.00  0.00     0.016 A 
ATOM     33  C   UNL A   1      34.957  30.084  28.533  1.00  0.00     0.016 A 
ATOM     34  C   UNL A   1      37.071  31.882  28.682  1.00  0.00     0.010 A 
ATOM     35  C   UNL A   1      36.153  29.674  29.104  1.00  0.00     0.010 A 
ATOM     36  C   UNL A   1      37.223  30.570  29.171  1.00  0.00    -0.014 A 
BRANCH  36  37
ATOM     37  C   UNL A   1      38.484  30.157  29.819  1.00  0.00     0.031 A 
ATOM     38  C   UNL A   1      38.855  30.664  31.180  1.00  0.00     0.074 A 
ATOM     39  C   UNL A   1      39.306  29.338  29.138  1.00  0.00     0.049 A 
ATOM     40  N   UNL A   1      39.865  30.315  31.930  1.00  0.00    -0.248 NA
ATOM     41  C   UNL A   1      37.996  31.702  31.776  1.00  0.00     0.031 C 
ATOM     42  C   UNL A   1      39.085  28.879  27.763  1.00  0.00     0.029 A 
ATOM     43  N   UNL A   1      40.483  28.744  29.503  1.00  0.00    -0.354 N 
ATOM     44  C   UNL A   1      39.773  31.091  33.078  1.00  0.00     0.074 A 
ATOM     45  C   UNL A   1      38.626  31.956  32.917  1.00  0.00     0.031 C 
ATOM     46  C   UNL A   1      40.073  28.042  27.417  1.00  0.00     0.029 A 
ATOM     47  C   UNL A   1      41.001  27.917  28.536  1.00  0.00     0.049 A 
ATOM     48  H   UNL A   1      40.917  28.894  30.375  1.00  0.00     0.167 HD
ATOM     49  C   UNL A   1      40.557  31.053  34.179  1.00  0.00     0.034 A 
ATOM     50  C   UNL A   1      42.091  27.128  28.558  1.00  0.00     0.034 A 
ATOM     51  C   UNL A   1      41.672  30.159  34.336  1.00  0.00     0.049 A 
ATOM     52  C   UNL A   1      42.910  27.061  29.813  1.00  0.00     0.074 A 
ATOM     53  C   UNL A   1      42.476  29.978  35.447  1.00  0.00     0.029 A 
ATOM     54  N   UNL A   1      42.141  29.302  33.353  1.00  0.00    -0.354 N 
ATOM     55  N   UNL A   1      42.717  27.685  30.950  1.00  0.00    -0.248 NA
ATOM     56  C   UNL A   1      44.074  26.167  29.804  1.00  0.00     0.031 C 
ATOM     57  C   UNL A   1      43.442  29.019  35.131  1.00  0.00     0.029 A 
ATOM     58  C   UNL A   1      43.228  28.593  33.828  1.00  0.00     0.049 A 
ATOM     59  H   UNL A   1      41.756  29.212  32.452  1.00  0.00     0.167 HD
ATOM     60  C   UNL A   1      43.724  27.250  31.799  1.00  0.00     0.074 A 
ATOM     61  C   UNL A   1      44.517  26.294  31.050  1.00  0.00     0.031 C 
ATOM     62  C   UNL A   1      43.979  27.620  33.077  1.00  0.00     0.034 A 
BRANCH  49  63
ATOM     63  C   UNL A   1      40.201  31.939  35.341  1.00  0.00     0.023 A 
ATOM     64  C   UNL A   1      40.824  33.199  35.452  1.00  0.00     0.012 A 
ATOM     65  C   UNL A   1      39.181  31.586  36.243  1.00  0.00     0.148 A 
ATOM     66  C   UNL A   1      40.437  34.096  36.447  1.00  0.00     0.002 A 
ATOM     67  C   UNL A   1      38.781  32.496  37.216  1.00  0.00     0.091 A 
ATOM     68  F   UNL A   1      38.613  30.379  36.123  1.00  0.00    -0.205 F 
ATOM     69  C   UNL A   1      39.410  33.748  37.320  1.00  0.00     0.022 A 
BRANCH  67  70
ATOM     70  S   UNL A   1      37.433  32.174  38.359  1.00  0.00     0.127 S 
ATOM     71  O   UNL A   1      38.007  32.630  39.626  1.00  0.00    -0.237 OA
ATOM     72  O   UNL A   1      36.372  33.030  37.828  1.00  0.00    -0.237 OA
ATOM     73  O   UNL A   1      37.168  30.745  38.282  1.00  0.00    -0.744 OA
ENDBRANCH  67  70
ENDBRANCH  49  63
BRANCH  50  74
ATOM     74  C   UNL A   1      42.390  26.277  27.377  1.00  0.00     0.023 A 
ATOM     75  C   UNL A   1      43.198  26.792  26.345  1.00  0.00     0.012 A 
ATOM     76  C   UNL A   1      41.967  24.936  27.322  1.00  0.00     0.148 A 
ATOM     77  C   UNL A   1      43.576  25.984  25.273  1.00  0.00     0.002 A 
ATOM     78  C   UNL A   1      42.378  24.127  26.271  1.00  0.00     0.091 A 
ATOM     79  F   UNL A   1      41.202  24.473  28.320  1.00  0.00    -0.205 F 
ATOM     80  C   UNL A   1      43.176  24.651  25.240  1.00  0.00     0.022 A 
BRANCH  78  81
ATOM     81  S   UNL A   1      42.002  22.372  26.194  1.00  0.00     0.127 S 
ATOM     82  O   UNL A   1      42.712  21.968  24.983  1.00  0.00    -0.237 OA
ATOM     83  O   UNL A   1      42.587  21.886  27.444  1.00  0.00    -0.237 OA
ATOM     84  O   UNL A   1      40.549  22.280  26.127  1.00  0.00    -0.744 OA
ENDBRANCH  78  81
ENDBRANCH  50  74
BRANCH  62  85
ATOM     85  C   UNL A   1      45.160  27.000  33.765  1.00  0.00     0.023 A 
ATOM     86  C   UNL A   1      46.407  27.652  33.709  1.00  0.00     0.012 A 
ATOM     87  C   UNL A   1      45.002  25.858  34.572  1.00  0.00     0.148 A 
ATOM     88  C   UNL A   1      47.486  27.169  34.446  1.00  0.00     0.002 A 
ATOM     89  C   UNL A   1      46.072  25.404  35.331  1.00  0.00     0.091 A 
ATOM     90  F   UNL A   1      43.803  25.258  34.601  1.00  0.00    -0.205 F 
ATOM     91  C   UNL A   1      47.316  26.055  35.266  1.00  0.00     0.022 A 
BRANCH  89  92
ATOM     92  S   UNL A   1      45.932  24.025  36.474  1.00  0.00     0.127 S 
ATOM     93  O   UNL A   1      44.841  24.469  37.342  1.00  0.00    -0.237 OA
ATOM     94  O   UNL A   1      45.591  22.918  35.582  1.00  0.00    -0.237 OA
ATOM     95  O   UNL A   1      47.229  23.906  37.127  1.00  0.00    -0.744 OA
ENDBRANCH  89  92
ENDBRANCH  62  85
ENDBRANCH  36  37
ENDBRANCH  29  31
ENDBRANCH  28  29
ENDBRANCH   1  28
TORSDOF 16
ENDMDL
MODEL 3
REMARK VINA RESULT:     -12.1      5.226     10.120
REMARK SMILES Nc1oc2ccc(F)cc2c(=O)c1[C@@H]1[NH2+][C@H](C(=O)OCCOC(=O)c2ccc(-c3c4nc(c(-c5cccc(S(=O)(=O)[O-])c5F)c5ccc([nH]5)c(-c5cccc(S(=O)(=O)[O-])c5F)c5nc(c(-c6cccc(S(=O)(=O)[O-])c6F)c6ccc3[nH]6)C=C5)C=C4)cc2)CS1
REMARK SMILES IDX 21 1 20 2 19 3 17 4 18 5 16 6 14 7 15 8 89 9 88 12 13 13
REMARK SMILES IDX 2 14 3 15 4 16 11 17 5 18 10 19 12 20 6 21 9 22 7 23 8 24
REMARK SMILES IDX 1 25 22 28 23 29 24 30 25 31 26 32 87 33 27 34 86 35 28 36
REMARK SMILES IDX 29 37 30 38 80 39 31 40 85 41 79 42 81 43 32 44 84 45 78 46
REMARK SMILES IDX 77 47 33 49 65 50 45 51 64 52 46 53 49 54 63 55 82 56 47 57
REMARK SMILES IDX 48 58 62 60 83 61 50 62 34 63 35 64 43 65 36 66 38 67 44 68
REMARK SMILES IDX 37 69 39 70 40 71 41 72 42 73 66 74 67 75 75 76 68 77 70 78
REMARK SMILES IDX 76 79 69 80 71 81 72 82 73 83 74 84 51 85 52 86 60 87 53 88
REMARK SMILES IDX 55 89 61 90 54 91 56 92 57 93 58 94 59 95
REMARK H PARENT 15 10 15 11 1 26 1 27 81 48 49 59
REMARK Flexibility Score: inf
ROOT
ATOM      1  C   UNL A   1      31.681  29.967  26.590  1.00  0.00     0.275 C 
ENDROOT
BRANCH   1   2
ATOM      2  C   UNL A   1      31.728  28.534  27.121  1.00  0.00     0.274 C 
BRANCH   2   3
ATOM      3  O   UNL A   1      32.420  27.694  26.178  1.00  0.00    -0.458 OA
BRANCH   3   4
ATOM      4  C   UNL A   1      31.722  27.227  25.110  1.00  0.00     0.365 C 
ATOM      5  O   UNL A   1      30.666  26.606  25.194  1.00  0.00    -0.245 OA
BRANCH   4   6
ATOM      6  C   UNL A   1      32.343  27.615  23.754  1.00  0.00     0.304 C 
ATOM      7  C   UNL A   1      32.939  25.702  22.416  1.00  0.00     0.283 C 
ATOM      8  N   UNL A   1      33.451  26.744  23.306  1.00  0.00    -0.319 N 
ATOM      9  S   UNL A   1      31.497  26.365  21.543  1.00  0.00    -0.087 SA
ATOM     10  H   UNL A   1      34.141  27.306  22.807  1.00  0.00     0.348 HD
ATOM     11  H   UNL A   1      33.883  26.307  24.120  1.00  0.00     0.348 HD
ATOM     12  C   UNL A   1      31.287  27.768  22.664  1.00  0.00     0.153 C 
BRANCH   7  13
ATOM     13  C   UNL A   1      32.695  24.398  23.136  1.00  0.00     0.128 A 
ATOM     14  C   UNL A   1      31.519  23.832  23.494  1.00  0.00     0.205 A 
ATOM     15  O   UNL A   1      31.420  22.710  24.298  1.00  0.00    -0.440 OA
ATOM     16  C   UNL A   1      32.531  21.955  24.527  1.00  0.00     0.140 A 
ATOM     17  C   UNL A   1      33.945  23.656  23.476  1.00  0.00     0.205 A 
ATOM     18  C   UNL A   1      32.343  20.730  25.166  1.00  0.00     0.051 A 
ATOM     19  C   UNL A   1      33.795  22.345  24.113  1.00  0.00     0.068 A 
ATOM     20  O   UNL A   1      35.066  24.062  23.189  1.00  0.00    -0.288 OA
ATOM     21  C   UNL A   1      33.426  19.869  25.333  1.00  0.00     0.043 A 
ATOM     22  C   UNL A   1      34.887  21.489  24.278  1.00  0.00     0.055 A 
ATOM     23  C   UNL A   1      34.684  20.250  24.873  1.00  0.00     0.124 A 
ATOM     24  F   UNL A   1      35.711  19.400  24.998  1.00  0.00    -0.207 F 
BRANCH  14  25
ATOM     25  N   UNL A   1      30.285  24.302  23.152  1.00  0.00    -0.369 N 
ATOM     26  H   UNL A   1      29.575  24.359  23.831  1.00  0.00     0.159 HD
ATOM     27  H   UNL A   1      30.104  24.582  22.226  1.00  0.00     0.159 HD
ENDBRANCH  14  25
ENDBRANCH   7  13
ENDBRANCH   4   6
ENDBRANCH   3   4
ENDBRANCH   2   3
ENDBRANCH   1   2
BRANCH   1  28
ATOM     28  O   UNL A   1      33.015  30.442  26.350  1.00  0.00    -0.458 OA
BRANCH  28  29
ATOM     29  C   UNL A   1      33.367  31.545  27.053  1.00  0.00     0.338 C 
ATOM     30  O   UNL A   1      32.723  32.564  27.225  1.00  0.00    -0.246 OA
BRANCH  29  31
ATOM     31  C   UNL A   1      34.619  31.238  27.750  1.00  0.00     0.060 A 
ATOM     32  C   UNL A   1      35.588  32.217  27.942  1.00  0.00     0.016 A 
ATOM     33  C   UNL A   1      34.814  29.936  28.215  1.00  0.00     0.016 A 
ATOM     34  C   UNL A   1      36.775  31.870  28.585  1.00  0.00     0.010 A 
ATOM     35  C   UNL A   1      35.987  29.592  28.871  1.00  0.00     0.010 A 
ATOM     36  C   UNL A   1      36.981  30.557  29.049  1.00  0.00    -0.014 A 
BRANCH  36  37
ATOM     37  C   UNL A   1      38.213  30.211  29.787  1.00  0.00     0.031 A 
ATOM     38  C   UNL A   1      38.462  30.745  31.165  1.00  0.00     0.074 A 
ATOM     39  C   UNL A   1      39.119  29.429  29.173  1.00  0.00     0.049 A 
ATOM     40  N   UNL A   1      39.435  30.452  31.986  1.00  0.00    -0.248 NA
ATOM     41  C   UNL A   1      37.515  31.743  31.689  1.00  0.00     0.031 C 
ATOM     42  C   UNL A   1      39.017  28.951  27.791  1.00  0.00     0.029 A 
ATOM     43  N   UNL A   1      40.296  28.897  29.624  1.00  0.00    -0.354 N 
ATOM     44  C   UNL A   1      39.225  31.230  33.117  1.00  0.00     0.074 A 
ATOM     45  C   UNL A   1      38.050  32.035  32.869  1.00  0.00     0.031 C 
ATOM     46  C   UNL A   1      40.066  28.161  27.522  1.00  0.00     0.029 A 
ATOM     47  C   UNL A   1      40.920  28.090  28.704  1.00  0.00     0.049 A 
ATOM     48  H   UNL A   1      40.661  29.074  30.522  1.00  0.00     0.167 HD
ATOM     49  C   UNL A   1      39.931  31.238  34.270  1.00  0.00     0.034 A 
ATOM     50  C   UNL A   1      42.042  27.356  28.809  1.00  0.00     0.034 A 
ATOM     51  C   UNL A   1      41.075  30.402  34.513  1.00  0.00     0.049 A 
ATOM     52  C   UNL A   1      42.775  27.339  30.118  1.00  0.00     0.074 A 
ATOM     53  C   UNL A   1      41.808  30.268  35.678  1.00  0.00     0.029 A 
ATOM     54  N   UNL A   1      41.652  29.563  33.574  1.00  0.00    -0.354 N 
ATOM     55  N   UNL A   1      42.472  27.960  31.232  1.00  0.00    -0.248 NA
ATOM     56  C   UNL A   1      43.979  26.503  30.199  1.00  0.00     0.031 C 
ATOM     57  C   UNL A   1      42.839  29.356  35.440  1.00  0.00     0.029 A 
ATOM     58  C   UNL A   1      42.738  28.912  34.129  1.00  0.00     0.049 A 
ATOM     59  H   UNL A   1      41.336  29.447  32.649  1.00  0.00     0.167 HD
ATOM     60  C   UNL A   1      43.439  27.582  32.153  1.00  0.00     0.074 A 
ATOM     61  C   UNL A   1      44.327  26.661  31.470  1.00  0.00     0.031 C 
ATOM     62  C   UNL A   1      43.586  27.972  33.442  1.00  0.00     0.034 A 
BRANCH  49  63
ATOM     63  C   UNL A   1      39.453  32.114  35.396  1.00  0.00     0.023 A 
ATOM     64  C   UNL A   1      38.629  31.553  36.392  1.00  0.00     0.012 A 
ATOM     65  C   UNL A   1      39.906  33.439  35.534  1.00  0.00     0.148 A 
ATOM     66  C   UNL A   1      38.259  32.299  37.510  1.00  0.00     0.002 A 
ATOM     67  C   UNL A   1      39.557  34.169  36.665  1.00  0.00     0.091 A 
ATOM     68  F   UNL A   1      40.679  33.953  34.567  1.00  0.00    -0.205 F 
ATOM     69  C   UNL A   1      38.732  33.601  37.651  1.00  0.00     0.022 A 
BRANCH  67  70
ATOM     70  S   UNL A   1      40.152  35.835  36.974  1.00  0.00     0.127 S 
ATOM     71  O   UNL A   1      39.468  36.164  38.225  1.00  0.00    -0.237 OA
ATOM     72  O   UNL A   1      41.594  35.625  37.104  1.00  0.00    -0.237 OA
ATOM     73  O   UNL A   1      39.747  36.631  35.824  1.00  0.00    -0.744 OA
ENDBRANCH  67  70
ENDBRANCH  49  63
BRANCH  50  74
ATOM     74  C   UNL A   1      42.465  26.514  27.660  1.00  0.00     0.023 A 
ATOM     75  C   UNL A   1      43.398  27.025  26.738  1.00  0.00     0.012 A 
ATOM     76  C   UNL A   1      42.027  25.182  27.537  1.00  0.00     0.148 A 
ATOM     77  C   UNL A   1      43.886  26.222  25.707  1.00  0.00     0.002 A 
ATOM     78  C   UNL A   1      42.545  24.376  26.531  1.00  0.00     0.091 A 
ATOM     79  F   UNL A   1      41.141  24.722  28.431  1.00  0.00    -0.205 F 
ATOM     80  C   UNL A   1      43.469  24.897  25.609  1.00  0.00     0.022 A 
BRANCH  78  81
ATOM     81  S   UNL A   1      42.151  22.630  26.386  1.00  0.00     0.127 S 
ATOM     82  O   UNL A   1      42.718  22.094  27.620  1.00  0.00    -0.237 OA
ATOM     83  O   UNL A   1      40.688  22.658  26.340  1.00  0.00    -0.237 OA
ATOM     84  O   UNL A   1      42.788  22.180  25.156  1.00  0.00    -0.744 OA
ENDBRANCH  78  81
ENDBRANCH  50  74
BRANCH  62  85
ATOM     85  C   UNL A   1      44.745  27.416  34.216  1.00  0.00     0.023 A 
ATOM     86  C   UNL A   1      45.964  28.120  34.227  1.00  0.00     0.012 A 
ATOM     87  C   UNL A   1      44.584  26.282  35.035  1.00  0.00     0.148 A 
ATOM     88  C   UNL A   1      47.013  27.698  35.041  1.00  0.00     0.002 A 
ATOM     89  C   UNL A   1      45.621  25.888  35.869  1.00  0.00     0.091 A 
ATOM     90  F   UNL A   1      43.412  25.631  34.999  1.00  0.00    -0.205 F 
ATOM     91  C   UNL A   1      46.837  26.592  35.870  1.00  0.00     0.022 A 
BRANCH  89  92
ATOM     92  S   UNL A   1      45.466  24.525  37.029  1.00  0.00     0.127 S 
ATOM     93  O   UNL A   1      45.128  23.415  36.138  1.00  0.00    -0.237 OA
ATOM     94  O   UNL A   1      46.809  24.458  37.606  1.00  0.00    -0.237 OA
ATOM     95  O   UNL A   1      44.418  24.906  37.965  1.00  0.00    -0.744 OA
ENDBRANCH  89  92
ENDBRANCH  62  85
ENDBRANCH  36  37
ENDBRANCH  29  31
ENDBRANCH  28  29
ENDBRANCH   1  28
TORSDOF 16
ENDMDL
