MODEL 1
REMARK VINA RESULT:     -12.7      0.000      0.000
REMARK SMILES C[C@@H](C(=O)OCCOC(=O)c1ccc(-c2c3nc(c(-c4cccc(S(=O)(=O)[O-])c4F)c4ccc([nH]4)c(-c4cccc(S(=O)(=O)[O-])c4F)c4nc(c(-c5cccc(S(=O)(=O)[O-])c5F)c5ccc2[nH]5)C=C4)C=C3)cc1)c1ccc2c3cc(Cl)ccc3n(C(=O)c3cocn3)c2c1
REMARK SMILES IDX 6 1 5 2 3 3 4 4 2 5 1 6 74 7 75 8 94 9 76 10 93 11 77 12
REMARK SMILES IDX 85 13 78 14 84 15 79 16 83 17 80 18 82 19 81 20 86 21 87 22
REMARK SMILES IDX 88 23 89 24 92 25 90 26 91 27 7 28 8 29 9 30 10 31 11 32
REMARK SMILES IDX 12 33 73 34 13 35 72 36 14 37 15 38 16 39 66 40 17 41 71 42
REMARK SMILES IDX 65 43 67 44 18 45 70 46 64 47 63 48 19 50 51 51 31 52 50 53
REMARK SMILES IDX 32 54 35 55 49 56 68 57 33 58 34 59 48 61 69 62 36 63 20 64
REMARK SMILES IDX 21 65 29 66 22 67 24 68 30 69 23 70 25 71 26 72 27 73 28 74
REMARK SMILES IDX 52 75 53 76 61 77 54 78 56 79 62 80 55 81 57 82 58 83 59 84
REMARK SMILES IDX 60 85 37 86 38 87 46 88 39 89 41 90 47 91 40 92 42 93 43 94
REMARK SMILES IDX 44 95 45 96
REMARK H PARENT 67 49 35 60
REMARK Flexibility Score: inf
ROOT
ATOM      1  C   UNL A   1      31.229  29.465  24.296  1.00  0.00     0.274 C 
ENDROOT
BRANCH   1   2
ATOM      2  O   UNL A   1      30.193  28.465  24.201  1.00  0.00    -0.462 OA
BRANCH   2   3
ATOM      3  C   UNL A   1      30.299  27.565  23.180  1.00  0.00     0.313 C 
ATOM      4  O   UNL A   1      30.332  27.905  22.003  1.00  0.00    -0.252 OA
BRANCH   3   5
ATOM      5  C   UNL A   1      30.261  26.095  23.673  1.00  0.00     0.126 C 
ATOM      6  C   UNL A   1      29.339  25.956  24.897  1.00  0.00     0.025 C 
BRANCH   5   7
ATOM      7  C   UNL A   1      31.662  25.477  23.881  1.00  0.00    -0.032 A 
ATOM      8  C   UNL A   1      32.758  26.297  24.175  1.00  0.00     0.005 A 
ATOM      9  C   UNL A   1      31.895  24.087  23.787  1.00  0.00     0.032 A 
ATOM     10  C   UNL A   1      34.005  25.764  24.523  1.00  0.00     0.011 A 
ATOM     11  C   UNL A   1      33.174  23.544  24.076  1.00  0.00     0.058 A 
ATOM     12  C   UNL A   1      34.205  24.370  24.508  1.00  0.00     0.008 A 
ATOM     13  N   UNL A   1      33.656  22.218  24.049  1.00  0.00    -0.274 N 
ATOM     14  C   UNL A   1      35.286  23.540  24.907  1.00  0.00     0.009 A 
ATOM     15  C   UNL A   1      34.979  22.226  24.532  1.00  0.00     0.057 A 
ATOM     16  C   UNL A   1      36.518  23.822  25.539  1.00  0.00     0.031 A 
ATOM     17  C   UNL A   1      35.962  21.220  24.651  1.00  0.00     0.029 A 
ATOM     18  C   UNL A   1      37.443  22.802  25.738  1.00  0.00     0.041 A 
ATOM     19  C   UNL A   1      37.179  21.521  25.279  1.00  0.00     0.023 A 
ATOM     20  Cl  UNL A   1      38.943  23.150  26.501  1.00  0.00    -0.084 Cl
BRANCH  13  21
ATOM     21  C   UNL A   1      32.900  21.102  23.578  1.00  0.00     0.284 C 
ATOM     22  O   UNL A   1      32.315  21.249  22.506  1.00  0.00    -0.266 OA
BRANCH  21  23
ATOM     23  C   UNL A   1      32.780  19.817  24.258  1.00  0.00     0.167 A 
ATOM     24  C   UNL A   1      32.709  19.561  25.611  1.00  0.00     0.231 A 
ATOM     25  N   UNL A   1      32.591  18.625  23.571  1.00  0.00    -0.211 NA
ATOM     26  O   UNL A   1      32.523  18.221  25.784  1.00  0.00    -0.451 OA
ATOM     27  C   UNL A   1      32.455  17.729  24.519  1.00  0.00     0.308 A 
ENDBRANCH  21  23
ENDBRANCH  13  21
ENDBRANCH   5   7
ENDBRANCH   3   5
ENDBRANCH   2   3
ENDBRANCH   1   2
BRANCH   1  28
ATOM     28  C   UNL A   1      31.686  29.655  25.743  1.00  0.00     0.275 C 
BRANCH  28  29
ATOM     29  O   UNL A   1      33.021  30.185  25.792  1.00  0.00    -0.458 OA
BRANCH  29  30
ATOM     30  C   UNL A   1      33.247  31.111  26.752  1.00  0.00     0.338 C 
ATOM     31  O   UNL A   1      32.491  31.990  27.127  1.00  0.00    -0.246 OA
BRANCH  30  32
ATOM     32  C   UNL A   1      34.519  30.805  27.422  1.00  0.00     0.060 A 
ATOM     33  C   UNL A   1      34.684  29.508  27.899  1.00  0.00     0.016 A 
ATOM     34  C   UNL A   1      35.496  31.773  27.658  1.00  0.00     0.016 A 
ATOM     35  C   UNL A   1      35.824  29.169  28.616  1.00  0.00     0.010 A 
ATOM     36  C   UNL A   1      36.649  31.425  28.380  1.00  0.00     0.010 A 
ATOM     37  C   UNL A   1      36.814  30.120  28.873  1.00  0.00    -0.014 A 
BRANCH  37  38
ATOM     38  C   UNL A   1      37.957  29.724  29.735  1.00  0.00     0.031 A 
ATOM     39  C   UNL A   1      39.077  28.908  29.156  1.00  0.00     0.074 A 
ATOM     40  C   UNL A   1      38.052  30.188  30.995  1.00  0.00     0.049 A 
ATOM     41  N   UNL A   1      40.177  28.495  29.727  1.00  0.00    -0.248 NA
ATOM     42  C   UNL A   1      38.951  28.524  27.740  1.00  0.00     0.031 C 
ATOM     43  C   UNL A   1      37.085  31.071  31.644  1.00  0.00     0.029 A 
ATOM     44  N   UNL A   1      39.026  30.003  31.947  1.00  0.00    -0.354 N 
ATOM     45  C   UNL A   1      40.849  27.755  28.765  1.00  0.00     0.074 A 
ATOM     46  C   UNL A   1      40.049  27.803  27.559  1.00  0.00     0.031 C 
ATOM     47  C   UNL A   1      37.531  31.382  32.873  1.00  0.00     0.029 A 
ATOM     48  C   UNL A   1      38.792  30.684  33.118  1.00  0.00     0.049 A 
ATOM     49  H   UNL A   1      39.818  29.437  31.803  1.00  0.00     0.167 HD
ATOM     50  C   UNL A   1      42.022  27.089  28.874  1.00  0.00     0.034 A 
ATOM     51  C   UNL A   1      39.513  30.740  34.256  1.00  0.00     0.034 A 
ATOM     52  C   UNL A   1      42.838  27.058  30.058  1.00  0.00     0.049 A 
ATOM     53  C   UNL A   1      40.795  29.952  34.360  1.00  0.00     0.074 A 
ATOM     54  C   UNL A   1      44.028  26.381  30.260  1.00  0.00     0.029 A 
ATOM     55  N   UNL A   1      42.551  27.726  31.237  1.00  0.00    -0.354 N 
ATOM     56  N   UNL A   1      41.423  29.266  33.437  1.00  0.00    -0.248 NA
ATOM     57  C   UNL A   1      41.469  29.954  35.668  1.00  0.00     0.031 C 
ATOM     58  C   UNL A   1      44.454  26.628  31.569  1.00  0.00     0.029 A 
ATOM     59  C   UNL A   1      43.538  27.472  32.175  1.00  0.00     0.049 A 
ATOM     60  H   UNL A   1      41.764  28.299  31.385  1.00  0.00     0.167 HD
ATOM     61  C   UNL A   1      42.582  28.787  34.040  1.00  0.00     0.074 A 
ATOM     62  C   UNL A   1      42.576  29.274  35.404  1.00  0.00     0.031 C 
ATOM     63  C   UNL A   1      43.552  27.997  33.517  1.00  0.00     0.034 A 
BRANCH  50  64
ATOM     64  C   UNL A   1      42.490  26.313  27.676  1.00  0.00     0.023 A 
ATOM     65  C   UNL A   1      43.091  26.986  26.595  1.00  0.00     0.012 A 
ATOM     66  C   UNL A   1      42.373  24.911  27.646  1.00  0.00     0.148 A 
ATOM     67  C   UNL A   1      43.554  26.272  25.491  1.00  0.00     0.002 A 
ATOM     68  C   UNL A   1      42.867  24.203  26.558  1.00  0.00     0.091 A 
ATOM     69  F   UNL A   1      41.766  24.297  28.673  1.00  0.00    -0.205 F 
ATOM     70  C   UNL A   1      43.452  24.882  25.477  1.00  0.00     0.022 A 
BRANCH  68  71
ATOM     71  S   UNL A   1      42.832  22.409  26.491  1.00  0.00     0.127 S 
ATOM     72  O   UNL A   1      41.905  22.174  25.386  1.00  0.00    -0.237 OA
ATOM     73  O   UNL A   1      44.227  22.081  26.196  1.00  0.00    -0.237 OA
ATOM     74  O   UNL A   1      42.375  21.972  27.802  1.00  0.00    -0.744 OA
ENDBRANCH  68  71
ENDBRANCH  50  64
BRANCH  51  75
ATOM     75  C   UNL A   1      39.088  31.633  35.373  1.00  0.00     0.023 A 
ATOM     76  C   UNL A   1      38.216  31.123  36.354  1.00  0.00     0.012 A 
ATOM     77  C   UNL A   1      39.541  32.961  35.484  1.00  0.00     0.148 A 
ATOM     78  C   UNL A   1      37.786  31.925  37.413  1.00  0.00     0.002 A 
ATOM     79  C   UNL A   1      39.156  33.735  36.574  1.00  0.00     0.091 A 
ATOM     80  F   UNL A   1      40.340  33.448  34.524  1.00  0.00    -0.205 F 
ATOM     81  C   UNL A   1      38.267  33.225  37.532  1.00  0.00     0.022 A 
BRANCH  79  82
ATOM     82  S   UNL A   1      39.853  35.367  36.861  1.00  0.00     0.127 S 
ATOM     83  O   UNL A   1      39.252  35.733  38.139  1.00  0.00    -0.237 OA
ATOM     84  O   UNL A   1      41.290  35.090  36.913  1.00  0.00    -0.237 OA
ATOM     85  O   UNL A   1      39.445  36.157  35.707  1.00  0.00    -0.744 OA
ENDBRANCH  79  82
ENDBRANCH  51  75
BRANCH  63  86
ATOM     86  C   UNL A   1      44.697  27.595  34.410  1.00  0.00     0.023 A 
ATOM     87  C   UNL A   1      45.828  28.429  34.505  1.00  0.00     0.012 A 
ATOM     88  C   UNL A   1      44.616  26.448  35.226  1.00  0.00     0.148 A 
ATOM     89  C   UNL A   1      46.871  28.117  35.376  1.00  0.00     0.002 A 
ATOM     90  C   UNL A   1      45.640  26.167  36.126  1.00  0.00     0.091 A 
ATOM     91  F   UNL A   1      43.540  25.655  35.113  1.00  0.00    -0.205 F 
ATOM     92  C   UNL A   1      46.772  26.994  36.194  1.00  0.00     0.022 A 
BRANCH  90  93
ATOM     93  S   UNL A   1      45.550  24.797  37.286  1.00  0.00     0.127 S 
ATOM     94  O   UNL A   1      45.410  23.652  36.388  1.00  0.00    -0.237 OA
ATOM     95  O   UNL A   1      46.842  24.881  37.970  1.00  0.00    -0.237 OA
ATOM     96  O   UNL A   1      44.402  25.072  38.139  1.00  0.00    -0.744 OA
ENDBRANCH  90  93
ENDBRANCH  63  86
ENDBRANCH  37  38
ENDBRANCH  30  32
ENDBRANCH  29  30
ENDBRANCH  28  29
ENDBRANCH   1  28
TORSDOF 17
ENDMDL
MODEL 2
REMARK VINA RESULT:     -12.6      4.637      7.650
REMARK SMILES C[C@@H](C(=O)OCCOC(=O)c1ccc(-c2c3nc(c(-c4cccc(S(=O)(=O)[O-])c4F)c4ccc([nH]4)c(-c4cccc(S(=O)(=O)[O-])c4F)c4nc(c(-c5cccc(S(=O)(=O)[O-])c5F)c5ccc2[nH]5)C=C4)C=C3)cc1)c1ccc2c3cc(Cl)ccc3n(C(=O)c3cocn3)c2c1
REMARK SMILES IDX 6 1 5 2 3 3 4 4 2 5 1 6 74 7 75 8 94 9 76 10 93 11 77 12
REMARK SMILES IDX 85 13 78 14 84 15 79 16 83 17 80 18 82 19 81 20 86 21 87 22
REMARK SMILES IDX 88 23 89 24 92 25 90 26 91 27 7 28 8 29 9 30 10 31 11 32
REMARK SMILES IDX 12 33 73 34 13 35 72 36 14 37 15 38 16 39 66 40 17 41 71 42
REMARK SMILES IDX 65 43 67 44 18 45 70 46 64 47 63 48 19 50 51 51 31 52 50 53
REMARK SMILES IDX 32 54 35 55 49 56 68 57 33 58 34 59 48 61 69 62 36 63 20 64
REMARK SMILES IDX 21 65 29 66 22 67 24 68 30 69 23 70 25 71 26 72 27 73 28 74
REMARK SMILES IDX 52 75 53 76 61 77 54 78 56 79 62 80 55 81 57 82 58 83 59 84
REMARK SMILES IDX 60 85 37 86 38 87 46 88 39 89 41 90 47 91 40 92 42 93 43 94
REMARK SMILES IDX 44 95 45 96
REMARK H PARENT 67 49 35 60
REMARK Flexibility Score: inf
ROOT
ATOM      1  C   UNL A   1      34.998  20.487  25.293  1.00  0.00     0.274 C 
ENDROOT
BRANCH   1   2
ATOM      2  O   UNL A   1      34.034  20.399  24.224  1.00  0.00    -0.462 OA
BRANCH   2   3
ATOM      3  C   UNL A   1      32.717  20.468  24.576  1.00  0.00     0.313 C 
ATOM      4  O   UNL A   1      32.194  19.659  25.334  1.00  0.00    -0.252 OA
BRANCH   3   5
ATOM      5  C   UNL A   1      31.957  21.598  23.833  1.00  0.00     0.126 C 
ATOM      6  C   UNL A   1      32.205  21.512  22.316  1.00  0.00     0.025 C 
BRANCH   5   7
ATOM      7  C   UNL A   1      32.210  23.004  24.422  1.00  0.00    -0.032 A 
ATOM      8  C   UNL A   1      32.818  23.144  25.675  1.00  0.00     0.005 A 
ATOM      9  C   UNL A   1      31.847  24.184  23.738  1.00  0.00     0.032 A 
ATOM     10  C   UNL A   1      33.205  24.396  26.170  1.00  0.00     0.011 A 
ATOM     11  C   UNL A   1      32.179  25.461  24.264  1.00  0.00     0.058 A 
ATOM     12  C   UNL A   1      32.913  25.563  25.440  1.00  0.00     0.008 A 
ATOM     13  N   UNL A   1      31.928  26.764  23.787  1.00  0.00    -0.274 N 
ATOM     14  C   UNL A   1      33.262  26.929  25.613  1.00  0.00     0.009 A 
ATOM     15  C   UNL A   1      32.572  27.674  24.648  1.00  0.00     0.057 A 
ATOM     16  C   UNL A   1      34.099  27.586  26.544  1.00  0.00     0.031 A 
ATOM     17  C   UNL A   1      32.599  29.085  24.706  1.00  0.00     0.029 A 
ATOM     18  C   UNL A   1      34.191  28.974  26.530  1.00  0.00     0.041 A 
ATOM     19  C   UNL A   1      33.434  29.717  25.638  1.00  0.00     0.023 A 
ATOM     20  Cl  UNL A   1      35.205  29.770  27.668  1.00  0.00    -0.084 Cl
BRANCH  13  21
ATOM     21  C   UNL A   1      31.129  27.056  22.640  1.00  0.00     0.284 C 
ATOM     22  O   UNL A   1      31.518  26.593  21.569  1.00  0.00    -0.266 OA
BRANCH  21  23
ATOM     23  C   UNL A   1      29.900  27.842  22.646  1.00  0.00     0.167 A 
ATOM     24  C   UNL A   1      28.750  27.637  23.380  1.00  0.00     0.231 A 
ATOM     25  N   UNL A   1      29.778  29.040  21.955  1.00  0.00    -0.211 NA
ATOM     26  O   UNL A   1      27.891  28.665  23.124  1.00  0.00    -0.451 OA
ATOM     27  C   UNL A   1      28.578  29.468  22.269  1.00  0.00     0.308 A 
ENDBRANCH  21  23
ENDBRANCH  13  21
ENDBRANCH   5   7
ENDBRANCH   3   5
ENDBRANCH   2   3
ENDBRANCH   1   2
BRANCH   1  28
ATOM     28  C   UNL A   1      36.367  20.922  24.770  1.00  0.00     0.275 C 
BRANCH  28  29
ATOM     29  O   UNL A   1      37.053  21.729  25.743  1.00  0.00    -0.458 OA
BRANCH  29  30
ATOM     30  C   UNL A   1      38.371  21.466  25.895  1.00  0.00     0.338 C 
ATOM     31  O   UNL A   1      38.987  20.500  25.480  1.00  0.00    -0.246 OA
BRANCH  30  32
ATOM     32  C   UNL A   1      39.021  22.627  26.520  1.00  0.00     0.060 A 
ATOM     33  C   UNL A   1      38.500  23.880  26.216  1.00  0.00     0.016 A 
ATOM     34  C   UNL A   1      40.163  22.511  27.315  1.00  0.00     0.016 A 
ATOM     35  C   UNL A   1      39.114  25.028  26.701  1.00  0.00     0.010 A 
ATOM     36  C   UNL A   1      40.779  23.674  27.807  1.00  0.00     0.010 A 
ATOM     37  C   UNL A   1      40.261  24.942  27.493  1.00  0.00    -0.014 A 
BRANCH  37  38
ATOM     38  C   UNL A   1      40.932  26.205  27.892  1.00  0.00     0.031 A 
ATOM     39  C   UNL A   1      42.311  26.509  27.380  1.00  0.00     0.074 A 
ATOM     40  C   UNL A   1      40.269  27.130  28.612  1.00  0.00     0.049 A 
ATOM     41  N   UNL A   1      43.049  27.568  27.579  1.00  0.00    -0.248 NA
ATOM     42  C   UNL A   1      42.932  25.494  26.513  1.00  0.00     0.031 C 
ATOM     43  C   UNL A   1      38.892  27.002  29.085  1.00  0.00     0.029 A 
ATOM     44  N   UNL A   1      40.658  28.373  29.048  1.00  0.00    -0.354 N 
ATOM     45  C   UNL A   1      44.242  27.329  26.913  1.00  0.00     0.074 A 
ATOM     46  C   UNL A   1      44.118  26.036  26.274  1.00  0.00     0.031 C 
ATOM     47  C   UNL A   1      38.537  28.136  29.712  1.00  0.00     0.029 A 
ATOM     48  C   UNL A   1      39.675  29.054  29.728  1.00  0.00     0.049 A 
ATOM     49  H   UNL A   1      41.555  28.743  28.888  1.00  0.00     0.167 HD
ATOM     50  C   UNL A   1      45.346  28.110  26.844  1.00  0.00     0.034 A 
ATOM     51  C   UNL A   1      39.691  30.276  30.296  1.00  0.00     0.034 A 
ATOM     52  C   UNL A   1      45.469  29.407  27.451  1.00  0.00     0.049 A 
ATOM     53  C   UNL A   1      40.951  31.104  30.237  1.00  0.00     0.074 A 
ATOM     54  C   UNL A   1      46.566  30.252  27.452  1.00  0.00     0.029 A 
ATOM     55  N   UNL A   1      44.469  30.048  28.164  1.00  0.00    -0.354 N 
ATOM     56  N   UNL A   1      42.068  30.868  29.594  1.00  0.00    -0.248 NA
ATOM     57  C   UNL A   1      40.945  32.373  30.982  1.00  0.00     0.031 C 
ATOM     58  C   UNL A   1      46.234  31.398  28.181  1.00  0.00     0.029 A 
ATOM     59  C   UNL A   1      44.925  31.274  28.618  1.00  0.00     0.049 A 
ATOM     60  H   UNL A   1      43.567  29.686  28.323  1.00  0.00     0.167 HD
ATOM     61  C   UNL A   1      42.882  31.973  29.825  1.00  0.00     0.074 A 
ATOM     62  C   UNL A   1      42.123  32.885  30.656  1.00  0.00     0.031 C 
ATOM     63  C   UNL A   1      44.151  32.200  29.405  1.00  0.00     0.034 A 
BRANCH  50  64
ATOM     64  C   UNL A   1      46.529  27.567  26.094  1.00  0.00     0.023 A 
ATOM     65  C   UNL A   1      46.644  27.789  24.709  1.00  0.00     0.012 A 
ATOM     66  C   UNL A   1      47.549  26.879  26.777  1.00  0.00     0.148 A 
ATOM     67  C   UNL A   1      47.752  27.314  24.009  1.00  0.00     0.002 A 
ATOM     68  C   UNL A   1      48.666  26.438  26.080  1.00  0.00     0.091 A 
ATOM     69  F   UNL A   1      47.400  26.651  28.090  1.00  0.00    -0.205 F 
ATOM     70  C   UNL A   1      48.767  26.649  24.695  1.00  0.00     0.022 A 
BRANCH  68  71
ATOM     71  S   UNL A   1      50.046  25.631  26.898  1.00  0.00     0.127 S 
ATOM     72  O   UNL A   1      50.996  25.483  25.797  1.00  0.00    -0.237 OA
ATOM     73  O   UNL A   1      50.432  26.618  27.907  1.00  0.00    -0.237 OA
ATOM     74  O   UNL A   1      49.512  24.390  27.443  1.00  0.00    -0.744 OA
ENDBRANCH  68  71
ENDBRANCH  50  64
BRANCH  51  75
ATOM     75  C   UNL A   1      38.452  30.838  30.909  1.00  0.00     0.023 A 
ATOM     76  C   UNL A   1      38.203  30.599  32.274  1.00  0.00     0.012 A 
ATOM     77  C   UNL A   1      37.534  31.608  30.171  1.00  0.00     0.148 A 
ATOM     78  C   UNL A   1      37.053  31.098  32.888  1.00  0.00     0.002 A 
ATOM     79  C   UNL A   1      36.420  32.153  30.803  1.00  0.00     0.091 A 
ATOM     80  F   UNL A   1      37.761  31.796  28.863  1.00  0.00    -0.205 F 
ATOM     81  C   UNL A   1      36.169  31.887  32.157  1.00  0.00     0.022 A 
BRANCH  79  82
ATOM     82  S   UNL A   1      35.322  33.294  29.954  1.00  0.00     0.127 S 
ATOM     83  O   UNL A   1      36.265  34.129  29.216  1.00  0.00    -0.237 OA
ATOM     84  O   UNL A   1      34.516  32.396  29.125  1.00  0.00    -0.237 OA
ATOM     85  O   UNL A   1      34.572  33.953  31.016  1.00  0.00    -0.744 OA
ENDBRANCH  79  82
ENDBRANCH  51  75
BRANCH  63  86
ATOM     86  C   UNL A   1      44.819  33.482  29.831  1.00  0.00     0.023 A 
ATOM     87  C   UNL A   1      45.608  33.496  30.998  1.00  0.00     0.012 A 
ATOM     88  C   UNL A   1      44.748  34.641  29.032  1.00  0.00     0.148 A 
ATOM     89  C   UNL A   1      46.294  34.649  31.378  1.00  0.00     0.002 A 
ATOM     90  C   UNL A   1      45.472  35.773  29.393  1.00  0.00     0.091 A 
ATOM     91  F   UNL A   1      43.980  34.616  27.933  1.00  0.00    -0.205 F 
ATOM     92  C   UNL A   1      46.236  35.783  30.570  1.00  0.00     0.022 A 
BRANCH  90  93
ATOM     93  S   UNL A   1      45.532  37.244  28.361  1.00  0.00     0.127 S 
ATOM     94  O   UNL A   1      46.433  38.108  29.123  1.00  0.00    -0.237 OA
ATOM     95  O   UNL A   1      46.095  36.727  27.112  1.00  0.00    -0.237 OA
ATOM     96  O   UNL A   1      44.157  37.710  28.251  1.00  0.00    -0.744 OA
ENDBRANCH  90  93
ENDBRANCH  63  86
ENDBRANCH  37  38
ENDBRANCH  30  32
ENDBRANCH  29  30
ENDBRANCH  28  29
ENDBRANCH   1  28
TORSDOF 17
ENDMDL
MODEL 3
REMARK VINA RESULT:     -12.6      5.170     10.324
REMARK SMILES C[C@@H](C(=O)OCCOC(=O)c1ccc(-c2c3nc(c(-c4cccc(S(=O)(=O)[O-])c4F)c4ccc([nH]4)c(-c4cccc(S(=O)(=O)[O-])c4F)c4nc(c(-c5cccc(S(=O)(=O)[O-])c5F)c5ccc2[nH]5)C=C4)C=C3)cc1)c1ccc2c3cc(Cl)ccc3n(C(=O)c3cocn3)c2c1
REMARK SMILES IDX 6 1 5 2 3 3 4 4 2 5 1 6 74 7 75 8 94 9 76 10 93 11 77 12
REMARK SMILES IDX 85 13 78 14 84 15 79 16 83 17 80 18 82 19 81 20 86 21 87 22
REMARK SMILES IDX 88 23 89 24 92 25 90 26 91 27 7 28 8 29 9 30 10 31 11 32
REMARK SMILES IDX 12 33 73 34 13 35 72 36 14 37 15 38 16 39 66 40 17 41 71 42
REMARK SMILES IDX 65 43 67 44 18 45 70 46 64 47 63 48 19 50 51 51 31 52 50 53
REMARK SMILES IDX 32 54 35 55 49 56 68 57 33 58 34 59 48 61 69 62 36 63 20 64
REMARK SMILES IDX 21 65 29 66 22 67 24 68 30 69 23 70 25 71 26 72 27 73 28 74
REMARK SMILES IDX 52 75 53 76 61 77 54 78 56 79 62 80 55 81 57 82 58 83 59 84
REMARK SMILES IDX 60 85 37 86 38 87 46 88 39 89 41 90 47 91 40 92 42 93 43 94
REMARK SMILES IDX 44 95 45 96
REMARK H PARENT 67 49 35 60
REMARK Flexibility Score: inf
ROOT
ATOM      1  C   UNL A   1      34.653  20.795  25.416  1.00  0.00     0.274 C 
ENDROOT
BRANCH   1   2
ATOM      2  O   UNL A   1      33.742  20.805  24.297  1.00  0.00    -0.462 OA
BRANCH   2   3
ATOM      3  C   UNL A   1      32.460  21.197  24.551  1.00  0.00     0.313 C 
ATOM      4  O   UNL A   1      31.750  20.634  25.376  1.00  0.00    -0.252 OA
BRANCH   3   5
ATOM      5  C   UNL A   1      31.987  22.340  23.614  1.00  0.00     0.126 C 
ATOM      6  C   UNL A   1      32.747  22.295  22.276  1.00  0.00     0.025 C 
BRANCH   5   7
ATOM      7  C   UNL A   1      31.997  23.732  24.284  1.00  0.00    -0.032 A 
ATOM      8  C   UNL A   1      32.526  23.892  25.570  1.00  0.00     0.005 A 
ATOM      9  C   UNL A   1      31.483  24.881  23.643  1.00  0.00     0.032 A 
ATOM     10  C   UNL A   1      32.695  25.157  26.145  1.00  0.00     0.011 A 
ATOM     11  C   UNL A   1      31.593  26.161  24.249  1.00  0.00     0.058 A 
ATOM     12  C   UNL A   1      32.256  26.307  25.461  1.00  0.00     0.008 A 
ATOM     13  N   UNL A   1      31.163  27.436  23.826  1.00  0.00    -0.274 N 
ATOM     14  C   UNL A   1      32.383  27.697  25.719  1.00  0.00     0.009 A 
ATOM     15  C   UNL A   1      31.625  28.382  24.760  1.00  0.00     0.057 A 
ATOM     16  C   UNL A   1      33.071  28.420  26.721  1.00  0.00     0.031 A 
ATOM     17  C   UNL A   1      31.431  29.775  24.891  1.00  0.00     0.029 A 
ATOM     18  C   UNL A   1      32.949  29.805  26.781  1.00  0.00     0.041 A 
ATOM     19  C   UNL A   1      32.121  30.473  25.892  1.00  0.00     0.023 A 
ATOM     20  Cl  UNL A   1      33.782  30.680  28.004  1.00  0.00    -0.084 Cl
BRANCH  13  21
ATOM     21  C   UNL A   1      30.374  27.668  22.658  1.00  0.00     0.284 C 
ATOM     22  O   UNL A   1      30.724  27.082  21.635  1.00  0.00    -0.266 OA
BRANCH  21  23
ATOM     23  C   UNL A   1      29.197  28.527  22.592  1.00  0.00     0.167 A 
ATOM     24  C   UNL A   1      28.009  28.415  23.284  1.00  0.00     0.231 A 
ATOM     25  N   UNL A   1      29.176  29.709  21.863  1.00  0.00    -0.211 NA
ATOM     26  O   UNL A   1      27.226  29.485  22.965  1.00  0.00    -0.451 OA
ATOM     27  C   UNL A   1      27.995  30.218  22.116  1.00  0.00     0.308 A 
ENDBRANCH  21  23
ENDBRANCH  13  21
ENDBRANCH   5   7
ENDBRANCH   3   5
ENDBRANCH   2   3
ENDBRANCH   1   2
BRANCH   1  28
ATOM     28  C   UNL A   1      36.102  20.656  24.950  1.00  0.00     0.275 C 
BRANCH  28  29
ATOM     29  O   UNL A   1      36.948  21.606  25.620  1.00  0.00    -0.458 OA
BRANCH  29  30
ATOM     30  C   UNL A   1      38.244  21.242  25.753  1.00  0.00     0.338 C 
ATOM     31  O   UNL A   1      38.756  20.188  25.421  1.00  0.00    -0.246 OA
BRANCH  30  32
ATOM     32  C   UNL A   1      39.018  22.397  26.230  1.00  0.00     0.060 A 
ATOM     33  C   UNL A   1      38.416  23.647  26.123  1.00  0.00     0.016 A 
ATOM     34  C   UNL A   1      40.331  22.284  26.691  1.00  0.00     0.016 A 
ATOM     35  C   UNL A   1      39.118  24.792  26.474  1.00  0.00     0.010 A 
ATOM     36  C   UNL A   1      41.037  23.444  27.048  1.00  0.00     0.010 A 
ATOM     37  C   UNL A   1      40.435  24.709  26.932  1.00  0.00    -0.014 A 
BRANCH  37  38
ATOM     38  C   UNL A   1      41.168  25.975  27.189  1.00  0.00     0.031 A 
ATOM     39  C   UNL A   1      40.575  27.001  28.111  1.00  0.00     0.074 A 
ATOM     40  C   UNL A   1      42.407  26.157  26.697  1.00  0.00     0.049 A 
ATOM     41  N   UNL A   1      41.070  28.148  28.495  1.00  0.00    -0.248 NA
ATOM     42  C   UNL A   1      39.260  26.686  28.694  1.00  0.00     0.031 C 
ATOM     43  C   UNL A   1      43.137  25.195  25.873  1.00  0.00     0.029 A 
ATOM     44  N   UNL A   1      43.284  27.204  26.842  1.00  0.00    -0.354 N 
ATOM     45  C   UNL A   1      40.109  28.720  29.316  1.00  0.00     0.074 A 
ATOM     46  C   UNL A   1      39.013  27.778  29.405  1.00  0.00     0.031 C 
ATOM     47  C   UNL A   1      44.364  25.679  25.616  1.00  0.00     0.029 A 
ATOM     48  C   UNL A   1      44.493  27.005  26.217  1.00  0.00     0.049 A 
ATOM     49  H   UNL A   1      43.068  28.021  27.347  1.00  0.00     0.167 HD
ATOM     50  C   UNL A   1      40.131  29.922  29.937  1.00  0.00     0.034 A 
ATOM     51  C   UNL A   1      45.579  27.801  26.141  1.00  0.00     0.034 A 
ATOM     52  C   UNL A   1      41.225  30.853  29.880  1.00  0.00     0.049 A 
ATOM     53  C   UNL A   1      45.555  29.153  26.808  1.00  0.00     0.074 A 
ATOM     54  C   UNL A   1      41.315  32.107  30.458  1.00  0.00     0.029 A 
ATOM     55  N   UNL A   1      42.417  30.635  29.207  1.00  0.00    -0.354 N 
ATOM     56  N   UNL A   1      44.642  29.675  27.591  1.00  0.00    -0.248 NA
ATOM     57  C   UNL A   1      46.719  30.023  26.583  1.00  0.00     0.031 C 
ATOM     58  C   UNL A   1      42.557  32.656  30.120  1.00  0.00     0.029 A 
ATOM     59  C   UNL A   1      43.246  31.736  29.347  1.00  0.00     0.049 A 
ATOM     60  H   UNL A   1      42.642  29.819  28.705  1.00  0.00     0.167 HD
ATOM     61  C   UNL A   1      45.138  30.915  27.981  1.00  0.00     0.074 A 
ATOM     62  C   UNL A   1      46.438  31.061  27.360  1.00  0.00     0.031 C 
ATOM     63  C   UNL A   1      44.558  31.857  28.765  1.00  0.00     0.034 A 
BRANCH  50  64
ATOM     64  C   UNL A   1      38.914  30.315  30.725  1.00  0.00     0.023 A 
ATOM     65  C   UNL A   1      38.694  29.761  32.000  1.00  0.00     0.012 A 
ATOM     66  C   UNL A   1      38.014  31.270  30.216  1.00  0.00     0.148 A 
ATOM     67  C   UNL A   1      37.582  30.140  32.751  1.00  0.00     0.002 A 
ATOM     68  C   UNL A   1      36.928  31.668  30.983  1.00  0.00     0.091 A 
ATOM     69  F   UNL A   1      38.227  31.758  28.985  1.00  0.00    -0.205 F 
ATOM     70  C   UNL A   1      36.707  31.100  32.248  1.00  0.00     0.022 A 
BRANCH  68  71
ATOM     71  S   UNL A   1      35.788  32.945  30.436  1.00  0.00     0.127 S 
ATOM     72  O   UNL A   1      34.519  32.453  30.968  1.00  0.00    -0.237 OA
ATOM     73  O   UNL A   1      36.310  34.136  31.106  1.00  0.00    -0.237 OA
ATOM     74  O   UNL A   1      35.896  32.975  28.984  1.00  0.00    -0.744 OA
ENDBRANCH  68  71
ENDBRANCH  50  64
BRANCH  51  75
ATOM     75  C   UNL A   1      46.820  27.317  25.469  1.00  0.00     0.023 A 
ATOM     76  C   UNL A   1      47.680  26.453  26.174  1.00  0.00     0.012 A 
ATOM     77  C   UNL A   1      47.151  27.685  24.152  1.00  0.00     0.148 A 
ATOM     78  C   UNL A   1      48.856  25.981  25.588  1.00  0.00     0.002 A 
ATOM     79  C   UNL A   1      48.293  27.164  23.553  1.00  0.00     0.091 A 
ATOM     80  F   UNL A   1      46.346  28.540  23.504  1.00  0.00    -0.205 F 
ATOM     81  C   UNL A   1      49.155  26.324  24.274  1.00  0.00     0.022 A 
BRANCH  79  82
ATOM     82  S   UNL A   1      48.660  27.453  21.817  1.00  0.00     0.127 S 
ATOM     83  O   UNL A   1      48.946  26.104  21.340  1.00  0.00    -0.237 OA
ATOM     84  O   UNL A   1      47.407  28.028  21.323  1.00  0.00    -0.237 OA
ATOM     85  O   UNL A   1      49.779  28.386  21.820  1.00  0.00    -0.744 OA
ENDBRANCH  79  82
ENDBRANCH  51  75
BRANCH  63  86
ATOM     86  C   UNL A   1      45.311  33.141  29.005  1.00  0.00     0.023 A 
ATOM     87  C   UNL A   1      46.225  33.219  30.074  1.00  0.00     0.012 A 
ATOM     88  C   UNL A   1      45.188  34.233  28.122  1.00  0.00     0.148 A 
ATOM     89  C   UNL A   1      46.986  34.370  30.277  1.00  0.00     0.002 A 
ATOM     90  C   UNL A   1      45.983  35.360  28.303  1.00  0.00     0.091 A 
ATOM     91  F   UNL A   1      44.302  34.149  27.118  1.00  0.00    -0.205 F 
ATOM     92  C   UNL A   1      46.874  35.434  29.386  1.00  0.00     0.022 A 
BRANCH  90  93
ATOM     93  S   UNL A   1      45.975  36.738  27.148  1.00  0.00     0.127 S 
ATOM     94  O   UNL A   1      46.743  37.745  27.879  1.00  0.00    -0.237 OA
ATOM     95  O   UNL A   1      46.661  36.174  25.984  1.00  0.00    -0.237 OA
ATOM     96  O   UNL A   1      44.573  37.058  26.921  1.00  0.00    -0.744 OA
ENDBRANCH  90  93
ENDBRANCH  63  86
ENDBRANCH  37  38
ENDBRANCH  30  32
ENDBRANCH  29  30
ENDBRANCH  28  29
ENDBRANCH   1  28
TORSDOF 17
ENDMDL
