MODEL 1
REMARK VINA RESULT:     -12.3      0.000      0.000
REMARK SMILES O=C(CC[NH+]1CCN(C(=O)c2n[nH]c3ccccc23)CC1)OCCOC(=O)c1ccc(-c2c3nc(c(-c4cccc(S(=O)(=O)[O-])c4F)c4ccc([nH]4)c(-c4cccc(S(=O)(=O)[O-])c4F)c4nc(c(-c5cccc(S(=O)(=O)[O-])c5F)c5ccc2[nH]5)C=C4)C=C3)cc1
REMARK SMILES IDX 23 1 22 2 2 3 1 4 3 5 4 6 5 7 6 8 21 9 7 11 20 12 8 13 9 14
REMARK SMILES IDX 10 15 11 16 12 17 19 18 13 19 14 20 18 21 15 23 17 24 16 25
REMARK SMILES IDX 24 26 25 27 26 28 27 29 28 30 29 31 90 32 30 33 89 34 31 35
REMARK SMILES IDX 32 36 33 37 83 38 34 39 88 40 82 41 84 42 35 43 87 44 81 45
REMARK SMILES IDX 80 46 36 48 68 49 48 50 67 51 49 52 52 53 66 54 85 55 50 56
REMARK SMILES IDX 51 57 65 59 86 60 53 61 37 62 38 63 46 64 39 65 41 66 47 67
REMARK SMILES IDX 40 68 42 69 43 70 44 71 45 72 69 73 70 74 78 75 71 76 73 77
REMARK SMILES IDX 79 78 72 79 74 80 75 81 76 82 77 83 54 84 55 85 63 86 56 87
REMARK SMILES IDX 58 88 64 89 57 90 59 91 60 92 61 93 62 94
REMARK H PARENT 5 10 13 22 84 47 52 58
REMARK Flexibility Score: inf
ROOT
ATOM      1  C   UNL A   1      31.417  29.040  25.362  1.00  0.00     0.274 C 
ENDROOT
BRANCH   1   2
ATOM      2  O   UNL A   1      30.913  28.816  24.017  1.00  0.00    -0.462 OA
BRANCH   2   3
ATOM      3  C   UNL A   1      30.638  27.759  23.231  1.00  0.00     0.311 C 
ATOM      4  O   UNL A   1      30.516  27.949  22.019  1.00  0.00    -0.252 OA
BRANCH   3   5
ATOM      5  C   UNL A   1      30.535  26.364  23.784  1.00  0.00     0.184 C 
BRANCH   5   6
ATOM      6  C   UNL A   1      31.793  25.531  23.439  1.00  0.00     0.274 C 
BRANCH   6   7
ATOM      7  N   UNL A   1      32.984  25.786  24.284  1.00  0.00    -0.332 N 
ATOM      8  C   UNL A   1      32.675  25.678  25.736  1.00  0.00     0.284 C 
ATOM      9  C   UNL A   1      34.102  24.885  24.006  1.00  0.00     0.284 C 
ATOM     10  H   UNL A   1      33.258  26.739  24.043  1.00  0.00     0.348 HD
ATOM     11  C   UNL A   1      32.607  24.238  26.342  1.00  0.00     0.181 C 
ATOM     12  C   UNL A   1      33.746  23.437  24.332  1.00  0.00     0.181 C 
ATOM     13  N   UNL A   1      33.558  23.279  25.757  1.00  0.00    -0.326 N 
ATOM     14  C   UNL A   1      33.898  22.109  26.453  1.00  0.00     0.275 C 
ATOM     15  O   UNL A   1      33.648  21.980  27.652  1.00  0.00    -0.267 OA
BRANCH  14  16
ATOM     16  C   UNL A   1      34.503  21.004  25.669  1.00  0.00     0.157 A 
ATOM     17  N   UNL A   1      35.843  20.868  25.614  1.00  0.00    -0.169 NA
ATOM     18  C   UNL A   1      33.857  19.912  24.992  1.00  0.00     0.033 A 
ATOM     19  N   UNL A   1      36.036  19.693  25.001  1.00  0.00    -0.277 N 
ATOM     20  C   UNL A   1      34.888  19.051  24.631  1.00  0.00     0.066 A 
ATOM     21  C   UNL A   1      32.527  19.514  24.737  1.00  0.00     0.013 A 
ATOM     22  H   UNL A   1      36.932  19.321  24.830  1.00  0.00     0.190 HD
ATOM     23  C   UNL A   1      34.673  17.799  24.045  1.00  0.00     0.028 A 
ATOM     24  C   UNL A   1      32.288  18.253  24.172  1.00  0.00     0.001 A 
ATOM     25  C   UNL A   1      33.346  17.410  23.835  1.00  0.00     0.002 A 
ENDBRANCH  14  16
ENDBRANCH   6   7
ENDBRANCH   5   6
ENDBRANCH   3   5
ENDBRANCH   2   3
ENDBRANCH   1   2
BRANCH   1  26
ATOM     26  C   UNL A   1      31.817  30.448  25.793  1.00  0.00     0.275 C 
BRANCH  26  27
ATOM     27  O   UNL A   1      32.621  30.491  26.962  1.00  0.00    -0.458 OA
BRANCH  27  28
ATOM     28  C   UNL A   1      33.199  31.679  27.250  1.00  0.00     0.338 C 
ATOM     29  O   UNL A   1      32.675  32.777  27.256  1.00  0.00    -0.246 OA
BRANCH  28  30
ATOM     30  C   UNL A   1      34.520  31.328  27.790  1.00  0.00     0.060 A 
ATOM     31  C   UNL A   1      34.836  29.980  27.988  1.00  0.00     0.016 A 
ATOM     32  C   UNL A   1      35.469  32.334  28.000  1.00  0.00     0.016 A 
ATOM     33  C   UNL A   1      36.105  29.635  28.445  1.00  0.00     0.010 A 
ATOM     34  C   UNL A   1      36.731  31.991  28.461  1.00  0.00     0.010 A 
ATOM     35  C   UNL A   1      37.032  30.646  28.727  1.00  0.00    -0.014 A 
BRANCH  35  36
ATOM     36  C   UNL A   1      38.214  30.363  29.560  1.00  0.00     0.031 A 
ATOM     37  C   UNL A   1      39.174  29.330  29.045  1.00  0.00     0.074 A 
ATOM     38  C   UNL A   1      38.363  30.917  30.773  1.00  0.00     0.049 A 
ATOM     39  N   UNL A   1      40.222  28.813  29.623  1.00  0.00    -0.248 NA
ATOM     40  C   UNL A   1      38.897  28.789  27.701  1.00  0.00     0.031 C 
ATOM     41  C   UNL A   1      37.461  31.897  31.374  1.00  0.00     0.029 A 
ATOM     42  N   UNL A   1      39.308  30.684  31.737  1.00  0.00    -0.354 N 
ATOM     43  C   UNL A   1      40.712  27.870  28.729  1.00  0.00     0.074 A 
ATOM     44  C   UNL A   1      39.841  27.871  27.577  1.00  0.00     0.031 C 
ATOM     45  C   UNL A   1      37.870  32.145  32.631  1.00  0.00     0.029 A 
ATOM     46  C   UNL A   1      39.049  31.330  32.921  1.00  0.00     0.049 A 
ATOM     47  H   UNL A   1      40.097  30.112  31.595  1.00  0.00     0.167 HD
ATOM     48  C   UNL A   1      41.801  27.080  28.853  1.00  0.00     0.034 A 
ATOM     49  C   UNL A   1      39.680  31.242  34.109  1.00  0.00     0.034 A 
ATOM     50  C   UNL A   1      42.659  27.088  30.001  1.00  0.00     0.049 A 
ATOM     51  C   UNL A   1      40.895  30.356  34.224  1.00  0.00     0.074 A 
ATOM     52  C   UNL A   1      43.829  26.383  30.205  1.00  0.00     0.029 A 
ATOM     53  N   UNL A   1      42.424  27.827  31.149  1.00  0.00    -0.354 N 
ATOM     54  N   UNL A   1      41.451  29.594  33.312  1.00  0.00    -0.248 NA
ATOM     55  C   UNL A   1      41.591  30.343  35.519  1.00  0.00     0.031 C 
ATOM     56  C   UNL A   1      44.288  26.677  31.493  1.00  0.00     0.029 A 
ATOM     57  C   UNL A   1      43.417  27.584  32.078  1.00  0.00     0.049 A 
ATOM     58  H   UNL A   1      41.662  28.436  31.284  1.00  0.00     0.167 HD
ATOM     59  C   UNL A   1      42.578  29.039  33.908  1.00  0.00     0.074 A 
ATOM     60  C   UNL A   1      42.634  29.564  35.258  1.00  0.00     0.031 C 
ATOM     61  C   UNL A   1      43.480  28.166  33.395  1.00  0.00     0.034 A 
BRANCH  48  62
ATOM     62  C   UNL A   1      42.124  26.168  27.703  1.00  0.00     0.023 A 
ATOM     63  C   UNL A   1      42.854  26.665  26.604  1.00  0.00     0.012 A 
ATOM     64  C   UNL A   1      41.715  24.822  27.712  1.00  0.00     0.148 A 
ATOM     65  C   UNL A   1      43.144  25.845  25.516  1.00  0.00     0.002 A 
ATOM     66  C   UNL A   1      42.044  23.998  26.642  1.00  0.00     0.091 A 
ATOM     67  F   UNL A   1      40.990  24.378  28.748  1.00  0.00    -0.205 F 
ATOM     68  C   UNL A   1      42.748  24.510  25.539  1.00  0.00     0.022 A 
BRANCH  66  69
ATOM     69  S   UNL A   1      41.636  22.250  26.613  1.00  0.00     0.127 S 
ATOM     70  O   UNL A   1      42.278  21.818  25.373  1.00  0.00    -0.237 OA
ATOM     71  O   UNL A   1      42.277  21.762  27.834  1.00  0.00    -0.237 OA
ATOM     72  O   UNL A   1      40.182  22.181  26.625  1.00  0.00    -0.744 OA
ENDBRANCH  66  69
ENDBRANCH  48  62
BRANCH  49  73
ATOM     73  C   UNL A   1      39.196  32.044  35.266  1.00  0.00     0.023 A 
ATOM     74  C   UNL A   1      38.243  31.493  36.143  1.00  0.00     0.012 A 
ATOM     75  C   UNL A   1      39.701  33.335  35.522  1.00  0.00     0.148 A 
ATOM     76  C   UNL A   1      37.780  32.221  37.240  1.00  0.00     0.002 A 
ATOM     77  C   UNL A   1      39.273  34.035  36.646  1.00  0.00     0.091 A 
ATOM     78  F   UNL A   1      40.598  33.848  34.669  1.00  0.00    -0.205 F 
ATOM     79  C   UNL A   1      38.301  33.486  37.496  1.00  0.00     0.022 A 
BRANCH  77  80
ATOM     80  S   UNL A   1      39.980  35.616  37.124  1.00  0.00     0.127 S 
ATOM     81  O   UNL A   1      41.396  35.282  37.259  1.00  0.00    -0.237 OA
ATOM     82  O   UNL A   1      39.652  36.454  35.971  1.00  0.00    -0.237 OA
ATOM     83  O   UNL A   1      39.299  35.995  38.355  1.00  0.00    -0.744 OA
ENDBRANCH  77  80
ENDBRANCH  49  73
BRANCH  61  84
ATOM     84  C   UNL A   1      44.629  27.741  34.269  1.00  0.00     0.023 A 
ATOM     85  C   UNL A   1      45.785  28.541  34.340  1.00  0.00     0.012 A 
ATOM     86  C   UNL A   1      44.510  26.615  35.109  1.00  0.00     0.148 A 
ATOM     87  C   UNL A   1      46.815  28.218  35.223  1.00  0.00     0.002 A 
ATOM     88  C   UNL A   1      45.518  26.327  36.019  1.00  0.00     0.091 A 
ATOM     89  F   UNL A   1      43.406  25.860  35.011  1.00  0.00    -0.205 F 
ATOM     90  C   UNL A   1      46.675  27.121  36.071  1.00  0.00     0.022 A 
BRANCH  88  91
ATOM     91  S   UNL A   1      45.378  24.999  37.222  1.00  0.00     0.127 S 
ATOM     92  O   UNL A   1      45.063  23.856  36.366  1.00  0.00    -0.237 OA
ATOM     93  O   UNL A   1      46.717  24.970  37.810  1.00  0.00    -0.237 OA
ATOM     94  O   UNL A   1      44.322  25.399  38.142  1.00  0.00    -0.744 OA
ENDBRANCH  88  91
ENDBRANCH  61  84
ENDBRANCH  35  36
ENDBRANCH  28  30
ENDBRANCH  27  28
ENDBRANCH  26  27
ENDBRANCH   1  26
TORSDOF 17
ENDMDL
MODEL 2
REMARK VINA RESULT:     -12.3      1.535      8.006
REMARK SMILES O=C(CC[NH+]1CCN(C(=O)c2n[nH]c3ccccc23)CC1)OCCOC(=O)c1ccc(-c2c3nc(c(-c4cccc(S(=O)(=O)[O-])c4F)c4ccc([nH]4)c(-c4cccc(S(=O)(=O)[O-])c4F)c4nc(c(-c5cccc(S(=O)(=O)[O-])c5F)c5ccc2[nH]5)C=C4)C=C3)cc1
REMARK SMILES IDX 23 1 22 2 2 3 1 4 3 5 4 6 5 7 6 8 21 9 7 11 20 12 8 13 9 14
REMARK SMILES IDX 10 15 11 16 12 17 19 18 13 19 14 20 18 21 15 23 17 24 16 25
REMARK SMILES IDX 24 26 25 27 26 28 27 29 28 30 29 31 90 32 30 33 89 34 31 35
REMARK SMILES IDX 32 36 33 37 83 38 34 39 88 40 82 41 84 42 35 43 87 44 81 45
REMARK SMILES IDX 80 46 36 48 68 49 48 50 67 51 49 52 52 53 66 54 85 55 50 56
REMARK SMILES IDX 51 57 65 59 86 60 53 61 37 62 38 63 46 64 39 65 41 66 47 67
REMARK SMILES IDX 40 68 42 69 43 70 44 71 45 72 69 73 70 74 78 75 71 76 73 77
REMARK SMILES IDX 79 78 72 79 74 80 75 81 76 82 77 83 54 84 55 85 63 86 56 87
REMARK SMILES IDX 58 88 64 89 57 90 59 91 60 92 61 93 62 94
REMARK H PARENT 5 10 13 22 84 47 52 58
REMARK Flexibility Score: inf
ROOT
ATOM      1  C   UNL A   1      31.748  31.493  26.866  1.00  0.00     0.274 C 
ENDROOT
BRANCH   1   2
ATOM      2  O   UNL A   1      32.640  30.406  26.494  1.00  0.00    -0.462 OA
BRANCH   2   3
ATOM      3  C   UNL A   1      32.813  29.115  26.831  1.00  0.00     0.311 C 
ATOM      4  O   UNL A   1      33.956  28.723  27.072  1.00  0.00    -0.252 OA
BRANCH   3   5
ATOM      5  C   UNL A   1      31.651  28.169  26.973  1.00  0.00     0.184 C 
BRANCH   5   6
ATOM      6  C   UNL A   1      31.523  27.250  25.735  1.00  0.00     0.274 C 
BRANCH   6   7
ATOM      7  N   UNL A   1      30.502  26.179  25.833  1.00  0.00    -0.332 N 
ATOM      8  C   UNL A   1      29.978  25.781  24.497  1.00  0.00     0.284 C 
ATOM      9  C   UNL A   1      30.988  24.966  26.490  1.00  0.00     0.284 C 
ATOM     10  H   UNL A   1      29.764  26.592  26.401  1.00  0.00     0.348 HD
ATOM     11  C   UNL A   1      30.859  24.806  23.650  1.00  0.00     0.181 C 
ATOM     12  C   UNL A   1      32.110  24.310  25.691  1.00  0.00     0.181 C 
ATOM     13  N   UNL A   1      31.599  23.805  24.435  1.00  0.00    -0.326 N 
ATOM     14  C   UNL A   1      32.082  22.642  23.820  1.00  0.00     0.275 C 
ATOM     15  O   UNL A   1      31.679  22.287  22.711  1.00  0.00    -0.267 OA
BRANCH  14  16
ATOM     16  C   UNL A   1      33.153  21.894  24.524  1.00  0.00     0.157 A 
ATOM     17  N   UNL A   1      32.839  20.862  25.333  1.00  0.00    -0.169 NA
ATOM     18  C   UNL A   1      34.580  22.026  24.405  1.00  0.00     0.033 A 
ATOM     19  N   UNL A   1      34.018  20.309  25.644  1.00  0.00    -0.277 N 
ATOM     20  C   UNL A   1      35.101  20.937  25.096  1.00  0.00     0.066 A 
ATOM     21  C   UNL A   1      35.472  22.876  23.718  1.00  0.00     0.013 A 
ATOM     22  H   UNL A   1      34.099  19.516  26.222  1.00  0.00     0.190 HD
ATOM     23  C   UNL A   1      36.465  20.628  25.126  1.00  0.00     0.028 A 
ATOM     24  C   UNL A   1      36.840  22.572  23.716  1.00  0.00     0.001 A 
ATOM     25  C   UNL A   1      37.326  21.464  24.408  1.00  0.00     0.002 A 
ENDBRANCH  14  16
ENDBRANCH   6   7
ENDBRANCH   5   6
ENDBRANCH   3   5
ENDBRANCH   2   3
ENDBRANCH   1   2
BRANCH   1  26
ATOM     26  C   UNL A   1      32.267  32.928  26.866  1.00  0.00     0.275 C 
BRANCH  26  27
ATOM     27  O   UNL A   1      32.790  33.357  28.113  1.00  0.00    -0.458 OA
BRANCH  27  28
ATOM     28  C   UNL A   1      33.919  34.099  28.068  1.00  0.00     0.338 C 
ATOM     29  O   UNL A   1      34.011  35.302  27.910  1.00  0.00    -0.246 OA
BRANCH  28  30
ATOM     30  C   UNL A   1      34.985  33.181  28.497  1.00  0.00     0.060 A 
ATOM     31  C   UNL A   1      34.639  31.903  28.947  1.00  0.00     0.016 A 
ATOM     32  C   UNL A   1      36.323  33.562  28.351  1.00  0.00     0.016 A 
ATOM     33  C   UNL A   1      35.644  31.007  29.301  1.00  0.00     0.010 A 
ATOM     34  C   UNL A   1      37.324  32.671  28.709  1.00  0.00     0.010 A 
ATOM     35  C   UNL A   1      36.983  31.413  29.227  1.00  0.00    -0.014 A 
BRANCH  35  36
ATOM     36  C   UNL A   1      38.030  30.661  29.941  1.00  0.00     0.031 A 
ATOM     37  C   UNL A   1      38.334  31.092  31.346  1.00  0.00     0.074 A 
ATOM     38  C   UNL A   1      38.755  29.715  29.324  1.00  0.00     0.049 A 
ATOM     39  N   UNL A   1      39.274  30.684  32.152  1.00  0.00    -0.248 NA
ATOM     40  C   UNL A   1      37.471  32.148  31.909  1.00  0.00     0.031 C 
ATOM     41  C   UNL A   1      38.560  29.259  27.950  1.00  0.00     0.029 A 
ATOM     42  N   UNL A   1      39.841  29.009  29.770  1.00  0.00    -0.354 N 
ATOM     43  C   UNL A   1      39.135  31.450  33.303  1.00  0.00     0.074 A 
ATOM     44  C   UNL A   1      38.033  32.358  33.088  1.00  0.00     0.031 C 
ATOM     45  C   UNL A   1      39.533  28.381  27.645  1.00  0.00     0.029 A 
ATOM     46  C   UNL A   1      40.420  28.230  28.797  1.00  0.00     0.049 A 
ATOM     47  H   UNL A   1      40.173  29.053  30.696  1.00  0.00     0.167 HD
ATOM     48  C   UNL A   1      39.856  31.391  34.444  1.00  0.00     0.034 A 
ATOM     49  C   UNL A   1      41.557  27.506  28.834  1.00  0.00     0.034 A 
ATOM     50  C   UNL A   1      40.948  30.485  34.645  1.00  0.00     0.049 A 
ATOM     51  C   UNL A   1      42.344  27.453  30.119  1.00  0.00     0.074 A 
ATOM     52  C   UNL A   1      41.703  30.288  35.784  1.00  0.00     0.029 A 
ATOM     53  N   UNL A   1      41.452  29.636  33.672  1.00  0.00    -0.354 N 
ATOM     54  N   UNL A   1      42.104  28.054  31.261  1.00  0.00    -0.248 NA
ATOM     55  C   UNL A   1      43.540  26.598  30.134  1.00  0.00     0.031 C 
ATOM     56  C   UNL A   1      42.686  29.337  35.490  1.00  0.00     0.029 A 
ATOM     57  C   UNL A   1      42.523  28.925  34.175  1.00  0.00     0.049 A 
ATOM     58  H   UNL A   1      41.098  29.554  32.756  1.00  0.00     0.167 HD
ATOM     59  C   UNL A   1      43.094  27.623  32.138  1.00  0.00     0.074 A 
ATOM     60  C   UNL A   1      43.931  26.699  31.398  1.00  0.00     0.031 C 
ATOM     61  C   UNL A   1      43.303  27.966  33.433  1.00  0.00     0.034 A 
BRANCH  48  62
ATOM     62  C   UNL A   1      39.460  32.320  35.557  1.00  0.00     0.023 A 
ATOM     63  C   UNL A   1      38.590  31.863  36.568  1.00  0.00     0.012 A 
ATOM     64  C   UNL A   1      39.951  33.637  35.608  1.00  0.00     0.148 A 
ATOM     65  C   UNL A   1      38.190  32.714  37.596  1.00  0.00     0.002 A 
ATOM     66  C   UNL A   1      39.581  34.467  36.659  1.00  0.00     0.091 A 
ATOM     67  F   UNL A   1      40.747  34.064  34.617  1.00  0.00    -0.205 F 
ATOM     68  C   UNL A   1      38.692  34.011  37.648  1.00  0.00     0.022 A 
BRANCH  66  69
ATOM     69  S   UNL A   1      40.230  36.131  36.846  1.00  0.00     0.127 S 
ATOM     70  O   UNL A   1      39.769  36.767  35.614  1.00  0.00    -0.237 OA
ATOM     71  O   UNL A   1      39.555  36.591  38.060  1.00  0.00    -0.237 OA
ATOM     72  O   UNL A   1      41.673  35.983  36.976  1.00  0.00    -0.744 OA
ENDBRANCH  66  69
ENDBRANCH  48  62
BRANCH  49  73
ATOM     73  C   UNL A   1      41.989  26.746  27.630  1.00  0.00     0.023 A 
ATOM     74  C   UNL A   1      42.697  27.407  26.608  1.00  0.00     0.012 A 
ATOM     75  C   UNL A   1      41.736  25.365  27.508  1.00  0.00     0.148 A 
ATOM     76  C   UNL A   1      43.122  26.715  25.473  1.00  0.00     0.002 A 
ATOM     77  C   UNL A   1      42.207  24.670  26.399  1.00  0.00     0.091 A 
ATOM     78  F   UNL A   1      41.050  24.756  28.485  1.00  0.00    -0.205 F 
ATOM     79  C   UNL A   1      42.886  25.347  25.373  1.00  0.00     0.022 A 
BRANCH  77  80
ATOM     80  S   UNL A   1      42.059  22.886  26.243  1.00  0.00     0.127 S 
ATOM     81  O   UNL A   1      42.679  22.647  24.942  1.00  0.00    -0.237 OA
ATOM     82  O   UNL A   1      42.834  22.418  27.391  1.00  0.00    -0.237 OA
ATOM     83  O   UNL A   1      40.632  22.602  26.325  1.00  0.00    -0.744 OA
ENDBRANCH  77  80
ENDBRANCH  49  73
BRANCH  61  84
ATOM     84  C   UNL A   1      44.455  27.325  34.158  1.00  0.00     0.023 A 
ATOM     85  C   UNL A   1      45.722  27.939  34.137  1.00  0.00     0.012 A 
ATOM     86  C   UNL A   1      44.249  26.184  34.959  1.00  0.00     0.148 A 
ATOM     87  C   UNL A   1      46.773  27.415  34.888  1.00  0.00     0.002 A 
ATOM     88  C   UNL A   1      45.288  25.696  35.742  1.00  0.00     0.091 A 
ATOM     89  F   UNL A   1      43.038  25.609  34.952  1.00  0.00    -0.205 F 
ATOM     90  C   UNL A   1      46.552  26.305  35.700  1.00  0.00     0.022 A 
BRANCH  88  91
ATOM     91  S   UNL A   1      45.066  24.337  36.897  1.00  0.00     0.127 S 
ATOM     92  O   UNL A   1      46.376  24.282  37.545  1.00  0.00    -0.237 OA
ATOM     93  O   UNL A   1      43.983  24.829  37.749  1.00  0.00    -0.237 OA
ATOM     94  O   UNL A   1      44.720  23.175  36.090  1.00  0.00    -0.744 OA
ENDBRANCH  88  91
ENDBRANCH  61  84
ENDBRANCH  35  36
ENDBRANCH  28  30
ENDBRANCH  27  28
ENDBRANCH  26  27
ENDBRANCH   1  26
TORSDOF 17
ENDMDL
MODEL 3
REMARK VINA RESULT:     -12.1      5.191     10.467
REMARK SMILES O=C(CC[NH+]1CCN(C(=O)c2n[nH]c3ccccc23)CC1)OCCOC(=O)c1ccc(-c2c3nc(c(-c4cccc(S(=O)(=O)[O-])c4F)c4ccc([nH]4)c(-c4cccc(S(=O)(=O)[O-])c4F)c4nc(c(-c5cccc(S(=O)(=O)[O-])c5F)c5ccc2[nH]5)C=C4)C=C3)cc1
REMARK SMILES IDX 23 1 22 2 2 3 1 4 3 5 4 6 5 7 6 8 21 9 7 11 20 12 8 13 9 14
REMARK SMILES IDX 10 15 11 16 12 17 19 18 13 19 14 20 18 21 15 23 17 24 16 25
REMARK SMILES IDX 24 26 25 27 26 28 27 29 28 30 29 31 90 32 30 33 89 34 31 35
REMARK SMILES IDX 32 36 33 37 83 38 34 39 88 40 82 41 84 42 35 43 87 44 81 45
REMARK SMILES IDX 80 46 36 48 68 49 48 50 67 51 49 52 52 53 66 54 85 55 50 56
REMARK SMILES IDX 51 57 65 59 86 60 53 61 37 62 38 63 46 64 39 65 41 66 47 67
REMARK SMILES IDX 40 68 42 69 43 70 44 71 45 72 69 73 70 74 78 75 71 76 73 77
REMARK SMILES IDX 79 78 72 79 74 80 75 81 76 82 77 83 54 84 55 85 63 86 56 87
REMARK SMILES IDX 58 88 64 89 57 90 59 91 60 92 61 93 62 94
REMARK H PARENT 5 10 13 22 84 47 52 58
REMARK Flexibility Score: inf
ROOT
ATOM      1  C   UNL A   1      35.596  20.952  25.451  1.00  0.00     0.274 C 
ENDROOT
BRANCH   1   2
ATOM      2  O   UNL A   1      34.486  20.967  24.513  1.00  0.00    -0.462 OA
BRANCH   2   3
ATOM      3  C   UNL A   1      33.143  20.925  24.575  1.00  0.00     0.311 C 
ATOM      4  O   UNL A   1      32.621  20.238  25.454  1.00  0.00    -0.252 OA
BRANCH   3   5
ATOM      5  C   UNL A   1      32.280  21.734  23.645  1.00  0.00     0.184 C 
BRANCH   5   6
ATOM      6  C   UNL A   1      32.030  23.154  24.205  1.00  0.00     0.274 C 
BRANCH   6   7
ATOM      7  N   UNL A   1      33.238  23.895  24.642  1.00  0.00    -0.332 N 
ATOM      8  C   UNL A   1      34.089  24.307  23.491  1.00  0.00     0.284 C 
ATOM      9  C   UNL A   1      32.939  25.098  25.417  1.00  0.00     0.284 C 
ATOM     10  H   UNL A   1      33.733  23.231  25.237  1.00  0.00     0.348 HD
ATOM     11  C   UNL A   1      33.646  25.581  22.701  1.00  0.00     0.181 C 
ATOM     12  C   UNL A   1      32.180  26.126  24.581  1.00  0.00     0.181 C 
ATOM     13  N   UNL A   1      33.029  26.633  23.525  1.00  0.00    -0.326 N 
ATOM     14  C   UNL A   1      32.965  27.952  23.053  1.00  0.00     0.275 C 
ATOM     15  O   UNL A   1      33.646  28.326  22.097  1.00  0.00    -0.267 OA
BRANCH  14  16
ATOM     16  C   UNL A   1      31.988  28.860  23.704  1.00  0.00     0.157 A 
ATOM     17  N   UNL A   1      32.326  29.526  24.827  1.00  0.00    -0.169 NA
ATOM     18  C   UNL A   1      30.683  29.260  23.254  1.00  0.00     0.033 A 
ATOM     19  N   UNL A   1      31.312  30.376  25.031  1.00  0.00    -0.277 N 
ATOM     20  C   UNL A   1      30.308  30.293  24.108  1.00  0.00     0.066 A 
ATOM     21  C   UNL A   1      29.831  28.937  22.176  1.00  0.00     0.013 A 
ATOM     22  H   UNL A   1      31.290  31.008  25.786  1.00  0.00     0.190 HD
ATOM     23  C   UNL A   1      29.139  31.043  23.940  1.00  0.00     0.028 A 
ATOM     24  C   UNL A   1      28.667  29.691  21.975  1.00  0.00     0.001 A 
ATOM     25  C   UNL A   1      28.330  30.729  22.844  1.00  0.00     0.002 A 
ENDBRANCH  14  16
ENDBRANCH   6   7
ENDBRANCH   5   6
ENDBRANCH   3   5
ENDBRANCH   2   3
ENDBRANCH   1   2
BRANCH   1  26
ATOM     26  C   UNL A   1      37.014  20.718  24.939  1.00  0.00     0.275 C 
BRANCH  26  27
ATOM     27  O   UNL A   1      37.941  21.726  25.311  1.00  0.00    -0.458 OA
BRANCH  27  28
ATOM     28  C   UNL A   1      39.063  21.309  25.940  1.00  0.00     0.338 C 
ATOM     29  O   UNL A   1      39.593  20.217  25.865  1.00  0.00    -0.246 OA
BRANCH  28  30
ATOM     30  C   UNL A   1      39.633  22.529  26.530  1.00  0.00     0.060 A 
ATOM     31  C   UNL A   1      39.054  23.765  26.225  1.00  0.00     0.016 A 
ATOM     32  C   UNL A   1      40.673  22.424  27.460  1.00  0.00     0.016 A 
ATOM     33  C   UNL A   1      39.552  24.919  26.823  1.00  0.00     0.010 A 
ATOM     34  C   UNL A   1      41.172  23.575  28.052  1.00  0.00     0.010 A 
ATOM     35  C   UNL A   1      40.642  24.825  27.698  1.00  0.00    -0.014 A 
BRANCH  35  36
ATOM     36  C   UNL A   1      41.430  26.023  28.039  1.00  0.00     0.031 A 
ATOM     37  C   UNL A   1      40.693  27.154  28.695  1.00  0.00     0.074 A 
ATOM     38  C   UNL A   1      42.716  26.139  27.675  1.00  0.00     0.049 A 
ATOM     39  N   UNL A   1      41.112  28.352  28.994  1.00  0.00    -0.248 NA
ATOM     40  C   UNL A   1      39.279  26.905  29.038  1.00  0.00     0.031 C 
ATOM     41  C   UNL A   1      43.502  25.111  26.998  1.00  0.00     0.029 A 
ATOM     42  N   UNL A   1      43.567  27.208  27.782  1.00  0.00    -0.354 N 
ATOM     43  C   UNL A   1      40.012  29.007  29.533  1.00  0.00     0.074 A 
ATOM     44  C   UNL A   1      38.902  28.083  29.506  1.00  0.00     0.031 C 
ATOM     45  C   UNL A   1      44.712  25.619  26.702  1.00  0.00     0.029 A 
ATOM     46  C   UNL A   1      44.773  27.007  27.156  1.00  0.00     0.049 A 
ATOM     47  H   UNL A   1      43.338  28.037  28.262  1.00  0.00     0.167 HD
ATOM     48  C   UNL A   1      39.937  30.265  30.019  1.00  0.00     0.034 A 
ATOM     49  C   UNL A   1      45.793  27.866  26.951  1.00  0.00     0.034 A 
ATOM     50  C   UNL A   1      41.047  31.172  30.042  1.00  0.00     0.049 A 
ATOM     51  C   UNL A   1      45.689  29.265  27.505  1.00  0.00     0.074 A 
ATOM     52  C   UNL A   1      41.106  32.445  30.574  1.00  0.00     0.029 A 
ATOM     53  N   UNL A   1      42.288  30.906  29.486  1.00  0.00    -0.354 N 
ATOM     54  N   UNL A   1      44.701  29.820  28.166  1.00  0.00    -0.248 NA
ATOM     55  C   UNL A   1      46.851  30.145  27.316  1.00  0.00     0.031 C 
ATOM     56  C   UNL A   1      42.380  32.960  30.315  1.00  0.00     0.029 A 
ATOM     57  C   UNL A   1      43.119  31.997  29.645  1.00  0.00     0.049 A 
ATOM     58  H   UNL A   1      42.540  30.063  29.043  1.00  0.00     0.167 HD
ATOM     59  C   UNL A   1      45.134  31.099  28.502  1.00  0.00     0.074 A 
ATOM     60  C   UNL A   1      46.480  31.231  27.983  1.00  0.00     0.031 C 
ATOM     61  C   UNL A   1      44.477  32.081  29.169  1.00  0.00     0.034 A 
BRANCH  48  62
ATOM     62  C   UNL A   1      38.617  30.707  30.583  1.00  0.00     0.023 A 
ATOM     63  C   UNL A   1      38.337  30.497  31.948  1.00  0.00     0.012 A 
ATOM     64  C   UNL A   1      37.658  31.337  29.768  1.00  0.00     0.148 A 
ATOM     65  C   UNL A   1      37.110  30.877  32.488  1.00  0.00     0.002 A 
ATOM     66  C   UNL A   1      36.453  31.751  30.322  1.00  0.00     0.091 A 
ATOM     67  F   UNL A   1      37.928  31.493  28.464  1.00  0.00    -0.205 F 
ATOM     68  C   UNL A   1      36.173  31.513  31.678  1.00  0.00     0.022 A 
BRANCH  66  69
ATOM     69  S   UNL A   1      35.213  32.638  29.373  1.00  0.00     0.127 S 
ATOM     70  O   UNL A   1      34.143  32.792  30.357  1.00  0.00    -0.237 OA
ATOM     71  O   UNL A   1      35.911  33.877  29.032  1.00  0.00    -0.237 OA
ATOM     72  O   UNL A   1      34.901  31.787  28.234  1.00  0.00    -0.744 OA
ENDBRANCH  66  69
ENDBRANCH  48  62
BRANCH  49  73
ATOM     73  C   UNL A   1      47.008  27.410  26.223  1.00  0.00     0.023 A 
ATOM     74  C   UNL A   1      47.966  26.625  26.894  1.00  0.00     0.012 A 
ATOM     75  C   UNL A   1      47.204  27.720  24.862  1.00  0.00     0.148 A 
ATOM     76  C   UNL A   1      49.110  26.179  26.231  1.00  0.00     0.002 A 
ATOM     77  C   UNL A   1      48.321  27.228  24.195  1.00  0.00     0.091 A 
ATOM     78  F   UNL A   1      46.288  28.478  24.245  1.00  0.00    -0.205 F 
ATOM     79  C   UNL A   1      49.282  26.471  24.881  1.00  0.00     0.022 A 
BRANCH  77  80
ATOM     80  S   UNL A   1      48.563  27.449  22.428  1.00  0.00     0.127 S 
ATOM     81  O   UNL A   1      47.380  28.223  22.058  1.00  0.00    -0.237 OA
ATOM     82  O   UNL A   1      49.823  28.192  22.387  1.00  0.00    -0.237 OA
ATOM     83  O   UNL A   1      48.639  26.106  21.870  1.00  0.00    -0.744 OA
ENDBRANCH  77  80
ENDBRANCH  49  73
BRANCH  61  84
ATOM     84  C   UNL A   1      45.202  33.376  29.413  1.00  0.00     0.023 A 
ATOM     85  C   UNL A   1      46.009  33.519  30.558  1.00  0.00     0.012 A 
ATOM     86  C   UNL A   1      45.179  34.402  28.446  1.00  0.00     0.148 A 
ATOM     87  C   UNL A   1      46.769  34.673  30.747  1.00  0.00     0.002 A 
ATOM     88  C   UNL A   1      45.976  35.526  28.618  1.00  0.00     0.091 A 
ATOM     89  F   UNL A   1      44.392  34.249  27.372  1.00  0.00    -0.205 F 
ATOM     90  C   UNL A   1      46.764  35.668  29.772  1.00  0.00     0.022 A 
BRANCH  88  91
ATOM     91  S   UNL A   1      46.114  36.808  27.366  1.00  0.00     0.127 S 
ATOM     92  O   UNL A   1      44.758  37.355  27.351  1.00  0.00    -0.237 OA
ATOM     93  O   UNL A   1      47.124  37.697  27.942  1.00  0.00    -0.237 OA
ATOM     94  O   UNL A   1      46.529  36.134  26.143  1.00  0.00    -0.744 OA
ENDBRANCH  88  91
ENDBRANCH  61  84
ENDBRANCH  35  36
ENDBRANCH  28  30
ENDBRANCH  27  28
ENDBRANCH  26  27
ENDBRANCH   1  26
TORSDOF 17
ENDMDL
