MODEL 1
REMARK VINA RESULT:      -9.9      0.000      0.000
REMARK SMILES O=C1OC(c2ccc(Cl)cc2)=N/C1=C/Nc1ccc(O)c(C(=O)OCCOC(=O)c2ccc(-c3c4nc(c(-c5cccc(S(=O)(=O)[O-])c5F)c5ccc([nH]5)c(-c5cccc(S(=O)(=O)[O-])c5F)c5nc(c(-c6cccc(S(=O)(=O)[O-])c6F)c6ccc3[nH]6)C=C5)C=C4)cc2)c1
REMARK SMILES IDX 25 1 24 2 22 3 23 4 21 5 16 6 17 7 93 8 18 9 19 10 15 11
REMARK SMILES IDX 14 13 1 14 2 15 3 16 13 17 4 18 12 19 5 20 6 21 11 22 7 23
REMARK SMILES IDX 10 24 8 25 9 26 20 27 26 29 27 30 28 31 29 32 30 33 31 34
REMARK SMILES IDX 92 35 32 36 91 37 33 38 34 39 35 40 85 41 36 42 90 43 84 44
REMARK SMILES IDX 86 45 37 46 89 47 83 48 82 49 38 51 70 52 50 53 69 54 51 55
REMARK SMILES IDX 54 56 68 57 87 58 52 59 53 60 67 62 88 63 55 64 39 65 40 66
REMARK SMILES IDX 48 67 41 68 43 69 49 70 42 71 44 72 45 73 46 74 47 75 71 76
REMARK SMILES IDX 72 77 80 78 73 79 75 80 81 81 74 82 76 83 77 84 78 85 79 86
REMARK SMILES IDX 56 87 57 88 65 89 58 90 60 91 66 92 59 93 61 94 62 95 63 96
REMARK SMILES IDX 64 97
REMARK H PARENT 15 12 20 28 86 50 54 61
REMARK Flexibility Score: inf
ROOT
ATOM      1  C   UNL A   1      33.870  34.906  29.654  1.00  0.00     0.275 C 
ENDROOT
BRANCH   1   2
ATOM      2  O   UNL A   1      34.467  33.980  30.586  1.00  0.00    -0.458 OA
BRANCH   2   3
ATOM      3  C   UNL A   1      34.351  34.301  31.898  1.00  0.00     0.342 C 
ATOM      4  O   UNL A   1      33.308  34.368  32.533  1.00  0.00    -0.246 OA
BRANCH   3   5
ATOM      5  C   UNL A   1      35.668  34.471  32.551  1.00  0.00     0.103 A 
ATOM      6  C   UNL A   1      38.091  34.679  32.235  1.00  0.00     0.039 A 
ATOM      7  C   UNL A   1      38.258  34.536  33.612  1.00  0.00     0.030 A 
ATOM      8  C   UNL A   1      36.794  34.606  31.724  1.00  0.00     0.045 A 
ATOM      9  C   UNL A   1      37.146  34.408  34.458  1.00  0.00     0.049 A 
ATOM     10  C   UNL A   1      35.852  34.385  33.929  1.00  0.00     0.130 A 
BRANCH   6  11
ATOM     11  N   UNL A   1      39.163  34.795  31.342  1.00  0.00    -0.360 N 
ATOM     12  H   UNL A   1      39.571  35.687  31.255  1.00  0.00     0.166 HD
BRANCH  11  13
ATOM     13  C   UNL A   1      39.704  33.792  30.576  1.00  0.00     0.119 C 
ATOM     14  O   UNL A   1      41.789  34.279  32.685  1.00  0.00    -0.244 OA
ATOM     15  C   UNL A   1      41.878  33.481  31.770  1.00  0.00     0.365 C 
ATOM     16  O   UNL A   1      42.880  32.593  31.514  1.00  0.00    -0.402 OA
ATOM     17  C   UNL A   1      40.902  33.204  30.682  1.00  0.00     0.168 C 
ATOM     18  C   UNL A   1      42.520  31.943  30.384  1.00  0.00     0.231 C 
ATOM     19  N   UNL A   1      41.389  32.246  29.833  1.00  0.00    -0.204 NA
BRANCH  18  20
ATOM     20  C   UNL A   1      43.479  30.957  29.890  1.00  0.00     0.037 A 
ATOM     21  C   UNL A   1      43.365  30.452  28.591  1.00  0.00     0.015 A 
ATOM     22  C   UNL A   1      44.561  30.598  30.701  1.00  0.00     0.015 A 
ATOM     23  C   UNL A   1      44.353  29.596  28.097  1.00  0.00     0.021 A 
ATOM     24  C   UNL A   1      45.535  29.726  30.209  1.00  0.00     0.021 A 
ATOM     25  C   UNL A   1      45.433  29.239  28.906  1.00  0.00     0.041 A 
ATOM     26  Cl  UNL A   1      46.666  28.211  28.284  1.00  0.00    -0.084 Cl
ENDBRANCH  18  20
ENDBRANCH  11  13
ENDBRANCH   6  11
BRANCH  10  27
ATOM     27  O   UNL A   1      34.786  34.217  34.766  1.00  0.00    -0.507 OA
ATOM     28  H   UNL A   1      34.180  33.517  34.617  1.00  0.00     0.293 HD
ENDBRANCH  10  27
ENDBRANCH   3   5
ENDBRANCH   2   3
ENDBRANCH   1   2
BRANCH   1  29
ATOM     29  C   UNL A   1      33.100  34.176  28.553  1.00  0.00     0.275 C 
BRANCH  29  30
ATOM     30  O   UNL A   1      34.005  33.494  27.668  1.00  0.00    -0.458 OA
BRANCH  30  31
ATOM     31  C   UNL A   1      33.874  32.151  27.656  1.00  0.00     0.338 C 
ATOM     32  O   UNL A   1      32.882  31.503  27.361  1.00  0.00    -0.246 OA
BRANCH  31  33
ATOM     33  C   UNL A   1      35.159  31.510  27.958  1.00  0.00     0.060 A 
ATOM     34  C   UNL A   1      35.139  30.166  28.302  1.00  0.00     0.016 A 
ATOM     35  C   UNL A   1      36.315  32.261  28.135  1.00  0.00     0.016 A 
ATOM     36  C   UNL A   1      36.205  29.608  28.998  1.00  0.00     0.010 A 
ATOM     37  C   UNL A   1      37.447  31.648  28.686  1.00  0.00     0.010 A 
ATOM     38  C   UNL A   1      37.388  30.332  29.186  1.00  0.00    -0.014 A 
BRANCH  38  39
ATOM     39  C   UNL A   1      38.543  29.722  29.913  1.00  0.00     0.031 A 
ATOM     40  C   UNL A   1      38.877  30.157  31.320  1.00  0.00     0.074 A 
ATOM     41  C   UNL A   1      39.310  28.789  29.309  1.00  0.00     0.049 A 
ATOM     42  N   UNL A   1      39.944  29.900  32.035  1.00  0.00    -0.248 NA
ATOM     43  C   UNL A   1      37.899  31.019  32.005  1.00  0.00     0.031 C 
ATOM     44  C   UNL A   1      39.102  28.261  27.957  1.00  0.00     0.029 A 
ATOM     45  N   UNL A   1      40.433  28.127  29.746  1.00  0.00    -0.354 N 
ATOM     46  C   UNL A   1      39.804  30.630  33.211  1.00  0.00     0.074 A 
ATOM     47  C   UNL A   1      38.549  31.344  33.114  1.00  0.00     0.031 C 
ATOM     48  C   UNL A   1      40.041  27.346  27.686  1.00  0.00     0.029 A 
ATOM     49  C   UNL A   1      40.983  27.298  28.796  1.00  0.00     0.049 A 
ATOM     50  H   UNL A   1      40.807  28.236  30.650  1.00  0.00     0.167 HD
ATOM     51  C   UNL A   1      40.639  30.694  34.277  1.00  0.00     0.034 A 
ATOM     52  C   UNL A   1      42.145  26.616  28.781  1.00  0.00     0.034 A 
ATOM     53  C   UNL A   1      41.847  29.922  34.398  1.00  0.00     0.049 A 
ATOM     54  C   UNL A   1      43.056  26.710  29.971  1.00  0.00     0.074 A 
ATOM     55  C   UNL A   1      42.732  29.869  35.461  1.00  0.00     0.029 A 
ATOM     56  N   UNL A   1      42.340  29.063  33.427  1.00  0.00    -0.354 N 
ATOM     57  N   UNL A   1      42.882  27.366  31.092  1.00  0.00    -0.248 NA
ATOM     58  C   UNL A   1      44.315  25.956  29.901  1.00  0.00     0.031 C 
ATOM     59  C   UNL A   1      43.778  29.008  35.118  1.00  0.00     0.029 A 
ATOM     60  C   UNL A   1      43.523  28.487  33.859  1.00  0.00     0.049 A 
ATOM     61  H   UNL A   1      41.912  28.888  32.558  1.00  0.00     0.167 HD
ATOM     62  C   UNL A   1      43.995  27.082  31.874  1.00  0.00     0.074 A 
ATOM     63  C   UNL A   1      44.823  26.173  31.107  1.00  0.00     0.031 C 
ATOM     64  C   UNL A   1      44.310  27.545  33.107  1.00  0.00     0.034 A 
BRANCH  51  65
ATOM     65  C   UNL A   1      40.277  31.628  35.408  1.00  0.00     0.023 A 
ATOM     66  C   UNL A   1      40.939  32.864  35.549  1.00  0.00     0.012 A 
ATOM     67  C   UNL A   1      39.234  31.301  36.297  1.00  0.00     0.148 A 
ATOM     68  C   UNL A   1      40.598  33.740  36.580  1.00  0.00     0.002 A 
ATOM     69  C   UNL A   1      38.865  32.201  37.292  1.00  0.00     0.091 A 
ATOM     70  F   UNL A   1      38.622  30.116  36.159  1.00  0.00    -0.205 F 
ATOM     71  C   UNL A   1      39.555  33.414  37.443  1.00  0.00     0.022 A 
BRANCH  69  72
ATOM     72  S   UNL A   1      37.479  31.912  38.398  1.00  0.00     0.127 S 
ATOM     73  O   UNL A   1      38.094  32.135  39.707  1.00  0.00    -0.237 OA
ATOM     74  O   UNL A   1      36.535  32.950  37.984  1.00  0.00    -0.237 OA
ATOM     75  O   UNL A   1      37.035  30.549  38.145  1.00  0.00    -0.744 OA
ENDBRANCH  69  72
ENDBRANCH  51  65
BRANCH  52  76
ATOM     76  C   UNL A   1      42.514  25.797  27.592  1.00  0.00     0.023 A 
ATOM     77  C   UNL A   1      43.336  26.355  26.593  1.00  0.00     0.012 A 
ATOM     78  C   UNL A   1      42.080  24.463  27.459  1.00  0.00     0.148 A 
ATOM     79  C   UNL A   1      43.697  25.607  25.472  1.00  0.00     0.002 A 
ATOM     80  C   UNL A   1      42.495  23.704  26.371  1.00  0.00     0.091 A 
ATOM     81  F   UNL A   1      41.287  23.954  28.412  1.00  0.00    -0.205 F 
ATOM     82  C   UNL A   1      43.288  24.280  25.366  1.00  0.00     0.022 A 
BRANCH  80  83
ATOM     83  S   UNL A   1      42.133  21.951  26.223  1.00  0.00     0.127 S 
ATOM     84  O   UNL A   1      42.954  21.573  25.076  1.00  0.00    -0.237 OA
ATOM     85  O   UNL A   1      42.600  21.438  27.511  1.00  0.00    -0.237 OA
ATOM     86  O   UNL A   1      40.693  21.861  26.025  1.00  0.00    -0.744 OA
ENDBRANCH  80  83
ENDBRANCH  52  76
BRANCH  64  87
ATOM     87  C   UNL A   1      45.578  27.032  33.736  1.00  0.00     0.023 A 
ATOM     88  C   UNL A   1      46.805  27.675  33.480  1.00  0.00     0.012 A 
ATOM     89  C   UNL A   1      45.538  25.949  34.635  1.00  0.00     0.148 A 
ATOM     90  C   UNL A   1      47.979  27.223  34.082  1.00  0.00     0.002 A 
ATOM     91  C   UNL A   1      46.702  25.538  35.272  1.00  0.00     0.091 A 
ATOM     92  F   UNL A   1      44.363  25.340  34.850  1.00  0.00    -0.205 F 
ATOM     93  C   UNL A   1      47.926  26.164  34.986  1.00  0.00     0.022 A 
BRANCH  91  94
ATOM     94  S   UNL A   1      46.712  24.251  36.525  1.00  0.00     0.127 S 
ATOM     95  O   UNL A   1      48.108  24.273  36.962  1.00  0.00    -0.237 OA
ATOM     96  O   UNL A   1      45.757  24.767  37.505  1.00  0.00    -0.237 OA
ATOM     97  O   UNL A   1      46.292  23.030  35.852  1.00  0.00    -0.744 OA
ENDBRANCH  91  94
ENDBRANCH  64  87
ENDBRANCH  38  39
ENDBRANCH  31  33
ENDBRANCH  30  31
ENDBRANCH  29  30
ENDBRANCH   1  29
TORSDOF 18
ENDMDL
MODEL 2
REMARK VINA RESULT:      -9.5      4.542     10.475
REMARK SMILES O=C1OC(c2ccc(Cl)cc2)=N/C1=C/Nc1ccc(O)c(C(=O)OCCOC(=O)c2ccc(-c3c4nc(c(-c5cccc(S(=O)(=O)[O-])c5F)c5ccc([nH]5)c(-c5cccc(S(=O)(=O)[O-])c5F)c5nc(c(-c6cccc(S(=O)(=O)[O-])c6F)c6ccc3[nH]6)C=C5)C=C4)cc2)c1
REMARK SMILES IDX 25 1 24 2 22 3 23 4 21 5 16 6 17 7 93 8 18 9 19 10 15 11
REMARK SMILES IDX 14 13 1 14 2 15 3 16 13 17 4 18 12 19 5 20 6 21 11 22 7 23
REMARK SMILES IDX 10 24 8 25 9 26 20 27 26 29 27 30 28 31 29 32 30 33 31 34
REMARK SMILES IDX 92 35 32 36 91 37 33 38 34 39 35 40 85 41 36 42 90 43 84 44
REMARK SMILES IDX 86 45 37 46 89 47 83 48 82 49 38 51 70 52 50 53 69 54 51 55
REMARK SMILES IDX 54 56 68 57 87 58 52 59 53 60 67 62 88 63 55 64 39 65 40 66
REMARK SMILES IDX 48 67 41 68 43 69 49 70 42 71 44 72 45 73 46 74 47 75 71 76
REMARK SMILES IDX 72 77 80 78 73 79 75 80 81 81 74 82 76 83 77 84 78 85 79 86
REMARK SMILES IDX 56 87 57 88 65 89 58 90 60 91 66 92 59 93 61 94 62 95 63 96
REMARK SMILES IDX 64 97
REMARK H PARENT 15 12 20 28 86 50 54 61
REMARK Flexibility Score: inf
ROOT
ATOM      1  C   UNL A   1      31.219  29.900  24.557  1.00  0.00     0.275 C 
ENDROOT
BRANCH   1   2
ATOM      2  O   UNL A   1      31.339  29.597  23.152  1.00  0.00    -0.458 OA
BRANCH   2   3
ATOM      3  C   UNL A   1      30.174  29.498  22.464  1.00  0.00     0.342 C 
ATOM      4  O   UNL A   1      29.925  30.031  21.392  1.00  0.00    -0.246 OA
BRANCH   3   5
ATOM      5  C   UNL A   1      29.224  28.563  23.105  1.00  0.00     0.103 A 
ATOM      6  C   UNL A   1      28.925  26.392  24.207  1.00  0.00     0.039 A 
ATOM      7  C   UNL A   1      27.544  26.565  24.118  1.00  0.00     0.030 A 
ATOM      8  C   UNL A   1      29.743  27.384  23.662  1.00  0.00     0.045 A 
ATOM      9  C   UNL A   1      27.004  27.740  23.573  1.00  0.00     0.049 A 
ATOM     10  C   UNL A   1      27.843  28.741  23.075  1.00  0.00     0.130 A 
BRANCH   6  11
ATOM     11  N   UNL A   1      29.520  25.237  24.727  1.00  0.00    -0.360 N 
ATOM     12  H   UNL A   1      29.096  24.841  25.523  1.00  0.00     0.166 HD
BRANCH  11  13
ATOM     13  C   UNL A   1      30.635  24.599  24.240  1.00  0.00     0.119 C 
ATOM     14  O   UNL A   1      30.697  23.991  27.182  1.00  0.00    -0.244 OA
ATOM     15  C   UNL A   1      31.530  23.639  26.368  1.00  0.00     0.365 C 
ATOM     16  O   UNL A   1      32.629  22.857  26.562  1.00  0.00    -0.402 OA
ATOM     17  C   UNL A   1      31.577  23.922  24.908  1.00  0.00     0.168 C 
ATOM     18  C   UNL A   1      33.238  22.767  25.358  1.00  0.00     0.231 C 
ATOM     19  N   UNL A   1      32.696  23.365  24.347  1.00  0.00    -0.204 NA
BRANCH  18  20
ATOM     20  C   UNL A   1      34.481  21.998  25.335  1.00  0.00     0.037 A 
ATOM     21  C   UNL A   1      34.462  20.636  25.020  1.00  0.00     0.015 A 
ATOM     22  C   UNL A   1      35.694  22.665  25.543  1.00  0.00     0.015 A 
ATOM     23  C   UNL A   1      35.669  19.943  24.895  1.00  0.00     0.021 A 
ATOM     24  C   UNL A   1      36.896  21.962  25.436  1.00  0.00     0.021 A 
ATOM     25  C   UNL A   1      36.879  20.608  25.100  1.00  0.00     0.041 A 
ATOM     26  Cl  UNL A   1      38.365  19.760  24.912  1.00  0.00    -0.084 Cl
ENDBRANCH  18  20
ENDBRANCH  11  13
ENDBRANCH   6  11
BRANCH  10  27
ATOM     27  O   UNL A   1      27.296  29.858  22.510  1.00  0.00    -0.507 OA
ATOM     28  H   UNL A   1      26.471  29.802  22.068  1.00  0.00     0.293 HD
ENDBRANCH  10  27
ENDBRANCH   3   5
ENDBRANCH   2   3
ENDBRANCH   1   2
BRANCH   1  29
ATOM     29  C   UNL A   1      32.551  29.720  25.286  1.00  0.00     0.275 C 
BRANCH  29  30
ATOM     30  O   UNL A   1      32.401  29.993  26.690  1.00  0.00    -0.458 OA
BRANCH  30  31
ATOM     31  C   UNL A   1      32.965  31.150  27.100  1.00  0.00     0.338 C 
ATOM     32  O   UNL A   1      32.416  32.228  27.261  1.00  0.00    -0.246 OA
BRANCH  31  33
ATOM     33  C   UNL A   1      34.374  30.935  27.447  1.00  0.00     0.060 A 
ATOM     34  C   UNL A   1      34.772  29.637  27.735  1.00  0.00     0.016 A 
ATOM     35  C   UNL A   1      35.222  32.003  27.715  1.00  0.00     0.016 A 
ATOM     36  C   UNL A   1      35.932  29.409  28.466  1.00  0.00     0.010 A 
ATOM     37  C   UNL A   1      36.469  31.751  28.302  1.00  0.00     0.010 A 
ATOM     38  C   UNL A   1      36.813  30.459  28.747  1.00  0.00    -0.014 A 
BRANCH  38  39
ATOM     39  C   UNL A   1      38.074  30.209  29.510  1.00  0.00     0.031 A 
ATOM     40  C   UNL A   1      39.148  29.313  28.940  1.00  0.00     0.074 A 
ATOM     41  C   UNL A   1      38.256  30.768  30.725  1.00  0.00     0.049 A 
ATOM     42  N   UNL A   1      40.208  28.816  29.526  1.00  0.00    -0.248 NA
ATOM     43  C   UNL A   1      38.996  28.895  27.536  1.00  0.00     0.031 C 
ATOM     44  C   UNL A   1      37.312  31.665  31.399  1.00  0.00     0.029 A 
ATOM     45  N   UNL A   1      39.290  30.653  31.623  1.00  0.00    -0.354 N 
ATOM     46  C   UNL A   1      40.799  27.968  28.594  1.00  0.00     0.074 A 
ATOM     47  C   UNL A   1      39.978  28.014  27.405  1.00  0.00     0.031 C 
ATOM     48  C   UNL A   1      37.817  32.038  32.582  1.00  0.00     0.029 A 
ATOM     49  C   UNL A   1      39.067  31.324  32.804  1.00  0.00     0.049 A 
ATOM     50  H   UNL A   1      40.110  30.141  31.439  1.00  0.00     0.167 HD
ATOM     51  C   UNL A   1      41.927  27.224  28.716  1.00  0.00     0.034 A 
ATOM     52  C   UNL A   1      39.751  31.325  33.964  1.00  0.00     0.034 A 
ATOM     53  C   UNL A   1      42.779  27.243  29.875  1.00  0.00     0.049 A 
ATOM     54  C   UNL A   1      40.992  30.488  34.076  1.00  0.00     0.074 A 
ATOM     55  C   UNL A   1      43.974  26.573  30.075  1.00  0.00     0.029 A 
ATOM     56  N   UNL A   1      42.533  27.971  31.029  1.00  0.00    -0.354 N 
ATOM     57  N   UNL A   1      41.560  29.732  33.169  1.00  0.00    -0.248 NA
ATOM     58  C   UNL A   1      41.695  30.517  35.366  1.00  0.00     0.031 C 
ATOM     59  C   UNL A   1      44.431  26.867  31.363  1.00  0.00     0.029 A 
ATOM     60  C   UNL A   1      43.545  27.757  31.950  1.00  0.00     0.049 A 
ATOM     61  H   UNL A   1      41.754  28.555  31.173  1.00  0.00     0.167 HD
ATOM     62  C   UNL A   1      42.703  29.217  33.767  1.00  0.00     0.074 A 
ATOM     63  C   UNL A   1      42.759  29.769  35.105  1.00  0.00     0.031 C 
ATOM     64  C   UNL A   1      43.615  28.353  33.259  1.00  0.00     0.034 A 
BRANCH  51  65
ATOM     65  C   UNL A   1      42.314  26.327  27.565  1.00  0.00     0.023 A 
ATOM     66  C   UNL A   1      43.160  26.806  26.544  1.00  0.00     0.012 A 
ATOM     67  C   UNL A   1      41.884  24.985  27.529  1.00  0.00     0.148 A 
ATOM     68  C   UNL A   1      43.537  25.977  25.486  1.00  0.00     0.002 A 
ATOM     69  C   UNL A   1      42.305  24.151  26.498  1.00  0.00     0.091 A 
ATOM     70  F   UNL A   1      41.069  24.548  28.500  1.00  0.00    -0.205 F 
ATOM     71  C   UNL A   1      43.119  24.649  25.469  1.00  0.00     0.022 A 
BRANCH  69  72
ATOM     72  S   UNL A   1      41.892  22.404  26.433  1.00  0.00     0.127 S 
ATOM     73  O   UNL A   1      42.439  21.923  27.701  1.00  0.00    -0.237 OA
ATOM     74  O   UNL A   1      40.430  22.436  26.374  1.00  0.00    -0.237 OA
ATOM     75  O   UNL A   1      42.537  21.879  25.238  1.00  0.00    -0.744 OA
ENDBRANCH  69  72
ENDBRANCH  51  65
BRANCH  52  76
ATOM     76  C   UNL A   1      39.265  32.139  35.115  1.00  0.00     0.023 A 
ATOM     77  C   UNL A   1      38.317  31.592  36.001  1.00  0.00     0.012 A 
ATOM     78  C   UNL A   1      39.758  33.438  35.353  1.00  0.00     0.148 A 
ATOM     79  C   UNL A   1      37.849  32.334  37.086  1.00  0.00     0.002 A 
ATOM     80  C   UNL A   1      39.335  34.146  36.471  1.00  0.00     0.091 A 
ATOM     81  F   UNL A   1      40.649  33.947  34.491  1.00  0.00    -0.205 F 
ATOM     82  C   UNL A   1      38.365  33.604  37.329  1.00  0.00     0.022 A 
BRANCH  80  83
ATOM     83  S   UNL A   1      40.047  35.728  36.939  1.00  0.00     0.127 S 
ATOM     84  O   UNL A   1      39.629  36.582  35.831  1.00  0.00    -0.237 OA
ATOM     85  O   UNL A   1      39.376  35.995  38.211  1.00  0.00    -0.237 OA
ATOM     86  O   UNL A   1      41.481  35.496  37.051  1.00  0.00    -0.744 OA
ENDBRANCH  80  83
ENDBRANCH  52  76
BRANCH  64  87
ATOM     87  C   UNL A   1      44.788  27.992  34.131  1.00  0.00     0.023 A 
ATOM     88  C   UNL A   1      45.947  28.793  34.125  1.00  0.00     0.012 A 
ATOM     89  C   UNL A   1      44.711  26.890  35.005  1.00  0.00     0.148 A 
ATOM     90  C   UNL A   1      47.027  28.480  34.951  1.00  0.00     0.002 A 
ATOM     91  C   UNL A   1      45.768  26.617  35.864  1.00  0.00     0.091 A 
ATOM     92  F   UNL A   1      43.606  26.131  34.981  1.00  0.00    -0.205 F 
ATOM     93  C   UNL A   1      46.932  27.402  35.828  1.00  0.00     0.022 A 
BRANCH  91  94
ATOM     94  S   UNL A   1      45.697  25.312  37.096  1.00  0.00     0.127 S 
ATOM     95  O   UNL A   1      45.645  24.115  36.257  1.00  0.00    -0.237 OA
ATOM     96  O   UNL A   1      46.956  25.499  37.816  1.00  0.00    -0.237 OA
ATOM     97  O   UNL A   1      44.501  25.568  37.886  1.00  0.00    -0.744 OA
ENDBRANCH  91  94
ENDBRANCH  64  87
ENDBRANCH  38  39
ENDBRANCH  31  33
ENDBRANCH  30  31
ENDBRANCH  29  30
ENDBRANCH   1  29
TORSDOF 18
ENDMDL
MODEL 3
REMARK VINA RESULT:      -9.3      3.724      5.309
REMARK SMILES O=C1OC(c2ccc(Cl)cc2)=N/C1=C/Nc1ccc(O)c(C(=O)OCCOC(=O)c2ccc(-c3c4nc(c(-c5cccc(S(=O)(=O)[O-])c5F)c5ccc([nH]5)c(-c5cccc(S(=O)(=O)[O-])c5F)c5nc(c(-c6cccc(S(=O)(=O)[O-])c6F)c6ccc3[nH]6)C=C5)C=C4)cc2)c1
REMARK SMILES IDX 25 1 24 2 22 3 23 4 21 5 16 6 17 7 93 8 18 9 19 10 15 11
REMARK SMILES IDX 14 13 1 14 2 15 3 16 13 17 4 18 12 19 5 20 6 21 11 22 7 23
REMARK SMILES IDX 10 24 8 25 9 26 20 27 26 29 27 30 28 31 29 32 30 33 31 34
REMARK SMILES IDX 92 35 32 36 91 37 33 38 34 39 35 40 85 41 36 42 90 43 84 44
REMARK SMILES IDX 86 45 37 46 89 47 83 48 82 49 38 51 70 52 50 53 69 54 51 55
REMARK SMILES IDX 54 56 68 57 87 58 52 59 53 60 67 62 88 63 55 64 39 65 40 66
REMARK SMILES IDX 48 67 41 68 43 69 49 70 42 71 44 72 45 73 46 74 47 75 71 76
REMARK SMILES IDX 72 77 80 78 73 79 75 80 81 81 74 82 76 83 77 84 78 85 79 86
REMARK SMILES IDX 56 87 57 88 65 89 58 90 60 91 66 92 59 93 61 94 62 95 63 96
REMARK SMILES IDX 64 97
REMARK H PARENT 15 12 20 28 86 50 54 61
REMARK Flexibility Score: inf
ROOT
ATOM      1  C   UNL A   1      33.724  34.022  28.184  1.00  0.00     0.275 C 
ENDROOT
BRANCH   1   2
ATOM      2  O   UNL A   1      32.960  34.326  29.370  1.00  0.00    -0.458 OA
BRANCH   2   3
ATOM      3  C   UNL A   1      32.845  35.641  29.681  1.00  0.00     0.342 C 
ATOM      4  O   UNL A   1      32.301  36.497  28.998  1.00  0.00    -0.246 OA
BRANCH   3   5
ATOM      5  C   UNL A   1      33.370  35.944  31.031  1.00  0.00     0.103 A 
ATOM      6  C   UNL A   1      34.145  35.033  33.172  1.00  0.00     0.039 A 
ATOM      7  C   UNL A   1      34.128  36.323  33.699  1.00  0.00     0.030 A 
ATOM      8  C   UNL A   1      33.728  34.862  31.851  1.00  0.00     0.045 A 
ATOM      9  C   UNL A   1      33.782  37.420  32.895  1.00  0.00     0.049 A 
ATOM     10  C   UNL A   1      33.412  37.232  31.560  1.00  0.00     0.130 A 
BRANCH   6  11
ATOM     11  N   UNL A   1      34.468  33.900  33.929  1.00  0.00    -0.360 N 
ATOM     12  H   UNL A   1      33.724  33.301  34.169  1.00  0.00     0.166 HD
BRANCH  11  13
ATOM     13  C   UNL A   1      35.717  33.540  34.371  1.00  0.00     0.119 C 
ATOM     14  O   UNL A   1      35.249  31.735  32.014  1.00  0.00    -0.244 OA
ATOM     15  C   UNL A   1      36.235  31.728  32.729  1.00  0.00     0.365 C 
ATOM     16  O   UNL A   1      37.363  30.972  32.610  1.00  0.00    -0.402 OA
ATOM     17  C   UNL A   1      36.523  32.571  33.920  1.00  0.00     0.168 C 
ATOM     18  C   UNL A   1      38.155  31.322  33.649  1.00  0.00     0.231 C 
ATOM     19  N   UNL A   1      37.736  32.237  34.462  1.00  0.00    -0.204 NA
BRANCH  18  20
ATOM     20  C   UNL A   1      39.421  30.598  33.749  1.00  0.00     0.037 A 
ATOM     21  C   UNL A   1      39.556  29.333  33.171  1.00  0.00     0.015 A 
ATOM     22  C   UNL A   1      40.516  31.228  34.352  1.00  0.00     0.015 A 
ATOM     23  C   UNL A   1      40.804  28.703  33.182  1.00  0.00     0.021 A 
ATOM     24  C   UNL A   1      41.755  30.585  34.376  1.00  0.00     0.021 A 
ATOM     25  C   UNL A   1      41.897  29.332  33.781  1.00  0.00     0.041 A 
ATOM     26  Cl  UNL A   1      43.440  28.569  33.762  1.00  0.00    -0.084 Cl
ENDBRANCH  18  20
ENDBRANCH  11  13
ENDBRANCH   6  11
BRANCH  10  27
ATOM     27  O   UNL A   1      33.037  38.308  30.808  1.00  0.00    -0.507 OA
ATOM     28  H   UNL A   1      33.663  38.974  30.599  1.00  0.00     0.293 HD
ENDBRANCH  10  27
ENDBRANCH   3   5
ENDBRANCH   2   3
ENDBRANCH   1   2
BRANCH   1  29
ATOM     29  C   UNL A   1      34.720  32.890  28.433  1.00  0.00     0.275 C 
BRANCH  29  30
ATOM     30  O   UNL A   1      34.722  31.965  27.332  1.00  0.00    -0.458 OA
BRANCH  30  31
ATOM     31  C   UNL A   1      34.542  30.674  27.683  1.00  0.00     0.338 C 
ATOM     32  O   UNL A   1      33.492  30.051  27.712  1.00  0.00    -0.246 OA
BRANCH  31  33
ATOM     33  C   UNL A   1      35.834  30.032  27.947  1.00  0.00     0.060 A 
ATOM     34  C   UNL A   1      36.072  29.576  29.236  1.00  0.00     0.016 A 
ATOM     35  C   UNL A   1      36.871  30.092  27.024  1.00  0.00     0.016 A 
ATOM     36  C   UNL A   1      37.373  29.359  29.671  1.00  0.00     0.010 A 
ATOM     37  C   UNL A   1      38.159  29.711  27.422  1.00  0.00     0.010 A 
ATOM     38  C   UNL A   1      38.441  29.403  28.767  1.00  0.00    -0.014 A 
BRANCH  38  39
ATOM     39  C   UNL A   1      39.839  29.144  29.230  1.00  0.00     0.031 A 
ATOM     40  C   UNL A   1      40.631  30.232  29.916  1.00  0.00     0.074 A 
ATOM     41  C   UNL A   1      40.411  27.939  29.024  1.00  0.00     0.049 A 
ATOM     42  N   UNL A   1      41.908  30.269  30.205  1.00  0.00    -0.248 NA
ATOM     43  C   UNL A   1      39.901  31.452  30.300  1.00  0.00     0.031 C 
ATOM     44  C   UNL A   1      39.765  26.788  28.386  1.00  0.00     0.029 A 
ATOM     45  N   UNL A   1      41.675  27.482  29.312  1.00  0.00    -0.354 N 
ATOM     46  C   UNL A   1      42.147  31.537  30.725  1.00  0.00     0.074 A 
ATOM     47  C   UNL A   1      40.884  32.242  30.709  1.00  0.00     0.031 C 
ATOM     48  C   UNL A   1      40.620  25.757  28.355  1.00  0.00     0.029 A 
ATOM     49  C   UNL A   1      41.908  26.201  28.868  1.00  0.00     0.049 A 
ATOM     50  H   UNL A   1      42.348  28.019  29.789  1.00  0.00     0.167 HD
ATOM     51  C   UNL A   1      43.310  32.064  31.182  1.00  0.00     0.034 A 
ATOM     52  C   UNL A   1      43.041  25.474  28.816  1.00  0.00     0.034 A 
ATOM     53  C   UNL A   1      44.545  31.331  31.266  1.00  0.00     0.049 A 
ATOM     54  C   UNL A   1      44.317  26.083  29.320  1.00  0.00     0.074 A 
ATOM     55  C   UNL A   1      45.764  31.753  31.767  1.00  0.00     0.029 A 
ATOM     56  N   UNL A   1      44.721  30.022  30.842  1.00  0.00    -0.354 N 
ATOM     57  N   UNL A   1      44.513  27.264  29.853  1.00  0.00    -0.248 NA
ATOM     58  C   UNL A   1      45.526  25.252  29.233  1.00  0.00     0.031 C 
ATOM     59  C   UNL A   1      46.686  30.713  31.613  1.00  0.00     0.029 A 
ATOM     60  C   UNL A   1      46.030  29.625  31.058  1.00  0.00     0.049 A 
ATOM     61  H   UNL A   1      44.017  29.457  30.447  1.00  0.00     0.167 HD
ATOM     62  C   UNL A   1      45.860  27.310  30.190  1.00  0.00     0.074 A 
ATOM     63  C   UNL A   1      46.425  26.026  29.826  1.00  0.00     0.031 C 
ATOM     64  C   UNL A   1      46.566  28.328  30.738  1.00  0.00     0.034 A 
BRANCH  51  65
ATOM     65  C   UNL A   1      43.308  33.505  31.634  1.00  0.00     0.023 A 
ATOM     66  C   UNL A   1      43.121  33.823  32.994  1.00  0.00     0.012 A 
ATOM     67  C   UNL A   1      43.554  34.543  30.713  1.00  0.00     0.148 A 
ATOM     68  C   UNL A   1      43.136  35.151  33.423  1.00  0.00     0.002 A 
ATOM     69  C   UNL A   1      43.618  35.860  31.156  1.00  0.00     0.091 A 
ATOM     70  F   UNL A   1      43.718  34.226  29.420  1.00  0.00    -0.205 F 
ATOM     71  C   UNL A   1      43.395  36.166  32.507  1.00  0.00     0.022 A 
BRANCH  69  72
ATOM     72  S   UNL A   1      44.031  37.231  30.070  1.00  0.00     0.127 S 
ATOM     73  O   UNL A   1      43.968  38.366  30.990  1.00  0.00    -0.237 OA
ATOM     74  O   UNL A   1      45.382  36.878  29.631  1.00  0.00    -0.237 OA
ATOM     75  O   UNL A   1      43.029  37.228  29.014  1.00  0.00    -0.744 OA
ENDBRANCH  69  72
ENDBRANCH  51  65
BRANCH  52  76
ATOM     76  C   UNL A   1      43.016  24.094  28.253  1.00  0.00     0.023 A 
ATOM     77  C   UNL A   1      42.327  23.076  28.941  1.00  0.00     0.012 A 
ATOM     78  C   UNL A   1      43.644  23.792  27.028  1.00  0.00     0.148 A 
ATOM     79  C   UNL A   1      42.288  21.777  28.432  1.00  0.00     0.002 A 
ATOM     80  C   UNL A   1      43.546  22.512  26.496  1.00  0.00     0.091 A 
ATOM     81  F   UNL A   1      44.307  24.770  26.395  1.00  0.00    -0.205 F 
ATOM     82  C   UNL A   1      42.885  21.498  27.206  1.00  0.00     0.022 A 
BRANCH  80  83
ATOM     83  S   UNL A   1      44.164  22.096  24.861  1.00  0.00     0.127 S 
ATOM     84  O   UNL A   1      43.853  20.672  24.778  1.00  0.00    -0.237 OA
ATOM     85  O   UNL A   1      43.349  22.957  24.004  1.00  0.00    -0.237 OA
ATOM     86  O   UNL A   1      45.582  22.432  24.878  1.00  0.00    -0.744 OA
ENDBRANCH  80  83
ENDBRANCH  52  76
BRANCH  64  87
ATOM     87  C   UNL A   1      48.022  28.080  31.033  1.00  0.00     0.023 A 
ATOM     88  C   UNL A   1      48.415  27.591  32.295  1.00  0.00     0.012 A 
ATOM     89  C   UNL A   1      48.993  28.273  30.032  1.00  0.00     0.148 A 
ATOM     90  C   UNL A   1      49.758  27.333  32.566  1.00  0.00     0.002 A 
ATOM     91  C   UNL A   1      50.322  27.962  30.291  1.00  0.00     0.091 A 
ATOM     92  F   UNL A   1      48.600  28.757  28.844  1.00  0.00    -0.205 F 
ATOM     93  C   UNL A   1      50.708  27.506  31.561  1.00  0.00     0.022 A 
BRANCH  91  94
ATOM     94  S   UNL A   1      51.598  28.058  29.031  1.00  0.00     0.127 S 
ATOM     95  O   UNL A   1      50.964  27.360  27.912  1.00  0.00    -0.237 OA
ATOM     96  O   UNL A   1      51.740  29.502  28.847  1.00  0.00    -0.237 OA
ATOM     97  O   UNL A   1      52.769  27.399  29.591  1.00  0.00    -0.744 OA
ENDBRANCH  91  94
ENDBRANCH  64  87
ENDBRANCH  38  39
ENDBRANCH  31  33
ENDBRANCH  30  31
ENDBRANCH  29  30
ENDBRANCH   1  29
TORSDOF 18
ENDMDL
