MODEL 1
REMARK VINA RESULT:     -11.6      0.000      0.000
REMARK SMILES COc1ccccc1CC(=O)NC[C@H]1CC[C@H](C(=O)OCCOC(=O)c2ccc(-c3c4nc(c(-c5cccc(S(=O)(=O)[O-])c5F)c5ccc([nH]5)c(-c5cccc(S(=O)(=O)[O-])c5F)c5nc(c(-c6cccc(S(=O)(=O)[O-])c6F)c6ccc3[nH]6)C=C5)C=C4)cc2)O1
REMARK SMILES IDX 21 1 20 2 18 3 19 4 17 5 14 6 15 7 89 8 16 9 13 10 12 11
REMARK SMILES IDX 10 12 11 13 9 15 8 16 3 17 4 18 5 19 7 20 6 21 2 22 1 23
REMARK SMILES IDX 22 24 23 25 24 26 25 27 26 28 27 29 88 30 28 31 87 32 29 33
REMARK SMILES IDX 30 34 31 35 81 36 32 37 86 38 80 39 82 40 33 41 85 42 79 43
REMARK SMILES IDX 78 44 34 46 66 47 46 48 65 49 47 50 50 51 64 52 83 53 48 54
REMARK SMILES IDX 49 55 63 57 84 58 51 59 35 60 36 61 44 62 37 63 39 64 45 65
REMARK SMILES IDX 38 66 40 67 41 68 42 69 43 70 67 71 68 72 76 73 69 74 71 75
REMARK SMILES IDX 77 76 70 77 72 78 73 79 74 80 75 81 52 82 53 83 61 84 54 85
REMARK SMILES IDX 56 86 62 87 55 88 57 89 58 90 59 91 60 92
REMARK H PARENT 12 14 82 45 50 56
REMARK Flexibility Score: inf
ROOT
ATOM      1  C   UNL A   1      35.980  21.109  25.511  1.00  0.00     0.274 C 
ENDROOT
BRANCH   1   2
ATOM      2  O   UNL A   1      35.254  21.639  24.386  1.00  0.00    -0.460 OA
BRANCH   2   3
ATOM      3  C   UNL A   1      35.302  22.992  24.224  1.00  0.00     0.335 C 
ATOM      4  O   UNL A   1      36.330  23.632  24.037  1.00  0.00    -0.249 OA
BRANCH   3   5
ATOM      5  C   UNL A   1      33.912  23.641  24.298  1.00  0.00     0.228 C 
ATOM      6  C   UNL A   1      32.012  23.226  22.999  1.00  0.00     0.138 C 
ATOM      7  C   UNL A   1      32.880  24.215  22.244  1.00  0.00     0.037 C 
ATOM      8  O   UNL A   1      32.851  22.708  24.045  1.00  0.00    -0.361 OA
ATOM      9  C   UNL A   1      33.711  24.816  23.348  1.00  0.00     0.047 C 
BRANCH   6  10
ATOM     10  C   UNL A   1      30.750  23.874  23.607  1.00  0.00     0.147 C 
BRANCH  10  11
ATOM     11  N   UNL A   1      30.598  23.551  25.017  1.00  0.00    -0.353 N 
ATOM     12  C   UNL A   1      30.473  24.404  26.075  1.00  0.00     0.224 C 
ATOM     13  O   UNL A   1      30.568  23.948  27.216  1.00  0.00    -0.275 OA
ATOM     14  H   UNL A   1      30.583  22.592  25.238  1.00  0.00     0.163 HD
BRANCH  12  15
ATOM     15  C   UNL A   1      30.158  25.867  25.834  1.00  0.00     0.139 C 
BRANCH  15  16
ATOM     16  C   UNL A   1      31.362  26.742  25.581  1.00  0.00     0.003 A 
ATOM     17  C   UNL A   1      31.388  27.707  24.559  1.00  0.00     0.122 A 
ATOM     18  C   UNL A   1      32.558  28.416  24.281  1.00  0.00     0.047 A 
ATOM     19  C   UNL A   1      33.701  28.215  25.050  1.00  0.00     0.004 A 
ATOM     20  C   UNL A   1      32.516  26.571  26.365  1.00  0.00     0.008 A 
ATOM     21  C   UNL A   1      33.679  27.299  26.098  1.00  0.00     0.001 A 
BRANCH  17  22
ATOM     22  O   UNL A   1      30.346  27.895  23.692  1.00  0.00    -0.496 OA
ATOM     23  C   UNL A   1      30.617  27.414  22.376  1.00  0.00     0.278 C 
ENDBRANCH  17  22
ENDBRANCH  15  16
ENDBRANCH  12  15
ENDBRANCH  10  11
ENDBRANCH   6  10
ENDBRANCH   3   5
ENDBRANCH   2   3
ENDBRANCH   1   2
BRANCH   1  24
ATOM     24  C   UNL A   1      37.195  20.297  25.053  1.00  0.00     0.275 C 
BRANCH  24  25
ATOM     25  O   UNL A   1      38.381  21.112  24.990  1.00  0.00    -0.458 OA
BRANCH  25  26
ATOM     26  C   UNL A   1      39.297  20.866  25.955  1.00  0.00     0.338 C 
ATOM     27  O   UNL A   1      39.809  19.793  26.227  1.00  0.00    -0.246 OA
BRANCH  26  28
ATOM     28  C   UNL A   1      39.719  22.121  26.593  1.00  0.00     0.060 A 
ATOM     29  C   UNL A   1      39.136  23.310  26.148  1.00  0.00     0.016 A 
ATOM     30  C   UNL A   1      40.766  22.145  27.516  1.00  0.00     0.016 A 
ATOM     31  C   UNL A   1      39.613  24.535  26.604  1.00  0.00     0.010 A 
ATOM     32  C   UNL A   1      41.247  23.378  27.972  1.00  0.00     0.010 A 
ATOM     33  C   UNL A   1      40.692  24.579  27.494  1.00  0.00    -0.014 A 
BRANCH  33  34
ATOM     34  C   UNL A   1      41.293  25.892  27.835  1.00  0.00     0.031 A 
ATOM     35  C   UNL A   1      42.684  26.217  27.365  1.00  0.00     0.074 A 
ATOM     36  C   UNL A   1      40.581  26.801  28.525  1.00  0.00     0.049 A 
ATOM     37  N   UNL A   1      43.375  27.314  27.530  1.00  0.00    -0.248 NA
ATOM     38  C   UNL A   1      43.390  25.170  26.609  1.00  0.00     0.031 C 
ATOM     39  C   UNL A   1      39.225  26.601  29.033  1.00  0.00     0.029 A 
ATOM     40  N   UNL A   1      40.906  28.073  28.921  1.00  0.00    -0.354 N 
ATOM     41  C   UNL A   1      44.606  27.081  26.929  1.00  0.00     0.074 A 
ATOM     42  C   UNL A   1      44.570  25.735  26.400  1.00  0.00     0.031 C 
ATOM     43  C   UNL A   1      38.834  27.711  29.683  1.00  0.00     0.029 A 
ATOM     44  C   UNL A   1      39.916  28.693  29.648  1.00  0.00     0.049 A 
ATOM     45  H   UNL A   1      41.765  28.502  28.707  1.00  0.00     0.167 HD
ATOM     46  C   UNL A   1      45.663  27.919  26.810  1.00  0.00     0.034 A 
ATOM     47  C   UNL A   1      39.888  29.912  30.221  1.00  0.00     0.034 A 
ATOM     48  C   UNL A   1      45.685  29.271  27.298  1.00  0.00     0.049 A 
ATOM     49  C   UNL A   1      41.068  30.832  30.050  1.00  0.00     0.074 A 
ATOM     50  C   UNL A   1      46.699  30.208  27.198  1.00  0.00     0.029 A 
ATOM     51  N   UNL A   1      44.643  29.882  27.977  1.00  0.00    -0.354 N 
ATOM     52  N   UNL A   1      42.180  30.633  29.384  1.00  0.00    -0.248 NA
ATOM     53  C   UNL A   1      40.974  32.158  30.680  1.00  0.00     0.031 C 
ATOM     54  C   UNL A   1      46.269  31.386  27.817  1.00  0.00     0.029 A 
ATOM     55  C   UNL A   1      44.986  31.184  28.299  1.00  0.00     0.049 A 
ATOM     56  H   UNL A   1      43.784  29.454  28.197  1.00  0.00     0.167 HD
ATOM     57  C   UNL A   1      42.905  31.815  29.491  1.00  0.00     0.074 A 
ATOM     58  C   UNL A   1      42.093  32.733  30.264  1.00  0.00     0.031 C 
ATOM     59  C   UNL A   1      44.142  32.106  29.016  1.00  0.00     0.034 A 
BRANCH  46  60
ATOM     60  C   UNL A   1      46.872  27.407  26.075  1.00  0.00     0.023 A 
ATOM     61  C   UNL A   1      47.780  26.562  26.746  1.00  0.00     0.012 A 
ATOM     62  C   UNL A   1      47.090  27.721  24.720  1.00  0.00     0.148 A 
ATOM     63  C   UNL A   1      48.899  26.057  26.085  1.00  0.00     0.002 A 
ATOM     64  C   UNL A   1      48.190  27.187  24.060  1.00  0.00     0.091 A 
ATOM     65  F   UNL A   1      46.232  28.551  24.108  1.00  0.00    -0.205 F 
ATOM     66  C   UNL A   1      49.099  26.361  24.741  1.00  0.00     0.022 A 
BRANCH  64  67
ATOM     67  S   UNL A   1      48.492  27.476  22.312  1.00  0.00     0.127 S 
ATOM     68  O   UNL A   1      49.699  28.298  22.353  1.00  0.00    -0.237 OA
ATOM     69  O   UNL A   1      48.697  26.120  21.800  1.00  0.00    -0.237 OA
ATOM     70  O   UNL A   1      47.294  28.134  21.809  1.00  0.00    -0.744 OA
ENDBRANCH  64  67
ENDBRANCH  46  60
BRANCH  47  71
ATOM     71  C   UNL A   1      38.670  30.357  30.952  1.00  0.00     0.023 A 
ATOM     72  C   UNL A   1      38.552  30.084  32.330  1.00  0.00     0.012 A 
ATOM     73  C   UNL A   1      37.646  31.073  30.305  1.00  0.00     0.148 A 
ATOM     74  C   UNL A   1      37.428  30.498  33.043  1.00  0.00     0.002 A 
ATOM     75  C   UNL A   1      36.551  31.529  31.033  1.00  0.00     0.091 A 
ATOM     76  F   UNL A   1      37.761  31.301  28.989  1.00  0.00    -0.205 F 
ATOM     77  C   UNL A   1      36.435  31.230  32.399  1.00  0.00     0.022 A 
BRANCH  75  78
ATOM     78  S   UNL A   1      35.299  32.587  30.300  1.00  0.00     0.127 S 
ATOM     79  O   UNL A   1      34.763  31.731  29.244  1.00  0.00    -0.237 OA
ATOM     80  O   UNL A   1      34.391  32.819  31.424  1.00  0.00    -0.237 OA
ATOM     81  O   UNL A   1      36.014  33.777  29.859  1.00  0.00    -0.744 OA
ENDBRANCH  75  78
ENDBRANCH  47  71
BRANCH  59  82
ATOM     82  C   UNL A   1      44.689  33.479  29.300  1.00  0.00     0.023 A 
ATOM     83  C   UNL A   1      45.320  33.730  30.535  1.00  0.00     0.012 A 
ATOM     84  C   UNL A   1      44.638  34.498  28.330  1.00  0.00     0.148 A 
ATOM     85  C   UNL A   1      45.866  34.982  30.810  1.00  0.00     0.002 A 
ATOM     86  C   UNL A   1      45.219  35.733  28.597  1.00  0.00     0.091 A 
ATOM     87  F   UNL A   1      44.013  34.253  27.169  1.00  0.00    -0.205 F 
ATOM     88  C   UNL A   1      45.826  35.980  29.839  1.00  0.00     0.022 A 
BRANCH  86  89
ATOM     89  S   UNL A   1      45.275  37.031  27.356  1.00  0.00     0.127 S 
ATOM     90  O   UNL A   1      43.856  37.290  27.125  1.00  0.00    -0.237 OA
ATOM     91  O   UNL A   1      45.985  38.109  28.049  1.00  0.00    -0.237 OA
ATOM     92  O   UNL A   1      46.012  36.459  26.237  1.00  0.00    -0.744 OA
ENDBRANCH  86  89
ENDBRANCH  59  82
ENDBRANCH  33  34
ENDBRANCH  26  28
ENDBRANCH  25  26
ENDBRANCH  24  25
ENDBRANCH   1  24
TORSDOF 19
ENDMDL
MODEL 2
REMARK VINA RESULT:     -11.2      5.090     10.346
REMARK SMILES COc1ccccc1CC(=O)NC[C@H]1CC[C@H](C(=O)OCCOC(=O)c2ccc(-c3c4nc(c(-c5cccc(S(=O)(=O)[O-])c5F)c5ccc([nH]5)c(-c5cccc(S(=O)(=O)[O-])c5F)c5nc(c(-c6cccc(S(=O)(=O)[O-])c6F)c6ccc3[nH]6)C=C5)C=C4)cc2)O1
REMARK SMILES IDX 21 1 20 2 18 3 19 4 17 5 14 6 15 7 89 8 16 9 13 10 12 11
REMARK SMILES IDX 10 12 11 13 9 15 8 16 3 17 4 18 5 19 7 20 6 21 2 22 1 23
REMARK SMILES IDX 22 24 23 25 24 26 25 27 26 28 27 29 88 30 28 31 87 32 29 33
REMARK SMILES IDX 30 34 31 35 81 36 32 37 86 38 80 39 82 40 33 41 85 42 79 43
REMARK SMILES IDX 78 44 34 46 66 47 46 48 65 49 47 50 50 51 64 52 83 53 48 54
REMARK SMILES IDX 49 55 63 57 84 58 51 59 35 60 36 61 44 62 37 63 39 64 45 65
REMARK SMILES IDX 38 66 40 67 41 68 42 69 43 70 67 71 68 72 76 73 69 74 71 75
REMARK SMILES IDX 77 76 70 77 72 78 73 79 74 80 75 81 52 82 53 83 61 84 54 85
REMARK SMILES IDX 56 86 62 87 55 88 57 89 58 90 59 91 60 92
REMARK H PARENT 12 14 82 45 50 56
REMARK Flexibility Score: inf
ROOT
ATOM      1  C   UNL A   1      30.776  31.298  25.371  1.00  0.00     0.274 C 
ENDROOT
BRANCH   1   2
ATOM      2  O   UNL A   1      31.502  30.140  24.918  1.00  0.00    -0.460 OA
BRANCH   2   3
ATOM      3  C   UNL A   1      30.814  29.272  24.123  1.00  0.00     0.335 C 
ATOM      4  O   UNL A   1      29.978  29.608  23.291  1.00  0.00    -0.249 OA
BRANCH   3   5
ATOM      5  C   UNL A   1      31.201  27.809  24.379  1.00  0.00     0.228 C 
ATOM      6  C   UNL A   1      30.307  26.285  25.911  1.00  0.00     0.138 C 
ATOM      7  C   UNL A   1      31.351  27.112  26.639  1.00  0.00     0.037 C 
ATOM      8  O   UNL A   1      30.069  26.979  24.675  1.00  0.00    -0.361 OA
ATOM      9  C   UNL A   1      32.210  27.609  25.505  1.00  0.00     0.047 C 
BRANCH   6  10
ATOM     10  C   UNL A   1      30.776  24.842  25.624  1.00  0.00     0.147 C 
BRANCH  10  11
ATOM     11  N   UNL A   1      31.488  24.267  26.755  1.00  0.00    -0.353 N 
ATOM     12  C   UNL A   1      31.881  22.974  26.942  1.00  0.00     0.224 C 
ATOM     13  O   UNL A   1      32.283  22.634  28.056  1.00  0.00    -0.275 OA
ATOM     14  H   UNL A   1      31.715  24.892  27.480  1.00  0.00     0.163 HD
BRANCH  12  15
ATOM     15  C   UNL A   1      31.878  22.006  25.775  1.00  0.00     0.139 C 
BRANCH  15  16
ATOM     16  C   UNL A   1      33.235  21.463  25.397  1.00  0.00     0.003 A 
ATOM     17  C   UNL A   1      33.461  20.094  25.175  1.00  0.00     0.122 A 
ATOM     18  C   UNL A   1      34.751  19.615  24.941  1.00  0.00     0.047 A 
ATOM     19  C   UNL A   1      35.826  20.498  24.870  1.00  0.00     0.004 A 
ATOM     20  C   UNL A   1      34.327  22.343  25.295  1.00  0.00     0.008 A 
ATOM     21  C   UNL A   1      35.613  21.863  25.038  1.00  0.00     0.001 A 
BRANCH  17  22
ATOM     22  O   UNL A   1      32.484  19.148  25.328  1.00  0.00    -0.496 OA
ATOM     23  C   UNL A   1      32.389  18.254  24.220  1.00  0.00     0.278 C 
ENDBRANCH  17  22
ENDBRANCH  15  16
ENDBRANCH  12  15
ENDBRANCH  10  11
ENDBRANCH   6  10
ENDBRANCH   3   5
ENDBRANCH   2   3
ENDBRANCH   1   2
BRANCH   1  24
ATOM     24  C   UNL A   1      31.240  31.731  26.764  1.00  0.00     0.275 C 
BRANCH  24  25
ATOM     25  O   UNL A   1      32.621  31.390  26.990  1.00  0.00    -0.458 OA
BRANCH  25  26
ATOM     26  C   UNL A   1      33.392  32.399  27.456  1.00  0.00     0.338 C 
ATOM     27  O   UNL A   1      33.058  33.559  27.632  1.00  0.00    -0.246 OA
BRANCH  26  28
ATOM     28  C   UNL A   1      34.711  31.892  27.863  1.00  0.00     0.060 A 
ATOM     29  C   UNL A   1      34.822  30.535  28.176  1.00  0.00     0.016 A 
ATOM     30  C   UNL A   1      35.787  32.758  28.064  1.00  0.00     0.016 A 
ATOM     31  C   UNL A   1      36.003  30.038  28.718  1.00  0.00     0.010 A 
ATOM     32  C   UNL A   1      36.974  32.257  28.612  1.00  0.00     0.010 A 
ATOM     33  C   UNL A   1      37.076  30.902  28.969  1.00  0.00    -0.014 A 
BRANCH  33  34
ATOM     34  C   UNL A   1      38.259  30.387  29.701  1.00  0.00     0.031 A 
ATOM     35  C   UNL A   1      38.496  30.812  31.123  1.00  0.00     0.074 A 
ATOM     36  C   UNL A   1      39.091  29.512  29.108  1.00  0.00     0.049 A 
ATOM     37  N   UNL A   1      39.450  30.455  31.943  1.00  0.00    -0.248 NA
ATOM     38  C   UNL A   1      37.534  31.766  31.700  1.00  0.00     0.031 C 
ATOM     39  C   UNL A   1      38.965  29.025  27.735  1.00  0.00     0.029 A 
ATOM     40  N   UNL A   1      40.212  28.883  29.587  1.00  0.00    -0.354 N 
ATOM     41  C   UNL A   1      39.224  31.161  33.119  1.00  0.00     0.074 A 
ATOM     42  C   UNL A   1      38.045  31.973  32.905  1.00  0.00     0.031 C 
ATOM     43  C   UNL A   1      39.975  28.177  27.478  1.00  0.00     0.029 A 
ATOM     44  C   UNL A   1      40.826  28.072  28.661  1.00  0.00     0.049 A 
ATOM     45  H   UNL A   1      40.546  29.000  30.505  1.00  0.00     0.167 HD
ATOM     46  C   UNL A   1      39.920  31.120  34.279  1.00  0.00     0.034 A 
ATOM     47  C   UNL A   1      41.947  27.331  28.758  1.00  0.00     0.034 A 
ATOM     48  C   UNL A   1      41.067  30.284  34.508  1.00  0.00     0.049 A 
ATOM     49  C   UNL A   1      42.688  27.286  30.068  1.00  0.00     0.074 A 
ATOM     50  C   UNL A   1      41.822  30.152  35.660  1.00  0.00     0.029 A 
ATOM     51  N   UNL A   1      41.623  29.433  33.566  1.00  0.00    -0.354 N 
ATOM     52  N   UNL A   1      42.395  27.875  31.202  1.00  0.00    -0.248 NA
ATOM     53  C   UNL A   1      43.894  26.445  30.121  1.00  0.00     0.031 C 
ATOM     54  C   UNL A   1      42.836  29.219  35.414  1.00  0.00     0.029 A 
ATOM     55  C   UNL A   1      42.710  28.769  34.110  1.00  0.00     0.049 A 
ATOM     56  H   UNL A   1      41.295  29.317  32.645  1.00  0.00     0.167 HD
ATOM     57  C   UNL A   1      43.362  27.457  32.110  1.00  0.00     0.074 A 
ATOM     58  C   UNL A   1      44.233  26.543  31.399  1.00  0.00     0.031 C 
ATOM     59  C   UNL A   1      43.530  27.815  33.407  1.00  0.00     0.034 A 
BRANCH  46  60
ATOM     60  C   UNL A   1      39.427  31.978  35.413  1.00  0.00     0.023 A 
ATOM     61  C   UNL A   1      38.520  31.436  36.345  1.00  0.00     0.012 A 
ATOM     62  C   UNL A   1      39.889  33.298  35.583  1.00  0.00     0.148 A 
ATOM     63  C   UNL A   1      38.061  32.201  37.416  1.00  0.00     0.002 A 
ATOM     64  C   UNL A   1      39.451  34.043  36.671  1.00  0.00     0.091 A 
ATOM     65  F   UNL A   1      40.728  33.807  34.669  1.00  0.00    -0.205 F 
ATOM     66  C   UNL A   1      38.533  33.500  37.585  1.00  0.00     0.022 A 
BRANCH  64  67
ATOM     67  S   UNL A   1      40.055  35.704  37.001  1.00  0.00     0.127 S 
ATOM     68  O   UNL A   1      39.579  36.430  35.825  1.00  0.00    -0.237 OA
ATOM     69  O   UNL A   1      39.368  36.046  38.247  1.00  0.00    -0.237 OA
ATOM     70  O   UNL A   1      41.501  35.580  37.126  1.00  0.00    -0.744 OA
ENDBRANCH  64  67
ENDBRANCH  46  60
BRANCH  47  71
ATOM     71  C   UNL A   1      42.398  26.518  27.595  1.00  0.00     0.023 A 
ATOM     72  C   UNL A   1      43.263  27.092  26.643  1.00  0.00     0.012 A 
ATOM     73  C   UNL A   1      42.005  25.175  27.443  1.00  0.00     0.148 A 
ATOM     74  C   UNL A   1      43.710  26.350  25.550  1.00  0.00     0.002 A 
ATOM     75  C   UNL A   1      42.495  24.425  26.378  1.00  0.00     0.091 A 
ATOM     76  F   UNL A   1      41.160  24.652  28.343  1.00  0.00    -0.205 F 
ATOM     77  C   UNL A   1      43.337  25.015  25.424  1.00  0.00     0.022 A 
BRANCH  75  78
ATOM     78  S   UNL A   1      42.162  22.667  26.224  1.00  0.00     0.127 S 
ATOM     79  O   UNL A   1      42.741  22.365  24.918  1.00  0.00    -0.237 OA
ATOM     80  O   UNL A   1      42.892  22.112  27.365  1.00  0.00    -0.237 OA
ATOM     81  O   UNL A   1      40.714  22.541  26.328  1.00  0.00    -0.744 OA
ENDBRANCH  75  78
ENDBRANCH  47  71
BRANCH  59  82
ATOM     82  C   UNL A   1      44.688  27.207  34.151  1.00  0.00     0.023 A 
ATOM     83  C   UNL A   1      45.962  27.802  34.055  1.00  0.00     0.012 A 
ATOM     84  C   UNL A   1      44.508  26.092  34.992  1.00  0.00     0.148 A 
ATOM     85  C   UNL A   1      47.044  27.279  34.761  1.00  0.00     0.002 A 
ATOM     86  C   UNL A   1      45.583  25.600  35.723  1.00  0.00     0.091 A 
ATOM     87  F   UNL A   1      43.296  25.520  35.055  1.00  0.00    -0.205 F 
ATOM     88  C   UNL A   1      46.854  26.185  35.603  1.00  0.00     0.022 A 
BRANCH  86  89
ATOM     89  S   UNL A   1      45.384  24.247  36.889  1.00  0.00     0.127 S 
ATOM     90  O   UNL A   1      46.732  24.117  37.435  1.00  0.00    -0.237 OA
ATOM     91  O   UNL A   1      44.394  24.776  37.830  1.00  0.00    -0.237 OA
ATOM     92  O   UNL A   1      44.906  23.123  36.093  1.00  0.00    -0.744 OA
ENDBRANCH  86  89
ENDBRANCH  59  82
ENDBRANCH  33  34
ENDBRANCH  26  28
ENDBRANCH  25  26
ENDBRANCH  24  25
ENDBRANCH   1  24
TORSDOF 19
ENDMDL
MODEL 3
REMARK VINA RESULT:     -10.9      5.015     10.349
REMARK SMILES COc1ccccc1CC(=O)NC[C@H]1CC[C@H](C(=O)OCCOC(=O)c2ccc(-c3c4nc(c(-c5cccc(S(=O)(=O)[O-])c5F)c5ccc([nH]5)c(-c5cccc(S(=O)(=O)[O-])c5F)c5nc(c(-c6cccc(S(=O)(=O)[O-])c6F)c6ccc3[nH]6)C=C5)C=C4)cc2)O1
REMARK SMILES IDX 21 1 20 2 18 3 19 4 17 5 14 6 15 7 89 8 16 9 13 10 12 11
REMARK SMILES IDX 10 12 11 13 9 15 8 16 3 17 4 18 5 19 7 20 6 21 2 22 1 23
REMARK SMILES IDX 22 24 23 25 24 26 25 27 26 28 27 29 88 30 28 31 87 32 29 33
REMARK SMILES IDX 30 34 31 35 81 36 32 37 86 38 80 39 82 40 33 41 85 42 79 43
REMARK SMILES IDX 78 44 34 46 66 47 46 48 65 49 47 50 50 51 64 52 83 53 48 54
REMARK SMILES IDX 49 55 63 57 84 58 51 59 35 60 36 61 44 62 37 63 39 64 45 65
REMARK SMILES IDX 38 66 40 67 41 68 42 69 43 70 67 71 68 72 76 73 69 74 71 75
REMARK SMILES IDX 77 76 70 77 72 78 73 79 74 80 75 81 52 82 53 83 61 84 54 85
REMARK SMILES IDX 56 86 62 87 55 88 57 89 58 90 59 91 60 92
REMARK H PARENT 12 14 82 45 50 56
REMARK Flexibility Score: inf
ROOT
ATOM      1  C   UNL A   1      31.813  29.537  25.578  1.00  0.00     0.274 C 
ENDROOT
BRANCH   1   2
ATOM      2  O   UNL A   1      31.577  29.578  24.158  1.00  0.00    -0.460 OA
BRANCH   2   3
ATOM      3  C   UNL A   1      30.296  29.342  23.755  1.00  0.00     0.335 C 
ATOM      4  O   UNL A   1      29.435  30.207  23.638  1.00  0.00    -0.249 OA
BRANCH   3   5
ATOM      5  C   UNL A   1      30.041  27.857  23.453  1.00  0.00     0.228 C 
ATOM      6  C   UNL A   1      31.345  25.991  23.985  1.00  0.00     0.138 C 
ATOM      7  C   UNL A   1      31.885  26.579  22.693  1.00  0.00     0.037 C 
ATOM      8  O   UNL A   1      30.465  26.995  24.518  1.00  0.00    -0.361 OA
ATOM      9  C   UNL A   1      30.698  27.349  22.175  1.00  0.00     0.047 C 
BRANCH   6  10
ATOM     10  C   UNL A   1      30.573  24.672  23.769  1.00  0.00     0.147 C 
BRANCH  10  11
ATOM     11  N   UNL A   1      31.269  23.777  22.858  1.00  0.00    -0.353 N 
ATOM     12  C   UNL A   1      32.443  23.111  23.053  1.00  0.00     0.224 C 
ATOM     13  O   UNL A   1      32.982  22.568  22.087  1.00  0.00    -0.275 OA
ATOM     14  H   UNL A   1      30.836  23.634  21.986  1.00  0.00     0.163 HD
BRANCH  12  15
ATOM     15  C   UNL A   1      33.024  22.995  24.449  1.00  0.00     0.139 C 
BRANCH  15  16
ATOM     16  C   UNL A   1      34.428  22.444  24.510  1.00  0.00     0.003 A 
ATOM     17  C   UNL A   1      34.691  21.083  24.734  1.00  0.00     0.122 A 
ATOM     18  C   UNL A   1      36.001  20.629  24.898  1.00  0.00     0.047 A 
ATOM     19  C   UNL A   1      37.070  21.516  24.788  1.00  0.00     0.004 A 
ATOM     20  C   UNL A   1      35.519  23.321  24.374  1.00  0.00     0.008 A 
ATOM     21  C   UNL A   1      36.830  22.860  24.517  1.00  0.00     0.001 A 
BRANCH  17  22
ATOM     22  O   UNL A   1      33.702  20.164  24.958  1.00  0.00    -0.496 OA
ATOM     23  C   UNL A   1      34.087  18.831  24.625  1.00  0.00     0.278 C 
ENDBRANCH  17  22
ENDBRANCH  15  16
ENDBRANCH  12  15
ENDBRANCH  10  11
ENDBRANCH   6  10
ENDBRANCH   3   5
ENDBRANCH   2   3
ENDBRANCH   1   2
BRANCH   1  24
ATOM     24  C   UNL A   1      31.844  30.947  26.174  1.00  0.00     0.275 C 
BRANCH  24  25
ATOM     25  O   UNL A   1      32.577  30.980  27.413  1.00  0.00    -0.458 OA
BRANCH  25  26
ATOM     26  C   UNL A   1      33.430  32.021  27.548  1.00  0.00     0.338 C 
ATOM     27  O   UNL A   1      33.156  33.209  27.492  1.00  0.00    -0.246 OA
BRANCH  26  28
ATOM     28  C   UNL A   1      34.772  31.542  27.908  1.00  0.00     0.060 A 
ATOM     29  C   UNL A   1      34.922  30.189  28.220  1.00  0.00     0.016 A 
ATOM     30  C   UNL A   1      35.837  32.431  28.068  1.00  0.00     0.016 A 
ATOM     31  C   UNL A   1      36.131  29.717  28.720  1.00  0.00     0.010 A 
ATOM     32  C   UNL A   1      37.053  31.955  28.575  1.00  0.00     0.010 A 
ATOM     33  C   UNL A   1      37.195  30.603  28.931  1.00  0.00    -0.014 A 
BRANCH  33  34
ATOM     34  C   UNL A   1      38.414  30.114  29.621  1.00  0.00     0.031 A 
ATOM     35  C   UNL A   1      38.728  30.601  31.008  1.00  0.00     0.074 A 
ATOM     36  C   UNL A   1      39.211  29.210  29.023  1.00  0.00     0.049 A 
ATOM     37  N   UNL A   1      39.723  30.275  31.791  1.00  0.00    -0.248 NA
ATOM     38  C   UNL A   1      37.801  31.584  31.593  1.00  0.00     0.031 C 
ATOM     39  C   UNL A   1      39.009  28.664  27.682  1.00  0.00     0.029 A 
ATOM     40  N   UNL A   1      40.354  28.596  29.469  1.00  0.00    -0.354 N 
ATOM     41  C   UNL A   1      39.562  31.033  32.945  1.00  0.00     0.074 A 
ATOM     42  C   UNL A   1      38.376  31.841  32.758  1.00  0.00     0.031 C 
ATOM     43  C   UNL A   1      40.002  27.800  27.409  1.00  0.00     0.029 A 
ATOM     44  C   UNL A   1      40.914  27.742  28.549  1.00  0.00     0.049 A 
ATOM     45  H   UNL A   1      40.736  28.752  30.363  1.00  0.00     0.167 HD
ATOM     46  C   UNL A   1      40.320  31.040  34.067  1.00  0.00     0.034 A 
ATOM     47  C   UNL A   1      42.037  27.000  28.619  1.00  0.00     0.034 A 
ATOM     48  C   UNL A   1      41.474  30.208  34.271  1.00  0.00     0.049 A 
ATOM     49  C   UNL A   1      42.847  27.009  29.889  1.00  0.00     0.074 A 
ATOM     50  C   UNL A   1      42.289  30.122  35.387  1.00  0.00     0.029 A 
ATOM     51  N   UNL A   1      41.977  29.313  33.340  1.00  0.00    -0.354 N 
ATOM     52  N   UNL A   1      42.617  27.649  31.010  1.00  0.00    -0.248 NA
ATOM     53  C   UNL A   1      44.050  26.164  29.915  1.00  0.00     0.031 C 
ATOM     54  C   UNL A   1      43.286  29.174  35.129  1.00  0.00     0.029 A 
ATOM     55  C   UNL A   1      43.088  28.668  33.854  1.00  0.00     0.049 A 
ATOM     56  H   UNL A   1      41.599  29.159  32.444  1.00  0.00     0.167 HD
ATOM     57  C   UNL A   1      43.629  27.265  31.882  1.00  0.00     0.074 A 
ATOM     58  C   UNL A   1      44.458  26.316  31.167  1.00  0.00     0.031 C 
ATOM     59  C   UNL A   1      43.867  27.680  33.152  1.00  0.00     0.034 A 
BRANCH  46  60
ATOM     60  C   UNL A   1      39.890  31.950  35.186  1.00  0.00     0.023 A 
ATOM     61  C   UNL A   1      40.330  33.288  35.194  1.00  0.00     0.012 A 
ATOM     62  C   UNL A   1      39.023  31.499  36.200  1.00  0.00     0.148 A 
ATOM     63  C   UNL A   1      39.933  34.159  36.208  1.00  0.00     0.002 A 
ATOM     64  C   UNL A   1      38.606  32.382  37.189  1.00  0.00     0.091 A 
ATOM     65  F   UNL A   1      38.640  30.214  36.193  1.00  0.00    -0.205 F 
ATOM     66  C   UNL A   1      39.064  33.710  37.199  1.00  0.00     0.022 A 
BRANCH  64  67
ATOM     67  S   UNL A   1      37.438  31.905  38.470  1.00  0.00     0.127 S 
ATOM     68  O   UNL A   1      36.365  32.876  38.267  1.00  0.00    -0.237 OA
ATOM     69  O   UNL A   1      37.099  30.534  38.090  1.00  0.00    -0.237 OA
ATOM     70  O   UNL A   1      38.165  32.019  39.727  1.00  0.00    -0.744 OA
ENDBRANCH  64  67
ENDBRANCH  46  60
BRANCH  47  71
ATOM     71  C   UNL A   1      42.422  26.134  27.471  1.00  0.00     0.023 A 
ATOM     72  C   UNL A   1      43.231  26.663  26.446  1.00  0.00     0.012 A 
ATOM     73  C   UNL A   1      42.023  24.786  27.403  1.00  0.00     0.148 A 
ATOM     74  C   UNL A   1      43.617  25.872  25.364  1.00  0.00     0.002 A 
ATOM     75  C   UNL A   1      42.454  23.988  26.347  1.00  0.00     0.091 A 
ATOM     76  F   UNL A   1      41.232  24.305  28.372  1.00  0.00    -0.205 F 
ATOM     77  C   UNL A   1      43.240  24.532  25.321  1.00  0.00     0.022 A 
BRANCH  75  78
ATOM     78  S   UNL A   1      42.116  22.225  26.293  1.00  0.00     0.127 S 
ATOM     79  O   UNL A   1      42.930  21.797  25.158  1.00  0.00    -0.237 OA
ATOM     80  O   UNL A   1      42.597  21.775  27.600  1.00  0.00    -0.237 OA
ATOM     81  O   UNL A   1      40.673  22.116  26.124  1.00  0.00    -0.744 OA
ENDBRANCH  75  78
ENDBRANCH  47  71
BRANCH  59  82
ATOM     82  C   UNL A   1      45.061  27.098  33.859  1.00  0.00     0.023 A 
ATOM     83  C   UNL A   1      46.316  27.726  33.729  1.00  0.00     0.012 A 
ATOM     84  C   UNL A   1      44.934  25.976  34.700  1.00  0.00     0.148 A 
ATOM     85  C   UNL A   1      47.431  27.228  34.401  1.00  0.00     0.002 A 
ATOM     86  C   UNL A   1      46.042  25.509  35.397  1.00  0.00     0.091 A 
ATOM     87  F   UNL A   1      43.739  25.373  34.796  1.00  0.00    -0.205 F 
ATOM     88  C   UNL A   1      47.293  26.127  35.243  1.00  0.00     0.022 A 
BRANCH  86  89
ATOM     89  S   UNL A   1      45.911  24.147  36.563  1.00  0.00     0.127 S 
ATOM     90  O   UNL A   1      45.471  23.053  35.701  1.00  0.00    -0.237 OA
ATOM     91  O   UNL A   1      47.283  24.016  37.060  1.00  0.00    -0.237 OA
ATOM     92  O   UNL A   1      44.955  24.593  37.567  1.00  0.00    -0.744 OA
ENDBRANCH  86  89
ENDBRANCH  59  82
ENDBRANCH  33  34
ENDBRANCH  26  28
ENDBRANCH  25  26
ENDBRANCH  24  25
ENDBRANCH   1  24
TORSDOF 19
ENDMDL
