MODEL 1
REMARK VINA RESULT:     -13.1      0.000      0.000
REMARK SMILES Cc1nnc(SCC2=C(C(=O)OCCOC(=O)c3ccc(-c4c5nc(c(-c6cccc(S(=O)(=O)[O-])c6F)c6ccc([nH]6)c(-c6cccc(S(=O)(=O)[O-])c6F)c6nc(c(-c7cccc(S(=O)(=O)[O-])c7F)c7ccc4[nH]7)C=C6)C=C5)cc3)N3C(=O)[C@H](NC(=O)c4ccc(F)cc4F)[C@H]3SC2)s1
REMARK SMILES IDX 13 1 12 2 10 3 11 4 9 5 8 6 98 7 81 8 97 9 82 10 96 11 83 12
REMARK SMILES IDX 84 13 7 14 6 15 5 16 1 17 2 18 3 19 99 20 4 21 85 22 86 23
REMARK SMILES IDX 87 25 88 26 89 27 94 28 90 29 93 30 95 31 91 32 92 33 14 34
REMARK SMILES IDX 15 35 16 36 17 37 18 38 19 39 80 40 20 41 79 42 21 43 22 44
REMARK SMILES IDX 23 45 73 46 24 47 78 48 72 49 74 50 25 51 77 52 71 53 70 54
REMARK SMILES IDX 26 56 58 57 38 58 57 59 39 60 42 61 56 62 75 63 40 64 41 65
REMARK SMILES IDX 55 67 76 68 43 69 27 70 28 71 36 72 29 73 31 74 37 75 30 76
REMARK SMILES IDX 32 77 33 78 34 79 35 80 59 81 60 82 68 83 61 84 63 85 69 86
REMARK SMILES IDX 62 87 64 88 65 89 66 90 67 91 44 92 45 93 53 94 46 95 48 96
REMARK SMILES IDX 54 97 47 98 49 99 50 100 51 101 52 102
REMARK H PARENT 85 24 74 55 42 66
REMARK Flexibility Score: inf
ROOT
ATOM      1  C   UNL A   1      31.558  29.930  25.254  1.00  0.00     0.275 C 
ENDROOT
BRANCH   1   2
ATOM      2  O   UNL A   1      32.833  29.674  24.626  1.00  0.00    -0.457 OA
BRANCH   2   3
ATOM      3  C   UNL A   1      32.798  28.751  23.635  1.00  0.00     0.355 C 
ATOM      4  O   UNL A   1      33.243  28.881  22.503  1.00  0.00    -0.244 OA
BRANCH   3   5
ATOM      5  C   UNL A   1      32.059  27.512  24.024  1.00  0.00     0.132 C 
ATOM      6  C   UNL A   1      30.854  27.148  23.517  1.00  0.00    -0.019 C 
ATOM      7  C   UNL A   1      30.171  25.822  23.859  1.00  0.00     0.106 C 
ATOM      8  N   UNL A   1      32.769  26.611  24.744  1.00  0.00    -0.289 N 
ATOM      9  S   UNL A   1      31.008  24.729  25.050  1.00  0.00    -0.129 SA
ATOM     10  C   UNL A   1      33.625  26.591  25.780  1.00  0.00     0.253 C 
ATOM     11  C   UNL A   1      32.679  25.198  24.530  1.00  0.00     0.181 C 
ATOM     12  O   UNL A   1      33.979  27.450  26.548  1.00  0.00    -0.272 OA
ATOM     13  C   UNL A   1      33.803  25.027  25.608  1.00  0.00     0.206 C 
BRANCH   6  14
ATOM     14  C   UNL A   1      30.018  28.029  22.608  1.00  0.00     0.111 C 
BRANCH  14  15
ATOM     15  S   UNL A   1      28.440  28.501  23.376  1.00  0.00    -0.089 SA
BRANCH  15  16
ATOM     16  C   UNL A   1      28.220  30.121  22.763  1.00  0.00     0.174 A 
ATOM     17  C   UNL A   1      27.654  33.164  20.501  1.00  0.00     0.081 C 
ATOM     18  C   UNL A   1      27.877  32.117  21.531  1.00  0.00     0.115 A 
ATOM     19  N   UNL A   1      27.932  32.335  22.828  1.00  0.00    -0.143 NA
ATOM     20  S   UNL A   1      28.038  30.462  21.094  1.00  0.00    -0.091 S 
ATOM     21  N   UNL A   1      28.132  31.172  23.544  1.00  0.00    -0.132 NA
ENDBRANCH  15  16
ENDBRANCH  14  15
ENDBRANCH   6  14
BRANCH  13  22
ATOM     22  N   UNL A   1      35.160  24.635  25.122  1.00  0.00    -0.338 N 
ATOM     23  C   UNL A   1      35.624  23.397  24.751  1.00  0.00     0.254 C 
ATOM     24  H   UNL A   1      35.814  25.368  25.059  1.00  0.00     0.164 HD
ATOM     25  O   UNL A   1      36.768  23.223  24.355  1.00  0.00    -0.269 OA
BRANCH  23  26
ATOM     26  C   UNL A   1      34.730  22.244  24.853  1.00  0.00     0.075 A 
ATOM     27  C   UNL A   1      34.754  21.446  25.999  1.00  0.00     0.020 A 
ATOM     28  C   UNL A   1      33.891  21.927  23.786  1.00  0.00     0.138 A 
ATOM     29  C   UNL A   1      33.883  20.359  26.086  1.00  0.00     0.040 A 
ATOM     30  C   UNL A   1      33.006  20.861  23.879  1.00  0.00     0.079 A 
ATOM     31  F   UNL A   1      33.875  22.680  22.676  1.00  0.00    -0.206 F 
ATOM     32  C   UNL A   1      33.009  20.087  25.033  1.00  0.00     0.126 A 
ATOM     33  F   UNL A   1      32.154  19.062  25.133  1.00  0.00    -0.207 F 
ENDBRANCH  23  26
ENDBRANCH  13  22
ENDBRANCH   3   5
ENDBRANCH   2   3
ENDBRANCH   1   2
BRANCH   1  34
ATOM     34  C   UNL A   1      31.635  31.125  26.199  1.00  0.00     0.275 C 
BRANCH  34  35
ATOM     35  O   UNL A   1      32.638  30.871  27.190  1.00  0.00    -0.458 OA
BRANCH  35  36
ATOM     36  C   UNL A   1      33.423  31.918  27.535  1.00  0.00     0.338 C 
ATOM     37  O   UNL A   1      33.090  33.091  27.560  1.00  0.00    -0.246 OA
BRANCH  36  38
ATOM     38  C   UNL A   1      34.777  31.435  27.902  1.00  0.00     0.060 A 
ATOM     39  C   UNL A   1      35.009  30.090  28.181  1.00  0.00     0.016 A 
ATOM     40  C   UNL A   1      35.810  32.355  28.088  1.00  0.00     0.016 A 
ATOM     41  C   UNL A   1      36.200  29.691  28.785  1.00  0.00     0.010 A 
ATOM     42  C   UNL A   1      37.047  31.930  28.589  1.00  0.00     0.010 A 
ATOM     43  C   UNL A   1      37.238  30.603  29.014  1.00  0.00    -0.014 A 
BRANCH  43  44
ATOM     44  C   UNL A   1      38.462  30.200  29.777  1.00  0.00     0.031 A 
ATOM     45  C   UNL A   1      39.497  29.309  29.131  1.00  0.00     0.074 A 
ATOM     46  C   UNL A   1      38.687  30.643  31.033  1.00  0.00     0.049 A 
ATOM     47  N   UNL A   1      40.490  28.658  29.684  1.00  0.00    -0.248 NA
ATOM     48  C   UNL A   1      39.391  29.100  27.676  1.00  0.00     0.031 C 
ATOM     49  C   UNL A   1      37.815  31.541  31.790  1.00  0.00     0.029 A 
ATOM     50  N   UNL A   1      39.734  30.402  31.893  1.00  0.00    -0.354 N 
ATOM     51  C   UNL A   1      41.039  27.870  28.678  1.00  0.00     0.074 A 
ATOM     52  C   UNL A   1      40.295  28.153  27.469  1.00  0.00     0.031 C 
ATOM     53  C   UNL A   1      38.390  31.830  32.966  1.00  0.00     0.029 A 
ATOM     54  C   UNL A   1      39.616  31.053  33.100  1.00  0.00     0.049 A 
ATOM     55  H   UNL A   1      40.495  29.820  31.666  1.00  0.00     0.167 HD
ATOM     56  C   UNL A   1      42.072  26.997  28.751  1.00  0.00     0.034 A 
ATOM     57  C   UNL A   1      40.378  31.002  34.211  1.00  0.00     0.034 A 
ATOM     58  C   UNL A   1      42.907  26.826  29.910  1.00  0.00     0.049 A 
ATOM     59  C   UNL A   1      41.566  30.083  34.246  1.00  0.00     0.074 A 
ATOM     60  C   UNL A   1      44.000  25.991  30.068  1.00  0.00     0.029 A 
ATOM     61  N   UNL A   1      42.772  27.534  31.093  1.00  0.00    -0.354 N 
ATOM     62  N   UNL A   1      42.046  29.318  33.297  1.00  0.00    -0.248 NA
ATOM     63  C   UNL A   1      42.310  30.009  35.512  1.00  0.00     0.031 C 
ATOM     64  C   UNL A   1      44.535  26.206  31.343  1.00  0.00     0.029 A 
ATOM     65  C   UNL A   1      43.772  27.171  31.979  1.00  0.00     0.049 A 
ATOM     66  H   UNL A   1      42.067  28.197  31.276  1.00  0.00     0.167 HD
ATOM     67  C   UNL A   1      43.141  28.665  33.851  1.00  0.00     0.074 A 
ATOM     68  C   UNL A   1      43.283  29.162  35.205  1.00  0.00     0.031 C 
ATOM     69  C   UNL A   1      43.931  27.710  33.304  1.00  0.00     0.034 A 
BRANCH  56  70
ATOM     70  C   UNL A   1      42.387  26.176  27.529  1.00  0.00     0.023 A 
ATOM     71  C   UNL A   1      43.164  26.727  26.492  1.00  0.00     0.012 A 
ATOM     72  C   UNL A   1      41.968  24.833  27.441  1.00  0.00     0.148 A 
ATOM     73  C   UNL A   1      43.498  25.962  25.374  1.00  0.00     0.002 A 
ATOM     74  C   UNL A   1      42.337  24.064  26.342  1.00  0.00     0.091 A 
ATOM     75  F   UNL A   1      41.207  24.332  28.426  1.00  0.00    -0.205 F 
ATOM     76  C   UNL A   1      43.095  24.629  25.305  1.00  0.00     0.022 A 
BRANCH  74  77
ATOM     77  S   UNL A   1      41.927  22.320  26.213  1.00  0.00     0.127 S 
ATOM     78  O   UNL A   1      42.653  21.931  25.004  1.00  0.00    -0.237 OA
ATOM     79  O   UNL A   1      42.479  21.774  27.454  1.00  0.00    -0.237 OA
ATOM     80  O   UNL A   1      40.475  22.262  26.126  1.00  0.00    -0.744 OA
ENDBRANCH  74  77
ENDBRANCH  56  70
BRANCH  57  81
ATOM     81  C   UNL A   1      40.036  31.862  35.382  1.00  0.00     0.023 A 
ATOM     82  C   UNL A   1      40.608  33.145  35.482  1.00  0.00     0.012 A 
ATOM     83  C   UNL A   1      39.107  31.449  36.356  1.00  0.00     0.148 A 
ATOM     84  C   UNL A   1      40.264  33.996  36.535  1.00  0.00     0.002 A 
ATOM     85  C   UNL A   1      38.718  32.327  37.362  1.00  0.00     0.091 A 
ATOM     86  F   UNL A   1      38.599  30.210  36.272  1.00  0.00    -0.205 F 
ATOM     87  C   UNL A   1      39.306  33.595  37.463  1.00  0.00     0.022 A 
BRANCH  85  88
ATOM     88  S   UNL A   1      37.364  31.928  38.474  1.00  0.00     0.127 S 
ATOM     89  O   UNL A   1      36.345  32.890  38.069  1.00  0.00    -0.237 OA
ATOM     90  O   UNL A   1      37.068  30.536  38.128  1.00  0.00    -0.237 OA
ATOM     91  O   UNL A   1      37.917  32.098  39.812  1.00  0.00    -0.744 OA
ENDBRANCH  85  88
ENDBRANCH  57  81
BRANCH  69  92
ATOM     92  C   UNL A   1      45.012  27.128  34.172  1.00  0.00     0.023 A 
ATOM     93  C   UNL A   1      46.280  27.744  34.190  1.00  0.00     0.012 A 
ATOM     94  C   UNL A   1      44.768  26.022  35.007  1.00  0.00     0.148 A 
ATOM     95  C   UNL A   1      47.295  27.253  35.007  1.00  0.00     0.002 A 
ATOM     96  C   UNL A   1      45.776  25.558  35.846  1.00  0.00     0.091 A 
ATOM     97  F   UNL A   1      43.563  25.433  34.960  1.00  0.00    -0.205 F 
ATOM     98  C   UNL A   1      47.042  26.167  35.842  1.00  0.00     0.022 A 
BRANCH  96  99
ATOM     99  S   UNL A   1      45.498  24.211  37.001  1.00  0.00     0.127 S 
ATOM    100  O   UNL A   1      46.822  24.048  37.598  1.00  0.00    -0.237 OA
ATOM    101  O   UNL A   1      44.488  24.765  37.904  1.00  0.00    -0.237 OA
ATOM    102  O   UNL A   1      45.026  23.095  36.191  1.00  0.00    -0.744 OA
ENDBRANCH  96  99
ENDBRANCH  69  92
ENDBRANCH  43  44
ENDBRANCH  36  38
ENDBRANCH  35  36
ENDBRANCH  34  35
ENDBRANCH   1  34
TORSDOF 19
ENDMDL
MODEL 2
REMARK VINA RESULT:     -12.7      2.172      5.477
REMARK SMILES Cc1nnc(SCC2=C(C(=O)OCCOC(=O)c3ccc(-c4c5nc(c(-c6cccc(S(=O)(=O)[O-])c6F)c6ccc([nH]6)c(-c6cccc(S(=O)(=O)[O-])c6F)c6nc(c(-c7cccc(S(=O)(=O)[O-])c7F)c7ccc4[nH]7)C=C6)C=C5)cc3)N3C(=O)[C@H](NC(=O)c4ccc(F)cc4F)[C@H]3SC2)s1
REMARK SMILES IDX 13 1 12 2 10 3 11 4 9 5 8 6 98 7 81 8 97 9 82 10 96 11 83 12
REMARK SMILES IDX 84 13 7 14 6 15 5 16 1 17 2 18 3 19 99 20 4 21 85 22 86 23
REMARK SMILES IDX 87 25 88 26 89 27 94 28 90 29 93 30 95 31 91 32 92 33 14 34
REMARK SMILES IDX 15 35 16 36 17 37 18 38 19 39 80 40 20 41 79 42 21 43 22 44
REMARK SMILES IDX 23 45 73 46 24 47 78 48 72 49 74 50 25 51 77 52 71 53 70 54
REMARK SMILES IDX 26 56 58 57 38 58 57 59 39 60 42 61 56 62 75 63 40 64 41 65
REMARK SMILES IDX 55 67 76 68 43 69 27 70 28 71 36 72 29 73 31 74 37 75 30 76
REMARK SMILES IDX 32 77 33 78 34 79 35 80 59 81 60 82 68 83 61 84 63 85 69 86
REMARK SMILES IDX 62 87 64 88 65 89 66 90 67 91 44 92 45 93 53 94 46 95 48 96
REMARK SMILES IDX 54 97 47 98 49 99 50 100 51 101 52 102
REMARK H PARENT 85 24 74 55 42 66
REMARK Flexibility Score: inf
ROOT
ATOM      1  C   UNL A   1      32.279  28.509  27.758  1.00  0.00     0.275 C 
ENDROOT
BRANCH   1   2
ATOM      2  O   UNL A   1      32.852  27.679  26.726  1.00  0.00    -0.457 OA
BRANCH   2   3
ATOM      3  C   UNL A   1      32.001  26.766  26.199  1.00  0.00     0.355 C 
ATOM      4  O   UNL A   1      31.198  26.078  26.816  1.00  0.00    -0.244 OA
BRANCH   3   5
ATOM      5  C   UNL A   1      32.180  26.588  24.727  1.00  0.00     0.132 C 
ATOM      6  C   UNL A   1      33.012  25.679  24.160  1.00  0.00    -0.019 C 
ATOM      7  C   UNL A   1      33.096  25.453  22.649  1.00  0.00     0.106 C 
ATOM      8  N   UNL A   1      31.272  27.224  23.949  1.00  0.00    -0.289 N 
ATOM      9  S   UNL A   1      32.066  26.508  21.584  1.00  0.00    -0.129 SA
ATOM     10  C   UNL A   1      30.666  28.420  23.870  1.00  0.00     0.253 C 
ATOM     11  C   UNL A   1      30.705  26.633  22.773  1.00  0.00     0.181 C 
ATOM     12  O   UNL A   1      30.844  29.453  24.465  1.00  0.00    -0.272 OA
ATOM     13  C   UNL A   1      29.802  27.907  22.646  1.00  0.00     0.206 C 
BRANCH   6  14
ATOM     14  C   UNL A   1      33.995  24.828  24.943  1.00  0.00     0.111 C 
BRANCH  14  15
ATOM     15  S   UNL A   1      33.523  23.073  24.952  1.00  0.00    -0.089 SA
BRANCH  15  16
ATOM     16  C   UNL A   1      35.082  22.289  24.982  1.00  0.00     0.174 A 
ATOM     17  C   UNL A   1      37.911  19.701  24.961  1.00  0.00     0.081 C 
ATOM     18  C   UNL A   1      36.961  20.842  24.979  1.00  0.00     0.115 A 
ATOM     19  N   UNL A   1      37.310  22.113  24.972  1.00  0.00    -0.143 NA
ATOM     20  S   UNL A   1      35.262  20.585  24.959  1.00  0.00    -0.091 S 
ATOM     21  N   UNL A   1      36.215  22.953  24.974  1.00  0.00    -0.132 NA
ENDBRANCH  15  16
ENDBRANCH  14  15
ENDBRANCH   6  14
BRANCH  13  22
ATOM     22  N   UNL A   1      28.352  27.749  22.968  1.00  0.00    -0.338 N 
ATOM     23  C   UNL A   1      27.382  28.713  23.098  1.00  0.00     0.254 C 
ATOM     24  H   UNL A   1      28.048  26.822  23.107  1.00  0.00     0.164 HD
ATOM     25  O   UNL A   1      26.219  28.434  23.354  1.00  0.00    -0.269 OA
BRANCH  23  26
ATOM     26  C   UNL A   1      27.755  30.119  22.949  1.00  0.00     0.075 A 
ATOM     27  C   UNL A   1      27.871  30.930  24.080  1.00  0.00     0.020 A 
ATOM     28  C   UNL A   1      27.949  30.648  21.674  1.00  0.00     0.138 A 
ATOM     29  C   UNL A   1      28.243  32.266  23.919  1.00  0.00     0.040 A 
ATOM     30  C   UNL A   1      28.342  31.970  21.513  1.00  0.00     0.079 A 
ATOM     31  F   UNL A   1      27.822  29.878  20.583  1.00  0.00    -0.206 F 
ATOM     32  C   UNL A   1      28.488  32.767  22.641  1.00  0.00     0.126 A 
ATOM     33  F   UNL A   1      28.874  34.041  22.495  1.00  0.00    -0.207 F 
ENDBRANCH  23  26
ENDBRANCH  13  22
ENDBRANCH   3   5
ENDBRANCH   2   3
ENDBRANCH   1   2
BRANCH   1  34
ATOM     34  C   UNL A   1      31.950  29.902  27.232  1.00  0.00     0.275 C 
BRANCH  34  35
ATOM     35  O   UNL A   1      33.129  30.468  26.645  1.00  0.00    -0.458 OA
BRANCH  35  36
ATOM     36  C   UNL A   1      33.708  31.488  27.320  1.00  0.00     0.338 C 
ATOM     37  O   UNL A   1      33.194  32.563  27.581  1.00  0.00    -0.246 OA
BRANCH  36  38
ATOM     38  C   UNL A   1      35.085  31.110  27.724  1.00  0.00     0.060 A 
ATOM     39  C   UNL A   1      35.467  29.774  27.809  1.00  0.00     0.016 A 
ATOM     40  C   UNL A   1      35.977  32.100  28.138  1.00  0.00     0.016 A 
ATOM     41  C   UNL A   1      36.657  29.420  28.444  1.00  0.00     0.010 A 
ATOM     42  C   UNL A   1      37.222  31.744  28.672  1.00  0.00     0.010 A 
ATOM     43  C   UNL A   1      37.552  30.396  28.901  1.00  0.00    -0.014 A 
BRANCH  43  44
ATOM     44  C   UNL A   1      38.763  30.017  29.695  1.00  0.00     0.031 A 
ATOM     45  C   UNL A   1      39.812  29.111  29.091  1.00  0.00     0.074 A 
ATOM     46  C   UNL A   1      38.966  30.493  30.942  1.00  0.00     0.049 A 
ATOM     47  N   UNL A   1      40.797  28.477  29.677  1.00  0.00    -0.248 NA
ATOM     48  C   UNL A   1      39.731  28.863  27.640  1.00  0.00     0.031 C 
ATOM     49  C   UNL A   1      38.080  31.409  31.660  1.00  0.00     0.029 A 
ATOM     50  N   UNL A   1      39.999  30.278  31.825  1.00  0.00    -0.354 N 
ATOM     51  C   UNL A   1      41.364  27.665  28.702  1.00  0.00     0.074 A 
ATOM     52  C   UNL A   1      40.640  27.913  27.474  1.00  0.00     0.031 C 
ATOM     53  C   UNL A   1      38.634  31.731  32.837  1.00  0.00     0.029 A 
ATOM     54  C   UNL A   1      39.859  30.960  33.013  1.00  0.00     0.049 A 
ATOM     55  H   UNL A   1      40.765  29.692  31.628  1.00  0.00     0.167 HD
ATOM     56  C   UNL A   1      42.397  26.797  28.815  1.00  0.00     0.034 A 
ATOM     57  C   UNL A   1      40.603  30.941  34.137  1.00  0.00     0.034 A 
ATOM     58  C   UNL A   1      43.213  26.659  29.992  1.00  0.00     0.049 A 
ATOM     59  C   UNL A   1      41.792  30.026  34.217  1.00  0.00     0.074 A 
ATOM     60  C   UNL A   1      44.305  25.831  30.191  1.00  0.00     0.029 A 
ATOM     61  N   UNL A   1      43.056  27.397  31.154  1.00  0.00    -0.354 N 
ATOM     62  N   UNL A   1      42.290  29.237  33.297  1.00  0.00    -0.248 NA
ATOM     63  C   UNL A   1      42.514  29.987  35.497  1.00  0.00     0.031 C 
ATOM     64  C   UNL A   1      44.818  26.081  31.469  1.00  0.00     0.029 A 
ATOM     65  C   UNL A   1      44.042  27.061  32.065  1.00  0.00     0.049 A 
ATOM     66  H   UNL A   1      42.348  28.064  31.307  1.00  0.00     0.167 HD
ATOM     67  C   UNL A   1      43.376  28.602  33.886  1.00  0.00     0.074 A 
ATOM     68  C   UNL A   1      43.495  29.135  35.229  1.00  0.00     0.031 C 
ATOM     69  C   UNL A   1      44.177  27.635  33.379  1.00  0.00     0.034 A 
BRANCH  56  70
ATOM     70  C   UNL A   1      42.734  25.944  27.621  1.00  0.00     0.023 A 
ATOM     71  C   UNL A   1      43.610  26.433  26.632  1.00  0.00     0.012 A 
ATOM     72  C   UNL A   1      42.236  24.629  27.516  1.00  0.00     0.148 A 
ATOM     73  C   UNL A   1      43.963  25.637  25.543  1.00  0.00     0.002 A 
ATOM     74  C   UNL A   1      42.623  23.828  26.447  1.00  0.00     0.091 A 
ATOM     75  F   UNL A   1      41.384  24.189  28.453  1.00  0.00    -0.205 F 
ATOM     76  C   UNL A   1      43.480  24.332  25.456  1.00  0.00     0.022 A 
BRANCH  74  77
ATOM     77  S   UNL A   1      42.111  22.111  26.304  1.00  0.00     0.127 S 
ATOM     78  O   UNL A   1      40.664  22.244  26.148  1.00  0.00    -0.237 OA
ATOM     79  O   UNL A   1      42.814  21.672  25.097  1.00  0.00    -0.237 OA
ATOM     80  O   UNL A   1      42.560  21.463  27.528  1.00  0.00    -0.744 OA
ENDBRANCH  74  77
ENDBRANCH  56  70
BRANCH  57  81
ATOM     81  C   UNL A   1      40.239  31.831  35.279  1.00  0.00     0.023 A 
ATOM     82  C   UNL A   1      40.790  33.125  35.344  1.00  0.00     0.012 A 
ATOM     83  C   UNL A   1      39.310  31.433  36.260  1.00  0.00     0.148 A 
ATOM     84  C   UNL A   1      40.425  34.002  36.367  1.00  0.00     0.002 A 
ATOM     85  C   UNL A   1      38.900  32.335  37.235  1.00  0.00     0.091 A 
ATOM     86  F   UNL A   1      38.823  30.184  36.211  1.00  0.00    -0.205 F 
ATOM     87  C   UNL A   1      39.468  33.615  37.301  1.00  0.00     0.022 A 
BRANCH  85  88
ATOM     88  S   UNL A   1      37.546  31.948  38.351  1.00  0.00     0.127 S 
ATOM     89  O   UNL A   1      36.563  32.969  38.001  1.00  0.00    -0.237 OA
ATOM     90  O   UNL A   1      37.185  30.586  37.953  1.00  0.00    -0.237 OA
ATOM     91  O   UNL A   1      38.123  32.040  39.686  1.00  0.00    -0.744 OA
ENDBRANCH  85  88
ENDBRANCH  57  81
BRANCH  69  92
ATOM     92  C   UNL A   1      45.245  27.079  34.280  1.00  0.00     0.023 A 
ATOM     93  C   UNL A   1      46.489  27.738  34.353  1.00  0.00     0.012 A 
ATOM     94  C   UNL A   1      45.008  25.955  35.092  1.00  0.00     0.148 A 
ATOM     95  C   UNL A   1      47.489  27.271  35.202  1.00  0.00     0.002 A 
ATOM     96  C   UNL A   1      46.000  25.515  35.963  1.00  0.00     0.091 A 
ATOM     97  F   UNL A   1      43.828  25.326  34.992  1.00  0.00    -0.205 F 
ATOM     98  C   UNL A   1      47.243  26.167  36.014  1.00  0.00     0.022 A 
BRANCH  96  99
ATOM     99  S   UNL A   1      45.726  24.144  37.091  1.00  0.00     0.127 S 
ATOM    100  O   UNL A   1      45.092  23.158  36.218  1.00  0.00    -0.237 OA
ATOM    101  O   UNL A   1      47.085  23.798  37.511  1.00  0.00    -0.237 OA
ATOM    102  O   UNL A   1      44.890  24.678  38.157  1.00  0.00    -0.744 OA
ENDBRANCH  96  99
ENDBRANCH  69  92
ENDBRANCH  43  44
ENDBRANCH  36  38
ENDBRANCH  35  36
ENDBRANCH  34  35
ENDBRANCH   1  34
TORSDOF 19
ENDMDL
MODEL 3
REMARK VINA RESULT:     -12.6      2.472      5.200
REMARK SMILES Cc1nnc(SCC2=C(C(=O)OCCOC(=O)c3ccc(-c4c5nc(c(-c6cccc(S(=O)(=O)[O-])c6F)c6ccc([nH]6)c(-c6cccc(S(=O)(=O)[O-])c6F)c6nc(c(-c7cccc(S(=O)(=O)[O-])c7F)c7ccc4[nH]7)C=C6)C=C5)cc3)N3C(=O)[C@H](NC(=O)c4ccc(F)cc4F)[C@H]3SC2)s1
REMARK SMILES IDX 13 1 12 2 10 3 11 4 9 5 8 6 98 7 81 8 97 9 82 10 96 11 83 12
REMARK SMILES IDX 84 13 7 14 6 15 5 16 1 17 2 18 3 19 99 20 4 21 85 22 86 23
REMARK SMILES IDX 87 25 88 26 89 27 94 28 90 29 93 30 95 31 91 32 92 33 14 34
REMARK SMILES IDX 15 35 16 36 17 37 18 38 19 39 80 40 20 41 79 42 21 43 22 44
REMARK SMILES IDX 23 45 73 46 24 47 78 48 72 49 74 50 25 51 77 52 71 53 70 54
REMARK SMILES IDX 26 56 58 57 38 58 57 59 39 60 42 61 56 62 75 63 40 64 41 65
REMARK SMILES IDX 55 67 76 68 43 69 27 70 28 71 36 72 29 73 31 74 37 75 30 76
REMARK SMILES IDX 32 77 33 78 34 79 35 80 59 81 60 82 68 83 61 84 63 85 69 86
REMARK SMILES IDX 62 87 64 88 65 89 66 90 67 91 44 92 45 93 53 94 46 95 48 96
REMARK SMILES IDX 54 97 47 98 49 99 50 100 51 101 52 102
REMARK H PARENT 85 24 74 55 42 66
REMARK Flexibility Score: inf
ROOT
ATOM      1  C   UNL A   1      31.779  28.156  27.499  1.00  0.00     0.275 C 
ENDROOT
BRANCH   1   2
ATOM      2  O   UNL A   1      31.655  27.375  26.290  1.00  0.00    -0.457 OA
BRANCH   2   3
ATOM      3  C   UNL A   1      32.832  27.068  25.694  1.00  0.00     0.355 C 
ATOM      4  O   UNL A   1      33.945  27.144  26.198  1.00  0.00    -0.244 OA
BRANCH   3   5
ATOM      5  C   UNL A   1      32.672  26.682  24.260  1.00  0.00     0.132 C 
ATOM      6  C   UNL A   1      33.319  25.647  23.668  1.00  0.00    -0.019 C 
ATOM      7  C   UNL A   1      33.056  25.214  22.225  1.00  0.00     0.106 C 
ATOM      8  N   UNL A   1      31.640  27.270  23.610  1.00  0.00    -0.289 N 
ATOM      9  S   UNL A   1      31.859  26.187  21.261  1.00  0.00    -0.129 SA
ATOM     10  C   UNL A   1      31.081  28.486  23.487  1.00  0.00     0.253 C 
ATOM     11  C   UNL A   1      30.803  26.570  22.683  1.00  0.00     0.181 C 
ATOM     12  O   UNL A   1      31.429  29.574  23.872  1.00  0.00    -0.272 OA
ATOM     13  C   UNL A   1      29.947  27.876  22.566  1.00  0.00     0.206 C 
BRANCH   6  14
ATOM     14  C   UNL A   1      34.416  24.840  24.340  1.00  0.00     0.111 C 
BRANCH  14  15
ATOM     15  S   UNL A   1      33.990  23.077  24.460  1.00  0.00    -0.089 SA
BRANCH  15  16
ATOM     16  C   UNL A   1      32.655  23.114  25.584  1.00  0.00     0.174 A 
ATOM     17  C   UNL A   1      29.225  22.721  27.251  1.00  0.00     0.081 C 
ATOM     18  C   UNL A   1      30.614  22.954  26.781  1.00  0.00     0.115 A 
ATOM     19  N   UNL A   1      31.591  23.432  27.523  1.00  0.00    -0.143 NA
ATOM     20  S   UNL A   1      31.087  22.554  25.177  1.00  0.00    -0.091 S 
ATOM     21  N   UNL A   1      32.778  23.525  26.825  1.00  0.00    -0.132 NA
ENDBRANCH  15  16
ENDBRANCH  14  15
ENDBRANCH   6  14
BRANCH  13  22
ATOM     22  N   UNL A   1      28.599  27.868  23.211  1.00  0.00    -0.338 N 
ATOM     23  C   UNL A   1      27.592  28.798  23.126  1.00  0.00     0.254 C 
ATOM     24  H   UNL A   1      28.406  27.086  23.777  1.00  0.00     0.164 HD
ATOM     25  O   UNL A   1      26.524  28.652  23.703  1.00  0.00    -0.269 OA
BRANCH  23  26
ATOM     26  C   UNL A   1      27.809  30.011  22.339  1.00  0.00     0.075 A 
ATOM     27  C   UNL A   1      27.685  29.968  20.948  1.00  0.00     0.020 A 
ATOM     28  C   UNL A   1      28.181  31.190  22.982  1.00  0.00     0.138 A 
ATOM     29  C   UNL A   1      27.881  31.140  20.215  1.00  0.00     0.040 A 
ATOM     30  C   UNL A   1      28.353  32.362  22.257  1.00  0.00     0.079 A 
ATOM     31  F   UNL A   1      28.318  31.233  24.316  1.00  0.00    -0.206 F 
ATOM     32  C   UNL A   1      28.198  32.325  20.878  1.00  0.00     0.126 A 
ATOM     33  F   UNL A   1      28.355  33.453  20.173  1.00  0.00    -0.207 F 
ENDBRANCH  23  26
ENDBRANCH  13  22
ENDBRANCH   3   5
ENDBRANCH   2   3
ENDBRANCH   1   2
BRANCH   1  34
ATOM     34  C   UNL A   1      31.472  29.627  27.243  1.00  0.00     0.275 C 
BRANCH  34  35
ATOM     35  O   UNL A   1      32.578  30.220  26.552  1.00  0.00    -0.458 OA
BRANCH  35  36
ATOM     36  C   UNL A   1      33.137  31.309  27.130  1.00  0.00     0.338 C 
ATOM     37  O   UNL A   1      32.602  32.394  27.290  1.00  0.00    -0.246 OA
BRANCH  36  38
ATOM     38  C   UNL A   1      34.519  30.996  27.569  1.00  0.00     0.060 A 
ATOM     39  C   UNL A   1      34.953  29.678  27.689  1.00  0.00     0.016 A 
ATOM     40  C   UNL A   1      35.362  32.029  27.981  1.00  0.00     0.016 A 
ATOM     41  C   UNL A   1      36.143  29.386  28.354  1.00  0.00     0.010 A 
ATOM     42  C   UNL A   1      36.609  31.734  28.547  1.00  0.00     0.010 A 
ATOM     43  C   UNL A   1      36.988  30.406  28.810  1.00  0.00    -0.014 A 
BRANCH  43  44
ATOM     44  C   UNL A   1      38.197  30.092  29.635  1.00  0.00     0.031 A 
ATOM     45  C   UNL A   1      39.318  29.263  29.051  1.00  0.00     0.074 A 
ATOM     46  C   UNL A   1      38.332  30.560  30.894  1.00  0.00     0.049 A 
ATOM     47  N   UNL A   1      40.323  28.684  29.659  1.00  0.00    -0.248 NA
ATOM     48  C   UNL A   1      39.296  29.032  27.596  1.00  0.00     0.031 C 
ATOM     49  C   UNL A   1      37.369  31.408  31.597  1.00  0.00     0.029 A 
ATOM     50  N   UNL A   1      39.350  30.398  31.806  1.00  0.00    -0.354 N 
ATOM     51  C   UNL A   1      40.970  27.924  28.691  1.00  0.00     0.074 A 
ATOM     52  C   UNL A   1      40.269  28.144  27.445  1.00  0.00     0.031 C 
ATOM     53  C   UNL A   1      37.866  31.746  32.794  1.00  0.00     0.029 A 
ATOM     54  C   UNL A   1      39.132  31.052  32.997  1.00  0.00     0.049 A 
ATOM     55  H   UNL A   1      40.157  29.864  31.624  1.00  0.00     0.167 HD
ATOM     56  C   UNL A   1      42.052  27.121  28.825  1.00  0.00     0.034 A 
ATOM     57  C   UNL A   1      39.842  31.063  34.143  1.00  0.00     0.034 A 
ATOM     58  C   UNL A   1      42.840  27.017  30.024  1.00  0.00     0.049 A 
ATOM     59  C   UNL A   1      41.083  30.223  34.247  1.00  0.00     0.074 A 
ATOM     60  C   UNL A   1      43.976  26.256  30.245  1.00  0.00     0.029 A 
ATOM     61  N   UNL A   1      42.602  27.726  31.190  1.00  0.00    -0.354 N 
ATOM     62  N   UNL A   1      41.658  29.482  33.333  1.00  0.00    -0.248 NA
ATOM     63  C   UNL A   1      41.768  30.211  35.549  1.00  0.00     0.031 C 
ATOM     64  C   UNL A   1      44.434  26.519  31.541  1.00  0.00     0.029 A 
ATOM     65  C   UNL A   1      43.580  27.439  32.127  1.00  0.00     0.049 A 
ATOM     66  H   UNL A   1      41.849  28.344  31.331  1.00  0.00     0.167 HD
ATOM     67  C   UNL A   1      42.764  28.908  33.947  1.00  0.00     0.074 A 
ATOM     68  C   UNL A   1      42.808  29.427  35.299  1.00  0.00     0.031 C 
ATOM     69  C   UNL A   1      43.640  28.001  33.451  1.00  0.00     0.034 A 
BRANCH  56  70
ATOM     70  C   UNL A   1      42.478  26.310  27.630  1.00  0.00     0.023 A 
ATOM     71  C   UNL A   1      43.355  26.865  26.678  1.00  0.00     0.012 A 
ATOM     72  C   UNL A   1      42.063  24.970  27.489  1.00  0.00     0.148 A 
ATOM     73  C   UNL A   1      43.790  26.109  25.590  1.00  0.00     0.002 A 
ATOM     74  C   UNL A   1      42.531  24.210  26.422  1.00  0.00     0.091 A 
ATOM     75  F   UNL A   1      41.208  24.464  28.391  1.00  0.00    -0.205 F 
ATOM     76  C   UNL A   1      43.388  24.780  25.468  1.00  0.00     0.022 A 
BRANCH  74  77
ATOM     77  S   UNL A   1      42.126  22.469  26.237  1.00  0.00     0.127 S 
ATOM     78  O   UNL A   1      40.669  22.512  26.125  1.00  0.00    -0.237 OA
ATOM     79  O   UNL A   1      42.821  22.114  24.998  1.00  0.00    -0.237 OA
ATOM     80  O   UNL A   1      42.651  21.814  27.427  1.00  0.00    -0.744 OA
ENDBRANCH  74  77
ENDBRANCH  56  70
BRANCH  57  81
ATOM     81  C   UNL A   1      39.388  31.910  35.285  1.00  0.00     0.023 A 
ATOM     82  C   UNL A   1      38.553  31.348  36.270  1.00  0.00     0.012 A 
ATOM     83  C   UNL A   1      39.825  33.240  35.438  1.00  0.00     0.148 A 
ATOM     84  C   UNL A   1      38.159  32.097  37.380  1.00  0.00     0.002 A 
ATOM     85  C   UNL A   1      39.484  33.957  36.579  1.00  0.00     0.091 A 
ATOM     86  F   UNL A   1      40.587  33.778  34.474  1.00  0.00    -0.205 F 
ATOM     87  C   UNL A   1      38.638  33.393  37.545  1.00  0.00     0.022 A 
BRANCH  85  88
ATOM     88  S   UNL A   1      40.216  35.562  36.925  1.00  0.00     0.127 S 
ATOM     89  O   UNL A   1      39.800  35.795  38.304  1.00  0.00    -0.237 OA
ATOM     90  O   UNL A   1      41.646  35.303  36.750  1.00  0.00    -0.237 OA
ATOM     91  O   UNL A   1      39.651  36.454  35.921  1.00  0.00    -0.744 OA
ENDBRANCH  85  88
ENDBRANCH  57  81
BRANCH  69  92
ATOM     92  C   UNL A   1      44.713  27.500  34.377  1.00  0.00     0.023 A 
ATOM     93  C   UNL A   1      45.932  28.204  34.455  1.00  0.00     0.012 A 
ATOM     94  C   UNL A   1      44.505  26.382  35.206  1.00  0.00     0.148 A 
ATOM     95  C   UNL A   1      46.936  27.789  35.327  1.00  0.00     0.002 A 
ATOM     96  C   UNL A   1      45.499  25.994  36.098  1.00  0.00     0.091 A 
ATOM     97  F   UNL A   1      43.349  25.709  35.101  1.00  0.00    -0.205 F 
ATOM     98  C   UNL A   1      46.717  26.691  36.155  1.00  0.00     0.022 A 
BRANCH  96  99
ATOM     99  S   UNL A   1      45.258  24.634  37.247  1.00  0.00     0.127 S 
ATOM    100  O   UNL A   1      45.126  23.494  36.341  1.00  0.00    -0.237 OA
ATOM    101  O   UNL A   1      46.496  24.650  38.028  1.00  0.00    -0.237 OA
ATOM    102  O   UNL A   1      44.067  24.977  38.012  1.00  0.00    -0.744 OA
ENDBRANCH  96  99
ENDBRANCH  69  92
ENDBRANCH  43  44
ENDBRANCH  36  38
ENDBRANCH  35  36
ENDBRANCH  34  35
ENDBRANCH   1  34
TORSDOF 19
ENDMDL
