MODEL 1
REMARK VINA RESULT:     -10.5      0.000      0.000
REMARK SMILES C#CCN(CC(=O)OCCOC(=O)c1ccc(-c2c3nc(c(-c4cccc(S(=O)(=O)[O-])c4F)c4ccc([nH]4)c(-c4cccc(S(=O)(=O)[O-])c4F)c4nc(c(-c5cccc(S(=O)(=O)[O-])c5F)c5ccc2[nH]5)C=C4)C=C3)cc1)C(=O)NCc1ccnc(C)n1
REMARK SMILES IDX 9 1 8 2 6 3 7 4 5 5 4 6 3 7 2 8 1 9 77 10 78 11 79 12 80 14
REMARK SMILES IDX 81 15 82 16 87 17 83 18 85 19 84 20 86 21 10 22 11 23 12 24
REMARK SMILES IDX 13 25 14 26 15 27 76 28 16 29 75 30 17 31 18 32 19 33 69 34
REMARK SMILES IDX 20 35 74 36 68 37 70 38 21 39 73 40 67 41 66 42 22 44 54 45
REMARK SMILES IDX 34 46 53 47 35 48 38 49 52 50 71 51 36 52 37 53 51 55 72 56
REMARK SMILES IDX 39 57 23 58 24 59 32 60 25 61 27 62 33 63 26 64 28 65 29 66
REMARK SMILES IDX 30 67 31 68 55 69 56 70 64 71 57 72 59 73 65 74 58 75 60 76
REMARK SMILES IDX 61 77 62 78 63 79 40 80 41 81 49 82 42 83 44 84 50 85 43 86
REMARK SMILES IDX 45 87 46 88 47 89 48 90
REMARK H PARENT 79 13 70 43 38 54
REMARK Flexibility Score: inf
ROOT
ATOM      1  C   UNL A   1      30.905  31.210  25.846  1.00  0.00     0.274 C 
ENDROOT
BRANCH   1   2
ATOM      2  O   UNL A   1      32.004  30.313  25.645  1.00  0.00    -0.461 OA
BRANCH   2   3
ATOM      3  C   UNL A   1      31.755  29.063  26.133  1.00  0.00     0.325 C 
ATOM      4  O   UNL A   1      31.611  28.815  27.324  1.00  0.00    -0.250 OA
BRANCH   3   5
ATOM      5  C   UNL A   1      31.512  28.041  25.008  1.00  0.00     0.245 C 
BRANCH   5   6
ATOM      6  N   UNL A   1      32.750  27.476  24.499  1.00  0.00    -0.303 N 
BRANCH   6   7
ATOM      7  C   UNL A   1      33.523  26.879  25.576  1.00  0.00     0.211 C 
BRANCH   7   8
ATOM      8  C   UNL A   1      32.868  25.583  26.026  1.00  0.00    -0.085 C 
ATOM      9  C   UNL A   1      32.306  24.472  26.413  1.00  0.00     0.006 C 
ENDBRANCH   7   8
ENDBRANCH   6   7
BRANCH   6  10
ATOM     10  C   UNL A   1      33.367  27.627  23.292  1.00  0.00     0.319 C 
ATOM     11  O   UNL A   1      34.233  28.501  23.136  1.00  0.00    -0.249 OA
ATOM     12  N   UNL A   1      33.121  26.925  22.176  1.00  0.00    -0.332 N 
ATOM     13  H   UNL A   1      33.375  27.450  21.383  1.00  0.00     0.165 HD
BRANCH  12  14
ATOM     14  C   UNL A   1      32.593  25.623  21.768  1.00  0.00     0.174 C 
BRANCH  14  15
ATOM     15  C   UNL A   1      33.112  24.435  22.594  1.00  0.00     0.063 A 
ATOM     16  C   UNL A   1      32.261  23.382  22.887  1.00  0.00     0.046 A 
ATOM     17  N   UNL A   1      34.436  24.352  22.879  1.00  0.00    -0.236 NA
ATOM     18  C   UNL A   1      32.833  22.252  23.435  1.00  0.00     0.115 A 
ATOM     19  C   UNL A   1      34.909  23.187  23.378  1.00  0.00     0.125 A 
ATOM     20  N   UNL A   1      34.149  22.123  23.670  1.00  0.00    -0.242 NA
ATOM     21  C   UNL A   1      36.396  23.005  23.464  1.00  0.00     0.089 C 
ENDBRANCH  14  15
ENDBRANCH  12  14
ENDBRANCH   6  10
ENDBRANCH   5   6
ENDBRANCH   3   5
ENDBRANCH   2   3
ENDBRANCH   1   2
BRANCH   1  22
ATOM     22  C   UNL A   1      31.408  32.441  26.587  1.00  0.00     0.275 C 
BRANCH  22  23
ATOM     23  O   UNL A   1      32.541  32.148  27.435  1.00  0.00    -0.458 OA
BRANCH  23  24
ATOM     24  C   UNL A   1      33.243  33.167  27.975  1.00  0.00     0.338 C 
ATOM     25  O   UNL A   1      32.831  34.286  28.212  1.00  0.00    -0.246 OA
BRANCH  24  26
ATOM     26  C   UNL A   1      34.598  32.633  28.277  1.00  0.00     0.060 A 
ATOM     27  C   UNL A   1      35.730  33.461  28.307  1.00  0.00     0.016 A 
ATOM     28  C   UNL A   1      34.745  31.264  28.494  1.00  0.00     0.016 A 
ATOM     29  C   UNL A   1      37.003  32.914  28.544  1.00  0.00     0.010 A 
ATOM     30  C   UNL A   1      36.011  30.720  28.754  1.00  0.00     0.010 A 
ATOM     31  C   UNL A   1      37.149  31.542  28.815  1.00  0.00    -0.014 A 
BRANCH  31  32
ATOM     32  C   UNL A   1      38.361  31.018  29.512  1.00  0.00     0.031 A 
ATOM     33  C   UNL A   1      39.221  29.903  28.981  1.00  0.00     0.074 A 
ATOM     34  C   UNL A   1      38.555  31.464  30.771  1.00  0.00     0.049 A 
ATOM     35  N   UNL A   1      40.200  29.267  29.577  1.00  0.00    -0.248 NA
ATOM     36  C   UNL A   1      38.948  29.431  27.617  1.00  0.00     0.031 C 
ATOM     37  C   UNL A   1      37.730  32.484  31.429  1.00  0.00     0.029 A 
ATOM     38  N   UNL A   1      39.443  31.079  31.742  1.00  0.00    -0.354 N 
ATOM     39  C   UNL A   1      40.646  28.301  28.683  1.00  0.00     0.074 A 
ATOM     40  C   UNL A   1      39.826  28.438  27.494  1.00  0.00     0.031 C 
ATOM     41  C   UNL A   1      38.112  32.602  32.706  1.00  0.00     0.029 A 
ATOM     42  C   UNL A   1      39.193  31.661  32.964  1.00  0.00     0.049 A 
ATOM     43  H   UNL A   1      40.183  30.451  31.582  1.00  0.00     0.167 HD
ATOM     44  C   UNL A   1      41.650  27.398  28.838  1.00  0.00     0.034 A 
ATOM     45  C   UNL A   1      39.745  31.453  34.175  1.00  0.00     0.034 A 
ATOM     46  C   UNL A   1      42.474  27.288  30.020  1.00  0.00     0.049 A 
ATOM     47  C   UNL A   1      40.883  30.488  34.302  1.00  0.00     0.074 A 
ATOM     48  C   UNL A   1      43.576  26.474  30.229  1.00  0.00     0.029 A 
ATOM     49  N   UNL A   1      42.283  27.998  31.196  1.00  0.00    -0.354 N 
ATOM     50  N   UNL A   1      41.401  29.708  33.387  1.00  0.00    -0.248 NA
ATOM     51  C   UNL A   1      41.548  30.414  35.609  1.00  0.00     0.031 C 
ATOM     52  C   UNL A   1      44.037  26.677  31.534  1.00  0.00     0.029 A 
ATOM     53  C   UNL A   1      43.240  27.637  32.133  1.00  0.00     0.049 A 
ATOM     54  H   UNL A   1      41.572  28.662  31.345  1.00  0.00     0.167 HD
ATOM     55  C   UNL A   1      42.483  29.083  33.993  1.00  0.00     0.074 A 
ATOM     56  C   UNL A   1      42.548  29.582  35.352  1.00  0.00     0.031 C 
ATOM     57  C   UNL A   1      43.340  28.175  33.466  1.00  0.00     0.034 A 
BRANCH  44  58
ATOM     58  C   UNL A   1      41.978  26.474  27.685  1.00  0.00     0.023 A 
ATOM     59  C   UNL A   1      42.848  26.920  26.670  1.00  0.00     0.012 A 
ATOM     60  C   UNL A   1      41.542  25.131  27.673  1.00  0.00     0.148 A 
ATOM     61  C   UNL A   1      43.257  26.058  25.651  1.00  0.00     0.002 A 
ATOM     62  C   UNL A   1      41.985  24.268  26.675  1.00  0.00     0.091 A 
ATOM     63  F   UNL A   1      40.709  24.719  28.640  1.00  0.00    -0.205 F 
ATOM     64  C   UNL A   1      42.836  24.732  25.660  1.00  0.00     0.022 A 
BRANCH  62  65
ATOM     65  S   UNL A   1      41.564  22.519  26.644  1.00  0.00     0.127 S 
ATOM     66  O   UNL A   1      42.218  22.038  27.860  1.00  0.00    -0.237 OA
ATOM     67  O   UNL A   1      40.103  22.547  26.708  1.00  0.00    -0.237 OA
ATOM     68  O   UNL A   1      42.105  22.001  25.394  1.00  0.00    -0.744 OA
ENDBRANCH  62  65
ENDBRANCH  44  58
BRANCH  45  69
ATOM     69  C   UNL A   1      39.268  32.261  35.329  1.00  0.00     0.023 A 
ATOM     70  C   UNL A   1      38.380  31.676  36.250  1.00  0.00     0.012 A 
ATOM     71  C   UNL A   1      39.768  33.555  35.573  1.00  0.00     0.148 A 
ATOM     72  C   UNL A   1      37.984  32.373  37.390  1.00  0.00     0.002 A 
ATOM     73  C   UNL A   1      39.409  34.222  36.737  1.00  0.00     0.091 A 
ATOM     74  F   UNL A   1      40.611  34.091  34.679  1.00  0.00    -0.205 F 
ATOM     75  C   UNL A   1      38.507  33.639  37.641  1.00  0.00     0.022 A 
BRANCH  73  76
ATOM     76  S   UNL A   1      40.147  35.792  37.209  1.00  0.00     0.127 S 
ATOM     77  O   UNL A   1      41.570  35.463  37.211  1.00  0.00    -0.237 OA
ATOM     78  O   UNL A   1      39.719  36.670  36.119  1.00  0.00    -0.237 OA
ATOM     79  O   UNL A   1      39.568  36.121  38.504  1.00  0.00    -0.744 OA
ENDBRANCH  73  76
ENDBRANCH  45  69
BRANCH  57  80
ATOM     80  C   UNL A   1      44.464  27.689  34.341  1.00  0.00     0.023 A 
ATOM     81  C   UNL A   1      45.686  28.389  34.371  1.00  0.00     0.012 A 
ATOM     82  C   UNL A   1      44.285  26.573  35.182  1.00  0.00     0.148 A 
ATOM     83  C   UNL A   1      46.722  27.970  35.205  1.00  0.00     0.002 A 
ATOM     84  C   UNL A   1      45.306  26.187  36.043  1.00  0.00     0.091 A 
ATOM     85  F   UNL A   1      43.123  25.906  35.121  1.00  0.00    -0.205 F 
ATOM     86  C   UNL A   1      46.529  26.878  36.049  1.00  0.00     0.022 A 
BRANCH  84  87
ATOM     87  S   UNL A   1      45.116  24.846  37.223  1.00  0.00     0.127 S 
ATOM     88  O   UNL A   1      46.377  24.916  37.960  1.00  0.00    -0.237 OA
ATOM     89  O   UNL A   1      43.940  25.265  37.985  1.00  0.00    -0.237 OA
ATOM     90  O   UNL A   1      44.922  23.638  36.430  1.00  0.00    -0.744 OA
ENDBRANCH  84  87
ENDBRANCH  57  80
ENDBRANCH  31  32
ENDBRANCH  24  26
ENDBRANCH  23  24
ENDBRANCH  22  23
ENDBRANCH   1  22
TORSDOF 20
ENDMDL
MODEL 2
REMARK VINA RESULT:     -10.5      2.135      8.369
REMARK SMILES C#CCN(CC(=O)OCCOC(=O)c1ccc(-c2c3nc(c(-c4cccc(S(=O)(=O)[O-])c4F)c4ccc([nH]4)c(-c4cccc(S(=O)(=O)[O-])c4F)c4nc(c(-c5cccc(S(=O)(=O)[O-])c5F)c5ccc2[nH]5)C=C4)C=C3)cc1)C(=O)NCc1ccnc(C)n1
REMARK SMILES IDX 9 1 8 2 6 3 7 4 5 5 4 6 3 7 2 8 1 9 77 10 78 11 79 12 80 14
REMARK SMILES IDX 81 15 82 16 87 17 83 18 85 19 84 20 86 21 10 22 11 23 12 24
REMARK SMILES IDX 13 25 14 26 15 27 76 28 16 29 75 30 17 31 18 32 19 33 69 34
REMARK SMILES IDX 20 35 74 36 68 37 70 38 21 39 73 40 67 41 66 42 22 44 54 45
REMARK SMILES IDX 34 46 53 47 35 48 38 49 52 50 71 51 36 52 37 53 51 55 72 56
REMARK SMILES IDX 39 57 23 58 24 59 32 60 25 61 27 62 33 63 26 64 28 65 29 66
REMARK SMILES IDX 30 67 31 68 55 69 56 70 64 71 57 72 59 73 65 74 58 75 60 76
REMARK SMILES IDX 61 77 62 78 63 79 40 80 41 81 49 82 42 83 44 84 50 85 43 86
REMARK SMILES IDX 45 87 46 88 47 89 48 90
REMARK H PARENT 79 13 70 43 38 54
REMARK Flexibility Score: inf
ROOT
ATOM      1  C   UNL A   1      31.733  29.130  27.092  1.00  0.00     0.274 C 
ENDROOT
BRANCH   1   2
ATOM      2  O   UNL A   1      31.259  28.344  25.992  1.00  0.00    -0.461 OA
BRANCH   2   3
ATOM      3  C   UNL A   1      31.767  27.076  25.998  1.00  0.00     0.325 C 
ATOM      4  O   UNL A   1      31.149  26.099  26.401  1.00  0.00    -0.250 OA
BRANCH   3   5
ATOM      5  C   UNL A   1      33.131  26.999  25.289  1.00  0.00     0.245 C 
BRANCH   5   6
ATOM      6  N   UNL A   1      33.026  27.253  23.863  1.00  0.00    -0.303 N 
BRANCH   6   7
ATOM      7  C   UNL A   1      33.314  26.047  23.103  1.00  0.00     0.211 C 
BRANCH   7   8
ATOM      8  C   UNL A   1      32.081  25.160  23.053  1.00  0.00    -0.085 C 
ATOM      9  C   UNL A   1      31.023  24.399  23.011  1.00  0.00     0.006 C 
ENDBRANCH   7   8
ENDBRANCH   6   7
BRANCH   6  10
ATOM     10  C   UNL A   1      32.947  28.425  23.171  1.00  0.00     0.319 C 
ATOM     11  O   UNL A   1      33.975  29.055  22.885  1.00  0.00    -0.249 OA
ATOM     12  N   UNL A   1      31.825  29.035  22.760  1.00  0.00    -0.332 N 
ATOM     13  H   UNL A   1      31.984  30.001  22.654  1.00  0.00     0.165 HD
BRANCH  12  14
ATOM     14  C   UNL A   1      30.439  28.715  22.419  1.00  0.00     0.174 C 
BRANCH  14  15
ATOM     15  C   UNL A   1      29.471  29.906  22.488  1.00  0.00     0.063 A 
ATOM     16  C   UNL A   1      29.313  30.592  23.682  1.00  0.00     0.046 A 
ATOM     17  N   UNL A   1      28.913  30.376  21.344  1.00  0.00    -0.236 NA
ATOM     18  C   UNL A   1      28.608  31.777  23.631  1.00  0.00     0.115 A 
ATOM     19  C   UNL A   1      28.274  31.567  21.387  1.00  0.00     0.125 A 
ATOM     20  N   UNL A   1      28.098  32.293  22.500  1.00  0.00    -0.242 NA
ATOM     21  C   UNL A   1      27.872  32.204  20.089  1.00  0.00     0.089 C 
ENDBRANCH  14  15
ENDBRANCH  12  14
ENDBRANCH   6  10
ENDBRANCH   5   6
ENDBRANCH   3   5
ENDBRANCH   2   3
ENDBRANCH   1   2
BRANCH   1  22
ATOM     22  C   UNL A   1      31.861  30.578  26.639  1.00  0.00     0.275 C 
BRANCH  22  23
ATOM     23  O   UNL A   1      33.238  31.010  26.561  1.00  0.00    -0.458 OA
BRANCH  23  24
ATOM     24  C   UNL A   1      33.700  31.905  27.459  1.00  0.00     0.338 C 
ATOM     25  O   UNL A   1      33.146  32.926  27.818  1.00  0.00    -0.246 OA
BRANCH  24  26
ATOM     26  C   UNL A   1      34.991  31.366  27.967  1.00  0.00     0.060 A 
ATOM     27  C   UNL A   1      36.078  32.201  28.260  1.00  0.00     0.016 A 
ATOM     28  C   UNL A   1      35.128  29.986  28.112  1.00  0.00     0.016 A 
ATOM     29  C   UNL A   1      37.300  31.653  28.687  1.00  0.00     0.010 A 
ATOM     30  C   UNL A   1      36.338  29.439  28.560  1.00  0.00     0.010 A 
ATOM     31  C   UNL A   1      37.427  30.266  28.885  1.00  0.00    -0.014 A 
BRANCH  31  32
ATOM     32  C   UNL A   1      38.504  29.707  29.754  1.00  0.00     0.031 A 
ATOM     33  C   UNL A   1      38.898  30.287  31.086  1.00  0.00     0.074 A 
ATOM     34  C   UNL A   1      39.270  28.745  29.197  1.00  0.00     0.049 A 
ATOM     35  N   UNL A   1      39.919  29.977  31.846  1.00  0.00    -0.248 NA
ATOM     36  C   UNL A   1      38.051  31.355  31.634  1.00  0.00     0.031 C 
ATOM     37  C   UNL A   1      39.039  28.162  27.870  1.00  0.00     0.029 A 
ATOM     38  N   UNL A   1      40.423  28.141  29.627  1.00  0.00    -0.354 N 
ATOM     39  C   UNL A   1      39.864  30.823  32.947  1.00  0.00     0.074 A 
ATOM     40  C   UNL A   1      38.697  31.664  32.756  1.00  0.00     0.031 C 
ATOM     41  C   UNL A   1      40.045  27.332  27.573  1.00  0.00     0.029 A 
ATOM     42  C   UNL A   1      40.999  27.333  28.674  1.00  0.00     0.049 A 
ATOM     43  H   UNL A   1      40.801  28.273  30.527  1.00  0.00     0.167 HD
ATOM     44  C   UNL A   1      40.699  30.882  34.018  1.00  0.00     0.034 A 
ATOM     45  C   UNL A   1      42.175  26.678  28.660  1.00  0.00     0.034 A 
ATOM     46  C   UNL A   1      41.845  30.022  34.207  1.00  0.00     0.049 A 
ATOM     47  C   UNL A   1      43.050  26.722  29.875  1.00  0.00     0.074 A 
ATOM     48  C   UNL A   1      42.688  29.940  35.304  1.00  0.00     0.029 A 
ATOM     49  N   UNL A   1      42.320  29.107  33.279  1.00  0.00    -0.354 N 
ATOM     50  N   UNL A   1      42.882  27.403  30.980  1.00  0.00    -0.248 NA
ATOM     51  C   UNL A   1      44.244  25.869  29.864  1.00  0.00     0.031 C 
ATOM     52  C   UNL A   1      43.682  28.993  35.030  1.00  0.00     0.029 A 
ATOM     53  C   UNL A   1      43.445  28.464  33.774  1.00  0.00     0.049 A 
ATOM     54  H   UNL A   1      41.918  28.939  32.396  1.00  0.00     0.167 HD
ATOM     55  C   UNL A   1      43.923  27.025  31.818  1.00  0.00     0.074 A 
ATOM     56  C   UNL A   1      44.713  26.051  31.092  1.00  0.00     0.031 C 
ATOM     57  C   UNL A   1      44.197  27.454  33.074  1.00  0.00     0.034 A 
BRANCH  44  58
ATOM     58  C   UNL A   1      40.393  31.869  35.123  1.00  0.00     0.023 A 
ATOM     59  C   UNL A   1      41.084  33.096  35.162  1.00  0.00     0.012 A 
ATOM     60  C   UNL A   1      39.337  31.648  36.034  1.00  0.00     0.148 A 
ATOM     61  C   UNL A   1      40.752  34.074  36.101  1.00  0.00     0.002 A 
ATOM     62  C   UNL A   1      38.987  32.642  36.943  1.00  0.00     0.091 A 
ATOM     63  F   UNL A   1      38.691  30.474  35.993  1.00  0.00    -0.205 F 
ATOM     64  C   UNL A   1      39.698  33.852  36.982  1.00  0.00     0.022 A 
BRANCH  62  65
ATOM     65  S   UNL A   1      37.590  32.486  38.065  1.00  0.00     0.127 S 
ATOM     66  O   UNL A   1      38.034  33.291  39.202  1.00  0.00    -0.237 OA
ATOM     67  O   UNL A   1      36.498  33.076  37.291  1.00  0.00    -0.237 OA
ATOM     68  O   UNL A   1      37.445  31.060  38.325  1.00  0.00    -0.744 OA
ENDBRANCH  62  65
ENDBRANCH  44  58
BRANCH  45  69
ATOM     69  C   UNL A   1      42.524  25.855  27.472  1.00  0.00     0.023 A 
ATOM     70  C   UNL A   1      43.366  26.402  26.486  1.00  0.00     0.012 A 
ATOM     71  C   UNL A   1      42.116  24.511  27.367  1.00  0.00     0.148 A 
ATOM     72  C   UNL A   1      43.784  25.627  25.405  1.00  0.00     0.002 A 
ATOM     73  C   UNL A   1      42.579  23.731  26.315  1.00  0.00     0.091 A 
ATOM     74  F   UNL A   1      41.312  24.014  28.318  1.00  0.00    -0.205 F 
ATOM     75  C   UNL A   1      43.403  24.291  25.325  1.00  0.00     0.022 A 
BRANCH  73  76
ATOM     76  S   UNL A   1      42.256  21.966  26.214  1.00  0.00     0.127 S 
ATOM     77  O   UNL A   1      43.173  21.555  25.155  1.00  0.00    -0.237 OA
ATOM     78  O   UNL A   1      42.622  21.512  27.557  1.00  0.00    -0.237 OA
ATOM     79  O   UNL A   1      40.837  21.847  25.910  1.00  0.00    -0.744 OA
ENDBRANCH  73  76
ENDBRANCH  45  69
BRANCH  57  80
ATOM     80  C   UNL A   1      45.377  26.838  33.777  1.00  0.00     0.023 A 
ATOM     81  C   UNL A   1      46.629  27.484  33.746  1.00  0.00     0.012 A 
ATOM     82  C   UNL A   1      45.228  25.651  34.521  1.00  0.00     0.148 A 
ATOM     83  C   UNL A   1      47.722  26.942  34.424  1.00  0.00     0.002 A 
ATOM     84  C   UNL A   1      46.310  25.141  35.229  1.00  0.00     0.091 A 
ATOM     85  F   UNL A   1      44.035  25.040  34.518  1.00  0.00    -0.205 F 
ATOM     86  C   UNL A   1      47.560  25.780  35.174  1.00  0.00     0.022 A 
BRANCH  84  87
ATOM     87  S   UNL A   1      46.174  23.697  36.289  1.00  0.00     0.127 S 
ATOM     88  O   UNL A   1      44.752  23.709  36.630  1.00  0.00    -0.237 OA
ATOM     89  O   UNL A   1      46.576  22.613  35.391  1.00  0.00    -0.237 OA
ATOM     90  O   UNL A   1      47.086  23.927  37.402  1.00  0.00    -0.744 OA
ENDBRANCH  84  87
ENDBRANCH  57  80
ENDBRANCH  31  32
ENDBRANCH  24  26
ENDBRANCH  23  24
ENDBRANCH  22  23
ENDBRANCH   1  22
TORSDOF 20
ENDMDL
MODEL 3
REMARK VINA RESULT:     -10.3      1.519      8.156
REMARK SMILES C#CCN(CC(=O)OCCOC(=O)c1ccc(-c2c3nc(c(-c4cccc(S(=O)(=O)[O-])c4F)c4ccc([nH]4)c(-c4cccc(S(=O)(=O)[O-])c4F)c4nc(c(-c5cccc(S(=O)(=O)[O-])c5F)c5ccc2[nH]5)C=C4)C=C3)cc1)C(=O)NCc1ccnc(C)n1
REMARK SMILES IDX 9 1 8 2 6 3 7 4 5 5 4 6 3 7 2 8 1 9 77 10 78 11 79 12 80 14
REMARK SMILES IDX 81 15 82 16 87 17 83 18 85 19 84 20 86 21 10 22 11 23 12 24
REMARK SMILES IDX 13 25 14 26 15 27 76 28 16 29 75 30 17 31 18 32 19 33 69 34
REMARK SMILES IDX 20 35 74 36 68 37 70 38 21 39 73 40 67 41 66 42 22 44 54 45
REMARK SMILES IDX 34 46 53 47 35 48 38 49 52 50 71 51 36 52 37 53 51 55 72 56
REMARK SMILES IDX 39 57 23 58 24 59 32 60 25 61 27 62 33 63 26 64 28 65 29 66
REMARK SMILES IDX 30 67 31 68 55 69 56 70 64 71 57 72 59 73 65 74 58 75 60 76
REMARK SMILES IDX 61 77 62 78 63 79 40 80 41 81 49 82 42 83 44 84 50 85 43 86
REMARK SMILES IDX 45 87 46 88 47 89 48 90
REMARK H PARENT 79 13 70 43 38 54
REMARK Flexibility Score: inf
ROOT
ATOM      1  C   UNL A   1      31.212  29.039  25.318  1.00  0.00     0.274 C 
ENDROOT
BRANCH   1   2
ATOM      2  O   UNL A   1      32.162  27.967  25.269  1.00  0.00    -0.461 OA
BRANCH   2   3
ATOM      3  C   UNL A   1      31.986  27.066  26.280  1.00  0.00     0.325 C 
ATOM      4  O   UNL A   1      31.136  27.184  27.154  1.00  0.00    -0.250 OA
BRANCH   3   5
ATOM      5  C   UNL A   1      32.860  25.813  26.095  1.00  0.00     0.245 C 
BRANCH   5   6
ATOM      6  N   UNL A   1      32.070  24.600  25.984  1.00  0.00    -0.303 N 
BRANCH   6   7
ATOM      7  C   UNL A   1      31.403  24.536  24.693  1.00  0.00     0.211 C 
BRANCH   7   8
ATOM      8  C   UNL A   1      32.017  23.431  23.848  1.00  0.00    -0.085 C 
ATOM      9  C   UNL A   1      32.543  22.483  23.124  1.00  0.00     0.006 C 
ENDBRANCH   7   8
ENDBRANCH   6   7
BRANCH   6  10
ATOM     10  C   UNL A   1      31.688  23.697  26.932  1.00  0.00     0.319 C 
ATOM     11  O   UNL A   1      30.487  23.528  27.188  1.00  0.00    -0.249 OA
ATOM     12  N   UNL A   1      32.499  22.942  27.689  1.00  0.00    -0.332 N 
ATOM     13  H   UNL A   1      32.044  22.692  28.526  1.00  0.00     0.165 HD
BRANCH  12  14
ATOM     14  C   UNL A   1      33.846  22.375  27.660  1.00  0.00     0.174 C 
BRANCH  14  15
ATOM     15  C   UNL A   1      34.128  21.455  26.462  1.00  0.00     0.063 A 
ATOM     16  C   UNL A   1      35.397  21.425  25.906  1.00  0.00     0.046 A 
ATOM     17  N   UNL A   1      33.184  20.563  26.073  1.00  0.00    -0.236 NA
ATOM     18  C   UNL A   1      35.650  20.428  24.985  1.00  0.00     0.115 A 
ATOM     19  C   UNL A   1      33.540  19.598  25.194  1.00  0.00     0.125 A 
ATOM     20  N   UNL A   1      34.751  19.497  24.629  1.00  0.00    -0.242 NA
ATOM     21  C   UNL A   1      32.579  18.472  24.950  1.00  0.00     0.089 C 
ENDBRANCH  14  15
ENDBRANCH  12  14
ENDBRANCH   6  10
ENDBRANCH   5   6
ENDBRANCH   3   5
ENDBRANCH   2   3
ENDBRANCH   1   2
BRANCH   1  22
ATOM     22  C   UNL A   1      31.962  30.347  25.530  1.00  0.00     0.275 C 
BRANCH  22  23
ATOM     23  O   UNL A   1      32.247  30.598  26.924  1.00  0.00    -0.458 OA
BRANCH  23  24
ATOM     24  C   UNL A   1      32.928  31.712  27.269  1.00  0.00     0.338 C 
ATOM     25  O   UNL A   1      32.534  32.859  27.185  1.00  0.00    -0.246 OA
BRANCH  24  26
ATOM     26  C   UNL A   1      34.229  31.255  27.828  1.00  0.00     0.060 A 
ATOM     27  C   UNL A   1      35.247  32.158  28.165  1.00  0.00     0.016 A 
ATOM     28  C   UNL A   1      34.450  29.886  27.976  1.00  0.00     0.016 A 
ATOM     29  C   UNL A   1      36.484  31.689  28.640  1.00  0.00     0.010 A 
ATOM     30  C   UNL A   1      35.674  29.417  28.473  1.00  0.00     0.010 A 
ATOM     31  C   UNL A   1      36.692  30.312  28.841  1.00  0.00    -0.014 A 
BRANCH  31  32
ATOM     32  C   UNL A   1      37.769  29.821  29.753  1.00  0.00     0.031 A 
ATOM     33  C   UNL A   1      38.028  30.379  31.126  1.00  0.00     0.074 A 
ATOM     34  C   UNL A   1      38.654  28.960  29.207  1.00  0.00     0.049 A 
ATOM     35  N   UNL A   1      39.031  30.134  31.934  1.00  0.00    -0.248 NA
ATOM     36  C   UNL A   1      37.053  31.338  31.661  1.00  0.00     0.031 C 
ATOM     37  C   UNL A   1      38.556  28.415  27.848  1.00  0.00     0.029 A 
ATOM     38  N   UNL A   1      39.834  28.450  29.684  1.00  0.00    -0.354 N 
ATOM     39  C   UNL A   1      38.832  30.924  33.061  1.00  0.00     0.074 A 
ATOM     40  C   UNL A   1      37.602  31.658  32.831  1.00  0.00     0.031 C 
ATOM     41  C   UNL A   1      39.652  27.696  27.582  1.00  0.00     0.029 A 
ATOM     42  C   UNL A   1      40.538  27.741  28.737  1.00  0.00     0.049 A 
ATOM     43  H   UNL A   1      40.146  28.578  30.609  1.00  0.00     0.167 HD
ATOM     44  C   UNL A   1      39.596  31.016  34.181  1.00  0.00     0.034 A 
ATOM     45  C   UNL A   1      41.771  27.201  28.770  1.00  0.00     0.034 A 
ATOM     46  C   UNL A   1      40.807  30.261  34.406  1.00  0.00     0.049 A 
ATOM     47  C   UNL A   1      42.568  27.275  30.036  1.00  0.00     0.074 A 
ATOM     48  C   UNL A   1      41.592  30.212  35.548  1.00  0.00     0.029 A 
ATOM     49  N   UNL A   1      41.420  29.435  33.475  1.00  0.00    -0.354 N 
ATOM     50  N   UNL A   1      42.272  27.890  31.154  1.00  0.00    -0.248 NA
ATOM     51  C   UNL A   1      43.838  26.540  30.065  1.00  0.00     0.031 C 
ATOM     52  C   UNL A   1      42.686  29.376  35.300  1.00  0.00     0.029 A 
ATOM     53  C   UNL A   1      42.572  28.881  34.013  1.00  0.00     0.049 A 
ATOM     54  H   UNL A   1      41.086  29.268  32.564  1.00  0.00     0.167 HD
ATOM     55  C   UNL A   1      43.296  27.577  32.038  1.00  0.00     0.074 A 
ATOM     56  C   UNL A   1      44.217  26.714  31.325  1.00  0.00     0.031 C 
ATOM     57  C   UNL A   1      43.457  27.976  33.323  1.00  0.00     0.034 A 
BRANCH  44  58
ATOM     58  C   UNL A   1      39.134  31.922  35.301  1.00  0.00     0.023 A 
ATOM     59  C   UNL A   1      38.281  31.407  36.297  1.00  0.00     0.012 A 
ATOM     60  C   UNL A   1      39.646  33.230  35.446  1.00  0.00     0.148 A 
ATOM     61  C   UNL A   1      37.924  32.182  37.402  1.00  0.00     0.002 A 
ATOM     62  C   UNL A   1      39.316  33.983  36.569  1.00  0.00     0.091 A 
ATOM     63  F   UNL A   1      40.452  33.712  34.489  1.00  0.00    -0.205 F 
ATOM     64  C   UNL A   1      38.449  33.463  37.543  1.00  0.00     0.022 A 
BRANCH  62  65
ATOM     65  S   UNL A   1      40.006  35.614  36.885  1.00  0.00     0.127 S 
ATOM     66  O   UNL A   1      39.407  35.941  38.178  1.00  0.00    -0.237 OA
ATOM     67  O   UNL A   1      41.443  35.342  36.931  1.00  0.00    -0.237 OA
ATOM     68  O   UNL A   1      39.584  36.448  35.768  1.00  0.00    -0.744 OA
ENDBRANCH  62  65
ENDBRANCH  44  58
BRANCH  45  69
ATOM     69  C   UNL A   1      42.264  26.466  27.575  1.00  0.00     0.023 A 
ATOM     70  C   UNL A   1      43.120  27.124  26.674  1.00  0.00     0.012 A 
ATOM     71  C   UNL A   1      41.977  25.099  27.387  1.00  0.00     0.148 A 
ATOM     72  C   UNL A   1      43.670  26.438  25.592  1.00  0.00     0.002 A 
ATOM     73  C   UNL A   1      42.572  24.410  26.338  1.00  0.00     0.091 A 
ATOM     74  F   UNL A   1      41.157  24.496  28.259  1.00  0.00    -0.205 F 
ATOM     75  C   UNL A   1      43.408  25.080  25.431  1.00  0.00     0.022 A 
BRANCH  73  76
ATOM     76  S   UNL A   1      42.404  22.631  26.142  1.00  0.00     0.127 S 
ATOM     77  O   UNL A   1      40.953  22.471  26.106  1.00  0.00    -0.237 OA
ATOM     78  O   UNL A   1      43.081  22.400  24.865  1.00  0.00    -0.237 OA
ATOM     79  O   UNL A   1      43.082  22.048  27.291  1.00  0.00    -0.744 OA
ENDBRANCH  73  76
ENDBRANCH  45  69
BRANCH  57  80
ATOM     80  C   UNL A   1      44.650  27.446  34.073  1.00  0.00     0.023 A 
ATOM     81  C   UNL A   1      45.878  28.134  34.018  1.00  0.00     0.012 A 
ATOM     82  C   UNL A   1      44.534  26.298  34.882  1.00  0.00     0.148 A 
ATOM     83  C   UNL A   1      46.980  27.673  34.737  1.00  0.00     0.002 A 
ATOM     84  C   UNL A   1      45.625  25.870  35.629  1.00  0.00     0.091 A 
ATOM     85  F   UNL A   1      43.365  25.644  34.901  1.00  0.00    -0.205 F 
ATOM     86  C   UNL A   1      46.851  26.550  35.551  1.00  0.00     0.022 A 
BRANCH  84  87
ATOM     87  S   UNL A   1      45.527  24.483  36.768  1.00  0.00     0.127 S 
ATOM     88  O   UNL A   1      45.243  23.372  35.862  1.00  0.00    -0.237 OA
ATOM     89  O   UNL A   1      46.868  24.466  37.353  1.00  0.00    -0.237 OA
ATOM     90  O   UNL A   1      44.463  24.811  37.709  1.00  0.00    -0.744 OA
ENDBRANCH  84  87
ENDBRANCH  57  80
ENDBRANCH  31  32
ENDBRANCH  24  26
ENDBRANCH  23  24
ENDBRANCH  22  23
ENDBRANCH   1  22
TORSDOF 20
ENDMDL
