MODEL 1
REMARK VINA RESULT:     -10.7      0.000      0.000
REMARK SMILES CCCCCCNC(=O)Oc1cccc(-c2ccc([C@@H](C)C(=O)OCCOC(=O)c3ccc(-c4c5nc(c(-c6cccc(S(=O)(=O)[O-])c6F)c6ccc([nH]6)c(-c6cccc(S(=O)(=O)[O-])c6F)c6nc(c(-c7cccc(S(=O)(=O)[O-])c7F)c7ccc4[nH]7)C=C6)C=C5)cc3)cc2)c1
REMARK SMILES IDX 20 1 21 2 19 3 16 4 17 5 94 6 18 7 93 8 15 9 11 10 12 11
REMARK SMILES IDX 95 12 13 13 14 14 10 15 8 16 7 17 9 19 6 20 5 21 4 22 3 23
REMARK SMILES IDX 2 24 1 25 22 26 23 27 24 28 25 29 26 30 27 31 28 32 29 33
REMARK SMILES IDX 30 34 31 35 92 36 32 37 91 38 33 39 34 40 35 41 85 42 36 43
REMARK SMILES IDX 90 44 84 45 86 46 37 47 89 48 83 49 82 50 38 52 70 53 50 54
REMARK SMILES IDX 69 55 51 56 54 57 68 58 87 59 52 60 53 61 67 63 88 64 55 65
REMARK SMILES IDX 39 66 40 67 48 68 41 69 43 70 49 71 42 72 44 73 45 74 46 75
REMARK SMILES IDX 47 76 71 77 72 78 80 79 73 80 75 81 81 82 74 83 76 84 77 85
REMARK SMILES IDX 78 86 79 87 56 88 57 89 65 90 58 91 60 92 66 93 59 94 61 95
REMARK SMILES IDX 62 96 63 97 64 98
REMARK H PARENT 7 18 86 51 54 62
REMARK Flexibility Score: inf
ROOT
ATOM      1  C   UNL A   1      40.444  22.471  26.662  1.00  0.00     0.126 C 
ATOM      2  C   UNL A   1      40.639  23.393  27.864  1.00  0.00     0.025 C 
ENDROOT
BRANCH   1   3
ATOM      3  C   UNL A   1      39.033  22.541  26.098  1.00  0.00    -0.034 A 
ATOM      4  C   UNL A   1      36.404  22.630  25.015  1.00  0.00    -0.018 A 
ATOM      5  C   UNL A   1      36.946  23.728  25.698  1.00  0.00     0.009 A 
ATOM      6  C   UNL A   1      37.198  21.480  24.892  1.00  0.00     0.009 A 
ATOM      7  C   UNL A   1      38.240  23.689  26.227  1.00  0.00     0.005 A 
ATOM      8  C   UNL A   1      38.492  21.437  25.423  1.00  0.00     0.005 A 
BRANCH   4   9
ATOM      9  C   UNL A   1      35.056  22.694  24.428  1.00  0.00    -0.015 A 
ATOM     10  C   UNL A   1      33.208  23.938  23.468  1.00  0.00     0.133 A 
ATOM     11  C   UNL A   1      32.456  22.772  23.332  1.00  0.00     0.047 A 
ATOM     12  C   UNL A   1      34.489  23.913  24.023  1.00  0.00     0.056 A 
ATOM     13  C   UNL A   1      33.006  21.558  23.729  1.00  0.00     0.004 A 
ATOM     14  C   UNL A   1      34.293  21.522  24.271  1.00  0.00     0.009 A 
BRANCH  10  15
ATOM     15  O   UNL A   1      32.570  25.143  23.133  1.00  0.00    -0.410 OA
BRANCH  15  16
ATOM     16  C   UNL A   1      32.693  25.591  21.825  1.00  0.00     0.412 C 
ATOM     17  N   UNL A   1      31.900  26.675  21.554  1.00  0.00    -0.321 N 
ATOM     18  H   UNL A   1      31.985  27.066  20.654  1.00  0.00     0.167 HD
ATOM     19  O   UNL A   1      33.396  25.095  20.954  1.00  0.00    -0.224 OA
BRANCH  17  20
ATOM     20  C   UNL A   1      30.952  27.308  22.448  1.00  0.00     0.119 C 
BRANCH  20  21
ATOM     21  C   UNL A   1      31.193  28.809  22.589  1.00  0.00     0.021 C 
BRANCH  21  22
ATOM     22  C   UNL A   1      30.248  29.532  23.557  1.00  0.00     0.002 C 
BRANCH  22  23
ATOM     23  C   UNL A   1      28.856  29.860  23.007  1.00  0.00    -0.000 C 
BRANCH  23  24
ATOM     24  C   UNL A   1      28.813  30.918  21.901  1.00  0.00    -0.003 C 
ATOM     25  C   UNL A   1      28.145  32.215  22.332  1.00  0.00     0.004 C 
ENDBRANCH  23  24
ENDBRANCH  22  23
ENDBRANCH  21  22
ENDBRANCH  20  21
ENDBRANCH  17  20
ENDBRANCH  15  16
ENDBRANCH  10  15
ENDBRANCH   4   9
ENDBRANCH   1   3
BRANCH   1  26
ATOM     26  C   UNL A   1      40.967  21.077  26.991  1.00  0.00     0.313 C 
ATOM     27  O   UNL A   1      40.703  20.519  28.051  1.00  0.00    -0.252 OA
BRANCH  26  28
ATOM     28  O   UNL A   1      41.696  20.514  25.992  1.00  0.00    -0.462 OA
BRANCH  28  29
ATOM     29  C   UNL A   1      41.835  19.081  26.017  1.00  0.00     0.274 C 
BRANCH  29  30
ATOM     30  C   UNL A   1      43.244  18.664  25.596  1.00  0.00     0.275 C 
BRANCH  30  31
ATOM     31  O   UNL A   1      43.633  19.339  24.387  1.00  0.00    -0.458 OA
BRANCH  31  32
ATOM     32  C   UNL A   1      44.924  19.741  24.338  1.00  0.00     0.338 C 
ATOM     33  O   UNL A   1      45.884  19.115  23.931  1.00  0.00    -0.246 OA
BRANCH  32  34
ATOM     34  C   UNL A   1      45.005  21.138  24.779  1.00  0.00     0.060 A 
ATOM     35  C   UNL A   1      44.796  22.147  23.838  1.00  0.00     0.016 A 
ATOM     36  C   UNL A   1      45.362  21.447  26.091  1.00  0.00     0.016 A 
ATOM     37  C   UNL A   1      44.959  23.481  24.199  1.00  0.00     0.010 A 
ATOM     38  C   UNL A   1      45.502  22.788  26.458  1.00  0.00     0.010 A 
ATOM     39  C   UNL A   1      45.318  23.812  25.511  1.00  0.00    -0.014 A 
BRANCH  39  40
ATOM     40  C   UNL A   1      45.513  25.230  25.894  1.00  0.00     0.031 A 
ATOM     41  C   UNL A   1      46.891  25.827  25.887  1.00  0.00     0.074 A 
ATOM     42  C   UNL A   1      44.453  25.968  26.273  1.00  0.00     0.049 A 
ATOM     43  N   UNL A   1      47.277  27.016  26.268  1.00  0.00    -0.248 NA
ATOM     44  C   UNL A   1      47.980  24.971  25.389  1.00  0.00     0.031 C 
ATOM     45  C   UNL A   1      43.068  25.498  26.309  1.00  0.00     0.029 A 
ATOM     46  N   UNL A   1      44.380  27.262  26.721  1.00  0.00    -0.354 N 
ATOM     47  C   UNL A   1      48.655  27.036  26.107  1.00  0.00     0.074 A 
ATOM     48  C   UNL A   1      49.041  25.742  25.586  1.00  0.00     0.031 C 
ATOM     49  C   UNL A   1      42.282  26.488  26.762  1.00  0.00     0.029 A 
ATOM     50  C   UNL A   1      43.111  27.642  27.090  1.00  0.00     0.049 A 
ATOM     51  H   UNL A   1      45.159  27.862  26.772  1.00  0.00     0.167 HD
ATOM     52  C   UNL A   1      49.521  28.047  26.361  1.00  0.00     0.034 A 
ATOM     53  C   UNL A   1      42.672  28.783  27.657  1.00  0.00     0.034 A 
ATOM     54  C   UNL A   1      49.126  29.346  26.835  1.00  0.00     0.049 A 
ATOM     55  C   UNL A   1      43.659  29.879  27.953  1.00  0.00     0.074 A 
ATOM     56  C   UNL A   1      49.915  30.463  27.045  1.00  0.00     0.029 A 
ATOM     57  N   UNL A   1      47.831  29.701  27.185  1.00  0.00    -0.354 N 
ATOM     58  N   UNL A   1      44.942  29.927  27.688  1.00  0.00    -0.248 NA
ATOM     59  C   UNL A   1      43.136  31.081  28.618  1.00  0.00     0.031 C 
ATOM     60  C   UNL A   1      49.101  31.486  27.543  1.00  0.00     0.029 A 
ATOM     61  C   UNL A   1      47.802  31.011  27.633  1.00  0.00     0.049 A 
ATOM     62  H   UNL A   1      47.047  29.108  27.123  1.00  0.00     0.167 HD
ATOM     63  C   UNL A   1      45.377  31.170  28.132  1.00  0.00     0.074 A 
ATOM     64  C   UNL A   1      44.215  31.853  28.662  1.00  0.00     0.031 C 
ATOM     65  C   UNL A   1      46.629  31.691  28.120  1.00  0.00     0.034 A 
BRANCH  52  66
ATOM     66  C   UNL A   1      50.982  27.792  26.110  1.00  0.00     0.023 A 
ATOM     67  C   UNL A   1      51.832  27.474  27.189  1.00  0.00     0.012 A 
ATOM     68  C   UNL A   1      51.508  27.828  24.804  1.00  0.00     0.148 A 
ATOM     69  C   UNL A   1      53.187  27.225  26.975  1.00  0.00     0.002 A 
ATOM     70  C   UNL A   1      52.853  27.544  24.594  1.00  0.00     0.091 A 
ATOM     71  F   UNL A   1      50.691  28.161  23.794  1.00  0.00    -0.205 F 
ATOM     72  C   UNL A   1      53.695  27.251  25.678  1.00  0.00     0.022 A 
BRANCH  70  73
ATOM     73  S   UNL A   1      53.576  27.492  22.951  1.00  0.00     0.127 S 
ATOM     74  O   UNL A   1      54.818  26.762  23.198  1.00  0.00    -0.237 OA
ATOM     75  O   UNL A   1      52.573  26.743  22.191  1.00  0.00    -0.237 OA
ATOM     76  O   UNL A   1      53.729  28.880  22.541  1.00  0.00    -0.744 OA
ENDBRANCH  70  73
ENDBRANCH  52  66
BRANCH  53  77
ATOM     77  C   UNL A   1      41.221  28.956  27.943  1.00  0.00     0.023 A 
ATOM     78  C   UNL A   1      40.341  29.241  26.880  1.00  0.00     0.012 A 
ATOM     79  C   UNL A   1      40.700  28.794  29.242  1.00  0.00     0.148 A 
ATOM     80  C   UNL A   1      38.972  29.376  27.108  1.00  0.00     0.002 A 
ATOM     81  C   UNL A   1      39.329  28.877  29.453  1.00  0.00     0.091 A 
ATOM     82  F   UNL A   1      41.556  28.543  30.242  1.00  0.00    -0.205 F 
ATOM     83  C   UNL A   1      38.464  29.182  28.390  1.00  0.00     0.022 A 
BRANCH  81  84
ATOM     84  S   UNL A   1      38.573  28.519  31.044  1.00  0.00     0.127 S 
ATOM     85  O   UNL A   1      38.766  27.075  31.147  1.00  0.00    -0.237 OA
ATOM     86  O   UNL A   1      39.393  29.317  31.956  1.00  0.00    -0.237 OA
ATOM     87  O   UNL A   1      37.191  28.966  30.931  1.00  0.00    -0.744 OA
ENDBRANCH  81  84
ENDBRANCH  53  77
BRANCH  65  88
ATOM     88  C   UNL A   1      46.813  33.071  28.695  1.00  0.00     0.023 A 
ATOM     89  C   UNL A   1      47.114  33.215  30.064  1.00  0.00     0.012 A 
ATOM     90  C   UNL A   1      46.762  34.213  27.873  1.00  0.00     0.148 A 
ATOM     91  C   UNL A   1      47.338  34.477  30.612  1.00  0.00     0.002 A 
ATOM     92  C   UNL A   1      47.031  35.464  28.416  1.00  0.00     0.091 A 
ATOM     93  F   UNL A   1      46.454  34.056  26.578  1.00  0.00    -0.205 F 
ATOM     94  C   UNL A   1      47.309  35.600  29.786  1.00  0.00     0.022 A 
BRANCH  92  95
ATOM     95  S   UNL A   1      47.105  36.953  27.412  1.00  0.00     0.127 S 
ATOM     96  O   UNL A   1      46.121  36.658  26.371  1.00  0.00    -0.237 OA
ATOM     97  O   UNL A   1      46.697  37.990  28.360  1.00  0.00    -0.237 OA
ATOM     98  O   UNL A   1      48.485  37.060  26.958  1.00  0.00    -0.744 OA
ENDBRANCH  92  95
ENDBRANCH  65  88
ENDBRANCH  39  40
ENDBRANCH  32  34
ENDBRANCH  31  32
ENDBRANCH  30  31
ENDBRANCH  29  30
ENDBRANCH  28  29
ENDBRANCH  26  28
ENDBRANCH   1  26
TORSDOF 23
ENDMDL
MODEL 2
REMARK VINA RESULT:     -10.7      5.964      9.008
REMARK SMILES CCCCCCNC(=O)Oc1cccc(-c2ccc([C@@H](C)C(=O)OCCOC(=O)c3ccc(-c4c5nc(c(-c6cccc(S(=O)(=O)[O-])c6F)c6ccc([nH]6)c(-c6cccc(S(=O)(=O)[O-])c6F)c6nc(c(-c7cccc(S(=O)(=O)[O-])c7F)c7ccc4[nH]7)C=C6)C=C5)cc3)cc2)c1
REMARK SMILES IDX 20 1 21 2 19 3 16 4 17 5 94 6 18 7 93 8 15 9 11 10 12 11
REMARK SMILES IDX 95 12 13 13 14 14 10 15 8 16 7 17 9 19 6 20 5 21 4 22 3 23
REMARK SMILES IDX 2 24 1 25 22 26 23 27 24 28 25 29 26 30 27 31 28 32 29 33
REMARK SMILES IDX 30 34 31 35 92 36 32 37 91 38 33 39 34 40 35 41 85 42 36 43
REMARK SMILES IDX 90 44 84 45 86 46 37 47 89 48 83 49 82 50 38 52 70 53 50 54
REMARK SMILES IDX 69 55 51 56 54 57 68 58 87 59 52 60 53 61 67 63 88 64 55 65
REMARK SMILES IDX 39 66 40 67 48 68 41 69 43 70 49 71 42 72 44 73 45 74 46 75
REMARK SMILES IDX 47 76 71 77 72 78 80 79 73 80 75 81 81 82 74 83 76 84 77 85
REMARK SMILES IDX 78 86 79 87 56 88 57 89 65 90 58 91 60 92 66 93 59 94 61 95
REMARK SMILES IDX 62 96 63 97 64 98
REMARK H PARENT 7 18 86 51 54 62
REMARK Flexibility Score: inf
ROOT
ATOM      1  C   UNL A   1      41.158  22.195  26.885  1.00  0.00     0.126 C 
ATOM      2  C   UNL A   1      41.434  22.256  28.386  1.00  0.00     0.025 C 
ENDROOT
BRANCH   1   3
ATOM      3  C   UNL A   1      39.725  22.570  26.541  1.00  0.00    -0.034 A 
ATOM      4  C   UNL A   1      37.042  23.230  25.866  1.00  0.00    -0.018 A 
ATOM      5  C   UNL A   1      37.883  24.161  26.492  1.00  0.00     0.009 A 
ATOM      6  C   UNL A   1      37.563  21.958  25.592  1.00  0.00     0.009 A 
ATOM      7  C   UNL A   1      39.205  23.841  26.820  1.00  0.00     0.005 A 
ATOM      8  C   UNL A   1      38.884  21.633  25.922  1.00  0.00     0.005 A 
BRANCH   4   9
ATOM      9  C   UNL A   1      35.665  23.589  25.489  1.00  0.00    -0.015 A 
ATOM     10  C   UNL A   1      33.381  22.988  24.938  1.00  0.00     0.133 A 
ATOM     11  C   UNL A   1      33.046  24.326  24.738  1.00  0.00     0.047 A 
ATOM     12  C   UNL A   1      34.677  22.611  25.294  1.00  0.00     0.056 A 
ATOM     13  C   UNL A   1      34.015  25.306  24.927  1.00  0.00     0.004 A 
ATOM     14  C   UNL A   1      35.310  24.939  25.299  1.00  0.00     0.009 A 
BRANCH  10  15
ATOM     15  O   UNL A   1      32.388  22.039  24.648  1.00  0.00    -0.410 OA
BRANCH  15  16
ATOM     16  C   UNL A   1      32.447  21.404  23.416  1.00  0.00     0.412 C 
ATOM     17  N   UNL A   1      32.352  20.041  23.509  1.00  0.00    -0.321 N 
ATOM     18  H   UNL A   1      32.338  19.543  22.660  1.00  0.00     0.167 HD
ATOM     19  O   UNL A   1      32.595  21.949  22.329  1.00  0.00    -0.224 OA
BRANCH  17  20
ATOM     20  C   UNL A   1      32.270  19.254  24.723  1.00  0.00     0.119 C 
BRANCH  20  21
ATOM     21  C   UNL A   1      33.586  18.552  25.055  1.00  0.00     0.021 C 
BRANCH  21  22
ATOM     22  C   UNL A   1      34.265  17.853  23.871  1.00  0.00     0.002 C 
BRANCH  22  23
ATOM     23  C   UNL A   1      34.312  16.322  23.940  1.00  0.00    -0.000 C 
BRANCH  23  24
ATOM     24  C   UNL A   1      34.021  15.711  25.314  1.00  0.00    -0.003 C 
ATOM     25  C   UNL A   1      32.540  15.477  25.568  1.00  0.00     0.004 C 
ENDBRANCH  23  24
ENDBRANCH  22  23
ENDBRANCH  21  22
ENDBRANCH  20  21
ENDBRANCH  17  20
ENDBRANCH  15  16
ENDBRANCH  10  15
ENDBRANCH   4   9
ENDBRANCH   1   3
BRANCH   1  26
ATOM     26  C   UNL A   1      41.658  20.868  26.323  1.00  0.00     0.313 C 
ATOM     27  O   UNL A   1      41.276  19.791  26.768  1.00  0.00    -0.252 OA
BRANCH  26  28
ATOM     28  O   UNL A   1      42.511  21.002  25.273  1.00  0.00    -0.462 OA
BRANCH  28  29
ATOM     29  C   UNL A   1      43.726  21.734  25.511  1.00  0.00     0.274 C 
BRANCH  29  30
ATOM     30  C   UNL A   1      44.054  22.643  24.327  1.00  0.00     0.275 C 
BRANCH  30  31
ATOM     31  O   UNL A   1      43.554  23.972  24.552  1.00  0.00    -0.458 OA
BRANCH  31  32
ATOM     32  C   UNL A   1      44.454  24.855  25.043  1.00  0.00     0.338 C 
ATOM     33  O   UNL A   1      45.593  25.048  24.660  1.00  0.00    -0.246 OA
BRANCH  32  34
ATOM     34  C   UNL A   1      43.815  25.654  26.093  1.00  0.00     0.060 A 
ATOM     35  C   UNL A   1      44.010  27.037  26.090  1.00  0.00     0.016 A 
ATOM     36  C   UNL A   1      43.095  25.037  27.115  1.00  0.00     0.016 A 
ATOM     37  C   UNL A   1      43.499  27.815  27.124  1.00  0.00     0.010 A 
ATOM     38  C   UNL A   1      42.562  25.823  28.140  1.00  0.00     0.010 A 
ATOM     39  C   UNL A   1      42.774  27.213  28.160  1.00  0.00    -0.014 A 
BRANCH  39  40
ATOM     40  C   UNL A   1      42.245  28.036  29.273  1.00  0.00     0.031 A 
ATOM     41  C   UNL A   1      42.960  28.060  30.593  1.00  0.00     0.074 A 
ATOM     42  C   UNL A   1      41.109  28.735  29.101  1.00  0.00     0.049 A 
ATOM     43  N   UNL A   1      42.612  28.645  31.709  1.00  0.00    -0.248 NA
ATOM     44  C   UNL A   1      44.233  27.324  30.671  1.00  0.00     0.031 C 
ATOM     45  C   UNL A   1      40.335  28.796  27.861  1.00  0.00     0.029 A 
ATOM     46  N   UNL A   1      40.397  29.513  29.978  1.00  0.00    -0.354 N 
ATOM     47  C   UNL A   1      43.590  28.308  32.635  1.00  0.00     0.074 A 
ATOM     48  C   UNL A   1      44.553  27.472  31.949  1.00  0.00     0.031 C 
ATOM     49  C   UNL A   1      39.251  29.563  28.058  1.00  0.00     0.029 A 
ATOM     50  C   UNL A   1      39.230  30.009  29.446  1.00  0.00     0.049 A 
ATOM     51  H   UNL A   1      40.691  29.698  30.899  1.00  0.00     0.167 HD
ATOM     52  C   UNL A   1      43.684  28.672  33.936  1.00  0.00     0.034 A 
ATOM     53  C   UNL A   1      38.240  30.719  30.023  1.00  0.00     0.034 A 
ATOM     54  C   UNL A   1      42.749  29.542  34.598  1.00  0.00     0.049 A 
ATOM     55  C   UNL A   1      38.357  31.087  31.477  1.00  0.00     0.074 A 
ATOM     56  C   UNL A   1      42.799  30.036  35.889  1.00  0.00     0.029 A 
ATOM     57  N   UNL A   1      41.587  30.037  34.026  1.00  0.00    -0.354 N 
ATOM     58  N   UNL A   1      39.345  30.860  32.308  1.00  0.00    -0.248 NA
ATOM     59  C   UNL A   1      37.227  31.817  32.069  1.00  0.00     0.031 C 
ATOM     60  C   UNL A   1      41.655  30.813  36.105  1.00  0.00     0.029 A 
ATOM     61  C   UNL A   1      40.898  30.812  34.944  1.00  0.00     0.049 A 
ATOM     62  H   UNL A   1      41.294  29.864  33.102  1.00  0.00     0.167 HD
ATOM     63  C   UNL A   1      38.968  31.436  33.516  1.00  0.00     0.074 A 
ATOM     64  C   UNL A   1      37.670  32.045  33.299  1.00  0.00     0.031 C 
ATOM     65  C   UNL A   1      39.626  31.445  34.701  1.00  0.00     0.034 A 
BRANCH  52  66
ATOM     66  C   UNL A   1      44.852  28.146  34.724  1.00  0.00     0.023 A 
ATOM     67  C   UNL A   1      46.010  28.936  34.870  1.00  0.00     0.012 A 
ATOM     68  C   UNL A   1      44.790  26.888  35.355  1.00  0.00     0.148 A 
ATOM     69  C   UNL A   1      47.100  28.470  35.604  1.00  0.00     0.002 A 
ATOM     70  C   UNL A   1      45.866  26.445  36.116  1.00  0.00     0.091 A 
ATOM     71  F   UNL A   1      43.691  26.138  35.183  1.00  0.00    -0.205 F 
ATOM     72  C   UNL A   1      47.024  27.230  36.235  1.00  0.00     0.022 A 
BRANCH  70  73
ATOM     73  S   UNL A   1      45.829  24.890  37.015  1.00  0.00     0.127 S 
ATOM     74  O   UNL A   1      46.294  23.950  35.997  1.00  0.00    -0.237 OA
ATOM     75  O   UNL A   1      46.783  25.132  38.099  1.00  0.00    -0.237 OA
ATOM     76  O   UNL A   1      44.452  24.719  37.453  1.00  0.00    -0.744 OA
ENDBRANCH  70  73
ENDBRANCH  52  66
BRANCH  53  77
ATOM     77  C   UNL A   1      37.074  31.160  29.209  1.00  0.00     0.023 A 
ATOM     78  C   UNL A   1      36.920  32.528  28.914  1.00  0.00     0.012 A 
ATOM     79  C   UNL A   1      36.149  30.236  28.685  1.00  0.00     0.148 A 
ATOM     80  C   UNL A   1      35.858  32.971  28.127  1.00  0.00     0.002 A 
ATOM     81  C   UNL A   1      35.123  30.677  27.857  1.00  0.00     0.091 A 
ATOM     82  F   UNL A   1      36.301  28.940  28.993  1.00  0.00    -0.205 F 
ATOM     83  C   UNL A   1      34.967  32.046  27.587  1.00  0.00     0.022 A 
BRANCH  81  84
ATOM     84  S   UNL A   1      34.006  29.547  27.017  1.00  0.00     0.127 S 
ATOM     85  O   UNL A   1      34.923  28.801  26.161  1.00  0.00    -0.237 OA
ATOM     86  O   UNL A   1      33.449  28.785  28.135  1.00  0.00    -0.237 OA
ATOM     87  O   UNL A   1      33.040  30.392  26.326  1.00  0.00    -0.744 OA
ENDBRANCH  81  84
ENDBRANCH  53  77
BRANCH  65  88
ATOM     88  C   UNL A   1      38.960  32.136  35.861  1.00  0.00     0.023 A 
ATOM     89  C   UNL A   1      38.937  33.544  35.906  1.00  0.00     0.012 A 
ATOM     90  C   UNL A   1      38.295  31.400  36.861  1.00  0.00     0.148 A 
ATOM     91  C   UNL A   1      38.284  34.210  36.943  1.00  0.00     0.002 A 
ATOM     92  C   UNL A   1      37.608  32.071  37.866  1.00  0.00     0.091 A 
ATOM     93  F   UNL A   1      38.346  30.061  36.811  1.00  0.00    -0.205 F 
ATOM     94  C   UNL A   1      37.609  33.474  37.915  1.00  0.00     0.022 A 
BRANCH  92  95
ATOM     95  S   UNL A   1      36.636  31.206  39.107  1.00  0.00     0.127 S 
ATOM     96  O   UNL A   1      37.568  31.156  40.233  1.00  0.00    -0.237 OA
ATOM     97  O   UNL A   1      35.499  32.108  39.298  1.00  0.00    -0.237 OA
ATOM     98  O   UNL A   1      36.293  29.919  38.519  1.00  0.00    -0.744 OA
ENDBRANCH  92  95
ENDBRANCH  65  88
ENDBRANCH  39  40
ENDBRANCH  32  34
ENDBRANCH  31  32
ENDBRANCH  30  31
ENDBRANCH  29  30
ENDBRANCH  28  29
ENDBRANCH  26  28
ENDBRANCH   1  26
TORSDOF 23
ENDMDL
MODEL 3
REMARK VINA RESULT:     -10.6      2.514      3.351
REMARK SMILES CCCCCCNC(=O)Oc1cccc(-c2ccc([C@@H](C)C(=O)OCCOC(=O)c3ccc(-c4c5nc(c(-c6cccc(S(=O)(=O)[O-])c6F)c6ccc([nH]6)c(-c6cccc(S(=O)(=O)[O-])c6F)c6nc(c(-c7cccc(S(=O)(=O)[O-])c7F)c7ccc4[nH]7)C=C6)C=C5)cc3)cc2)c1
REMARK SMILES IDX 20 1 21 2 19 3 16 4 17 5 94 6 18 7 93 8 15 9 11 10 12 11
REMARK SMILES IDX 95 12 13 13 14 14 10 15 8 16 7 17 9 19 6 20 5 21 4 22 3 23
REMARK SMILES IDX 2 24 1 25 22 26 23 27 24 28 25 29 26 30 27 31 28 32 29 33
REMARK SMILES IDX 30 34 31 35 92 36 32 37 91 38 33 39 34 40 35 41 85 42 36 43
REMARK SMILES IDX 90 44 84 45 86 46 37 47 89 48 83 49 82 50 38 52 70 53 50 54
REMARK SMILES IDX 69 55 51 56 54 57 68 58 87 59 52 60 53 61 67 63 88 64 55 65
REMARK SMILES IDX 39 66 40 67 48 68 41 69 43 70 49 71 42 72 44 73 45 74 46 75
REMARK SMILES IDX 47 76 71 77 72 78 80 79 73 80 75 81 81 82 74 83 76 84 77 85
REMARK SMILES IDX 78 86 79 87 56 88 57 89 65 90 58 91 60 92 66 93 59 94 61 95
REMARK SMILES IDX 62 96 63 97 64 98
REMARK H PARENT 7 18 86 51 54 62
REMARK Flexibility Score: inf
ROOT
ATOM      1  C   UNL A   1      40.887  22.165  27.048  1.00  0.00     0.126 C 
ATOM      2  C   UNL A   1      41.143  22.894  28.367  1.00  0.00     0.025 C 
ENDROOT
BRANCH   1   3
ATOM      3  C   UNL A   1      39.546  22.532  26.432  1.00  0.00    -0.034 A 
ATOM      4  C   UNL A   1      37.041  23.175  25.248  1.00  0.00    -0.018 A 
ATOM      5  C   UNL A   1      37.761  24.125  25.986  1.00  0.00     0.009 A 
ATOM      6  C   UNL A   1      37.592  21.891  25.121  1.00  0.00     0.009 A 
ATOM      7  C   UNL A   1      38.996  23.814  26.564  1.00  0.00     0.005 A 
ATOM      8  C   UNL A   1      38.825  21.575  25.702  1.00  0.00     0.005 A 
BRANCH   4   9
ATOM      9  C   UNL A   1      35.762  23.524  24.610  1.00  0.00    -0.015 A 
ATOM     10  C   UNL A   1      33.874  25.016  24.295  1.00  0.00     0.133 A 
ATOM     11  C   UNL A   1      33.296  24.138  23.381  1.00  0.00     0.047 A 
ATOM     12  C   UNL A   1      35.086  24.715  24.922  1.00  0.00     0.056 A 
ATOM     13  C   UNL A   1      33.954  22.955  23.063  1.00  0.00     0.004 A 
ATOM     14  C   UNL A   1      35.175  22.653  23.672  1.00  0.00     0.009 A 
BRANCH  10  15
ATOM     15  O   UNL A   1      33.125  26.151  24.643  1.00  0.00    -0.410 OA
BRANCH  15  16
ATOM     16  C   UNL A   1      33.041  26.478  25.988  1.00  0.00     0.412 C 
ATOM     17  N   UNL A   1      31.960  25.913  26.611  1.00  0.00    -0.321 N 
ATOM     18  H   UNL A   1      31.879  26.071  27.580  1.00  0.00     0.167 HD
ATOM     19  O   UNL A   1      33.805  27.211  26.603  1.00  0.00    -0.224 OA
BRANCH  17  20
ATOM     20  C   UNL A   1      30.923  25.107  25.998  1.00  0.00     0.119 C 
BRANCH  20  21
ATOM     21  C   UNL A   1      30.746  23.757  26.689  1.00  0.00     0.021 C 
BRANCH  21  22
ATOM     22  C   UNL A   1      31.839  22.724  26.387  1.00  0.00     0.002 C 
BRANCH  22  23
ATOM     23  C   UNL A   1      32.990  22.656  27.398  1.00  0.00    -0.000 C 
BRANCH  23  24
ATOM     24  C   UNL A   1      34.030  21.562  27.143  1.00  0.00    -0.003 C 
ATOM     25  C   UNL A   1      33.584  20.531  26.117  1.00  0.00     0.004 C 
ENDBRANCH  23  24
ENDBRANCH  22  23
ENDBRANCH  21  22
ENDBRANCH  20  21
ENDBRANCH  17  20
ENDBRANCH  15  16
ENDBRANCH  10  15
ENDBRANCH   4   9
ENDBRANCH   1   3
BRANCH   1  26
ATOM     26  C   UNL A   1      41.162  20.675  27.222  1.00  0.00     0.313 C 
ATOM     27  O   UNL A   1      40.777  20.055  28.208  1.00  0.00    -0.252 OA
BRANCH  26  28
ATOM     28  O   UNL A   1      41.817  20.111  26.174  1.00  0.00    -0.462 OA
BRANCH  28  29
ATOM     29  C   UNL A   1      42.305  18.769  26.358  1.00  0.00     0.274 C 
BRANCH  29  30
ATOM     30  C   UNL A   1      43.593  18.547  25.566  1.00  0.00     0.275 C 
BRANCH  30  31
ATOM     31  O   UNL A   1      43.739  19.546  24.542  1.00  0.00    -0.458 OA
BRANCH  31  32
ATOM     32  C   UNL A   1      44.988  20.044  24.391  1.00  0.00     0.338 C 
ATOM     33  O   UNL A   1      45.950  19.501  23.881  1.00  0.00    -0.246 OA
BRANCH  32  34
ATOM     34  C   UNL A   1      45.008  21.431  24.868  1.00  0.00     0.060 A 
ATOM     35  C   UNL A   1      44.786  22.456  23.946  1.00  0.00     0.016 A 
ATOM     36  C   UNL A   1      45.322  21.721  26.194  1.00  0.00     0.016 A 
ATOM     37  C   UNL A   1      44.892  23.785  24.342  1.00  0.00     0.010 A 
ATOM     38  C   UNL A   1      45.405  23.056  26.597  1.00  0.00     0.010 A 
ATOM     39  C   UNL A   1      45.207  24.096  25.670  1.00  0.00    -0.014 A 
BRANCH  39  40
ATOM     40  C   UNL A   1      45.342  25.510  26.092  1.00  0.00     0.031 A 
ATOM     41  C   UNL A   1      46.687  26.177  26.063  1.00  0.00     0.074 A 
ATOM     42  C   UNL A   1      44.259  26.180  26.525  1.00  0.00     0.049 A 
ATOM     43  N   UNL A   1      47.024  27.372  26.470  1.00  0.00    -0.248 NA
ATOM     44  C   UNL A   1      47.802  25.393  25.506  1.00  0.00     0.031 C 
ATOM     45  C   UNL A   1      42.901  25.639  26.587  1.00  0.00     0.029 A 
ATOM     46  N   UNL A   1      44.134  27.455  27.015  1.00  0.00    -0.354 N 
ATOM     47  C   UNL A   1      48.394  27.469  26.269  1.00  0.00     0.074 A 
ATOM     48  C   UNL A   1      48.828  26.212  25.696  1.00  0.00     0.031 C 
ATOM     49  C   UNL A   1      42.080  26.573  27.094  1.00  0.00     0.029 A 
ATOM     50  C   UNL A   1      42.859  27.758  27.434  1.00  0.00     0.049 A 
ATOM     51  H   UNL A   1      44.883  28.093  27.063  1.00  0.00     0.167 HD
ATOM     52  C   UNL A   1      49.215  28.514  26.530  1.00  0.00     0.034 A 
ATOM     53  C   UNL A   1      42.380  28.857  28.048  1.00  0.00     0.034 A 
ATOM     54  C   UNL A   1      48.769  29.777  27.055  1.00  0.00     0.049 A 
ATOM     55  C   UNL A   1      43.320  29.993  28.350  1.00  0.00     0.074 A 
ATOM     56  C   UNL A   1      49.507  30.926  27.277  1.00  0.00     0.029 A 
ATOM     57  N   UNL A   1      47.469  30.054  27.454  1.00  0.00    -0.354 N 
ATOM     58  N   UNL A   1      44.589  30.115  28.048  1.00  0.00    -0.248 NA
ATOM     59  C   UNL A   1      42.757  31.146  29.067  1.00  0.00     0.031 C 
ATOM     60  C   UNL A   1      48.658  31.891  27.831  1.00  0.00     0.029 A 
ATOM     61  C   UNL A   1      47.388  31.346  27.944  1.00  0.00     0.049 A 
ATOM     62  H   UNL A   1      46.715  29.423  27.397  1.00  0.00     0.167 HD
ATOM     63  C   UNL A   1      44.975  31.365  28.519  1.00  0.00     0.074 A 
ATOM     64  C   UNL A   1      43.796  31.972  29.104  1.00  0.00     0.031 C 
ATOM     65  C   UNL A   1      46.198  31.950  28.486  1.00  0.00     0.034 A 
BRANCH  52  66
ATOM     66  C   UNL A   1      50.678  28.343  26.228  1.00  0.00     0.023 A 
ATOM     67  C   UNL A   1      51.156  28.585  24.924  1.00  0.00     0.012 A 
ATOM     68  C   UNL A   1      51.588  27.982  27.242  1.00  0.00     0.148 A 
ATOM     69  C   UNL A   1      52.511  28.440  24.627  1.00  0.00     0.002 A 
ATOM     70  C   UNL A   1      52.942  27.876  26.946  1.00  0.00     0.091 A 
ATOM     71  F   UNL A   1      51.111  27.729  28.469  1.00  0.00    -0.205 F 
ATOM     72  C   UNL A   1      53.404  28.095  25.639  1.00  0.00     0.022 A 
BRANCH  70  73
ATOM     73  S   UNL A   1      54.170  27.499  28.202  1.00  0.00     0.127 S 
ATOM     74  O   UNL A   1      55.406  27.521  27.422  1.00  0.00    -0.237 OA
ATOM     75  O   UNL A   1      54.019  28.619  29.132  1.00  0.00    -0.237 OA
ATOM     76  O   UNL A   1      53.791  26.205  28.750  1.00  0.00    -0.744 OA
ENDBRANCH  70  73
ENDBRANCH  52  66
BRANCH  53  77
ATOM     77  C   UNL A   1      40.932  28.946  28.382  1.00  0.00     0.023 A 
ATOM     78  C   UNL A   1      40.002  29.173  27.349  1.00  0.00     0.012 A 
ATOM     79  C   UNL A   1      40.465  28.761  29.698  1.00  0.00     0.148 A 
ATOM     80  C   UNL A   1      38.636  29.230  27.622  1.00  0.00     0.002 A 
ATOM     81  C   UNL A   1      39.099  28.766  29.955  1.00  0.00     0.091 A 
ATOM     82  F   UNL A   1      41.367  28.567  30.671  1.00  0.00    -0.205 F 
ATOM     83  C   UNL A   1      38.183  29.013  28.921  1.00  0.00     0.022 A 
BRANCH  81  84
ATOM     84  S   UNL A   1      38.419  28.372  31.572  1.00  0.00     0.127 S 
ATOM     85  O   UNL A   1      39.384  29.009  32.464  1.00  0.00    -0.237 OA
ATOM     86  O   UNL A   1      37.109  29.021  31.516  1.00  0.00    -0.237 OA
ATOM     87  O   UNL A   1      38.366  26.917  31.632  1.00  0.00    -0.744 OA
ENDBRANCH  81  84
ENDBRANCH  53  77
BRANCH  65  88
ATOM     88  C   UNL A   1      46.329  33.320  29.099  1.00  0.00     0.023 A 
ATOM     89  C   UNL A   1      46.101  34.459  28.300  1.00  0.00     0.012 A 
ATOM     90  C   UNL A   1      46.602  33.480  30.471  1.00  0.00     0.148 A 
ATOM     91  C   UNL A   1      46.166  35.737  28.853  1.00  0.00     0.002 A 
ATOM     92  C   UNL A   1      46.621  34.755  31.025  1.00  0.00     0.091 A 
ATOM     93  F   UNL A   1      46.836  32.385  31.208  1.00  0.00    -0.205 F 
ATOM     94  C   UNL A   1      46.414  35.884  30.217  1.00  0.00     0.022 A 
BRANCH  92  95
ATOM     95  S   UNL A   1      46.842  35.034  32.786  1.00  0.00     0.127 S 
ATOM     96  O   UNL A   1      46.547  36.461  32.901  1.00  0.00    -0.237 OA
ATOM     97  O   UNL A   1      45.830  34.153  33.372  1.00  0.00    -0.237 OA
ATOM     98  O   UNL A   1      48.216  34.652  33.081  1.00  0.00    -0.744 OA
ENDBRANCH  92  95
ENDBRANCH  65  88
ENDBRANCH  39  40
ENDBRANCH  32  34
ENDBRANCH  31  32
ENDBRANCH  30  31
ENDBRANCH  29  30
ENDBRANCH  28  29
ENDBRANCH  26  28
ENDBRANCH   1  26
TORSDOF 23
ENDMDL
