MODEL 1
REMARK VINA RESULT:     -12.1      0.000      0.000
REMARK SMILES O=C(CC[C@@H]1CN(c2ccncc2)CC[C@@H]1[NH+]1CCOCC1)OCCOC(=O)c1ccc(-c2c3nc(c(-c4cccc(S(=O)(=O)[O-])c4F)c4ccc([nH]4)c(-c4cccc(S(=O)(=O)[O-])c4F)c4nc(c(-c5cccc(S(=O)(=O)[O-])c5F)c5ccc2[nH]5)C=C4)C=C3)cc1
REMARK SMILES IDX 24 1 23 2 2 3 1 4 3 5 4 6 5 7 6 8 16 9 7 10 15 11 14 12
REMARK SMILES IDX 17 13 18 14 22 15 19 17 21 18 20 19 8 20 9 21 13 22 10 23
REMARK SMILES IDX 12 24 11 25 25 26 26 27 27 28 28 29 29 30 30 31 91 32 31 33
REMARK SMILES IDX 90 34 32 35 33 36 34 37 84 38 35 39 89 40 83 41 85 42 36 43
REMARK SMILES IDX 88 44 82 45 81 46 37 48 69 49 49 50 68 51 50 52 53 53 67 54
REMARK SMILES IDX 86 55 51 56 52 57 66 59 87 60 54 61 38 62 39 63 47 64 40 65
REMARK SMILES IDX 42 66 48 67 41 68 43 69 44 70 45 71 46 72 70 73 71 74 79 75
REMARK SMILES IDX 72 76 74 77 80 78 73 79 75 80 76 81 77 82 78 83 55 84 56 85
REMARK SMILES IDX 64 86 57 87 59 88 65 89 58 90 60 91 61 92 62 93 63 94
REMARK H PARENT 17 16 85 47 53 58
REMARK Flexibility Score: inf
ROOT
ATOM      1  C   UNL A   1      36.730  20.633  25.001  1.00  0.00     0.274 C 
ENDROOT
BRANCH   1   2
ATOM      2  O   UNL A   1      36.971  21.890  24.333  1.00  0.00    -0.462 OA
BRANCH   2   3
ATOM      3  C   UNL A   1      36.351  23.061  24.607  1.00  0.00     0.305 C 
ATOM      4  O   UNL A   1      36.128  23.872  23.710  1.00  0.00    -0.252 OA
BRANCH   3   5
ATOM      5  C   UNL A   1      35.978  23.355  26.033  1.00  0.00     0.123 C 
BRANCH   5   6
ATOM      6  C   UNL A   1      34.557  23.873  26.236  1.00  0.00     0.023 C 
BRANCH   6   7
ATOM      7  C   UNL A   1      33.347  23.159  25.573  1.00  0.00     0.067 C 
ATOM      8  C   UNL A   1      33.486  21.621  25.440  1.00  0.00     0.126 C 
ATOM      9  C   UNL A   1      32.578  23.960  24.458  1.00  0.00     0.190 C 
ATOM     10  N   UNL A   1      32.634  20.988  24.426  1.00  0.00    -0.371 N 
ATOM     11  C   UNL A   1      31.479  23.068  23.889  1.00  0.00     0.087 C 
ATOM     12  C   UNL A   1      32.008  21.757  23.363  1.00  0.00     0.122 C 
BRANCH   9  13
ATOM     13  N   UNL A   1      33.350  24.808  23.524  1.00  0.00    -0.328 N 
ATOM     14  C   UNL A   1      33.483  26.218  23.982  1.00  0.00     0.291 C 
ATOM     15  C   UNL A   1      33.033  24.870  22.086  1.00  0.00     0.291 C 
ATOM     16  H   UNL A   1      34.208  24.257  23.573  1.00  0.00     0.348 HD
ATOM     17  C   UNL A   1      32.302  27.126  23.585  1.00  0.00     0.221 C 
ATOM     18  C   UNL A   1      31.918  25.838  21.652  1.00  0.00     0.221 C 
ATOM     19  O   UNL A   1      32.109  27.155  22.168  1.00  0.00    -0.370 OA
ENDBRANCH   9  13
BRANCH  10  20
ATOM     20  C   UNL A   1      32.623  19.598  24.287  1.00  0.00     0.040 A 
ATOM     21  C   UNL A   1      32.859  18.743  25.374  1.00  0.00     0.046 A 
ATOM     22  C   UNL A   1      32.459  18.992  23.041  1.00  0.00     0.046 A 
ATOM     23  C   UNL A   1      32.961  17.374  25.170  1.00  0.00     0.113 A 
ATOM     24  C   UNL A   1      32.589  17.613  22.928  1.00  0.00     0.113 A 
ATOM     25  N   UNL A   1      32.843  16.788  23.965  1.00  0.00    -0.265 NA
ENDBRANCH  10  20
ENDBRANCH   6   7
ENDBRANCH   5   6
ENDBRANCH   3   5
ENDBRANCH   2   3
ENDBRANCH   1   2
BRANCH   1  26
ATOM     26  C   UNL A   1      38.064  19.936  25.260  1.00  0.00     0.275 C 
BRANCH  26  27
ATOM     27  O   UNL A   1      39.083  20.939  25.269  1.00  0.00    -0.458 OA
BRANCH  27  28
ATOM     28  C   UNL A   1      39.992  20.720  26.256  1.00  0.00     0.338 C 
ATOM     29  O   UNL A   1      40.623  19.699  26.415  1.00  0.00    -0.246 OA
BRANCH  28  30
ATOM     30  C   UNL A   1      40.239  22.004  26.964  1.00  0.00     0.060 A 
ATOM     31  C   UNL A   1      39.474  23.113  26.585  1.00  0.00     0.016 A 
ATOM     32  C   UNL A   1      41.190  22.119  27.989  1.00  0.00     0.016 A 
ATOM     33  C   UNL A   1      39.770  24.368  27.104  1.00  0.00     0.010 A 
ATOM     34  C   UNL A   1      41.479  23.373  28.523  1.00  0.00     0.010 A 
ATOM     35  C   UNL A   1      40.838  24.506  27.999  1.00  0.00    -0.014 A 
BRANCH  35  36
ATOM     36  C   UNL A   1      41.532  25.810  28.068  1.00  0.00     0.031 A 
ATOM     37  C   UNL A   1      40.796  26.935  28.755  1.00  0.00     0.074 A 
ATOM     38  C   UNL A   1      42.760  25.989  27.559  1.00  0.00     0.049 A 
ATOM     39  N   UNL A   1      41.179  28.162  28.985  1.00  0.00    -0.248 NA
ATOM     40  C   UNL A   1      39.435  26.636  29.241  1.00  0.00     0.031 C 
ATOM     41  C   UNL A   1      43.549  24.973  26.868  1.00  0.00     0.029 A 
ATOM     42  N   UNL A   1      43.549  27.109  27.536  1.00  0.00    -0.354 N 
ATOM     43  C   UNL A   1      40.103  28.779  29.615  1.00  0.00     0.074 A 
ATOM     44  C   UNL A   1      39.040  27.808  29.707  1.00  0.00     0.031 C 
ATOM     45  C   UNL A   1      44.712  25.524  26.472  1.00  0.00     0.029 A 
ATOM     46  C   UNL A   1      44.740  26.928  26.878  1.00  0.00     0.049 A 
ATOM     47  H   UNL A   1      43.287  27.962  27.952  1.00  0.00     0.167 HD
ATOM     48  C   UNL A   1      40.014  30.037  30.101  1.00  0.00     0.034 A 
ATOM     49  C   UNL A   1      45.735  27.805  26.640  1.00  0.00     0.034 A 
ATOM     50  C   UNL A   1      41.085  30.986  30.030  1.00  0.00     0.049 A 
ATOM     51  C   UNL A   1      45.618  29.201  27.201  1.00  0.00     0.074 A 
ATOM     52  C   UNL A   1      41.133  32.272  30.532  1.00  0.00     0.029 A 
ATOM     53  N   UNL A   1      42.300  30.747  29.406  1.00  0.00    -0.354 N 
ATOM     54  N   UNL A   1      44.652  29.728  27.916  1.00  0.00    -0.248 NA
ATOM     55  C   UNL A   1      46.749  30.109  26.961  1.00  0.00     0.031 C 
ATOM     56  C   UNL A   1      42.374  32.821  30.190  1.00  0.00     0.029 A 
ATOM     57  C   UNL A   1      43.105  31.865  29.499  1.00  0.00     0.049 A 
ATOM     58  H   UNL A   1      42.552  29.906  28.962  1.00  0.00     0.167 HD
ATOM     59  C   UNL A   1      45.076  31.010  28.248  1.00  0.00     0.074 A 
ATOM     60  C   UNL A   1      46.394  31.174  27.667  1.00  0.00     0.031 C 
ATOM     61  C   UNL A   1      44.436  31.974  28.959  1.00  0.00     0.034 A 
BRANCH  48  62
ATOM     62  C   UNL A   1      38.724  30.435  30.766  1.00  0.00     0.023 A 
ATOM     63  C   UNL A   1      38.518  30.143  32.130  1.00  0.00     0.012 A 
ATOM     64  C   UNL A   1      37.719  31.109  30.045  1.00  0.00     0.148 A 
ATOM     65  C   UNL A   1      37.321  30.483  32.758  1.00  0.00     0.002 A 
ATOM     66  C   UNL A   1      36.545  31.484  30.690  1.00  0.00     0.091 A 
ATOM     67  F   UNL A   1      37.917  31.346  28.742  1.00  0.00    -0.205 F 
ATOM     68  C   UNL A   1      36.340  31.162  32.042  1.00  0.00     0.022 A 
BRANCH  66  69
ATOM     69  S   UNL A   1      35.254  32.424  29.869  1.00  0.00     0.127 S 
ATOM     70  O   UNL A   1      34.303  32.635  30.961  1.00  0.00    -0.237 OA
ATOM     71  O   UNL A   1      35.971  33.627  29.444  1.00  0.00    -0.237 OA
ATOM     72  O   UNL A   1      34.778  31.585  28.779  1.00  0.00    -0.744 OA
ENDBRANCH  66  69
ENDBRANCH  48  62
BRANCH  49  73
ATOM     73  C   UNL A   1      46.957  27.368  25.908  1.00  0.00     0.023 A 
ATOM     74  C   UNL A   1      47.911  26.568  26.568  1.00  0.00     0.012 A 
ATOM     75  C   UNL A   1      47.167  27.714  24.559  1.00  0.00     0.148 A 
ATOM     76  C   UNL A   1      49.066  26.146  25.907  1.00  0.00     0.002 A 
ATOM     77  C   UNL A   1      48.294  27.247  23.891  1.00  0.00     0.091 A 
ATOM     78  F   UNL A   1      46.256  28.489  23.952  1.00  0.00    -0.205 F 
ATOM     79  C   UNL A   1      49.252  26.476  24.568  1.00  0.00     0.022 A 
BRANCH  77  80
ATOM     80  S   UNL A   1      48.553  27.518  22.135  1.00  0.00     0.127 S 
ATOM     81  O   UNL A   1      48.697  26.153  21.637  1.00  0.00    -0.237 OA
ATOM     82  O   UNL A   1      47.311  28.189  21.745  1.00  0.00    -0.237 OA
ATOM     83  O   UNL A   1      49.741  28.358  22.038  1.00  0.00    -0.744 OA
ENDBRANCH  77  80
ENDBRANCH  49  73
BRANCH  61  84
ATOM     84  C   UNL A   1      45.163  33.272  29.186  1.00  0.00     0.023 A 
ATOM     85  C   UNL A   1      45.960  33.437  30.335  1.00  0.00     0.012 A 
ATOM     86  C   UNL A   1      45.123  34.293  28.216  1.00  0.00     0.148 A 
ATOM     87  C   UNL A   1      46.677  34.615  30.534  1.00  0.00     0.002 A 
ATOM     88  C   UNL A   1      45.880  35.443  28.397  1.00  0.00     0.091 A 
ATOM     89  F   UNL A   1      44.345  34.123  27.137  1.00  0.00    -0.205 F 
ATOM     90  C   UNL A   1      46.647  35.611  29.559  1.00  0.00     0.022 A 
BRANCH  88  91
ATOM     91  S   UNL A   1      45.979  36.725  27.142  1.00  0.00     0.127 S 
ATOM     92  O   UNL A   1      44.599  37.204  27.096  1.00  0.00    -0.237 OA
ATOM     93  O   UNL A   1      46.932  37.667  27.730  1.00  0.00    -0.237 OA
ATOM     94  O   UNL A   1      46.458  36.062  25.936  1.00  0.00    -0.744 OA
ENDBRANCH  88  91
ENDBRANCH  61  84
ENDBRANCH  35  36
ENDBRANCH  28  30
ENDBRANCH  27  28
ENDBRANCH  26  27
ENDBRANCH   1  26
TORSDOF 18
ENDMDL
MODEL 2
REMARK VINA RESULT:     -11.6      1.864      2.172
REMARK SMILES O=C(CC[C@@H]1CN(c2ccncc2)CC[C@@H]1[NH+]1CCOCC1)OCCOC(=O)c1ccc(-c2c3nc(c(-c4cccc(S(=O)(=O)[O-])c4F)c4ccc([nH]4)c(-c4cccc(S(=O)(=O)[O-])c4F)c4nc(c(-c5cccc(S(=O)(=O)[O-])c5F)c5ccc2[nH]5)C=C4)C=C3)cc1
REMARK SMILES IDX 24 1 23 2 2 3 1 4 3 5 4 6 5 7 6 8 16 9 7 10 15 11 14 12
REMARK SMILES IDX 17 13 18 14 22 15 19 17 21 18 20 19 8 20 9 21 13 22 10 23
REMARK SMILES IDX 12 24 11 25 25 26 26 27 27 28 28 29 29 30 30 31 91 32 31 33
REMARK SMILES IDX 90 34 32 35 33 36 34 37 84 38 35 39 89 40 83 41 85 42 36 43
REMARK SMILES IDX 88 44 82 45 81 46 37 48 69 49 49 50 68 51 50 52 53 53 67 54
REMARK SMILES IDX 86 55 51 56 52 57 66 59 87 60 54 61 38 62 39 63 47 64 40 65
REMARK SMILES IDX 42 66 48 67 41 68 43 69 44 70 45 71 46 72 70 73 71 74 79 75
REMARK SMILES IDX 72 76 74 77 80 78 73 79 75 80 76 81 77 82 78 83 55 84 56 85
REMARK SMILES IDX 64 86 57 87 59 88 65 89 58 90 60 91 61 92 62 93 63 94
REMARK H PARENT 17 16 85 47 53 58
REMARK Flexibility Score: inf
ROOT
ATOM      1  C   UNL A   1      36.553  20.743  24.971  1.00  0.00     0.274 C 
ENDROOT
BRANCH   1   2
ATOM      2  O   UNL A   1      36.830  22.025  24.368  1.00  0.00    -0.462 OA
BRANCH   2   3
ATOM      3  C   UNL A   1      36.202  23.187  24.659  1.00  0.00     0.305 C 
ATOM      4  O   UNL A   1      36.025  24.035  23.787  1.00  0.00    -0.252 OA
BRANCH   3   5
ATOM      5  C   UNL A   1      35.761  23.424  26.077  1.00  0.00     0.123 C 
BRANCH   5   6
ATOM      6  C   UNL A   1      34.321  23.906  26.234  1.00  0.00     0.023 C 
BRANCH   6   7
ATOM      7  C   UNL A   1      33.156  23.182  25.507  1.00  0.00     0.067 C 
ATOM      8  C   UNL A   1      33.324  21.648  25.363  1.00  0.00     0.126 C 
ATOM      9  C   UNL A   1      32.428  23.985  24.366  1.00  0.00     0.190 C 
ATOM     10  N   UNL A   1      32.531  21.015  24.302  1.00  0.00    -0.371 N 
ATOM     11  C   UNL A   1      31.371  23.084  23.735  1.00  0.00     0.087 C 
ATOM     12  C   UNL A   1      31.944  21.787  23.220  1.00  0.00     0.122 C 
BRANCH   9  13
ATOM     13  N   UNL A   1      33.231  24.856  23.480  1.00  0.00    -0.328 N 
ATOM     14  C   UNL A   1      33.363  26.250  23.986  1.00  0.00     0.291 C 
ATOM     15  C   UNL A   1      32.951  24.967  22.037  1.00  0.00     0.291 C 
ATOM     16  H   UNL A   1      34.082  24.296  23.533  1.00  0.00     0.348 HD
ATOM     17  C   UNL A   1      32.200  27.180  23.589  1.00  0.00     0.221 C 
ATOM     18  C   UNL A   1      31.855  25.958  21.606  1.00  0.00     0.221 C 
ATOM     19  O   UNL A   1      32.043  27.256  22.169  1.00  0.00    -0.370 OA
ENDBRANCH   9  13
BRANCH  10  20
ATOM     20  C   UNL A   1      32.548  19.627  24.147  1.00  0.00     0.040 A 
ATOM     21  C   UNL A   1      32.811  18.764  25.222  1.00  0.00     0.046 A 
ATOM     22  C   UNL A   1      32.386  19.032  22.895  1.00  0.00     0.046 A 
ATOM     23  C   UNL A   1      32.940  17.400  25.001  1.00  0.00     0.113 A 
ATOM     24  C   UNL A   1      32.545  17.657  22.765  1.00  0.00     0.113 A 
ATOM     25  N   UNL A   1      32.825  16.826  23.790  1.00  0.00    -0.265 NA
ENDBRANCH  10  20
ENDBRANCH   6   7
ENDBRANCH   5   6
ENDBRANCH   3   5
ENDBRANCH   2   3
ENDBRANCH   1   2
BRANCH   1  26
ATOM     26  C   UNL A   1      37.864  19.985  25.168  1.00  0.00     0.275 C 
BRANCH  26  27
ATOM     27  O   UNL A   1      38.923  20.945  25.176  1.00  0.00    -0.458 OA
BRANCH  27  28
ATOM     28  C   UNL A   1      39.832  20.679  26.151  1.00  0.00     0.338 C 
ATOM     29  O   UNL A   1      40.441  19.641  26.279  1.00  0.00    -0.246 OA
BRANCH  28  30
ATOM     30  C   UNL A   1      40.113  21.938  26.891  1.00  0.00     0.060 A 
ATOM     31  C   UNL A   1      39.351  23.066  26.566  1.00  0.00     0.016 A 
ATOM     32  C   UNL A   1      41.093  22.012  27.893  1.00  0.00     0.016 A 
ATOM     33  C   UNL A   1      39.675  24.301  27.116  1.00  0.00     0.010 A 
ATOM     34  C   UNL A   1      41.409  23.245  28.457  1.00  0.00     0.010 A 
ATOM     35  C   UNL A   1      40.768  24.400  27.985  1.00  0.00    -0.014 A 
BRANCH  35  36
ATOM     36  C   UNL A   1      41.478  25.694  28.075  1.00  0.00     0.031 A 
ATOM     37  C   UNL A   1      40.746  26.825  28.757  1.00  0.00     0.074 A 
ATOM     38  C   UNL A   1      42.717  25.860  27.588  1.00  0.00     0.049 A 
ATOM     39  N   UNL A   1      41.142  28.045  29.003  1.00  0.00    -0.248 NA
ATOM     40  C   UNL A   1      39.374  26.541  29.218  1.00  0.00     0.031 C 
ATOM     41  C   UNL A   1      43.504  24.837  26.904  1.00  0.00     0.029 A 
ATOM     42  N   UNL A   1      43.522  26.969  27.587  1.00  0.00    -0.354 N 
ATOM     43  C   UNL A   1      40.064  28.672  29.618  1.00  0.00     0.074 A 
ATOM     44  C   UNL A   1      38.987  27.716  29.686  1.00  0.00     0.031 C 
ATOM     45  C   UNL A   1      44.681  25.375  26.532  1.00  0.00     0.029 A 
ATOM     46  C   UNL A   1      44.722  26.776  26.948  1.00  0.00     0.049 A 
ATOM     47  H   UNL A   1      43.264  27.822  28.004  1.00  0.00     0.167 HD
ATOM     48  C   UNL A   1      39.984  29.928  30.112  1.00  0.00     0.034 A 
ATOM     49  C   UNL A   1      45.733  27.641  26.734  1.00  0.00     0.034 A 
ATOM     50  C   UNL A   1      41.069  30.863  30.066  1.00  0.00     0.049 A 
ATOM     51  C   UNL A   1      45.625  29.035  27.302  1.00  0.00     0.074 A 
ATOM     52  C   UNL A   1      41.127  32.145  30.578  1.00  0.00     0.029 A 
ATOM     53  N   UNL A   1      42.292  30.611  29.461  1.00  0.00    -0.354 N 
ATOM     54  N   UNL A   1      44.654  29.570  28.004  1.00  0.00    -0.248 NA
ATOM     55  C   UNL A   1      46.772  29.928  27.088  1.00  0.00     0.031 C 
ATOM     56  C   UNL A   1      42.381  32.678  30.261  1.00  0.00     0.029 A 
ATOM     57  C   UNL A   1      43.110  31.717  29.576  1.00  0.00     0.049 A 
ATOM     58  H   UNL A   1      42.540  29.770  29.015  1.00  0.00     0.167 HD
ATOM     59  C   UNL A   1      45.090  30.844  28.353  1.00  0.00     0.074 A 
ATOM     60  C   UNL A   1      46.420  30.993  27.795  1.00  0.00     0.031 C 
ATOM     61  C   UNL A   1      44.452  31.811  29.059  1.00  0.00     0.034 A 
BRANCH  48  62
ATOM     62  C   UNL A   1      38.688  30.339  30.757  1.00  0.00     0.023 A 
ATOM     63  C   UNL A   1      38.426  29.980  32.096  1.00  0.00     0.012 A 
ATOM     64  C   UNL A   1      37.735  31.092  30.045  1.00  0.00     0.148 A 
ATOM     65  C   UNL A   1      37.223  30.333  32.704  1.00  0.00     0.002 A 
ATOM     66  C   UNL A   1      36.555  31.477  30.673  1.00  0.00     0.091 A 
ATOM     67  F   UNL A   1      37.985  31.393  28.764  1.00  0.00    -0.205 F 
ATOM     68  C   UNL A   1      36.293  31.088  31.997  1.00  0.00     0.022 A 
BRANCH  66  69
ATOM     69  S   UNL A   1      35.328  32.511  29.867  1.00  0.00     0.127 S 
ATOM     70  O   UNL A   1      36.116  33.696  29.531  1.00  0.00    -0.237 OA
ATOM     71  O   UNL A   1      34.940  31.691  28.718  1.00  0.00    -0.237 OA
ATOM     72  O   UNL A   1      34.272  32.718  30.847  1.00  0.00    -0.744 OA
ENDBRANCH  66  69
ENDBRANCH  48  62
BRANCH  49  73
ATOM     73  C   UNL A   1      46.960  27.191  26.019  1.00  0.00     0.023 A 
ATOM     74  C   UNL A   1      47.071  27.404  24.631  1.00  0.00     0.012 A 
ATOM     75  C   UNL A   1      48.028  26.583  26.708  1.00  0.00     0.148 A 
ATOM     76  C   UNL A   1      48.209  26.990  23.936  1.00  0.00     0.002 A 
ATOM     77  C   UNL A   1      49.181  26.220  26.017  1.00  0.00     0.091 A 
ATOM     78  F   UNL A   1      47.899  26.374  28.025  1.00  0.00    -0.205 F 
ATOM     79  C   UNL A   1      49.266  26.409  24.629  1.00  0.00     0.022 A 
BRANCH  77  80
ATOM     80  S   UNL A   1      50.639  25.581  26.849  1.00  0.00     0.127 S 
ATOM     81  O   UNL A   1      51.013  26.702  27.706  1.00  0.00    -0.237 OA
ATOM     82  O   UNL A   1      50.100  24.418  27.556  1.00  0.00    -0.237 OA
ATOM     83  O   UNL A   1      51.582  25.251  25.788  1.00  0.00    -0.744 OA
ENDBRANCH  77  80
ENDBRANCH  49  73
BRANCH  61  84
ATOM     84  C   UNL A   1      45.192  33.098  29.308  1.00  0.00     0.023 A 
ATOM     85  C   UNL A   1      45.048  34.173  28.409  1.00  0.00     0.012 A 
ATOM     86  C   UNL A   1      45.959  33.267  30.476  1.00  0.00     0.148 A 
ATOM     87  C   UNL A   1      45.688  35.386  28.653  1.00  0.00     0.002 A 
ATOM     88  C   UNL A   1      46.553  34.496  30.738  1.00  0.00     0.091 A 
ATOM     89  F   UNL A   1      46.097  32.226  31.310  1.00  0.00    -0.205 F 
ATOM     90  C   UNL A   1      46.428  35.551  29.822  1.00  0.00     0.022 A 
BRANCH  88  91
ATOM     91  S   UNL A   1      47.434  34.821  32.269  1.00  0.00     0.127 S 
ATOM     92  O   UNL A   1      47.814  36.222  32.102  1.00  0.00    -0.237 OA
ATOM     93  O   UNL A   1      46.403  34.585  33.281  1.00  0.00    -0.237 OA
ATOM     94  O   UNL A   1      48.535  33.867  32.302  1.00  0.00    -0.744 OA
ENDBRANCH  88  91
ENDBRANCH  61  84
ENDBRANCH  35  36
ENDBRANCH  28  30
ENDBRANCH  27  28
ENDBRANCH  26  27
ENDBRANCH   1  26
TORSDOF 18
ENDMDL
MODEL 3
REMARK VINA RESULT:     -11.4      6.068     11.379
REMARK SMILES O=C(CC[C@@H]1CN(c2ccncc2)CC[C@@H]1[NH+]1CCOCC1)OCCOC(=O)c1ccc(-c2c3nc(c(-c4cccc(S(=O)(=O)[O-])c4F)c4ccc([nH]4)c(-c4cccc(S(=O)(=O)[O-])c4F)c4nc(c(-c5cccc(S(=O)(=O)[O-])c5F)c5ccc2[nH]5)C=C4)C=C3)cc1
REMARK SMILES IDX 24 1 23 2 2 3 1 4 3 5 4 6 5 7 6 8 16 9 7 10 15 11 14 12
REMARK SMILES IDX 17 13 18 14 22 15 19 17 21 18 20 19 8 20 9 21 13 22 10 23
REMARK SMILES IDX 12 24 11 25 25 26 26 27 27 28 28 29 29 30 30 31 91 32 31 33
REMARK SMILES IDX 90 34 32 35 33 36 34 37 84 38 35 39 89 40 83 41 85 42 36 43
REMARK SMILES IDX 88 44 82 45 81 46 37 48 69 49 49 50 68 51 50 52 53 53 67 54
REMARK SMILES IDX 86 55 51 56 52 57 66 59 87 60 54 61 38 62 39 63 47 64 40 65
REMARK SMILES IDX 42 66 48 67 41 68 43 69 44 70 45 71 46 72 70 73 71 74 79 75
REMARK SMILES IDX 72 76 74 77 80 78 73 79 75 80 76 81 77 82 78 83 55 84 56 85
REMARK SMILES IDX 64 86 57 87 59 88 65 89 58 90 60 91 61 92 62 93 63 94
REMARK H PARENT 17 16 85 47 53 58
REMARK Flexibility Score: inf
ROOT
ATOM      1  C   UNL A   1      32.466  30.115  26.945  1.00  0.00     0.274 C 
ENDROOT
BRANCH   1   2
ATOM      2  O   UNL A   1      32.886  29.803  25.599  1.00  0.00    -0.462 OA
BRANCH   2   3
ATOM      3  C   UNL A   1      33.677  28.768  25.238  1.00  0.00     0.305 C 
ATOM      4  O   UNL A   1      33.987  27.906  26.059  1.00  0.00    -0.252 OA
BRANCH   3   5
ATOM      5  C   UNL A   1      34.190  28.719  23.827  1.00  0.00     0.123 C 
BRANCH   5   6
ATOM      6  C   UNL A   1      33.544  27.658  22.940  1.00  0.00     0.023 C 
BRANCH   6   7
ATOM      7  C   UNL A   1      32.004  27.616  22.742  1.00  0.00     0.067 C 
ATOM      8  C   UNL A   1      31.334  28.996  22.521  1.00  0.00     0.126 C 
ATOM      9  C   UNL A   1      31.221  26.498  23.525  1.00  0.00     0.190 C 
ATOM     10  N   UNL A   1      29.895  29.061  22.810  1.00  0.00    -0.371 N 
ATOM     11  C   UNL A   1      29.730  26.669  23.255  1.00  0.00     0.087 C 
ATOM     12  C   UNL A   1      29.228  28.047  23.608  1.00  0.00     0.122 C 
BRANCH   9  13
ATOM     13  N   UNL A   1      31.652  26.149  24.896  1.00  0.00    -0.328 N 
ATOM     14  C   UNL A   1      32.447  24.892  24.962  1.00  0.00     0.291 C 
ATOM     15  C   UNL A   1      30.702  26.094  26.021  1.00  0.00     0.291 C 
ATOM     16  H   UNL A   1      32.186  27.004  25.055  1.00  0.00     0.348 HD
ATOM     17  C   UNL A   1      31.597  23.611  25.070  1.00  0.00     0.221 C 
ATOM     18  C   UNL A   1      29.905  24.790  26.206  1.00  0.00     0.221 C 
ATOM     19  O   UNL A   1      30.745  23.636  26.218  1.00  0.00    -0.370 OA
ENDBRANCH   9  13
BRANCH  10  20
ATOM     20  C   UNL A   1      29.183  30.237  22.563  1.00  0.00     0.040 A 
ATOM     21  C   UNL A   1      28.608  30.505  21.311  1.00  0.00     0.046 A 
ATOM     22  C   UNL A   1      29.078  31.241  23.526  1.00  0.00     0.046 A 
ATOM     23  C   UNL A   1      28.015  31.737  21.071  1.00  0.00     0.113 A 
ATOM     24  C   UNL A   1      28.476  32.448  23.192  1.00  0.00     0.113 A 
ATOM     25  N   UNL A   1      27.946  32.723  21.983  1.00  0.00    -0.265 NA
ENDBRANCH  10  20
ENDBRANCH   6   7
ENDBRANCH   5   6
ENDBRANCH   3   5
ENDBRANCH   2   3
ENDBRANCH   1   2
BRANCH   1  26
ATOM     26  C   UNL A   1      32.316  31.628  27.089  1.00  0.00     0.275 C 
BRANCH  26  27
ATOM     27  O   UNL A   1      33.600  32.161  27.423  1.00  0.00    -0.458 OA
BRANCH  27  28
ATOM     28  C   UNL A   1      33.496  33.375  28.027  1.00  0.00     0.338 C 
ATOM     29  O   UNL A   1      32.631  34.194  27.812  1.00  0.00    -0.246 OA
BRANCH  28  30
ATOM     30  C   UNL A   1      34.479  33.435  29.141  1.00  0.00     0.060 A 
ATOM     31  C   UNL A   1      35.757  33.929  28.853  1.00  0.00     0.016 A 
ATOM     32  C   UNL A   1      34.156  33.028  30.444  1.00  0.00     0.016 A 
ATOM     33  C   UNL A   1      36.757  33.864  29.816  1.00  0.00     0.010 A 
ATOM     34  C   UNL A   1      35.153  32.975  31.416  1.00  0.00     0.010 A 
ATOM     35  C   UNL A   1      36.473  33.294  31.063  1.00  0.00    -0.014 A 
BRANCH  35  36
ATOM     36  C   UNL A   1      37.580  32.673  31.820  1.00  0.00     0.031 A 
ATOM     37  C   UNL A   1      38.290  31.516  31.159  1.00  0.00     0.074 A 
ATOM     38  C   UNL A   1      37.950  33.117  33.031  1.00  0.00     0.049 A 
ATOM     39  N   UNL A   1      39.308  30.814  31.579  1.00  0.00    -0.248 NA
ATOM     40  C   UNL A   1      37.773  31.086  29.846  1.00  0.00     0.031 C 
ATOM     41  C   UNL A   1      37.324  34.217  33.759  1.00  0.00     0.029 A 
ATOM     42  N   UNL A   1      38.942  32.676  33.866  1.00  0.00    -0.354 N 
ATOM     43  C   UNL A   1      39.532  29.853  30.599  1.00  0.00     0.074 A 
ATOM     44  C   UNL A   1      38.531  30.036  29.576  1.00  0.00     0.031 C 
ATOM     45  C   UNL A   1      37.940  34.355  34.948  1.00  0.00     0.029 A 
ATOM     46  C   UNL A   1      38.997  33.351  35.060  1.00  0.00     0.049 A 
ATOM     47  H   UNL A   1      39.558  31.943  33.632  1.00  0.00     0.167 HD
ATOM     48  C   UNL A   1      40.503  28.915  30.538  1.00  0.00     0.034 A 
ATOM     49  C   UNL A   1      39.814  33.171  36.116  1.00  0.00     0.034 A 
ATOM     50  C   UNL A   1      41.511  28.758  31.545  1.00  0.00     0.049 A 
ATOM     51  C   UNL A   1      40.897  32.124  36.022  1.00  0.00     0.074 A 
ATOM     52  C   UNL A   1      42.576  27.880  31.570  1.00  0.00     0.029 A 
ATOM     53  N   UNL A   1      41.568  29.501  32.715  1.00  0.00    -0.354 N 
ATOM     54  N   UNL A   1      41.183  31.315  35.028  1.00  0.00    -0.248 NA
ATOM     55  C   UNL A   1      41.798  31.996  37.175  1.00  0.00     0.031 C 
ATOM     56  C   UNL A   1      43.267  28.077  32.771  1.00  0.00     0.029 A 
ATOM     57  C   UNL A   1      42.645  29.096  33.478  1.00  0.00     0.049 A 
ATOM     58  H   UNL A   1      40.934  30.212  32.965  1.00  0.00     0.167 HD
ATOM     59  C   UNL A   1      42.321  30.617  35.417  1.00  0.00     0.074 A 
ATOM     60  C   UNL A   1      42.678  31.108  36.733  1.00  0.00     0.031 C 
ATOM     61  C   UNL A   1      43.006  29.648  34.758  1.00  0.00     0.034 A 
BRANCH  48  62
ATOM     62  C   UNL A   1      40.523  28.013  29.333  1.00  0.00     0.023 A 
ATOM     63  C   UNL A   1      39.659  26.900  29.276  1.00  0.00     0.012 A 
ATOM     64  C   UNL A   1      41.386  28.273  28.252  1.00  0.00     0.148 A 
ATOM     65  C   UNL A   1      39.678  26.040  28.179  1.00  0.00     0.002 A 
ATOM     66  C   UNL A   1      41.369  27.436  27.142  1.00  0.00     0.091 A 
ATOM     67  F   UNL A   1      42.225  29.314  28.339  1.00  0.00    -0.205 F 
ATOM     68  C   UNL A   1      40.524  26.313  27.109  1.00  0.00     0.022 A 
BRANCH  66  69
ATOM     69  S   UNL A   1      42.372  27.746  25.685  1.00  0.00     0.127 S 
ATOM     70  O   UNL A   1      43.717  27.793  26.257  1.00  0.00    -0.237 OA
ATOM     71  O   UNL A   1      42.099  26.564  24.866  1.00  0.00    -0.237 OA
ATOM     72  O   UNL A   1      41.886  28.997  25.123  1.00  0.00    -0.744 OA
ENDBRANCH  66  69
ENDBRANCH  48  62
BRANCH  49  73
ATOM     73  C   UNL A   1      39.693  34.050  37.312  1.00  0.00     0.023 A 
ATOM     74  C   UNL A   1      40.219  35.356  37.268  1.00  0.00     0.012 A 
ATOM     75  C   UNL A   1      39.038  33.612  38.481  1.00  0.00     0.148 A 
ATOM     76  C   UNL A   1      40.122  36.200  38.376  1.00  0.00     0.002 A 
ATOM     77  C   UNL A   1      38.900  34.477  39.562  1.00  0.00     0.091 A 
ATOM     78  F   UNL A   1      38.559  32.361  38.510  1.00  0.00    -0.205 F 
ATOM     79  C   UNL A   1      39.455  35.765  39.517  1.00  0.00     0.022 A 
BRANCH  77  80
ATOM     80  S   UNL A   1      37.948  34.044  41.023  1.00  0.00     0.127 S 
ATOM     81  O   UNL A   1      38.914  33.264  41.791  1.00  0.00    -0.237 OA
ATOM     82  O   UNL A   1      37.635  35.361  41.582  1.00  0.00    -0.237 OA
ATOM     83  O   UNL A   1      36.788  33.312  40.532  1.00  0.00    -0.744 OA
ENDBRANCH  77  80
ENDBRANCH  49  73
BRANCH  61  84
ATOM     84  C   UNL A   1      44.233  29.085  35.424  1.00  0.00     0.023 A 
ATOM     85  C   UNL A   1      45.490  29.675  35.191  1.00  0.00     0.012 A 
ATOM     86  C   UNL A   1      44.123  28.026  36.347  1.00  0.00     0.148 A 
ATOM     87  C   UNL A   1      46.626  29.195  35.839  1.00  0.00     0.002 A 
ATOM     88  C   UNL A   1      45.252  27.586  37.026  1.00  0.00     0.091 A 
ATOM     89  F   UNL A   1      42.920  27.467  36.542  1.00  0.00    -0.205 F 
ATOM     90  C   UNL A   1      46.505  28.161  36.765  1.00  0.00     0.022 A 
BRANCH  88  91
ATOM     91  S   UNL A   1      45.163  26.333  38.310  1.00  0.00     0.127 S 
ATOM     92  O   UNL A   1      45.176  25.101  37.524  1.00  0.00    -0.237 OA
ATOM     93  O   UNL A   1      46.386  26.579  39.076  1.00  0.00    -0.237 OA
ATOM     94  O   UNL A   1      43.933  26.603  39.042  1.00  0.00    -0.744 OA
ENDBRANCH  88  91
ENDBRANCH  61  84
ENDBRANCH  35  36
ENDBRANCH  28  30
ENDBRANCH  27  28
ENDBRANCH  26  27
ENDBRANCH   1  26
TORSDOF 18
ENDMDL
