MODEL 1
REMARK VINA RESULT:     -10.9      0.000      0.000
REMARK SMILES CCCC[C@@H](C(=O)OCCOC(=O)c1ccc(-c2c3nc(c(-c4cccc(S(=O)(=O)[O-])c4F)c4ccc([nH]4)c(-c4cccc(S(=O)(=O)[O-])c4F)c4nc(c(-c5cccc(S(=O)(=O)[O-])c5F)c5ccc2[nH]5)C=C4)C=C3)cc1)[C@@]1(O)CCC[C@H](CC)C1
REMARK SMILES IDX 9 1 8 2 6 3 7 4 5 5 4 6 3 7 2 8 1 9 77 10 79 11 85 12 80 13
REMARK SMILES IDX 82 14 81 15 78 16 83 18 84 19 10 20 11 21 12 22 13 23 14 24
REMARK SMILES IDX 15 25 76 26 16 27 75 28 17 29 18 30 19 31 69 32 20 33 74 34
REMARK SMILES IDX 68 35 70 36 21 37 73 38 67 39 66 40 22 42 54 43 34 44 53 45
REMARK SMILES IDX 35 46 38 47 52 48 71 49 36 50 37 51 51 53 72 54 39 55 23 56
REMARK SMILES IDX 24 57 32 58 25 59 27 60 33 61 26 62 28 63 29 64 30 65 31 66
REMARK SMILES IDX 55 67 56 68 64 69 57 70 59 71 65 72 58 73 60 74 61 75 62 76
REMARK SMILES IDX 63 77 40 78 41 79 49 80 42 81 44 82 50 83 43 84 45 85 46 86
REMARK SMILES IDX 47 87 48 88
REMARK H PARENT 78 17 70 41 38 52
REMARK Flexibility Score: inf
ROOT
ATOM      1  C   UNL A   1      34.596  21.625  24.161  1.00  0.00     0.274 C 
ENDROOT
BRANCH   1   2
ATOM      2  O   UNL A   1      34.884  22.868  23.482  1.00  0.00    -0.462 OA
BRANCH   2   3
ATOM      3  C   UNL A   1      33.855  23.423  22.792  1.00  0.00     0.311 C 
ATOM      4  O   UNL A   1      33.715  23.284  21.582  1.00  0.00    -0.252 OA
BRANCH   3   5
ATOM      5  C   UNL A   1      32.963  24.347  23.645  1.00  0.00     0.131 C 
BRANCH   5   6
ATOM      6  C   UNL A   1      31.564  23.757  23.933  1.00  0.00     0.018 C 
BRANCH   6   7
ATOM      7  C   UNL A   1      31.021  23.897  25.366  1.00  0.00     0.001 C 
BRANCH   7   8
ATOM      8  C   UNL A   1      32.052  24.224  26.446  1.00  0.00    -0.003 C 
ATOM      9  C   UNL A   1      32.579  22.992  27.161  1.00  0.00     0.004 C 
ENDBRANCH   7   8
ENDBRANCH   6   7
ENDBRANCH   5   6
BRANCH   5  10
ATOM     10  C   UNL A   1      32.875  25.803  23.022  1.00  0.00     0.078 C 
ATOM     11  C   UNL A   1      31.551  26.076  22.284  1.00  0.00     0.036 C 
ATOM     12  C   UNL A   1      33.268  26.909  24.043  1.00  0.00     0.039 C 
ATOM     13  C   UNL A   1      30.505  26.881  23.034  1.00  0.00     0.003 C 
ATOM     14  C   UNL A   1      32.186  27.860  24.593  1.00  0.00    -0.009 C 
ATOM     15  C   UNL A   1      31.109  28.171  23.557  1.00  0.00     0.004 C 
BRANCH  10  16
ATOM     16  O   UNL A   1      33.935  25.947  22.044  1.00  0.00    -0.389 OA
ATOM     17  H   UNL A   1      33.750  25.377  21.281  1.00  0.00     0.211 HD
ENDBRANCH  10  16
BRANCH  14  18
ATOM     18  C   UNL A   1      32.883  29.135  25.126  1.00  0.00     0.000 C 
ATOM     19  C   UNL A   1      31.957  30.183  25.723  1.00  0.00     0.004 C 
ENDBRANCH  14  18
ENDBRANCH   5  10
ENDBRANCH   3   5
ENDBRANCH   2   3
ENDBRANCH   1   2
BRANCH   1  20
ATOM     20  C   UNL A   1      35.671  21.291  25.193  1.00  0.00     0.275 C 
BRANCH  20  21
ATOM     21  O   UNL A   1      36.956  21.702  24.699  1.00  0.00    -0.458 OA
BRANCH  21  22
ATOM     22  C   UNL A   1      38.034  21.240  25.376  1.00  0.00     0.338 C 
ATOM     23  O   UNL A   1      38.461  20.098  25.367  1.00  0.00    -0.246 OA
BRANCH  22  24
ATOM     24  C   UNL A   1      38.682  22.344  26.122  1.00  0.00     0.060 A 
ATOM     25  C   UNL A   1      38.163  23.634  26.076  1.00  0.00     0.016 A 
ATOM     26  C   UNL A   1      39.897  22.123  26.771  1.00  0.00     0.016 A 
ATOM     27  C   UNL A   1      38.919  24.712  26.538  1.00  0.00     0.010 A 
ATOM     28  C   UNL A   1      40.592  23.198  27.345  1.00  0.00     0.010 A 
ATOM     29  C   UNL A   1      40.147  24.523  27.182  1.00  0.00    -0.014 A 
BRANCH  29  30
ATOM     30  C   UNL A   1      40.988  25.690  27.605  1.00  0.00     0.031 A 
ATOM     31  C   UNL A   1      40.413  26.747  28.523  1.00  0.00     0.074 A 
ATOM     32  C   UNL A   1      42.274  25.824  27.214  1.00  0.00     0.049 A 
ATOM     33  N   UNL A   1      40.855  27.952  28.777  1.00  0.00    -0.248 NA
ATOM     34  C   UNL A   1      39.162  26.415  29.227  1.00  0.00     0.031 C 
ATOM     35  C   UNL A   1      43.015  24.882  26.374  1.00  0.00     0.029 A 
ATOM     36  N   UNL A   1      43.197  26.810  27.484  1.00  0.00    -0.354 N 
ATOM     37  C   UNL A   1      39.878  28.561  29.556  1.00  0.00     0.074 A 
ATOM     38  C   UNL A   1      38.838  27.579  29.773  1.00  0.00     0.031 C 
ATOM     39  C   UNL A   1      44.287  25.290  26.262  1.00  0.00     0.029 A 
ATOM     40  C   UNL A   1      44.427  26.591  26.905  1.00  0.00     0.049 A 
ATOM     41  H   UNL A   1      42.996  27.598  28.039  1.00  0.00     0.167 HD
ATOM     42  C   UNL A   1      39.849  29.824  30.048  1.00  0.00     0.034 A 
ATOM     43  C   UNL A   1      45.531  27.362  26.840  1.00  0.00     0.034 A 
ATOM     44  C   UNL A   1      40.943  30.754  29.956  1.00  0.00     0.049 A 
ATOM     45  C   UNL A   1      45.501  28.739  27.441  1.00  0.00     0.074 A 
ATOM     46  C   UNL A   1      41.013  32.050  30.435  1.00  0.00     0.029 A 
ATOM     47  N   UNL A   1      42.175  30.471  29.390  1.00  0.00    -0.354 N 
ATOM     48  N   UNL A   1      44.543  29.323  28.117  1.00  0.00    -0.248 NA
ATOM     49  C   UNL A   1      46.700  29.571  27.254  1.00  0.00     0.031 C 
ATOM     50  C   UNL A   1      42.294  32.547  30.171  1.00  0.00     0.029 A 
ATOM     51  C   UNL A   1      43.020  31.560  29.525  1.00  0.00     0.049 A 
ATOM     52  H   UNL A   1      42.416  29.621  28.955  1.00  0.00     0.167 HD
ATOM     53  C   UNL A   1      45.017  30.591  28.430  1.00  0.00     0.074 A 
ATOM     54  C   UNL A   1      46.366  30.675  27.911  1.00  0.00     0.031 C 
ATOM     55  C   UNL A   1      44.378  31.611  29.053  1.00  0.00     0.034 A 
BRANCH  42  56
ATOM     56  C   UNL A   1      38.597  30.280  30.748  1.00  0.00     0.023 A 
ATOM     57  C   UNL A   1      38.446  30.071  32.132  1.00  0.00     0.012 A 
ATOM     58  C   UNL A   1      37.601  30.985  30.041  1.00  0.00     0.148 A 
ATOM     59  C   UNL A   1      37.312  30.536  32.798  1.00  0.00     0.002 A 
ATOM     60  C   UNL A   1      36.493  31.480  30.720  1.00  0.00     0.091 A 
ATOM     61  F   UNL A   1      37.750  31.151  28.719  1.00  0.00    -0.205 F 
ATOM     62  C   UNL A   1      36.343  31.250  32.096  1.00  0.00     0.022 A 
BRANCH  60  63
ATOM     63  S   UNL A   1      35.238  32.477  29.906  1.00  0.00     0.127 S 
ATOM     64  O   UNL A   1      36.028  33.602  29.411  1.00  0.00    -0.237 OA
ATOM     65  O   UNL A   1      34.746  31.574  28.865  1.00  0.00    -0.237 OA
ATOM     66  O   UNL A   1      34.259  32.797  30.936  1.00  0.00    -0.744 OA
ENDBRANCH  60  63
ENDBRANCH  42  56
BRANCH  43  67
ATOM     67  C   UNL A   1      46.757  26.847  26.162  1.00  0.00     0.023 A 
ATOM     68  C   UNL A   1      46.917  27.051  24.778  1.00  0.00     0.012 A 
ATOM     69  C   UNL A   1      47.790  26.220  26.885  1.00  0.00     0.148 A 
ATOM     70  C   UNL A   1      48.082  26.637  24.129  1.00  0.00     0.002 A 
ATOM     71  C   UNL A   1      48.978  25.881  26.246  1.00  0.00     0.091 A 
ATOM     72  F   UNL A   1      47.608  25.991  28.193  1.00  0.00    -0.205 F 
ATOM     73  C   UNL A   1      49.121  26.072  24.865  1.00  0.00     0.022 A 
BRANCH  71  74
ATOM     74  S   UNL A   1      50.410  25.330  27.182  1.00  0.00     0.127 S 
ATOM     75  O   UNL A   1      50.671  26.479  28.044  1.00  0.00    -0.237 OA
ATOM     76  O   UNL A   1      49.898  24.145  27.872  1.00  0.00    -0.237 OA
ATOM     77  O   UNL A   1      51.421  25.034  26.175  1.00  0.00    -0.744 OA
ENDBRANCH  71  74
ENDBRANCH  43  67
BRANCH  55  78
ATOM     78  C   UNL A   1      45.127  32.904  29.212  1.00  0.00     0.023 A 
ATOM     79  C   UNL A   1      45.907  33.109  30.368  1.00  0.00     0.012 A 
ATOM     80  C   UNL A   1      45.114  33.883  28.201  1.00  0.00     0.148 A 
ATOM     81  C   UNL A   1      46.644  34.281  30.527  1.00  0.00     0.002 A 
ATOM     82  C   UNL A   1      45.880  35.035  28.351  1.00  0.00     0.091 A 
ATOM     83  F   UNL A   1      44.349  33.679  27.120  1.00  0.00    -0.205 F 
ATOM     84  C   UNL A   1      46.638  35.239  29.515  1.00  0.00     0.022 A 
BRANCH  82  85
ATOM     85  S   UNL A   1      45.987  36.282  27.063  1.00  0.00     0.127 S 
ATOM     86  O   UNL A   1      46.201  35.464  25.871  1.00  0.00    -0.237 OA
ATOM     87  O   UNL A   1      44.673  36.925  27.134  1.00  0.00    -0.237 OA
ATOM     88  O   UNL A   1      47.097  37.147  27.443  1.00  0.00    -0.744 OA
ENDBRANCH  82  85
ENDBRANCH  55  78
ENDBRANCH  29  30
ENDBRANCH  22  24
ENDBRANCH  21  22
ENDBRANCH  20  21
ENDBRANCH   1  20
TORSDOF 20
ENDMDL
MODEL 2
REMARK VINA RESULT:     -10.7      4.764      9.896
REMARK SMILES CCCC[C@@H](C(=O)OCCOC(=O)c1ccc(-c2c3nc(c(-c4cccc(S(=O)(=O)[O-])c4F)c4ccc([nH]4)c(-c4cccc(S(=O)(=O)[O-])c4F)c4nc(c(-c5cccc(S(=O)(=O)[O-])c5F)c5ccc2[nH]5)C=C4)C=C3)cc1)[C@@]1(O)CCC[C@H](CC)C1
REMARK SMILES IDX 9 1 8 2 6 3 7 4 5 5 4 6 3 7 2 8 1 9 77 10 79 11 85 12 80 13
REMARK SMILES IDX 82 14 81 15 78 16 83 18 84 19 10 20 11 21 12 22 13 23 14 24
REMARK SMILES IDX 15 25 76 26 16 27 75 28 17 29 18 30 19 31 69 32 20 33 74 34
REMARK SMILES IDX 68 35 70 36 21 37 73 38 67 39 66 40 22 42 54 43 34 44 53 45
REMARK SMILES IDX 35 46 38 47 52 48 71 49 36 50 37 51 51 53 72 54 39 55 23 56
REMARK SMILES IDX 24 57 32 58 25 59 27 60 33 61 26 62 28 63 29 64 30 65 31 66
REMARK SMILES IDX 55 67 56 68 64 69 57 70 59 71 65 72 58 73 60 74 61 75 62 76
REMARK SMILES IDX 63 77 40 78 41 79 49 80 42 81 44 82 50 83 43 84 45 85 46 86
REMARK SMILES IDX 47 87 48 88
REMARK H PARENT 78 17 70 41 38 52
REMARK Flexibility Score: inf
ROOT
ATOM      1  C   UNL A   1      32.657  28.936  24.637  1.00  0.00     0.274 C 
ENDROOT
BRANCH   1   2
ATOM      2  O   UNL A   1      32.244  27.596  24.984  1.00  0.00    -0.462 OA
BRANCH   2   3
ATOM      3  C   UNL A   1      32.308  26.675  23.988  1.00  0.00     0.311 C 
ATOM      4  O   UNL A   1      33.216  26.650  23.164  1.00  0.00    -0.252 OA
BRANCH   3   5
ATOM      5  C   UNL A   1      31.072  25.757  23.910  1.00  0.00     0.131 C 
BRANCH   5   6
ATOM      6  C   UNL A   1      29.811  26.368  24.563  1.00  0.00     0.018 C 
BRANCH   6   7
ATOM      7  C   UNL A   1      28.772  27.008  23.626  1.00  0.00     0.001 C 
BRANCH   7   8
ATOM      8  C   UNL A   1      29.180  28.327  22.970  1.00  0.00    -0.003 C 
ATOM      9  C   UNL A   1      28.128  29.414  23.110  1.00  0.00     0.004 C 
ENDBRANCH   7   8
ENDBRANCH   6   7
ENDBRANCH   5   6
BRANCH   5  10
ATOM     10  C   UNL A   1      31.389  24.310  24.476  1.00  0.00     0.078 C 
ATOM     11  C   UNL A   1      31.435  23.221  23.387  1.00  0.00     0.036 C 
ATOM     12  C   UNL A   1      32.620  24.302  25.428  1.00  0.00     0.039 C 
ATOM     13  C   UNL A   1      32.811  22.787  22.914  1.00  0.00     0.003 C 
ATOM     14  C   UNL A   1      33.930  23.627  24.977  1.00  0.00    -0.009 C 
ATOM     15  C   UNL A   1      33.679  22.405  24.098  1.00  0.00     0.004 C 
BRANCH  10  16
ATOM     16  O   UNL A   1      30.332  23.936  25.395  1.00  0.00    -0.389 OA
ATOM     17  H   UNL A   1      30.536  23.071  25.786  1.00  0.00     0.211 HD
ENDBRANCH  10  16
BRANCH  14  18
ATOM     18  C   UNL A   1      34.765  23.291  26.236  1.00  0.00     0.000 C 
ATOM     19  C   UNL A   1      36.219  22.934  25.978  1.00  0.00     0.004 C 
ENDBRANCH  14  18
ENDBRANCH   5  10
ENDBRANCH   3   5
ENDBRANCH   2   3
ENDBRANCH   1   2
BRANCH   1  20
ATOM     20  C   UNL A   1      31.755  29.983  25.287  1.00  0.00     0.275 C 
BRANCH  20  21
ATOM     21  O   UNL A   1      32.101  30.122  26.674  1.00  0.00    -0.458 OA
BRANCH  21  22
ATOM     22  C   UNL A   1      32.718  31.275  27.025  1.00  0.00     0.338 C 
ATOM     23  O   UNL A   1      32.226  32.391  27.023  1.00  0.00    -0.246 OA
BRANCH  22  24
ATOM     24  C   UNL A   1      34.104  31.000  27.472  1.00  0.00     0.060 A 
ATOM     25  C   UNL A   1      34.529  29.695  27.703  1.00  0.00     0.016 A 
ATOM     26  C   UNL A   1      34.953  32.059  27.793  1.00  0.00     0.016 A 
ATOM     27  C   UNL A   1      35.724  29.456  28.383  1.00  0.00     0.010 A 
ATOM     28  C   UNL A   1      36.209  31.803  28.363  1.00  0.00     0.010 A 
ATOM     29  C   UNL A   1      36.591  30.500  28.730  1.00  0.00    -0.014 A 
BRANCH  29  30
ATOM     30  C   UNL A   1      37.834  30.242  29.529  1.00  0.00     0.031 A 
ATOM     31  C   UNL A   1      38.968  29.440  28.930  1.00  0.00     0.074 A 
ATOM     32  C   UNL A   1      37.994  30.731  30.778  1.00  0.00     0.049 A 
ATOM     33  N   UNL A   1      39.984  28.871  29.526  1.00  0.00    -0.248 NA
ATOM     34  C   UNL A   1      38.944  29.228  27.472  1.00  0.00     0.031 C 
ATOM     35  C   UNL A   1      37.033  31.566  31.500  1.00  0.00     0.029 A 
ATOM     36  N   UNL A   1      39.040  30.602  31.665  1.00  0.00    -0.354 N 
ATOM     37  C   UNL A   1      40.638  28.132  28.547  1.00  0.00     0.074 A 
ATOM     38  C   UNL A   1      39.932  28.360  27.305  1.00  0.00     0.031 C 
ATOM     39  C   UNL A   1      37.560  31.936  32.675  1.00  0.00     0.029 A 
ATOM     40  C   UNL A   1      38.838  31.260  32.858  1.00  0.00     0.049 A 
ATOM     41  H   UNL A   1      39.856  30.088  31.465  1.00  0.00     0.167 HD
ATOM     42  C   UNL A   1      41.728  27.336  28.670  1.00  0.00     0.034 A 
ATOM     43  C   UNL A   1      39.559  31.279  33.997  1.00  0.00     0.034 A 
ATOM     44  C   UNL A   1      42.517  27.222  29.868  1.00  0.00     0.049 A 
ATOM     45  C   UNL A   1      40.798  30.435  34.096  1.00  0.00     0.074 A 
ATOM     46  C   UNL A   1      43.647  26.452  30.084  1.00  0.00     0.029 A 
ATOM     47  N   UNL A   1      42.289  27.933  31.035  1.00  0.00    -0.354 N 
ATOM     48  N   UNL A   1      41.364  29.690  33.180  1.00  0.00    -0.248 NA
ATOM     49  C   UNL A   1      41.488  30.420  35.395  1.00  0.00     0.031 C 
ATOM     50  C   UNL A   1      44.110  26.709  31.380  1.00  0.00     0.029 A 
ATOM     51  C   UNL A   1      43.268  27.637  31.969  1.00  0.00     0.049 A 
ATOM     52  H   UNL A   1      41.542  28.558  31.180  1.00  0.00     0.167 HD
ATOM     53  C   UNL A   1      42.470  29.112  33.790  1.00  0.00     0.074 A 
ATOM     54  C   UNL A   1      42.524  29.630  35.141  1.00  0.00     0.031 C 
ATOM     55  C   UNL A   1      43.341  28.201  33.290  1.00  0.00     0.034 A 
BRANCH  42  56
ATOM     56  C   UNL A   1      42.153  26.530  27.471  1.00  0.00     0.023 A 
ATOM     57  C   UNL A   1      42.936  27.123  26.463  1.00  0.00     0.012 A 
ATOM     58  C   UNL A   1      41.833  25.160  27.385  1.00  0.00     0.148 A 
ATOM     59  C   UNL A   1      43.376  26.369  25.375  1.00  0.00     0.002 A 
ATOM     60  C   UNL A   1      42.308  24.406  26.317  1.00  0.00     0.091 A 
ATOM     61  F   UNL A   1      41.064  24.619  28.341  1.00  0.00    -0.205 F 
ATOM     62  C   UNL A   1      43.074  25.011  25.308  1.00  0.00     0.022 A 
BRANCH  60  63
ATOM     63  S   UNL A   1      42.031  22.634  26.196  1.00  0.00     0.127 S 
ATOM     64  O   UNL A   1      40.573  22.565  26.139  1.00  0.00    -0.237 OA
ATOM     65  O   UNL A   1      42.706  22.296  24.943  1.00  0.00    -0.237 OA
ATOM     66  O   UNL A   1      42.646  22.057  27.384  1.00  0.00    -0.744 OA
ENDBRANCH  60  63
ENDBRANCH  42  56
BRANCH  43  67
ATOM     67  C   UNL A   1      39.111  32.123  35.144  1.00  0.00     0.023 A 
ATOM     68  C   UNL A   1      38.264  31.565  36.122  1.00  0.00     0.012 A 
ATOM     69  C   UNL A   1      39.567  33.444  35.309  1.00  0.00     0.148 A 
ATOM     70  C   UNL A   1      37.880  32.310  37.238  1.00  0.00     0.002 A 
ATOM     71  C   UNL A   1      39.244  34.152  36.462  1.00  0.00     0.091 A 
ATOM     72  F   UNL A   1      40.336  33.981  34.351  1.00  0.00    -0.205 F 
ATOM     73  C   UNL A   1      38.387  33.595  37.420  1.00  0.00     0.022 A 
BRANCH  71  74
ATOM     74  S   UNL A   1      40.022  35.729  36.831  1.00  0.00     0.127 S 
ATOM     75  O   UNL A   1      41.438  35.376  36.841  1.00  0.00    -0.237 OA
ATOM     76  O   UNL A   1      39.602  36.560  35.700  1.00  0.00    -0.237 OA
ATOM     77  O   UNL A   1      39.448  36.139  38.107  1.00  0.00    -0.744 OA
ENDBRANCH  71  74
ENDBRANCH  43  67
BRANCH  55  78
ATOM     78  C   UNL A   1      44.426  27.706  34.205  1.00  0.00     0.023 A 
ATOM     79  C   UNL A   1      45.637  28.421  34.283  1.00  0.00     0.012 A 
ATOM     80  C   UNL A   1      44.230  26.581  35.027  1.00  0.00     0.148 A 
ATOM     81  C   UNL A   1      46.648  28.009  35.151  1.00  0.00     0.002 A 
ATOM     82  C   UNL A   1      45.229  26.197  35.915  1.00  0.00     0.091 A 
ATOM     83  F   UNL A   1      43.079  25.901  34.921  1.00  0.00    -0.205 F 
ATOM     84  C   UNL A   1      46.440  26.904  35.973  1.00  0.00     0.022 A 
BRANCH  82  85
ATOM     85  S   UNL A   1      45.012  24.830  37.061  1.00  0.00     0.127 S 
ATOM     86  O   UNL A   1      46.290  24.829  37.770  1.00  0.00    -0.237 OA
ATOM     87  O   UNL A   1      43.870  25.269  37.865  1.00  0.00    -0.237 OA
ATOM     88  O   UNL A   1      44.748  23.660  36.234  1.00  0.00    -0.744 OA
ENDBRANCH  82  85
ENDBRANCH  55  78
ENDBRANCH  29  30
ENDBRANCH  22  24
ENDBRANCH  21  22
ENDBRANCH  20  21
ENDBRANCH   1  20
TORSDOF 20
ENDMDL
MODEL 3
REMARK VINA RESULT:     -10.7      4.623      9.552
REMARK SMILES CCCC[C@@H](C(=O)OCCOC(=O)c1ccc(-c2c3nc(c(-c4cccc(S(=O)(=O)[O-])c4F)c4ccc([nH]4)c(-c4cccc(S(=O)(=O)[O-])c4F)c4nc(c(-c5cccc(S(=O)(=O)[O-])c5F)c5ccc2[nH]5)C=C4)C=C3)cc1)[C@@]1(O)CCC[C@H](CC)C1
REMARK SMILES IDX 9 1 8 2 6 3 7 4 5 5 4 6 3 7 2 8 1 9 77 10 79 11 85 12 80 13
REMARK SMILES IDX 82 14 81 15 78 16 83 18 84 19 10 20 11 21 12 22 13 23 14 24
REMARK SMILES IDX 15 25 76 26 16 27 75 28 17 29 18 30 19 31 69 32 20 33 74 34
REMARK SMILES IDX 68 35 70 36 21 37 73 38 67 39 66 40 22 42 54 43 34 44 53 45
REMARK SMILES IDX 35 46 38 47 52 48 71 49 36 50 37 51 51 53 72 54 39 55 23 56
REMARK SMILES IDX 24 57 32 58 25 59 27 60 33 61 26 62 28 63 29 64 30 65 31 66
REMARK SMILES IDX 55 67 56 68 64 69 57 70 59 71 65 72 58 73 60 74 61 75 62 76
REMARK SMILES IDX 63 77 40 78 41 79 49 80 42 81 44 82 50 83 43 84 45 85 46 86
REMARK SMILES IDX 47 87 48 88
REMARK H PARENT 78 17 70 41 38 52
REMARK Flexibility Score: inf
ROOT
ATOM      1  C   UNL A   1      32.429  28.464  24.940  1.00  0.00     0.274 C 
ENDROOT
BRANCH   1   2
ATOM      2  O   UNL A   1      32.838  27.526  25.961  1.00  0.00    -0.462 OA
BRANCH   2   3
ATOM      3  C   UNL A   1      32.056  26.427  26.109  1.00  0.00     0.311 C 
ATOM      4  O   UNL A   1      30.944  26.467  26.624  1.00  0.00    -0.252 OA
BRANCH   3   5
ATOM      5  C   UNL A   1      32.749  25.113  25.697  1.00  0.00     0.131 C 
BRANCH   5   6
ATOM      6  C   UNL A   1      34.232  25.297  25.301  1.00  0.00     0.018 C 
BRANCH   6   7
ATOM      7  C   UNL A   1      35.200  24.150  25.640  1.00  0.00     0.001 C 
BRANCH   7   8
ATOM      8  C   UNL A   1      36.050  23.626  24.484  1.00  0.00    -0.003 C 
ATOM      9  C   UNL A   1      36.327  22.134  24.574  1.00  0.00     0.004 C 
ENDBRANCH   7   8
ENDBRANCH   6   7
ENDBRANCH   5   6
BRANCH   5  10
ATOM     10  C   UNL A   1      31.927  24.352  24.574  1.00  0.00     0.078 C 
ATOM     11  C   UNL A   1      32.148  24.921  23.160  1.00  0.00     0.036 C 
ATOM     12  C   UNL A   1      32.088  22.807  24.665  1.00  0.00     0.039 C 
ATOM     13  C   UNL A   1      33.109  24.161  22.261  1.00  0.00     0.003 C 
ATOM     14  C   UNL A   1      32.883  22.057  23.579  1.00  0.00    -0.009 C 
ATOM     15  C   UNL A   1      32.725  22.694  22.201  1.00  0.00     0.004 C 
BRANCH  10  16
ATOM     16  O   UNL A   1      30.514  24.496  24.864  1.00  0.00    -0.389 OA
ATOM     17  H   UNL A   1      30.345  24.232  25.782  1.00  0.00     0.211 HD
ENDBRANCH  10  16
BRANCH  14  18
ATOM     18  C   UNL A   1      32.452  20.570  23.598  1.00  0.00     0.000 C 
ATOM     19  C   UNL A   1      32.583  19.871  24.941  1.00  0.00     0.004 C 
ENDBRANCH  14  18
ENDBRANCH   5  10
ENDBRANCH   3   5
ENDBRANCH   2   3
ENDBRANCH   1   2
BRANCH   1  20
ATOM     20  C   UNL A   1      31.650  29.634  25.538  1.00  0.00     0.275 C 
BRANCH  20  21
ATOM     21  O   UNL A   1      32.123  29.897  26.868  1.00  0.00    -0.458 OA
BRANCH  21  22
ATOM     22  C   UNL A   1      32.751  31.082  27.058  1.00  0.00     0.338 C 
ATOM     23  O   UNL A   1      32.260  32.191  26.933  1.00  0.00    -0.246 OA
BRANCH  22  24
ATOM     24  C   UNL A   1      34.149  30.857  27.495  1.00  0.00     0.060 A 
ATOM     25  C   UNL A   1      34.623  29.568  27.723  1.00  0.00     0.016 A 
ATOM     26  C   UNL A   1      34.961  31.946  27.810  1.00  0.00     0.016 A 
ATOM     27  C   UNL A   1      35.830  29.374  28.396  1.00  0.00     0.010 A 
ATOM     28  C   UNL A   1      36.229  31.736  28.372  1.00  0.00     0.010 A 
ATOM     29  C   UNL A   1      36.661  30.448  28.737  1.00  0.00    -0.014 A 
BRANCH  29  30
ATOM     30  C   UNL A   1      37.917  30.235  29.527  1.00  0.00     0.031 A 
ATOM     31  C   UNL A   1      39.068  29.457  28.929  1.00  0.00     0.074 A 
ATOM     32  C   UNL A   1      38.075  30.746  30.768  1.00  0.00     0.049 A 
ATOM     33  N   UNL A   1      40.105  28.924  29.524  1.00  0.00    -0.248 NA
ATOM     34  C   UNL A   1      39.036  29.223  27.475  1.00  0.00     0.031 C 
ATOM     35  C   UNL A   1      37.099  31.565  31.487  1.00  0.00     0.029 A 
ATOM     36  N   UNL A   1      39.133  30.659  31.647  1.00  0.00    -0.354 N 
ATOM     37  C   UNL A   1      40.770  28.189  28.549  1.00  0.00     0.074 A 
ATOM     38  C   UNL A   1      40.046  28.380  27.311  1.00  0.00     0.031 C 
ATOM     39  C   UNL A   1      37.626  31.967  32.652  1.00  0.00     0.029 A 
ATOM     40  C   UNL A   1      38.923  31.328  32.832  1.00  0.00     0.049 A 
ATOM     41  H   UNL A   1      39.960  30.165  31.446  1.00  0.00     0.167 HD
ATOM     42  C   UNL A   1      41.882  27.425  28.672  1.00  0.00     0.034 A 
ATOM     43  C   UNL A   1      39.654  31.383  33.964  1.00  0.00     0.034 A 
ATOM     44  C   UNL A   1      42.684  27.350  29.865  1.00  0.00     0.049 A 
ATOM     45  C   UNL A   1      40.916  30.575  34.063  1.00  0.00     0.074 A 
ATOM     46  C   UNL A   1      43.837  26.614  30.081  1.00  0.00     0.029 A 
ATOM     47  N   UNL A   1      42.447  28.071  31.024  1.00  0.00    -0.354 N 
ATOM     48  N   UNL A   1      41.494  29.832  33.152  1.00  0.00    -0.248 NA
ATOM     49  C   UNL A   1      41.618  30.597  35.356  1.00  0.00     0.031 C 
ATOM     50  C   UNL A   1      44.305  26.902  31.368  1.00  0.00     0.029 A 
ATOM     51  C   UNL A   1      43.443  27.815  31.952  1.00  0.00     0.049 A 
ATOM     52  H   UNL A   1      41.685  28.677  31.167  1.00  0.00     0.167 HD
ATOM     53  C   UNL A   1      42.621  29.294  33.760  1.00  0.00     0.074 A 
ATOM     54  C   UNL A   1      42.673  29.832  35.103  1.00  0.00     0.031 C 
ATOM     55  C   UNL A   1      43.512  28.399  33.265  1.00  0.00     0.034 A 
BRANCH  42  56
ATOM     56  C   UNL A   1      42.317  26.614  27.481  1.00  0.00     0.023 A 
ATOM     57  C   UNL A   1      43.109  27.203  26.478  1.00  0.00     0.012 A 
ATOM     58  C   UNL A   1      41.999  25.243  27.398  1.00  0.00     0.148 A 
ATOM     59  C   UNL A   1      43.560  26.444  25.397  1.00  0.00     0.002 A 
ATOM     60  C   UNL A   1      42.485  24.485  26.338  1.00  0.00     0.091 A 
ATOM     61  F   UNL A   1      41.222  24.706  28.350  1.00  0.00    -0.205 F 
ATOM     62  C   UNL A   1      43.259  25.085  25.333  1.00  0.00     0.022 A 
BRANCH  60  63
ATOM     63  S   UNL A   1      42.209  22.712  26.223  1.00  0.00     0.127 S 
ATOM     64  O   UNL A   1      40.751  22.636  26.262  1.00  0.00    -0.237 OA
ATOM     65  O   UNL A   1      42.802  22.387  24.925  1.00  0.00    -0.237 OA
ATOM     66  O   UNL A   1      42.904  22.130  27.363  1.00  0.00    -0.744 OA
ENDBRANCH  60  63
ENDBRANCH  42  56
BRANCH  43  67
ATOM     67  C   UNL A   1      39.193  32.230  35.103  1.00  0.00     0.023 A 
ATOM     68  C   UNL A   1      38.332  31.677  36.071  1.00  0.00     0.012 A 
ATOM     69  C   UNL A   1      39.651  33.551  35.272  1.00  0.00     0.148 A 
ATOM     70  C   UNL A   1      37.936  32.426  37.181  1.00  0.00     0.002 A 
ATOM     71  C   UNL A   1      39.315  34.263  36.418  1.00  0.00     0.091 A 
ATOM     72  F   UNL A   1      40.434  34.083  34.322  1.00  0.00    -0.205 F 
ATOM     73  C   UNL A   1      38.444  33.710  37.366  1.00  0.00     0.022 A 
BRANCH  71  74
ATOM     74  S   UNL A   1      40.092  35.838  36.794  1.00  0.00     0.127 S 
ATOM     75  O   UNL A   1      41.505  35.476  36.848  1.00  0.00    -0.237 OA
ATOM     76  O   UNL A   1      39.710  36.660  35.644  1.00  0.00    -0.237 OA
ATOM     77  O   UNL A   1      39.485  36.264  38.049  1.00  0.00    -0.744 OA
ENDBRANCH  71  74
ENDBRANCH  43  67
BRANCH  55  78
ATOM     78  C   UNL A   1      44.619  27.947  34.176  1.00  0.00     0.023 A 
ATOM     79  C   UNL A   1      44.449  26.770  34.931  1.00  0.00     0.012 A 
ATOM     80  C   UNL A   1      45.841  28.642  34.239  1.00  0.00     0.148 A 
ATOM     81  C   UNL A   1      45.472  26.304  35.755  1.00  0.00     0.002 A 
ATOM     82  C   UNL A   1      46.869  28.152  35.036  1.00  0.00     0.091 A 
ATOM     83  F   UNL A   1      45.974  29.772  33.530  1.00  0.00    -0.205 F 
ATOM     84  C   UNL A   1      46.684  26.989  35.800  1.00  0.00     0.022 A 
BRANCH  82  85
ATOM     85  S   UNL A   1      48.487  28.932  35.093  1.00  0.00     0.127 S 
ATOM     86  O   UNL A   1      48.165  30.248  35.641  1.00  0.00    -0.237 OA
ATOM     87  O   UNL A   1      49.228  28.058  36.004  1.00  0.00    -0.237 OA
ATOM     88  O   UNL A   1      48.977  28.922  33.721  1.00  0.00    -0.744 OA
ENDBRANCH  82  85
ENDBRANCH  55  78
ENDBRANCH  29  30
ENDBRANCH  22  24
ENDBRANCH  21  22
ENDBRANCH  20  21
ENDBRANCH   1  20
TORSDOF 20
ENDMDL
