MODEL 1
REMARK VINA RESULT:     -11.3      0.000      0.000
REMARK SMILES C[C@@H]1CC[N@@H+]1[C@@H]1CCC[C@@H]1C(=O)OCCOC(=O)c1ccc(-c2c3nc(c(-c4cccc(S(=O)(=O)[O-])c4F)c4ccc([nH]4)c(-c4cccc(S(=O)(=O)[O-])c4F)c4nc(c(-c5cccc(S(=O)(=O)[O-])c5F)c5ccc2[nH]5)C=C4)C=C3)cc1
REMARK SMILES IDX 15 1 14 2 13 3 11 4 12 5 10 6 6 7 7 8 8 9 9 10 5 11 1 12
REMARK SMILES IDX 2 13 3 14 4 15 16 17 17 18 18 19 19 20 20 21 81 22 21 23
REMARK SMILES IDX 80 24 22 25 23 26 24 27 74 28 25 29 79 30 73 31 75 32 26 33
REMARK SMILES IDX 78 34 72 35 71 36 27 38 59 39 39 40 58 41 40 42 43 43 57 44
REMARK SMILES IDX 76 45 41 46 42 47 56 49 77 50 44 51 28 52 29 53 37 54 30 55
REMARK SMILES IDX 32 56 38 57 31 58 33 59 34 60 35 61 36 62 60 63 61 64 69 65
REMARK SMILES IDX 62 66 64 67 70 68 63 69 65 70 66 71 67 72 68 73 45 74 46 75
REMARK SMILES IDX 54 76 47 77 49 78 55 79 48 80 50 81 51 82 52 83 53 84
REMARK H PARENT 5 16 75 37 43 48
REMARK Flexibility Score: inf
ROOT
ATOM      1  C   UNL A   1      31.875  30.571  25.837  1.00  0.00     0.275 C 
ENDROOT
BRANCH   1   2
ATOM      2  C   UNL A   1      31.965  29.202  25.121  1.00  0.00     0.274 C 
BRANCH   2   3
ATOM      3  O   UNL A   1      30.734  28.689  24.573  1.00  0.00    -0.462 OA
BRANCH   3   4
ATOM      4  C   UNL A   1      30.684  28.834  23.216  1.00  0.00     0.315 C 
ATOM      5  O   UNL A   1      31.681  29.143  22.579  1.00  0.00    -0.252 OA
BRANCH   4   6
ATOM      6  C   UNL A   1      29.349  28.445  22.612  1.00  0.00     0.157 C 
ATOM      7  C   UNL A   1      28.476  29.628  22.080  1.00  0.00     0.198 C 
ATOM      8  C   UNL A   1      27.252  29.681  23.003  1.00  0.00     0.066 C 
ATOM      9  C   UNL A   1      27.023  28.216  23.346  1.00  0.00     0.007 C 
ATOM     10  C   UNL A   1      28.427  27.660  23.562  1.00  0.00     0.022 C 
BRANCH   7  11
ATOM     11  N   UNL A   1      29.144  30.841  21.608  1.00  0.00    -0.329 N 
ATOM     12  C   UNL A   1      29.125  32.150  23.913  1.00  0.00     0.075 C 
ATOM     13  C   UNL A   1      29.203  32.102  22.400  1.00  0.00     0.186 C 
ATOM     14  C   UNL A   1      27.969  32.609  21.641  1.00  0.00     0.126 C 
ATOM     15  C   UNL A   1      28.343  31.566  20.589  1.00  0.00     0.268 C 
ATOM     16  H   UNL A   1      30.036  30.370  21.452  1.00  0.00     0.348 HD
ENDBRANCH   7  11
ENDBRANCH   4   6
ENDBRANCH   3   4
ENDBRANCH   2   3
ENDBRANCH   1   2
BRANCH   1  17
ATOM     17  O   UNL A   1      32.458  30.613  27.154  1.00  0.00    -0.458 OA
BRANCH  17  18
ATOM     18  C   UNL A   1      33.207  31.718  27.396  1.00  0.00     0.338 C 
ATOM     19  O   UNL A   1      32.782  32.865  27.379  1.00  0.00    -0.246 OA
BRANCH  18  20
ATOM     20  C   UNL A   1      34.583  31.394  27.872  1.00  0.00     0.060 A 
ATOM     21  C   UNL A   1      34.815  30.056  28.222  1.00  0.00     0.016 A 
ATOM     22  C   UNL A   1      35.630  32.315  27.981  1.00  0.00     0.016 A 
ATOM     23  C   UNL A   1      36.063  29.639  28.690  1.00  0.00     0.010 A 
ATOM     24  C   UNL A   1      36.881  31.900  28.487  1.00  0.00     0.010 A 
ATOM     25  C   UNL A   1      37.098  30.562  28.864  1.00  0.00    -0.014 A 
BRANCH  25  26
ATOM     26  C   UNL A   1      38.334  30.111  29.564  1.00  0.00     0.031 A 
ATOM     27  C   UNL A   1      38.612  30.616  30.949  1.00  0.00     0.074 A 
ATOM     28  C   UNL A   1      39.171  29.201  29.032  1.00  0.00     0.049 A 
ATOM     29  N   UNL A   1      39.518  30.218  31.803  1.00  0.00    -0.248 NA
ATOM     30  C   UNL A   1      37.731  31.682  31.450  1.00  0.00     0.031 C 
ATOM     31  C   UNL A   1      39.001  28.582  27.729  1.00  0.00     0.029 A 
ATOM     32  N   UNL A   1      40.332  28.644  29.515  1.00  0.00    -0.354 N 
ATOM     33  C   UNL A   1      39.300  30.958  32.955  1.00  0.00     0.074 A 
ATOM     34  C   UNL A   1      38.194  31.854  32.680  1.00  0.00     0.031 C 
ATOM     35  C   UNL A   1      40.050  27.780  27.474  1.00  0.00     0.029 A 
ATOM     36  C   UNL A   1      40.956  27.805  28.620  1.00  0.00     0.049 A 
ATOM     37  H   UNL A   1      40.683  28.827  30.416  1.00  0.00     0.167 HD
ATOM     38  C   UNL A   1      39.940  30.881  34.145  1.00  0.00     0.034 A 
ATOM     39  C   UNL A   1      42.119  27.127  28.716  1.00  0.00     0.034 A 
ATOM     40  C   UNL A   1      41.065  30.030  34.418  1.00  0.00     0.049 A 
ATOM     41  C   UNL A   1      42.879  27.143  30.019  1.00  0.00     0.074 A 
ATOM     42  C   UNL A   1      41.764  29.882  35.603  1.00  0.00     0.029 A 
ATOM     43  N   UNL A   1      41.686  29.210  33.488  1.00  0.00    -0.354 N 
ATOM     44  N   UNL A   1      42.556  27.713  31.154  1.00  0.00    -0.248 NA
ATOM     45  C   UNL A   1      44.132  26.373  30.071  1.00  0.00     0.031 C 
ATOM     46  C   UNL A   1      42.826  28.999  35.381  1.00  0.00     0.029 A 
ATOM     47  C   UNL A   1      42.776  28.577  34.064  1.00  0.00     0.049 A 
ATOM     48  H   UNL A   1      41.395  29.095  32.554  1.00  0.00     0.167 HD
ATOM     49  C   UNL A   1      43.537  27.335  32.065  1.00  0.00     0.074 A 
ATOM     50  C   UNL A   1      44.457  26.471  31.353  1.00  0.00     0.031 C 
ATOM     51  C   UNL A   1      43.666  27.680  33.370  1.00  0.00     0.034 A 
BRANCH  38  52
ATOM     52  C   UNL A   1      39.406  31.740  35.255  1.00  0.00     0.023 A 
ATOM     53  C   UNL A   1      38.465  31.197  36.153  1.00  0.00     0.012 A 
ATOM     54  C   UNL A   1      39.850  33.063  35.427  1.00  0.00     0.148 A 
ATOM     55  C   UNL A   1      37.952  31.969  37.192  1.00  0.00     0.002 A 
ATOM     56  C   UNL A   1      39.360  33.816  36.486  1.00  0.00     0.091 A 
ATOM     57  F   UNL A   1      40.723  33.565  34.543  1.00  0.00    -0.205 F 
ATOM     58  C   UNL A   1      38.404  33.276  37.364  1.00  0.00     0.022 A 
BRANCH  56  59
ATOM     59  S   UNL A   1      39.923  35.487  36.821  1.00  0.00     0.127 S 
ATOM     60  O   UNL A   1      41.369  35.297  36.915  1.00  0.00    -0.237 OA
ATOM     61  O   UNL A   1      39.478  36.208  35.628  1.00  0.00    -0.237 OA
ATOM     62  O   UNL A   1      39.263  35.892  38.054  1.00  0.00    -0.744 OA
ENDBRANCH  56  59
ENDBRANCH  38  52
BRANCH  39  63
ATOM     63  C   UNL A   1      42.620  26.320  27.565  1.00  0.00     0.023 A 
ATOM     64  C   UNL A   1      43.464  26.917  26.609  1.00  0.00     0.012 A 
ATOM     65  C   UNL A   1      42.242  24.973  27.401  1.00  0.00     0.148 A 
ATOM     66  C   UNL A   1      43.892  26.200  25.489  1.00  0.00     0.002 A 
ATOM     67  C   UNL A   1      42.709  24.250  26.308  1.00  0.00     0.091 A 
ATOM     68  F   UNL A   1      41.422  24.428  28.311  1.00  0.00    -0.205 F 
ATOM     69  C   UNL A   1      43.521  24.867  25.343  1.00  0.00     0.022 A 
BRANCH  67  70
ATOM     70  S   UNL A   1      42.367  22.501  26.088  1.00  0.00     0.127 S 
ATOM     71  O   UNL A   1      42.995  22.233  24.795  1.00  0.00    -0.237 OA
ATOM     72  O   UNL A   1      43.051  21.912  27.239  1.00  0.00    -0.237 OA
ATOM     73  O   UNL A   1      40.916  22.376  26.123  1.00  0.00    -0.744 OA
ENDBRANCH  67  70
ENDBRANCH  39  63
BRANCH  51  74
ATOM     74  C   UNL A   1      44.836  27.111  34.135  1.00  0.00     0.023 A 
ATOM     75  C   UNL A   1      46.066  27.799  34.145  1.00  0.00     0.012 A 
ATOM     76  C   UNL A   1      44.705  25.928  34.890  1.00  0.00     0.148 A 
ATOM     77  C   UNL A   1      47.155  27.301  34.861  1.00  0.00     0.002 A 
ATOM     78  C   UNL A   1      45.780  25.463  35.641  1.00  0.00     0.091 A 
ATOM     79  F   UNL A   1      43.537  25.270  34.855  1.00  0.00    -0.205 F 
ATOM     80  C   UNL A   1      47.009  26.140  35.617  1.00  0.00     0.022 A 
BRANCH  78  81
ATOM     81  S   UNL A   1      45.646  24.030  36.716  1.00  0.00     0.127 S 
ATOM     82  O   UNL A   1      47.050  23.726  36.989  1.00  0.00    -0.237 OA
ATOM     83  O   UNL A   1      44.905  24.561  37.861  1.00  0.00    -0.237 OA
ATOM     84  O   UNL A   1      44.920  23.027  35.947  1.00  0.00    -0.744 OA
ENDBRANCH  78  81
ENDBRANCH  51  74
ENDBRANCH  25  26
ENDBRANCH  18  20
ENDBRANCH  17  18
ENDBRANCH   1  17
TORSDOF 15
ENDMDL
MODEL 2
REMARK VINA RESULT:     -11.3      3.794      5.935
REMARK SMILES C[C@@H]1CC[N@@H+]1[C@@H]1CCC[C@@H]1C(=O)OCCOC(=O)c1ccc(-c2c3nc(c(-c4cccc(S(=O)(=O)[O-])c4F)c4ccc([nH]4)c(-c4cccc(S(=O)(=O)[O-])c4F)c4nc(c(-c5cccc(S(=O)(=O)[O-])c5F)c5ccc2[nH]5)C=C4)C=C3)cc1
REMARK SMILES IDX 15 1 14 2 13 3 11 4 12 5 10 6 6 7 7 8 8 9 9 10 5 11 1 12
REMARK SMILES IDX 2 13 3 14 4 15 16 17 17 18 18 19 19 20 20 21 81 22 21 23
REMARK SMILES IDX 80 24 22 25 23 26 24 27 74 28 25 29 79 30 73 31 75 32 26 33
REMARK SMILES IDX 78 34 72 35 71 36 27 38 59 39 39 40 58 41 40 42 43 43 57 44
REMARK SMILES IDX 76 45 41 46 42 47 56 49 77 50 44 51 28 52 29 53 37 54 30 55
REMARK SMILES IDX 32 56 38 57 31 58 33 59 34 60 35 61 36 62 60 63 61 64 69 65
REMARK SMILES IDX 62 66 64 67 70 68 63 69 65 70 66 71 67 72 68 73 45 74 46 75
REMARK SMILES IDX 54 76 47 77 49 78 55 79 48 80 50 81 51 82 52 83 53 84
REMARK H PARENT 5 16 75 37 43 48
REMARK Flexibility Score: inf
ROOT
ATOM      1  C   UNL A   1      33.430  33.348  27.945  1.00  0.00     0.275 C 
ENDROOT
BRANCH   1   2
ATOM      2  C   UNL A   1      33.606  34.296  29.156  1.00  0.00     0.274 C 
BRANCH   2   3
ATOM      3  O   UNL A   1      34.956  34.486  29.624  1.00  0.00    -0.462 OA
BRANCH   3   4
ATOM      4  C   UNL A   1      35.309  33.547  30.551  1.00  0.00     0.315 C 
ATOM      5  O   UNL A   1      34.469  33.036  31.280  1.00  0.00    -0.252 OA
BRANCH   4   6
ATOM      6  C   UNL A   1      36.765  33.134  30.475  1.00  0.00     0.157 C 
ATOM      7  C   UNL A   1      37.644  33.520  31.709  1.00  0.00     0.198 C 
ATOM      8  C   UNL A   1      38.639  34.566  31.191  1.00  0.00     0.066 C 
ATOM      9  C   UNL A   1      38.894  34.112  29.761  1.00  0.00     0.007 C 
ATOM     10  C   UNL A   1      37.519  33.689  29.254  1.00  0.00     0.022 C 
BRANCH   7  11
ATOM     11  N   UNL A   1      37.006  33.640  33.020  1.00  0.00    -0.329 N 
ATOM     12  C   UNL A   1      39.082  34.667  34.308  1.00  0.00     0.075 C 
ATOM     13  C   UNL A   1      37.761  33.925  34.272  1.00  0.00     0.186 C 
ATOM     14  C   UNL A   1      37.821  32.418  34.553  1.00  0.00     0.126 C 
ATOM     15  C   UNL A   1      36.638  32.318  33.591  1.00  0.00     0.268 C 
ATOM     16  H   UNL A   1      36.358  34.366  32.714  1.00  0.00     0.348 HD
ENDBRANCH   7  11
ENDBRANCH   4   6
ENDBRANCH   3   4
ENDBRANCH   2   3
ENDBRANCH   1   2
BRANCH   1  17
ATOM     17  O   UNL A   1      34.598  32.580  27.594  1.00  0.00    -0.458 OA
BRANCH  17  18
ATOM     18  C   UNL A   1      34.462  31.243  27.781  1.00  0.00     0.338 C 
ATOM     19  O   UNL A   1      33.426  30.617  27.605  1.00  0.00    -0.246 OA
BRANCH  18  20
ATOM     20  C   UNL A   1      35.759  30.560  28.055  1.00  0.00     0.060 A 
ATOM     21  C   UNL A   1      35.804  29.760  29.206  1.00  0.00     0.016 A 
ATOM     22  C   UNL A   1      36.901  30.657  27.253  1.00  0.00     0.016 A 
ATOM     23  C   UNL A   1      36.968  29.080  29.568  1.00  0.00     0.010 A 
ATOM     24  C   UNL A   1      38.088  29.998  27.636  1.00  0.00     0.010 A 
ATOM     25  C   UNL A   1      38.134  29.221  28.808  1.00  0.00    -0.014 A 
BRANCH  25  26
ATOM     26  C   UNL A   1      39.400  28.651  29.350  1.00  0.00     0.031 A 
ATOM     27  C   UNL A   1      40.009  29.266  30.577  1.00  0.00     0.074 A 
ATOM     28  C   UNL A   1      39.976  27.552  28.830  1.00  0.00     0.049 A 
ATOM     29  N   UNL A   1      40.993  28.824  31.315  1.00  0.00    -0.248 NA
ATOM     30  C   UNL A   1      39.407  30.522  31.050  1.00  0.00     0.031 C 
ATOM     31  C   UNL A   1      39.470  26.817  27.683  1.00  0.00     0.029 A 
ATOM     32  N   UNL A   1      41.112  26.865  29.188  1.00  0.00    -0.354 N 
ATOM     33  C   UNL A   1      41.110  29.726  32.362  1.00  0.00     0.074 A 
ATOM     34  C   UNL A   1      40.117  30.759  32.144  1.00  0.00     0.031 C 
ATOM     35  C   UNL A   1      40.321  25.821  27.379  1.00  0.00     0.029 A 
ATOM     36  C   UNL A   1      41.423  25.828  28.339  1.00  0.00     0.049 A 
ATOM     37  H   UNL A   1      41.652  27.094  29.979  1.00  0.00     0.167 HD
ATOM     38  C   UNL A   1      41.947  29.686  33.425  1.00  0.00     0.034 A 
ATOM     39  C   UNL A   1      42.469  24.976  28.339  1.00  0.00     0.034 A 
ATOM     40  C   UNL A   1      42.965  28.692  33.630  1.00  0.00     0.049 A 
ATOM     41  C   UNL A   1      43.458  25.019  29.478  1.00  0.00     0.074 A 
ATOM     42  C   UNL A   1      43.848  28.572  34.689  1.00  0.00     0.029 A 
ATOM     43  N   UNL A   1      43.269  27.670  32.744  1.00  0.00    -0.354 N 
ATOM     44  N   UNL A   1      43.446  25.771  30.552  1.00  0.00    -0.248 NA
ATOM     45  C   UNL A   1      44.570  24.056  29.434  1.00  0.00     0.031 C 
ATOM     46  C   UNL A   1      44.706  27.497  34.428  1.00  0.00     0.029 A 
ATOM     47  C   UNL A   1      44.342  26.932  33.217  1.00  0.00     0.049 A 
ATOM     48  H   UNL A   1      42.791  27.493  31.901  1.00  0.00     0.167 HD
ATOM     49  C   UNL A   1      44.516  25.343  31.331  1.00  0.00     0.074 A 
ATOM     50  C   UNL A   1      45.145  24.253  30.613  1.00  0.00     0.031 C 
ATOM     51  C   UNL A   1      44.941  25.817  32.528  1.00  0.00     0.034 A 
BRANCH  38  52
ATOM     52  C   UNL A   1      41.769  30.753  34.466  1.00  0.00     0.023 A 
ATOM     53  C   UNL A   1      40.924  30.505  35.567  1.00  0.00     0.012 A 
ATOM     54  C   UNL A   1      42.450  31.980  34.372  1.00  0.00     0.148 A 
ATOM     55  C   UNL A   1      40.738  31.476  36.548  1.00  0.00     0.002 A 
ATOM     56  C   UNL A   1      42.286  32.930  35.372  1.00  0.00     0.091 A 
ATOM     57  F   UNL A   1      43.223  32.201  33.301  1.00  0.00    -0.205 F 
ATOM     58  C   UNL A   1      41.425  32.685  36.455  1.00  0.00     0.022 A 
BRANCH  56  59
ATOM     59  S   UNL A   1      43.170  34.492  35.369  1.00  0.00     0.127 S 
ATOM     60  O   UNL A   1      42.730  35.082  36.632  1.00  0.00    -0.237 OA
ATOM     61  O   UNL A   1      44.566  34.056  35.352  1.00  0.00    -0.237 OA
ATOM     62  O   UNL A   1      42.740  35.192  34.167  1.00  0.00    -0.744 OA
ENDBRANCH  56  59
ENDBRANCH  38  52
BRANCH  39  63
ATOM     63  C   UNL A   1      42.617  23.960  27.256  1.00  0.00     0.023 A 
ATOM     64  C   UNL A   1      43.344  24.280  26.093  1.00  0.00     0.012 A 
ATOM     65  C   UNL A   1      42.017  22.690  27.363  1.00  0.00     0.148 A 
ATOM     66  C   UNL A   1      43.439  23.368  25.040  1.00  0.00     0.002 A 
ATOM     67  C   UNL A   1      42.154  21.769  26.329  1.00  0.00     0.091 A 
ATOM     68  F   UNL A   1      41.311  22.412  28.468  1.00  0.00    -0.205 F 
ATOM     69  C   UNL A   1      42.851  22.112  25.160  1.00  0.00     0.022 A 
BRANCH  67  70
ATOM     70  S   UNL A   1      41.517  20.093  26.436  1.00  0.00     0.127 S 
ATOM     71  O   UNL A   1      40.087  20.301  26.215  1.00  0.00    -0.237 OA
ATOM     72  O   UNL A   1      42.221  19.432  25.336  1.00  0.00    -0.237 OA
ATOM     73  O   UNL A   1      41.889  19.614  27.760  1.00  0.00    -0.744 OA
ENDBRANCH  67  70
ENDBRANCH  39  63
BRANCH  51  74
ATOM     74  C   UNL A   1      46.138  25.152  33.162  1.00  0.00     0.023 A 
ATOM     75  C   UNL A   1      47.428  25.672  32.935  1.00  0.00     0.012 A 
ATOM     76  C   UNL A   1      45.984  24.050  34.027  1.00  0.00     0.148 A 
ATOM     77  C   UNL A   1      48.548  25.084  33.526  1.00  0.00     0.002 A 
ATOM     78  C   UNL A   1      47.099  23.499  34.652  1.00  0.00     0.091 A 
ATOM     79  F   UNL A   1      44.755  23.550  34.217  1.00  0.00    -0.205 F 
ATOM     80  C   UNL A   1      48.382  24.006  34.393  1.00  0.00     0.022 A 
BRANCH  78  81
ATOM     81  S   UNL A   1      46.961  22.172  35.855  1.00  0.00     0.127 S 
ATOM     82  O   UNL A   1      46.323  22.851  36.981  1.00  0.00    -0.237 OA
ATOM     83  O   UNL A   1      46.106  21.205  35.164  1.00  0.00    -0.237 OA
ATOM     84  O   UNL A   1      48.323  21.707  36.086  1.00  0.00    -0.744 OA
ENDBRANCH  78  81
ENDBRANCH  51  74
ENDBRANCH  25  26
ENDBRANCH  18  20
ENDBRANCH  17  18
ENDBRANCH   1  17
TORSDOF 15
ENDMDL
MODEL 3
REMARK VINA RESULT:     -11.0      6.646     11.474
REMARK SMILES C[C@@H]1CC[N@@H+]1[C@@H]1CCC[C@@H]1C(=O)OCCOC(=O)c1ccc(-c2c3nc(c(-c4cccc(S(=O)(=O)[O-])c4F)c4ccc([nH]4)c(-c4cccc(S(=O)(=O)[O-])c4F)c4nc(c(-c5cccc(S(=O)(=O)[O-])c5F)c5ccc2[nH]5)C=C4)C=C3)cc1
REMARK SMILES IDX 15 1 14 2 13 3 11 4 12 5 10 6 6 7 7 8 8 9 9 10 5 11 1 12
REMARK SMILES IDX 2 13 3 14 4 15 16 17 17 18 18 19 19 20 20 21 81 22 21 23
REMARK SMILES IDX 80 24 22 25 23 26 24 27 74 28 25 29 79 30 73 31 75 32 26 33
REMARK SMILES IDX 78 34 72 35 71 36 27 38 59 39 39 40 58 41 40 42 43 43 57 44
REMARK SMILES IDX 76 45 41 46 42 47 56 49 77 50 44 51 28 52 29 53 37 54 30 55
REMARK SMILES IDX 32 56 38 57 31 58 33 59 34 60 35 61 36 62 60 63 61 64 69 65
REMARK SMILES IDX 62 66 64 67 70 68 63 69 65 70 66 71 67 72 68 73 45 74 46 75
REMARK SMILES IDX 54 76 47 77 49 78 55 79 48 80 50 81 51 82 52 83 53 84
REMARK H PARENT 5 16 75 37 43 48
REMARK Flexibility Score: inf
ROOT
ATOM      1  C   UNL A   1      37.362  20.544  25.254  1.00  0.00     0.275 C 
ENDROOT
BRANCH   1   2
ATOM      2  C   UNL A   1      35.875  20.946  25.096  1.00  0.00     0.274 C 
BRANCH   2   3
ATOM      3  O   UNL A   1      34.933  19.861  24.981  1.00  0.00    -0.462 OA
BRANCH   3   4
ATOM      4  C   UNL A   1      33.714  20.191  25.502  1.00  0.00     0.315 C 
ATOM      5  O   UNL A   1      33.624  20.938  26.468  1.00  0.00    -0.252 OA
BRANCH   4   6
ATOM      6  C   UNL A   1      32.545  19.663  24.696  1.00  0.00     0.157 C 
ATOM      7  C   UNL A   1      32.434  18.106  24.602  1.00  0.00     0.198 C 
ATOM      8  C   UNL A   1      32.700  17.765  23.131  1.00  0.00     0.066 C 
ATOM      9  C   UNL A   1      32.101  18.954  22.393  1.00  0.00     0.007 C 
ATOM     10  C   UNL A   1      32.504  20.158  23.239  1.00  0.00     0.022 C 
BRANCH   7  11
ATOM     11  N   UNL A   1      32.968  17.294  25.696  1.00  0.00    -0.329 N 
ATOM     12  C   UNL A   1      35.132  16.423  24.437  1.00  0.00     0.075 C 
ATOM     13  C   UNL A   1      34.076  16.314  25.519  1.00  0.00     0.186 C 
ATOM     14  C   UNL A   1      33.033  15.202  25.339  1.00  0.00     0.126 C 
ATOM     15  C   UNL A   1      32.074  16.160  26.045  1.00  0.00     0.268 C 
ATOM     16  H   UNL A   1      33.176  18.101  26.284  1.00  0.00     0.348 HD
ENDBRANCH   7  11
ENDBRANCH   4   6
ENDBRANCH   3   4
ENDBRANCH   2   3
ENDBRANCH   1   2
BRANCH   1  17
ATOM     17  O   UNL A   1      38.291  21.643  25.317  1.00  0.00    -0.458 OA
BRANCH  17  18
ATOM     18  C   UNL A   1      39.381  21.407  26.089  1.00  0.00     0.338 C 
ATOM     19  O   UNL A   1      39.988  20.345  26.131  1.00  0.00    -0.246 OA
BRANCH  18  20
ATOM     20  C   UNL A   1      39.895  22.635  26.761  1.00  0.00     0.060 A 
ATOM     21  C   UNL A   1      39.328  23.849  26.344  1.00  0.00     0.016 A 
ATOM     22  C   UNL A   1      40.875  22.653  27.759  1.00  0.00     0.016 A 
ATOM     23  C   UNL A   1      39.737  25.064  26.897  1.00  0.00     0.010 A 
ATOM     24  C   UNL A   1      41.313  23.883  28.293  1.00  0.00     0.010 A 
ATOM     25  C   UNL A   1      40.761  25.099  27.849  1.00  0.00    -0.014 A 
BRANCH  25  26
ATOM     26  C   UNL A   1      41.307  26.427  28.247  1.00  0.00     0.031 A 
ATOM     27  C   UNL A   1      42.740  26.748  27.937  1.00  0.00     0.074 A 
ATOM     28  C   UNL A   1      40.540  27.384  28.801  1.00  0.00     0.049 A 
ATOM     29  N   UNL A   1      43.363  27.893  28.026  1.00  0.00    -0.248 NA
ATOM     30  C   UNL A   1      43.565  25.643  27.427  1.00  0.00     0.031 C 
ATOM     31  C   UNL A   1      39.126  27.239  29.105  1.00  0.00     0.029 A 
ATOM     32  N   UNL A   1      40.838  28.661  29.213  1.00  0.00    -0.354 N 
ATOM     33  C   UNL A   1      44.646  27.660  27.553  1.00  0.00     0.074 A 
ATOM     34  C   UNL A   1      44.721  26.255  27.208  1.00  0.00     0.031 C 
ATOM     35  C   UNL A   1      38.685  28.351  29.719  1.00  0.00     0.029 A 
ATOM     36  C   UNL A   1      39.786  29.306  29.822  1.00  0.00     0.049 A 
ATOM     37  H   UNL A   1      41.721  29.076  29.084  1.00  0.00     0.167 HD
ATOM     38  C   UNL A   1      45.662  28.540  27.392  1.00  0.00     0.034 A 
ATOM     39  C   UNL A   1      39.714  30.528  30.390  1.00  0.00     0.034 A 
ATOM     40  C   UNL A   1      45.615  29.926  27.771  1.00  0.00     0.049 A 
ATOM     41  C   UNL A   1      40.898  31.457  30.297  1.00  0.00     0.074 A 
ATOM     42  C   UNL A   1      46.598  30.889  27.628  1.00  0.00     0.029 A 
ATOM     43  N   UNL A   1      44.546  30.541  28.403  1.00  0.00    -0.354 N 
ATOM     44  N   UNL A   1      42.044  31.274  29.687  1.00  0.00    -0.248 NA
ATOM     45  C   UNL A   1      40.758  32.783  30.920  1.00  0.00     0.031 C 
ATOM     46  C   UNL A   1      46.136  32.079  28.203  1.00  0.00     0.029 A 
ATOM     47  C   UNL A   1      44.855  31.863  28.683  1.00  0.00     0.049 A 
ATOM     48  H   UNL A   1      43.691  30.104  28.621  1.00  0.00     0.167 HD
ATOM     49  C   UNL A   1      42.740  32.472  29.811  1.00  0.00     0.074 A 
ATOM     50  C   UNL A   1      41.880  33.381  30.540  1.00  0.00     0.031 C 
ATOM     51  C   UNL A   1      43.983  32.785  29.367  1.00  0.00     0.034 A 
BRANCH  38  52
ATOM     52  C   UNL A   1      46.912  28.016  26.748  1.00  0.00     0.023 A 
ATOM     53  C   UNL A   1      47.938  27.491  27.561  1.00  0.00     0.012 A 
ATOM     54  C   UNL A   1      47.063  28.016  25.349  1.00  0.00     0.148 A 
ATOM     55  C   UNL A   1      49.109  26.998  26.992  1.00  0.00     0.002 A 
ATOM     56  C   UNL A   1      48.220  27.491  24.787  1.00  0.00     0.091 A 
ATOM     57  F   UNL A   1      46.087  28.547  24.601  1.00  0.00    -0.205 F 
ATOM     58  C   UNL A   1      49.247  26.990  25.605  1.00  0.00     0.022 A 
BRANCH  56  59
ATOM     59  S   UNL A   1      48.466  27.387  23.012  1.00  0.00     0.127 S 
ATOM     60  O   UNL A   1      48.331  25.950  22.780  1.00  0.00    -0.237 OA
ATOM     61  O   UNL A   1      47.359  28.195  22.500  1.00  0.00    -0.237 OA
ATOM     62  O   UNL A   1      49.788  27.941  22.758  1.00  0.00    -0.744 OA
ENDBRANCH  56  59
ENDBRANCH  38  52
BRANCH  39  63
ATOM     63  C   UNL A   1      38.455  30.982  31.051  1.00  0.00     0.023 A 
ATOM     64  C   UNL A   1      38.258  30.733  32.423  1.00  0.00     0.012 A 
ATOM     65  C   UNL A   1      37.443  31.634  30.320  1.00  0.00     0.148 A 
ATOM     66  C   UNL A   1      37.061  31.090  33.047  1.00  0.00     0.002 A 
ATOM     67  C   UNL A   1      36.271  32.028  30.958  1.00  0.00     0.091 A 
ATOM     68  F   UNL A   1      37.640  31.844  29.011  1.00  0.00    -0.205 F 
ATOM     69  C   UNL A   1      36.072  31.742  32.317  1.00  0.00     0.022 A 
BRANCH  67  70
ATOM     70  S   UNL A   1      34.984  32.963  30.124  1.00  0.00     0.127 S 
ATOM     71  O   UNL A   1      34.501  31.996  29.140  1.00  0.00    -0.237 OA
ATOM     72  O   UNL A   1      34.055  33.242  31.221  1.00  0.00    -0.237 OA
ATOM     73  O   UNL A   1      35.643  34.143  29.581  1.00  0.00    -0.744 OA
ENDBRANCH  67  70
ENDBRANCH  39  63
BRANCH  51  74
ATOM     74  C   UNL A   1      44.495  34.179  29.635  1.00  0.00     0.023 A 
ATOM     75  C   UNL A   1      45.174  34.454  30.839  1.00  0.00     0.012 A 
ATOM     76  C   UNL A   1      44.355  35.201  28.675  1.00  0.00     0.148 A 
ATOM     77  C   UNL A   1      45.672  35.732  31.099  1.00  0.00     0.002 A 
ATOM     78  C   UNL A   1      44.897  36.459  28.921  1.00  0.00     0.091 A 
ATOM     79  F   UNL A   1      43.687  34.933  27.544  1.00  0.00    -0.205 F 
ATOM     80  C   UNL A   1      45.544  36.730  30.136  1.00  0.00     0.022 A 
BRANCH  78  81
ATOM     81  S   UNL A   1      44.858  37.772  27.694  1.00  0.00     0.127 S 
ATOM     82  O   UNL A   1      45.460  38.885  28.426  1.00  0.00    -0.237 OA
ATOM     83  O   UNL A   1      45.691  37.227  26.621  1.00  0.00    -0.237 OA
ATOM     84  O   UNL A   1      43.455  37.936  27.336  1.00  0.00    -0.744 OA
ENDBRANCH  78  81
ENDBRANCH  51  74
ENDBRANCH  25  26
ENDBRANCH  18  20
ENDBRANCH  17  18
ENDBRANCH   1  17
TORSDOF 15
ENDMDL
