MODEL 1
REMARK VINA RESULT:     -11.2      0.000      0.000
REMARK SMILES C[C@@H]1[C@@H](C(=O)OCCOC(=O)c2ccc(-c3c4nc(c(-c5cccc(S(=O)(=O)[O-])c5F)c5ccc([nH]5)c(-c5cccc(S(=O)(=O)[O-])c5F)c5nc(c(-c6cccc(S(=O)(=O)[O-])c6F)c6ccc3[nH]6)C=C5)C=C4)cc2)CCN1C(=O)CN1C(=O)CNC1=O
REMARK SMILES IDX 7 1 6 2 4 3 5 4 3 5 1 6 2 7 77 8 75 9 76 10 78 11 79 12
REMARK SMILES IDX 80 13 81 14 82 15 86 16 83 17 84 18 85 19 87 20 8 22 9 23
REMARK SMILES IDX 10 24 11 25 12 26 13 27 74 28 14 29 73 30 15 31 16 32 17 33
REMARK SMILES IDX 67 34 18 35 72 36 66 37 68 38 19 39 71 40 65 41 64 42 20 44
REMARK SMILES IDX 52 45 32 46 51 47 33 48 36 49 50 50 69 51 34 52 35 53 49 55
REMARK SMILES IDX 70 56 37 57 21 58 22 59 30 60 23 61 25 62 31 63 24 64 26 65
REMARK SMILES IDX 27 66 28 67 29 68 53 69 54 70 62 71 55 72 57 73 63 74 56 75
REMARK SMILES IDX 58 76 59 77 60 78 61 79 38 80 39 81 47 82 40 83 42 84 48 85
REMARK SMILES IDX 41 86 43 87 44 88 45 89 46 90
REMARK H PARENT 85 21 68 43 36 54
REMARK Flexibility Score: inf
ROOT
ATOM      1  C   UNL A   1      31.597  30.945  26.759  1.00  0.00     0.274 C 
ENDROOT
BRANCH   1   2
ATOM      2  O   UNL A   1      32.589  30.360  25.889  1.00  0.00    -0.462 OA
BRANCH   2   3
ATOM      3  C   UNL A   1      33.223  29.274  26.409  1.00  0.00     0.311 C 
ATOM      4  O   UNL A   1      33.122  28.926  27.578  1.00  0.00    -0.252 OA
BRANCH   3   5
ATOM      5  C   UNL A   1      33.919  28.442  25.347  1.00  0.00     0.123 C 
ATOM      6  C   UNL A   1      34.101  28.493  22.814  1.00  0.00     0.032 C 
ATOM      7  C   UNL A   1      33.160  28.578  24.017  1.00  0.00     0.096 C 
ATOM      8  N   UNL A   1      32.219  27.453  24.024  1.00  0.00    -0.338 N 
ATOM      9  C   UNL A   1      33.911  26.934  25.602  1.00  0.00     0.039 C 
ATOM     10  C   UNL A   1      32.603  26.446  24.992  1.00  0.00     0.121 C 
BRANCH   8  11
ATOM     11  C   UNL A   1      30.951  27.388  23.463  1.00  0.00     0.243 C 
ATOM     12  O   UNL A   1      30.644  26.497  22.665  1.00  0.00    -0.273 OA
BRANCH  11  13
ATOM     13  C   UNL A   1      29.911  28.382  23.963  1.00  0.00     0.230 C 
BRANCH  13  14
ATOM     14  N   UNL A   1      29.103  28.988  22.919  1.00  0.00    -0.253 N 
ATOM     15  C   UNL A   1      29.648  29.825  21.985  1.00  0.00     0.250 C 
ATOM     16  C   UNL A   1      27.745  29.027  22.838  1.00  0.00     0.325 C 
ATOM     17  O   UNL A   1      30.845  29.962  21.781  1.00  0.00    -0.272 OA
ATOM     18  C   UNL A   1      28.532  30.590  21.291  1.00  0.00     0.218 C 
ATOM     19  N   UNL A   1      27.390  29.989  21.921  1.00  0.00    -0.329 N 
ATOM     20  O   UNL A   1      26.933  28.322  23.414  1.00  0.00    -0.248 OA
ATOM     21  H   UNL A   1      26.459  30.238  21.719  1.00  0.00     0.165 HD
ENDBRANCH  13  14
ENDBRANCH  11  13
ENDBRANCH   8  11
ENDBRANCH   3   5
ENDBRANCH   2   3
ENDBRANCH   1   2
BRANCH   1  22
ATOM     22  C   UNL A   1      31.764  32.461  26.952  1.00  0.00     0.275 C 
BRANCH  22  23
ATOM     23  O   UNL A   1      33.132  32.892  26.800  1.00  0.00    -0.458 OA
BRANCH  23  24
ATOM     24  C   UNL A   1      33.647  33.576  27.854  1.00  0.00     0.338 C 
ATOM     25  O   UNL A   1      33.118  34.518  28.427  1.00  0.00    -0.246 OA
BRANCH  24  26
ATOM     26  C   UNL A   1      34.859  32.899  28.380  1.00  0.00     0.060 A 
ATOM     27  C   UNL A   1      34.675  31.658  29.010  1.00  0.00     0.016 A 
ATOM     28  C   UNL A   1      36.146  33.425  28.246  1.00  0.00     0.016 A 
ATOM     29  C   UNL A   1      35.765  30.939  29.497  1.00  0.00     0.010 A 
ATOM     30  C   UNL A   1      37.240  32.717  28.765  1.00  0.00     0.010 A 
ATOM     31  C   UNL A   1      37.053  31.476  29.400  1.00  0.00    -0.014 A 
BRANCH  31  32
ATOM     32  C   UNL A   1      38.185  30.794  30.072  1.00  0.00     0.031 A 
ATOM     33  C   UNL A   1      38.553  31.195  31.468  1.00  0.00     0.074 A 
ATOM     34  C   UNL A   1      38.880  29.822  29.455  1.00  0.00     0.049 A 
ATOM     35  N   UNL A   1      39.494  30.718  32.238  1.00  0.00    -0.248 NA
ATOM     36  C   UNL A   1      37.741  32.256  32.085  1.00  0.00     0.031 C 
ATOM     37  C   UNL A   1      38.592  29.308  28.123  1.00  0.00     0.029 A 
ATOM     38  N   UNL A   1      39.986  29.115  29.857  1.00  0.00    -0.354 N 
ATOM     39  C   UNL A   1      39.381  31.404  33.437  1.00  0.00     0.074 A 
ATOM     40  C   UNL A   1      38.296  32.352  33.285  1.00  0.00     0.031 C 
ATOM     41  C   UNL A   1      39.537  28.413  27.789  1.00  0.00     0.029 A 
ATOM     42  C   UNL A   1      40.493  28.290  28.882  1.00  0.00     0.049 A 
ATOM     43  H   UNL A   1      40.378  29.192  30.757  1.00  0.00     0.167 HD
ATOM     44  C   UNL A   1      40.098  31.242  34.573  1.00  0.00     0.034 A 
ATOM     45  C   UNL A   1      41.607  27.531  28.860  1.00  0.00     0.034 A 
ATOM     46  C   UNL A   1      41.193  30.325  34.719  1.00  0.00     0.049 A 
ATOM     47  C   UNL A   1      42.460  27.456  30.096  1.00  0.00     0.074 A 
ATOM     48  C   UNL A   1      41.975  30.091  35.836  1.00  0.00     0.029 A 
ATOM     49  N   UNL A   1      41.681  29.507  33.711  1.00  0.00    -0.354 N 
ATOM     50  N   UNL A   1      42.265  28.017  31.263  1.00  0.00    -0.248 NA
ATOM     51  C   UNL A   1      43.663  26.613  30.028  1.00  0.00     0.031 C 
ATOM     52  C   UNL A   1      42.949  29.145  35.498  1.00  0.00     0.029 A 
ATOM     53  C   UNL A   1      42.763  28.778  34.174  1.00  0.00     0.049 A 
ATOM     54  H   UNL A   1      41.312  29.452  32.800  1.00  0.00     0.167 HD
ATOM     55  C   UNL A   1      43.288  27.556  32.084  1.00  0.00     0.074 A 
ATOM     56  C   UNL A   1      44.100  26.666  31.280  1.00  0.00     0.031 C 
ATOM     57  C   UNL A   1      43.531  27.850  33.384  1.00  0.00     0.034 A 
BRANCH  44  58
ATOM     58  C   UNL A   1      39.685  32.064  35.759  1.00  0.00     0.023 A 
ATOM     59  C   UNL A   1      40.272  33.332  35.950  1.00  0.00     0.012 A 
ATOM     60  C   UNL A   1      38.713  31.602  36.664  1.00  0.00     0.148 A 
ATOM     61  C   UNL A   1      39.912  34.120  37.042  1.00  0.00     0.002 A 
ATOM     62  C   UNL A   1      38.337  32.407  37.732  1.00  0.00     0.091 A 
ATOM     63  F   UNL A   1      38.196  30.379  36.477  1.00  0.00    -0.205 F 
ATOM     64  C   UNL A   1      38.939  33.661  37.926  1.00  0.00     0.022 A 
BRANCH  62  65
ATOM     65  S   UNL A   1      37.059  31.925  38.897  1.00  0.00     0.127 S 
ATOM     66  O   UNL A   1      35.924  32.722  38.433  1.00  0.00    -0.237 OA
ATOM     67  O   UNL A   1      36.939  30.489  38.648  1.00  0.00    -0.237 OA
ATOM     68  O   UNL A   1      37.570  32.271  40.216  1.00  0.00    -0.744 OA
ENDBRANCH  62  65
ENDBRANCH  44  58
BRANCH  45  69
ATOM     69  C   UNL A   1      41.963  26.749  27.641  1.00  0.00     0.023 A 
ATOM     70  C   UNL A   1      42.526  27.406  26.531  1.00  0.00     0.012 A 
ATOM     71  C   UNL A   1      41.745  25.360  27.575  1.00  0.00     0.148 A 
ATOM     72  C   UNL A   1      42.835  26.700  25.367  1.00  0.00     0.002 A 
ATOM     73  C   UNL A   1      42.096  24.654  26.429  1.00  0.00     0.091 A 
ATOM     74  F   UNL A   1      41.185  24.751  28.631  1.00  0.00    -0.205 F 
ATOM     75  C   UNL A   1      42.628  25.324  25.318  1.00  0.00     0.022 A 
BRANCH  73  76
ATOM     76  S   UNL A   1      41.950  22.865  26.338  1.00  0.00     0.127 S 
ATOM     77  O   UNL A   1      40.503  22.678  26.397  1.00  0.00    -0.237 OA
ATOM     78  O   UNL A   1      42.556  22.563  25.040  1.00  0.00    -0.237 OA
ATOM     79  O   UNL A   1      42.709  22.360  27.477  1.00  0.00    -0.744 OA
ENDBRANCH  73  76
ENDBRANCH  45  69
BRANCH  57  80
ATOM     80  C   UNL A   1      44.703  27.174  34.045  1.00  0.00     0.023 A 
ATOM     81  C   UNL A   1      45.980  27.763  33.977  1.00  0.00     0.012 A 
ATOM     82  C   UNL A   1      44.522  25.997  34.799  1.00  0.00     0.148 A 
ATOM     83  C   UNL A   1      47.066  27.177  34.628  1.00  0.00     0.002 A 
ATOM     84  C   UNL A   1      45.598  25.444  35.482  1.00  0.00     0.091 A 
ATOM     85  F   UNL A   1      43.303  25.440  34.833  1.00  0.00    -0.205 F 
ATOM     86  C   UNL A   1      46.873  26.027  35.390  1.00  0.00     0.022 A 
BRANCH  84  87
ATOM     87  S   UNL A   1      45.419  24.020  36.562  1.00  0.00     0.127 S 
ATOM     88  O   UNL A   1      44.511  24.535  37.587  1.00  0.00    -0.237 OA
ATOM     89  O   UNL A   1      44.827  23.023  35.669  1.00  0.00    -0.237 OA
ATOM     90  O   UNL A   1      46.763  23.694  37.019  1.00  0.00    -0.744 OA
ENDBRANCH  84  87
ENDBRANCH  57  80
ENDBRANCH  31  32
ENDBRANCH  24  26
ENDBRANCH  23  24
ENDBRANCH  22  23
ENDBRANCH   1  22
TORSDOF 17
ENDMDL
MODEL 2
REMARK VINA RESULT:     -11.2      6.269     11.620
REMARK SMILES C[C@@H]1[C@@H](C(=O)OCCOC(=O)c2ccc(-c3c4nc(c(-c5cccc(S(=O)(=O)[O-])c5F)c5ccc([nH]5)c(-c5cccc(S(=O)(=O)[O-])c5F)c5nc(c(-c6cccc(S(=O)(=O)[O-])c6F)c6ccc3[nH]6)C=C5)C=C4)cc2)CCN1C(=O)CN1C(=O)CNC1=O
REMARK SMILES IDX 7 1 6 2 4 3 5 4 3 5 1 6 2 7 77 8 75 9 76 10 78 11 79 12
REMARK SMILES IDX 80 13 81 14 82 15 86 16 83 17 84 18 85 19 87 20 8 22 9 23
REMARK SMILES IDX 10 24 11 25 12 26 13 27 74 28 14 29 73 30 15 31 16 32 17 33
REMARK SMILES IDX 67 34 18 35 72 36 66 37 68 38 19 39 71 40 65 41 64 42 20 44
REMARK SMILES IDX 52 45 32 46 51 47 33 48 36 49 50 50 69 51 34 52 35 53 49 55
REMARK SMILES IDX 70 56 37 57 21 58 22 59 30 60 23 61 25 62 31 63 24 64 26 65
REMARK SMILES IDX 27 66 28 67 29 68 53 69 54 70 62 71 55 72 57 73 63 74 56 75
REMARK SMILES IDX 58 76 59 77 60 78 61 79 38 80 39 81 47 82 40 83 42 84 48 85
REMARK SMILES IDX 41 86 43 87 44 88 45 89 46 90
REMARK H PARENT 85 21 68 43 36 54
REMARK Flexibility Score: inf
ROOT
ATOM      1  C   UNL A   1      38.587  21.201  25.383  1.00  0.00     0.274 C 
ENDROOT
BRANCH   1   2
ATOM      2  O   UNL A   1      37.203  21.398  25.744  1.00  0.00    -0.462 OA
BRANCH   2   3
ATOM      3  C   UNL A   1      36.703  22.619  25.411  1.00  0.00     0.311 C 
ATOM      4  O   UNL A   1      37.187  23.335  24.545  1.00  0.00    -0.252 OA
BRANCH   3   5
ATOM      5  C   UNL A   1      35.381  22.914  26.096  1.00  0.00     0.123 C 
ATOM      6  C   UNL A   1      33.734  21.612  27.527  1.00  0.00     0.032 C 
ATOM      7  C   UNL A   1      34.590  21.605  26.259  1.00  0.00     0.096 C 
ATOM      8  N   UNL A   1      33.747  21.545  25.060  1.00  0.00    -0.338 N 
ATOM      9  C   UNL A   1      34.426  23.804  25.300  1.00  0.00     0.039 C 
ATOM     10  C   UNL A   1      33.644  22.839  24.418  1.00  0.00     0.121 C 
BRANCH   8  11
ATOM     11  C   UNL A   1      33.313  20.422  24.369  1.00  0.00     0.243 C 
ATOM     12  O   UNL A   1      32.293  20.447  23.674  1.00  0.00    -0.273 OA
BRANCH  11  13
ATOM     13  C   UNL A   1      34.211  19.191  24.397  1.00  0.00     0.230 C 
BRANCH  13  14
ATOM     14  N   UNL A   1      33.500  17.928  24.486  1.00  0.00    -0.253 N 
ATOM     15  C   UNL A   1      32.776  17.588  25.594  1.00  0.00     0.250 C 
ATOM     16  C   UNL A   1      33.619  16.849  23.663  1.00  0.00     0.325 C 
ATOM     17  O   UNL A   1      32.458  18.360  26.487  1.00  0.00    -0.272 OA
ATOM     18  C   UNL A   1      32.485  16.096  25.561  1.00  0.00     0.218 C 
ATOM     19  N   UNL A   1      33.068  15.757  24.293  1.00  0.00    -0.329 N 
ATOM     20  O   UNL A   1      34.077  16.807  22.533  1.00  0.00    -0.248 OA
ATOM     21  H   UNL A   1      33.074  14.846  23.918  1.00  0.00     0.165 HD
ENDBRANCH  13  14
ENDBRANCH  11  13
ENDBRANCH   8  11
ENDBRANCH   3   5
ENDBRANCH   2   3
ENDBRANCH   1   2
BRANCH   1  22
ATOM     22  C   UNL A   1      39.138  19.824  25.786  1.00  0.00     0.275 C 
BRANCH  22  23
ATOM     23  O   UNL A   1      40.517  19.644  25.402  1.00  0.00    -0.458 OA
BRANCH  23  24
ATOM     24  C   UNL A   1      41.421  19.759  26.408  1.00  0.00     0.338 C 
ATOM     25  O   UNL A   1      42.100  18.854  26.871  1.00  0.00    -0.246 OA
BRANCH  24  26
ATOM     26  C   UNL A   1      41.650  21.186  26.749  1.00  0.00     0.060 A 
ATOM     27  C   UNL A   1      42.005  22.046  25.698  1.00  0.00     0.016 A 
ATOM     28  C   UNL A   1      41.500  21.696  28.041  1.00  0.00     0.016 A 
ATOM     29  C   UNL A   1      42.201  23.406  25.926  1.00  0.00     0.010 A 
ATOM     30  C   UNL A   1      41.728  23.059  28.277  1.00  0.00     0.010 A 
ATOM     31  C   UNL A   1      42.088  23.918  27.223  1.00  0.00    -0.014 A 
BRANCH  31  32
ATOM     32  C   UNL A   1      42.467  25.326  27.492  1.00  0.00     0.031 A 
ATOM     33  C   UNL A   1      43.853  25.785  27.158  1.00  0.00     0.074 A 
ATOM     34  C   UNL A   1      41.589  26.196  28.022  1.00  0.00     0.049 A 
ATOM     35  N   UNL A   1      44.381  26.971  27.299  1.00  0.00    -0.248 NA
ATOM     36  C   UNL A   1      44.755  24.782  26.569  1.00  0.00     0.031 C 
ATOM     37  C   UNL A   1      40.201  25.889  28.343  1.00  0.00     0.029 A 
ATOM     38  N   UNL A   1      41.742  27.504  28.408  1.00  0.00    -0.354 N 
ATOM     39  C   UNL A   1      45.671  26.868  26.801  1.00  0.00     0.074 A 
ATOM     40  C   UNL A   1      45.857  25.495  26.379  1.00  0.00     0.031 C 
ATOM     41  C   UNL A   1      39.646  26.958  28.940  1.00  0.00     0.029 A 
ATOM     42  C   UNL A   1      40.636  28.023  29.039  1.00  0.00     0.049 A 
ATOM     43  H   UNL A   1      42.565  28.021  28.249  1.00  0.00     0.167 HD
ATOM     44  C   UNL A   1      46.608  27.836  26.681  1.00  0.00     0.034 A 
ATOM     45  C   UNL A   1      40.442  29.213  29.643  1.00  0.00     0.034 A 
ATOM     46  C   UNL A   1      46.439  29.192  27.124  1.00  0.00     0.049 A 
ATOM     47  C   UNL A   1      41.543  30.236  29.602  1.00  0.00     0.074 A 
ATOM     48  C   UNL A   1      47.335  30.242  27.039  1.00  0.00     0.029 A 
ATOM     49  N   UNL A   1      45.309  29.682  27.760  1.00  0.00    -0.354 N 
ATOM     50  N   UNL A   1      42.712  30.163  29.016  1.00  0.00    -0.248 NA
ATOM     51  C   UNL A   1      41.285  31.521  30.270  1.00  0.00     0.031 C 
ATOM     52  C   UNL A   1      46.754  31.363  27.642  1.00  0.00     0.029 A 
ATOM     53  C   UNL A   1      45.489  31.015  28.088  1.00  0.00     0.049 A 
ATOM     54  H   UNL A   1      44.497  29.159  27.950  1.00  0.00     0.167 HD
ATOM     55  C   UNL A   1      43.308  31.405  29.197  1.00  0.00     0.074 A 
ATOM     56  C   UNL A   1      42.370  32.215  29.946  1.00  0.00     0.031 C 
ATOM     57  C   UNL A   1      44.526  31.831  28.782  1.00  0.00     0.034 A 
BRANCH  44  58
ATOM     58  C   UNL A   1      47.894  27.455  26.007  1.00  0.00     0.023 A 
ATOM     59  C   UNL A   1      48.952  26.948  26.790  1.00  0.00     0.012 A 
ATOM     60  C   UNL A   1      48.052  27.575  24.615  1.00  0.00     0.148 A 
ATOM     61  C   UNL A   1      50.160  26.586  26.196  1.00  0.00     0.002 A 
ATOM     62  C   UNL A   1      49.248  27.183  24.028  1.00  0.00     0.091 A 
ATOM     63  F   UNL A   1      47.043  28.092  23.900  1.00  0.00    -0.205 F 
ATOM     64  C   UNL A   1      50.304  26.695  24.816  1.00  0.00     0.022 A 
BRANCH  62  65
ATOM     65  S   UNL A   1      49.513  27.240  22.253  1.00  0.00     0.127 S 
ATOM     66  O   UNL A   1      50.946  26.965  22.161  1.00  0.00    -0.237 OA
ATOM     67  O   UNL A   1      48.651  26.158  21.777  1.00  0.00    -0.237 OA
ATOM     68  O   UNL A   1      49.103  28.572  21.830  1.00  0.00    -0.744 OA
ENDBRANCH  62  65
ENDBRANCH  44  58
BRANCH  45  69
ATOM     69  C   UNL A   1      39.141  29.519  30.304  1.00  0.00     0.023 A 
ATOM     70  C   UNL A   1      38.858  28.975  31.571  1.00  0.00     0.012 A 
ATOM     71  C   UNL A   1      38.183  30.343  29.684  1.00  0.00     0.148 A 
ATOM     72  C   UNL A   1      37.633  29.221  32.194  1.00  0.00     0.002 A 
ATOM     73  C   UNL A   1      36.982  30.621  30.328  1.00  0.00     0.091 A 
ATOM     74  F   UNL A   1      38.456  30.834  28.466  1.00  0.00    -0.205 F 
ATOM     75  C   UNL A   1      36.699  30.050  31.578  1.00  0.00     0.022 A 
BRANCH  73  76
ATOM     76  S   UNL A   1      35.778  31.761  29.636  1.00  0.00     0.127 S 
ATOM     77  O   UNL A   1      35.184  30.960  28.569  1.00  0.00    -0.237 OA
ATOM     78  O   UNL A   1      34.895  32.020  30.774  1.00  0.00    -0.237 OA
ATOM     79  O   UNL A   1      36.550  32.923  29.211  1.00  0.00    -0.744 OA
ENDBRANCH  73  76
ENDBRANCH  45  69
BRANCH  57  80
ATOM     80  C   UNL A   1      44.910  33.254  29.090  1.00  0.00     0.023 A 
ATOM     81  C   UNL A   1      45.534  33.561  30.314  1.00  0.00     0.012 A 
ATOM     82  C   UNL A   1      44.724  34.271  28.133  1.00  0.00     0.148 A 
ATOM     83  C   UNL A   1      45.943  34.865  30.593  1.00  0.00     0.002 A 
ATOM     84  C   UNL A   1      45.175  35.558  28.398  1.00  0.00     0.091 A 
ATOM     85  F   UNL A   1      44.107  33.962  26.983  1.00  0.00    -0.205 F 
ATOM     86  C   UNL A   1      45.776  35.859  29.632  1.00  0.00     0.022 A 
BRANCH  84  87
ATOM     87  S   UNL A   1      45.086  36.876  27.180  1.00  0.00     0.127 S 
ATOM     88  O   UNL A   1      45.952  36.362  26.120  1.00  0.00    -0.237 OA
ATOM     89  O   UNL A   1      43.661  36.896  26.846  1.00  0.00    -0.237 OA
ATOM     90  O   UNL A   1      45.562  38.075  27.855  1.00  0.00    -0.744 OA
ENDBRANCH  84  87
ENDBRANCH  57  80
ENDBRANCH  31  32
ENDBRANCH  24  26
ENDBRANCH  23  24
ENDBRANCH  22  23
ENDBRANCH   1  22
TORSDOF 17
ENDMDL
MODEL 3
REMARK VINA RESULT:     -11.0      5.404      8.160
REMARK SMILES C[C@@H]1[C@@H](C(=O)OCCOC(=O)c2ccc(-c3c4nc(c(-c5cccc(S(=O)(=O)[O-])c5F)c5ccc([nH]5)c(-c5cccc(S(=O)(=O)[O-])c5F)c5nc(c(-c6cccc(S(=O)(=O)[O-])c6F)c6ccc3[nH]6)C=C5)C=C4)cc2)CCN1C(=O)CN1C(=O)CNC1=O
REMARK SMILES IDX 7 1 6 2 4 3 5 4 3 5 1 6 2 7 77 8 75 9 76 10 78 11 79 12
REMARK SMILES IDX 80 13 81 14 82 15 86 16 83 17 84 18 85 19 87 20 8 22 9 23
REMARK SMILES IDX 10 24 11 25 12 26 13 27 74 28 14 29 73 30 15 31 16 32 17 33
REMARK SMILES IDX 67 34 18 35 72 36 66 37 68 38 19 39 71 40 65 41 64 42 20 44
REMARK SMILES IDX 52 45 32 46 51 47 33 48 36 49 50 50 69 51 34 52 35 53 49 55
REMARK SMILES IDX 70 56 37 57 21 58 22 59 30 60 23 61 25 62 31 63 24 64 26 65
REMARK SMILES IDX 27 66 28 67 29 68 53 69 54 70 62 71 55 72 57 73 63 74 56 75
REMARK SMILES IDX 58 76 59 77 60 78 61 79 38 80 39 81 47 82 40 83 42 84 48 85
REMARK SMILES IDX 41 86 43 87 44 88 45 89 46 90
REMARK H PARENT 85 21 68 43 36 54
REMARK Flexibility Score: inf
ROOT
ATOM      1  C   UNL A   1      35.501  21.523  26.124  1.00  0.00     0.274 C 
ENDROOT
BRANCH   1   2
ATOM      2  O   UNL A   1      34.269  22.017  25.556  1.00  0.00    -0.462 OA
BRANCH   2   3
ATOM      3  C   UNL A   1      33.207  21.988  26.406  1.00  0.00     0.311 C 
ATOM      4  O   UNL A   1      33.313  21.855  27.618  1.00  0.00    -0.252 OA
BRANCH   3   5
ATOM      5  C   UNL A   1      31.897  22.318  25.714  1.00  0.00     0.123 C 
ATOM      6  C   UNL A   1      31.207  23.191  23.430  1.00  0.00     0.032 C 
ATOM      7  C   UNL A   1      32.152  23.369  24.620  1.00  0.00     0.096 C 
ATOM      8  N   UNL A   1      31.910  24.650  25.292  1.00  0.00    -0.338 N 
ATOM      9  C   UNL A   1      30.848  22.985  26.603  1.00  0.00     0.039 C 
ATOM     10  C   UNL A   1      31.158  24.474  26.517  1.00  0.00     0.121 C 
BRANCH   8  11
ATOM     11  C   UNL A   1      32.521  25.874  25.055  1.00  0.00     0.243 C 
ATOM     12  O   UNL A   1      33.722  25.953  24.783  1.00  0.00    -0.273 OA
BRANCH  11  13
ATOM     13  C   UNL A   1      31.627  27.108  25.017  1.00  0.00     0.230 C 
BRANCH  13  14
ATOM     14  N   UNL A   1      32.081  28.207  25.849  1.00  0.00    -0.253 N 
ATOM     15  C   UNL A   1      32.937  29.162  25.374  1.00  0.00     0.250 C 
ATOM     16  C   UNL A   1      31.948  28.337  27.198  1.00  0.00     0.325 C 
ATOM     17  O   UNL A   1      33.213  29.331  24.196  1.00  0.00    -0.272 OA
ATOM     18  C   UNL A   1      33.526  29.930  26.547  1.00  0.00     0.218 C 
ATOM     19  N   UNL A   1      32.817  29.313  27.631  1.00  0.00    -0.329 N 
ATOM     20  O   UNL A   1      31.173  27.757  27.940  1.00  0.00    -0.248 OA
ATOM     21  H   UNL A   1      32.939  29.558  28.577  1.00  0.00     0.165 HD
ENDBRANCH  13  14
ENDBRANCH  11  13
ENDBRANCH   8  11
ENDBRANCH   3   5
ENDBRANCH   2   3
ENDBRANCH   1   2
BRANCH   1  22
ATOM     22  C   UNL A   1      36.365  20.733  25.127  1.00  0.00     0.275 C 
BRANCH  22  23
ATOM     23  O   UNL A   1      37.646  21.351  24.891  1.00  0.00    -0.458 OA
BRANCH  23  24
ATOM     24  C   UNL A   1      38.629  21.001  25.760  1.00  0.00     0.338 C 
ATOM     25  O   UNL A   1      39.024  19.865  25.979  1.00  0.00    -0.246 OA
BRANCH  24  26
ATOM     26  C   UNL A   1      39.334  22.204  26.270  1.00  0.00     0.060 A 
ATOM     27  C   UNL A   1      38.871  23.453  25.825  1.00  0.00     0.016 A 
ATOM     28  C   UNL A   1      40.394  22.141  27.178  1.00  0.00     0.016 A 
ATOM     29  C   UNL A   1      39.452  24.633  26.286  1.00  0.00     0.010 A 
ATOM     30  C   UNL A   1      41.000  23.327  27.617  1.00  0.00     0.010 A 
ATOM     31  C   UNL A   1      40.538  24.576  27.166  1.00  0.00    -0.014 A 
BRANCH  31  32
ATOM     32  C   UNL A   1      41.264  25.821  27.516  1.00  0.00     0.031 A 
ATOM     33  C   UNL A   1      40.530  26.917  28.226  1.00  0.00     0.074 A 
ATOM     34  C   UNL A   1      42.565  25.979  27.215  1.00  0.00     0.049 A 
ATOM     35  N   UNL A   1      40.979  28.074  28.635  1.00  0.00    -0.248 NA
ATOM     36  C   UNL A   1      39.113  26.670  28.536  1.00  0.00     0.031 C 
ATOM     37  C   UNL A   1      43.401  24.972  26.573  1.00  0.00     0.029 A 
ATOM     38  N   UNL A   1      43.401  27.054  27.384  1.00  0.00    -0.354 N 
ATOM     39  C   UNL A   1      39.908  28.689  29.266  1.00  0.00     0.074 A 
ATOM     40  C   UNL A   1      38.778  27.788  29.162  1.00  0.00     0.031 C 
ATOM     41  C   UNL A   1      44.615  25.500  26.341  1.00  0.00     0.029 A 
ATOM     42  C   UNL A   1      44.643  26.876  26.820  1.00  0.00     0.049 A 
ATOM     43  H   UNL A   1      43.138  27.873  27.862  1.00  0.00     0.167 HD
ATOM     44  C   UNL A   1      39.875  29.884  29.898  1.00  0.00     0.034 A 
ATOM     45  C   UNL A   1      45.682  27.725  26.686  1.00  0.00     0.034 A 
ATOM     46  C   UNL A   1      40.985  30.793  29.978  1.00  0.00     0.049 A 
ATOM     47  C   UNL A   1      45.581  29.097  27.295  1.00  0.00     0.074 A 
ATOM     48  C   UNL A   1      41.042  32.026  30.603  1.00  0.00     0.029 A 
ATOM     49  N   UNL A   1      42.224  30.583  29.394  1.00  0.00    -0.354 N 
ATOM     50  N   UNL A   1      44.604  29.615  27.997  1.00  0.00    -0.248 NA
ATOM     51  C   UNL A   1      46.739  29.988  27.129  1.00  0.00     0.031 C 
ATOM     52  C   UNL A   1      42.312  32.571  30.380  1.00  0.00     0.029 A 
ATOM     53  C   UNL A   1      43.050  31.669  29.630  1.00  0.00     0.049 A 
ATOM     54  H   UNL A   1      42.480  29.778  28.888  1.00  0.00     0.167 HD
ATOM     55  C   UNL A   1      45.047  30.868  28.402  1.00  0.00     0.074 A 
ATOM     56  C   UNL A   1      46.383  31.032  27.867  1.00  0.00     0.031 C 
ATOM     57  C   UNL A   1      44.400  31.799  29.144  1.00  0.00     0.034 A 
BRANCH  44  58
ATOM     58  C   UNL A   1      38.592  30.254  30.584  1.00  0.00     0.023 A 
ATOM     59  C   UNL A   1      38.334  29.744  31.873  1.00  0.00     0.012 A 
ATOM     60  C   UNL A   1      37.660  31.112  29.974  1.00  0.00     0.148 A 
ATOM     61  C   UNL A   1      37.152  30.067  32.537  1.00  0.00     0.002 A 
ATOM     62  C   UNL A   1      36.499  31.454  30.656  1.00  0.00     0.091 A 
ATOM     63  F   UNL A   1      37.915  31.556  28.735  1.00  0.00    -0.205 F 
ATOM     64  C   UNL A   1      36.240  30.928  31.933  1.00  0.00     0.022 A 
BRANCH  62  65
ATOM     65  S   UNL A   1      35.286  32.593  29.981  1.00  0.00     0.127 S 
ATOM     66  O   UNL A   1      36.112  33.766  29.698  1.00  0.00    -0.237 OA
ATOM     67  O   UNL A   1      34.815  31.877  28.796  1.00  0.00    -0.237 OA
ATOM     68  O   UNL A   1      34.282  32.770  31.021  1.00  0.00    -0.744 OA
ENDBRANCH  62  65
ENDBRANCH  44  58
BRANCH  45  69
ATOM     69  C   UNL A   1      46.922  27.294  25.982  1.00  0.00     0.023 A 
ATOM     70  C   UNL A   1      47.046  27.505  24.596  1.00  0.00     0.012 A 
ATOM     71  C   UNL A   1      47.979  26.675  26.676  1.00  0.00     0.148 A 
ATOM     72  C   UNL A   1      48.185  27.079  23.909  1.00  0.00     0.002 A 
ATOM     73  C   UNL A   1      49.130  26.292  25.995  1.00  0.00     0.091 A 
ATOM     74  F   UNL A   1      47.836  26.458  27.992  1.00  0.00    -0.205 F 
ATOM     75  C   UNL A   1      49.230  26.480  24.609  1.00  0.00     0.022 A 
BRANCH  73  76
ATOM     76  S   UNL A   1      50.553  25.608  26.853  1.00  0.00     0.127 S 
ATOM     77  O   UNL A   1      51.465  25.328  25.747  1.00  0.00    -0.237 OA
ATOM     78  O   UNL A   1      50.962  26.714  27.721  1.00  0.00    -0.237 OA
ATOM     79  O   UNL A   1      50.045  24.448  27.575  1.00  0.00    -0.744 OA
ENDBRANCH  73  76
ENDBRANCH  45  69
BRANCH  57  80
ATOM     80  C   UNL A   1      45.138  33.072  29.466  1.00  0.00     0.023 A 
ATOM     81  C   UNL A   1      45.956  33.136  30.609  1.00  0.00     0.012 A 
ATOM     82  C   UNL A   1      45.080  34.175  28.592  1.00  0.00     0.148 A 
ATOM     83  C   UNL A   1      46.687  34.290  30.893  1.00  0.00     0.002 A 
ATOM     84  C   UNL A   1      45.846  35.304  28.856  1.00  0.00     0.091 A 
ATOM     85  F   UNL A   1      44.276  34.103  27.521  1.00  0.00    -0.205 F 
ATOM     86  C   UNL A   1      46.642  35.367  30.012  1.00  0.00     0.022 A 
BRANCH  84  87
ATOM     87  S   UNL A   1      45.921  36.699  27.726  1.00  0.00     0.127 S 
ATOM     88  O   UNL A   1      46.392  36.061  26.497  1.00  0.00    -0.237 OA
ATOM     89  O   UNL A   1      44.527  37.143  27.686  1.00  0.00    -0.237 OA
ATOM     90  O   UNL A   1      46.839  37.653  28.331  1.00  0.00    -0.744 OA
ENDBRANCH  84  87
ENDBRANCH  57  80
ENDBRANCH  31  32
ENDBRANCH  24  26
ENDBRANCH  23  24
ENDBRANCH  22  23
ENDBRANCH   1  22
TORSDOF 17
ENDMDL
