MODEL 1
REMARK VINA RESULT:     -10.8      0.000      0.000
REMARK SMILES CC[C@H]1CCCCN1S(=O)(=O)c1ccc2oc(C(=O)OCCOC(=O)c3ccc(-c4c5nc(c(-c6cccc(S(=O)(=O)[O-])c6F)c6ccc([nH]6)c(-c6cccc(S(=O)(=O)[O-])c6F)c6nc(c(-c7cccc(S(=O)(=O)[O-])c7F)c7ccc4[nH]7)C=C6)C=C5)cc3)c(C)c2c1
REMARK SMILES IDX 21 1 20 2 18 3 19 4 17 5 12 6 13 7 92 8 14 9 91 10 15 11
REMARK SMILES IDX 89 12 16 13 90 14 9 15 10 16 11 17 8 18 3 19 4 20 5 21 7 22
REMARK SMILES IDX 6 23 2 24 1 25 22 26 23 27 24 28 25 29 26 30 27 31 88 32
REMARK SMILES IDX 28 33 87 34 29 35 30 36 31 37 81 38 32 39 86 40 80 41 82 42
REMARK SMILES IDX 33 43 85 44 79 45 78 46 34 48 66 49 46 50 65 51 47 52 50 53
REMARK SMILES IDX 64 54 83 55 48 56 49 57 63 59 84 60 51 61 35 62 36 63 44 64
REMARK SMILES IDX 37 65 39 66 45 67 38 68 40 69 41 70 42 71 43 72 67 73 68 74
REMARK SMILES IDX 76 75 69 76 71 77 77 78 70 79 72 80 73 81 74 82 75 83 52 84
REMARK SMILES IDX 53 85 61 86 54 87 56 88 62 89 55 90 57 91 58 92 59 93 60 94
REMARK H PARENT 82 47 50 58
REMARK Flexibility Score: inf
ROOT
ATOM      1  C   UNL A   1      33.256  34.788  28.444  1.00  0.00     0.275 C 
ENDROOT
BRANCH   1   2
ATOM      2  O   UNL A   1      32.601  34.700  29.722  1.00  0.00    -0.456 OA
BRANCH   2   3
ATOM      3  C   UNL A   1      32.923  35.671  30.628  1.00  0.00     0.374 C 
ATOM      4  O   UNL A   1      32.456  36.799  30.613  1.00  0.00    -0.242 OA
BRANCH   3   5
ATOM      5  C   UNL A   1      33.831  35.152  31.632  1.00  0.00     0.215 A 
ATOM      6  C   UNL A   1      36.690  33.241  34.646  1.00  0.00     0.083 A 
ATOM      7  C   UNL A   1      36.685  32.240  33.670  1.00  0.00     0.025 A 
ATOM      8  C   UNL A   1      36.064  34.482  34.434  1.00  0.00     0.034 A 
ATOM      9  C   UNL A   1      35.958  32.419  32.486  1.00  0.00     0.049 A 
ATOM     10  C   UNL A   1      35.251  34.629  33.302  1.00  0.00     0.025 A 
ATOM     11  C   UNL A   1      35.222  33.600  32.377  1.00  0.00     0.135 A 
ATOM     12  C   UNL A   1      34.332  35.624  32.842  1.00  0.00     0.010 A 
ATOM     13  O   UNL A   1      34.366  33.910  31.374  1.00  0.00    -0.449 OA
ATOM     14  C   UNL A   1      33.985  36.860  33.590  1.00  0.00     0.049 C 
BRANCH   6  15
ATOM     15  S   UNL A   1      37.450  32.965  36.230  1.00  0.00     0.243 S 
ATOM     16  O   UNL A   1      38.258  31.769  36.114  1.00  0.00    -0.207 OA
ATOM     17  O   UNL A   1      36.433  33.086  37.252  1.00  0.00    -0.207 OA
BRANCH  15  18
ATOM     18  N   UNL A   1      38.524  34.314  36.400  1.00  0.00    -0.195 NA
ATOM     19  C   UNL A   1      38.779  34.721  37.836  1.00  0.00     0.073 C 
ATOM     20  C   UNL A   1      39.531  36.064  37.836  1.00  0.00     0.020 C 
ATOM     21  C   UNL A   1      40.839  35.987  37.059  1.00  0.00     0.003 C 
ATOM     22  C   UNL A   1      39.766  34.258  35.574  1.00  0.00     0.103 C 
ATOM     23  C   UNL A   1      40.548  35.564  35.631  1.00  0.00     0.017 C 
BRANCH  19  24
ATOM     24  C   UNL A   1      39.476  33.602  38.640  1.00  0.00     0.017 C 
ATOM     25  C   UNL A   1      39.583  33.862  40.136  1.00  0.00     0.005 C 
ENDBRANCH  19  24
ENDBRANCH  15  18
ENDBRANCH   6  15
ENDBRANCH   3   5
ENDBRANCH   2   3
ENDBRANCH   1   2
BRANCH   1  26
ATOM     26  C   UNL A   1      33.551  33.399  27.868  1.00  0.00     0.275 C 
BRANCH  26  27
ATOM     27  O   UNL A   1      34.483  32.662  28.680  1.00  0.00    -0.458 OA
BRANCH  27  28
ATOM     28  C   UNL A   1      34.748  31.404  28.250  1.00  0.00     0.338 C 
ATOM     29  O   UNL A   1      34.147  30.795  27.380  1.00  0.00    -0.246 OA
BRANCH  28  30
ATOM     30  C   UNL A   1      35.978  30.892  28.885  1.00  0.00     0.060 A 
ATOM     31  C   UNL A   1      37.194  31.438  28.466  1.00  0.00     0.016 A 
ATOM     32  C   UNL A   1      35.959  29.845  29.809  1.00  0.00     0.016 A 
ATOM     33  C   UNL A   1      38.397  30.939  28.955  1.00  0.00     0.010 A 
ATOM     34  C   UNL A   1      37.171  29.334  30.294  1.00  0.00     0.010 A 
ATOM     35  C   UNL A   1      38.397  29.865  29.852  1.00  0.00    -0.014 A 
BRANCH  35  36
ATOM     36  C   UNL A   1      39.690  29.251  30.239  1.00  0.00     0.031 A 
ATOM     37  C   UNL A   1      40.417  29.759  31.453  1.00  0.00     0.074 A 
ATOM     38  C   UNL A   1      40.188  28.217  29.536  1.00  0.00     0.049 A 
ATOM     39  N   UNL A   1      41.551  29.357  31.965  1.00  0.00    -0.248 NA
ATOM     40  C   UNL A   1      39.784  30.865  32.189  1.00  0.00     0.031 C 
ATOM     41  C   UNL A   1      39.567  27.629  28.349  1.00  0.00     0.029 A 
ATOM     42  N   UNL A   1      41.332  27.481  29.717  1.00  0.00    -0.354 N 
ATOM     43  C   UNL A   1      41.787  30.180  33.060  1.00  0.00     0.074 A 
ATOM     44  C   UNL A   1      40.681  31.109  33.135  1.00  0.00     0.031 C 
ATOM     45  C   UNL A   1      40.343  26.627  27.901  1.00  0.00     0.029 A 
ATOM     46  C   UNL A   1      41.523  26.517  28.755  1.00  0.00     0.049 A 
ATOM     47  H   UNL A   1      41.955  27.629  30.464  1.00  0.00     0.167 HD
ATOM     48  C   UNL A   1      42.821  30.154  33.933  1.00  0.00     0.034 A 
ATOM     49  C   UNL A   1      42.540  25.648  28.581  1.00  0.00     0.034 A 
ATOM     50  C   UNL A   1      43.897  29.202  33.883  1.00  0.00     0.049 A 
ATOM     51  C   UNL A   1      43.668  25.629  29.579  1.00  0.00     0.074 A 
ATOM     52  C   UNL A   1      44.978  29.080  34.739  1.00  0.00     0.029 A 
ATOM     53  N   UNL A   1      44.026  28.203  32.931  1.00  0.00    -0.354 N 
ATOM     54  N   UNL A   1      43.826  26.354  30.660  1.00  0.00    -0.248 NA
ATOM     55  C   UNL A   1      44.739  24.648  29.353  1.00  0.00     0.031 C 
ATOM     56  C   UNL A   1      45.765  28.008  34.299  1.00  0.00     0.029 A 
ATOM     57  C   UNL A   1      45.165  27.456  33.178  1.00  0.00     0.049 A 
ATOM     58  H   UNL A   1      43.399  28.047  32.188  1.00  0.00     0.167 HD
ATOM     59  C   UNL A   1      44.993  25.894  31.261  1.00  0.00     0.074 A 
ATOM     60  C   UNL A   1      45.490  24.813  30.435  1.00  0.00     0.031 C 
ATOM     61  C   UNL A   1      45.608  26.339  32.386  1.00  0.00     0.034 A 
BRANCH  48  62
ATOM     62  C   UNL A   1      42.820  31.169  35.044  1.00  0.00     0.023 A 
ATOM     63  C   UNL A   1      42.145  30.881  36.247  1.00  0.00     0.012 A 
ATOM     64  C   UNL A   1      43.524  32.382  34.919  1.00  0.00     0.148 A 
ATOM     65  C   UNL A   1      42.149  31.796  37.300  1.00  0.00     0.002 A 
ATOM     66  C   UNL A   1      43.554  33.274  35.986  1.00  0.00     0.091 A 
ATOM     67  F   UNL A   1      44.137  32.650  33.757  1.00  0.00    -0.205 F 
ATOM     68  C   UNL A   1      42.862  32.986  37.173  1.00  0.00     0.022 A 
BRANCH  66  69
ATOM     69  S   UNL A   1      44.501  34.800  35.939  1.00  0.00     0.127 S 
ATOM     70  O   UNL A   1      44.242  35.349  37.269  1.00  0.00    -0.237 OA
ATOM     71  O   UNL A   1      45.866  34.313  35.736  1.00  0.00    -0.237 OA
ATOM     72  O   UNL A   1      43.963  35.568  34.825  1.00  0.00    -0.744 OA
ENDBRANCH  66  69
ENDBRANCH  48  62
BRANCH  49  73
ATOM     73  C   UNL A   1      42.508  24.685  27.443  1.00  0.00     0.023 A 
ATOM     74  C   UNL A   1      43.291  24.936  26.300  1.00  0.00     0.012 A 
ATOM     75  C   UNL A   1      41.729  23.513  27.497  1.00  0.00     0.148 A 
ATOM     76  C   UNL A   1      43.278  24.052  25.221  1.00  0.00     0.002 A 
ATOM     77  C   UNL A   1      41.762  22.610  26.442  1.00  0.00     0.091 A 
ATOM     78  F   UNL A   1      40.970  23.303  28.582  1.00  0.00    -0.205 F 
ATOM     79  C   UNL A   1      42.523  22.883  25.296  1.00  0.00     0.022 A 
BRANCH  77  80
ATOM     80  S   UNL A   1      40.920  21.024  26.517  1.00  0.00     0.127 S 
ATOM     81  O   UNL A   1      39.619  21.348  25.937  1.00  0.00    -0.237 OA
ATOM     82  O   UNL A   1      41.775  20.182  25.679  1.00  0.00    -0.237 OA
ATOM     83  O   UNL A   1      40.917  20.654  27.926  1.00  0.00    -0.744 OA
ENDBRANCH  77  80
ENDBRANCH  49  73
BRANCH  61  84
ATOM     84  C   UNL A   1      46.869  25.637  32.817  1.00  0.00     0.023 A 
ATOM     85  C   UNL A   1      48.116  26.091  32.343  1.00  0.00     0.012 A 
ATOM     86  C   UNL A   1      46.826  24.583  33.750  1.00  0.00     0.148 A 
ATOM     87  C   UNL A   1      49.298  25.486  32.768  1.00  0.00     0.002 A 
ATOM     88  C   UNL A   1      48.010  24.013  34.202  1.00  0.00     0.091 A 
ATOM     89  F   UNL A   1      45.629  24.150  34.173  1.00  0.00    -0.205 F 
ATOM     90  C   UNL A   1      49.246  24.458  33.706  1.00  0.00     0.022 A 
BRANCH  88  91
ATOM     91  S   UNL A   1      48.030  22.746  35.475  1.00  0.00     0.127 S 
ATOM     92  O   UNL A   1      47.228  21.690  34.861  1.00  0.00    -0.237 OA
ATOM     93  O   UNL A   1      49.457  22.437  35.593  1.00  0.00    -0.237 OA
ATOM     94  O   UNL A   1      47.456  23.371  36.660  1.00  0.00    -0.744 OA
ENDBRANCH  88  91
ENDBRANCH  61  84
ENDBRANCH  35  36
ENDBRANCH  28  30
ENDBRANCH  27  28
ENDBRANCH  26  27
ENDBRANCH   1  26
TORSDOF 17
ENDMDL
MODEL 2
REMARK VINA RESULT:     -10.5      5.746     12.280
REMARK SMILES CC[C@H]1CCCCN1S(=O)(=O)c1ccc2oc(C(=O)OCCOC(=O)c3ccc(-c4c5nc(c(-c6cccc(S(=O)(=O)[O-])c6F)c6ccc([nH]6)c(-c6cccc(S(=O)(=O)[O-])c6F)c6nc(c(-c7cccc(S(=O)(=O)[O-])c7F)c7ccc4[nH]7)C=C6)C=C5)cc3)c(C)c2c1
REMARK SMILES IDX 21 1 20 2 18 3 19 4 17 5 12 6 13 7 92 8 14 9 91 10 15 11
REMARK SMILES IDX 89 12 16 13 90 14 9 15 10 16 11 17 8 18 3 19 4 20 5 21 7 22
REMARK SMILES IDX 6 23 2 24 1 25 22 26 23 27 24 28 25 29 26 30 27 31 88 32
REMARK SMILES IDX 28 33 87 34 29 35 30 36 31 37 81 38 32 39 86 40 80 41 82 42
REMARK SMILES IDX 33 43 85 44 79 45 78 46 34 48 66 49 46 50 65 51 47 52 50 53
REMARK SMILES IDX 64 54 83 55 48 56 49 57 63 59 84 60 51 61 35 62 36 63 44 64
REMARK SMILES IDX 37 65 39 66 45 67 38 68 40 69 41 70 42 71 43 72 67 73 68 74
REMARK SMILES IDX 76 75 69 76 71 77 77 78 70 79 72 80 73 81 74 82 75 83 52 84
REMARK SMILES IDX 53 85 61 86 54 87 56 88 62 89 55 90 57 91 58 92 59 93 60 94
REMARK H PARENT 82 47 50 58
REMARK Flexibility Score: inf
ROOT
ATOM      1  C   UNL A   1      37.459  19.630  24.702  1.00  0.00     0.275 C 
ENDROOT
BRANCH   1   2
ATOM      2  O   UNL A   1      36.511  20.396  25.467  1.00  0.00    -0.456 OA
BRANCH   2   3
ATOM      3  C   UNL A   1      35.245  20.463  24.957  1.00  0.00     0.374 C 
ATOM      4  O   UNL A   1      34.574  19.484  24.670  1.00  0.00    -0.242 OA
BRANCH   3   5
ATOM      5  C   UNL A   1      34.798  21.840  24.874  1.00  0.00     0.215 A 
ATOM      6  C   UNL A   1      33.464  26.176  24.305  1.00  0.00     0.083 A 
ATOM      7  C   UNL A   1      33.635  25.812  22.967  1.00  0.00     0.025 A 
ATOM      8  C   UNL A   1      33.549  25.231  25.344  1.00  0.00     0.034 A 
ATOM      9  C   UNL A   1      34.002  24.502  22.637  1.00  0.00     0.049 A 
ATOM     10  C   UNL A   1      34.018  23.947  25.034  1.00  0.00     0.025 A 
ATOM     11  C   UNL A   1      34.230  23.630  23.703  1.00  0.00     0.135 A 
ATOM     12  C   UNL A   1      34.409  22.804  25.799  1.00  0.00     0.010 A 
ATOM     13  O   UNL A   1      34.704  22.365  23.605  1.00  0.00    -0.449 OA
ATOM     14  C   UNL A   1      34.432  22.752  27.284  1.00  0.00     0.049 C 
BRANCH   6  15
ATOM     15  S   UNL A   1      33.180  27.872  24.761  1.00  0.00     0.243 S 
ATOM     16  O   UNL A   1      34.210  28.664  24.120  1.00  0.00    -0.207 OA
ATOM     17  O   UNL A   1      32.968  27.932  26.191  1.00  0.00    -0.207 OA
BRANCH  15  18
ATOM     18  N   UNL A   1      31.673  28.247  23.992  1.00  0.00    -0.195 NA
ATOM     19  C   UNL A   1      30.672  27.112  24.016  1.00  0.00     0.073 C 
ATOM     20  C   UNL A   1      29.495  27.481  23.094  1.00  0.00     0.020 C 
ATOM     21  C   UNL A   1      28.834  28.789  23.507  1.00  0.00     0.003 C 
ATOM     22  C   UNL A   1      31.077  29.568  24.350  1.00  0.00     0.103 C 
ATOM     23  C   UNL A   1      29.868  29.900  23.485  1.00  0.00     0.017 C 
BRANCH  19  24
ATOM     24  C   UNL A   1      30.257  26.735  25.456  1.00  0.00     0.017 C 
ATOM     25  C   UNL A   1      29.997  25.252  25.677  1.00  0.00     0.005 C 
ENDBRANCH  19  24
ENDBRANCH  15  18
ENDBRANCH   6  15
ENDBRANCH   3   5
ENDBRANCH   2   3
ENDBRANCH   1   2
BRANCH   1  26
ATOM     26  C   UNL A   1      38.791  19.481  25.447  1.00  0.00     0.275 C 
BRANCH  26  27
ATOM     27  O   UNL A   1      39.365  20.756  25.790  1.00  0.00    -0.458 OA
BRANCH  27  28
ATOM     28  C   UNL A   1      40.414  20.699  26.646  1.00  0.00     0.338 C 
ATOM     29  O   UNL A   1      41.102  19.719  26.885  1.00  0.00    -0.246 OA
BRANCH  28  30
ATOM     30  C   UNL A   1      40.724  22.044  27.169  1.00  0.00     0.060 A 
ATOM     31  C   UNL A   1      40.182  23.139  26.492  1.00  0.00     0.016 A 
ATOM     32  C   UNL A   1      41.589  22.242  28.248  1.00  0.00     0.016 A 
ATOM     33  C   UNL A   1      40.507  24.436  26.875  1.00  0.00     0.010 A 
ATOM     34  C   UNL A   1      41.925  23.549  28.628  1.00  0.00     0.010 A 
ATOM     35  C   UNL A   1      41.402  24.652  27.929  1.00  0.00    -0.014 A 
BRANCH  35  36
ATOM     36  C   UNL A   1      41.852  26.036  28.218  1.00  0.00     0.031 A 
ATOM     37  C   UNL A   1      43.234  26.465  27.810  1.00  0.00     0.074 A 
ATOM     38  C   UNL A   1      41.015  26.915  28.799  1.00  0.00     0.049 A 
ATOM     39  N   UNL A   1      43.817  27.625  27.961  1.00  0.00    -0.248 NA
ATOM     40  C   UNL A   1      44.071  25.454  27.143  1.00  0.00     0.031 C 
ATOM     41  C   UNL A   1      39.647  26.619  29.227  1.00  0.00     0.029 A 
ATOM     42  N   UNL A   1      41.194  28.233  29.133  1.00  0.00    -0.354 N 
ATOM     43  C   UNL A   1      45.098  27.477  27.443  1.00  0.00     0.074 A 
ATOM     44  C   UNL A   1      45.210  26.112  26.977  1.00  0.00     0.031 C 
ATOM     45  C   UNL A   1      39.114  27.724  29.776  1.00  0.00     0.029 A 
ATOM     46  C   UNL A   1      40.106  28.795  29.758  1.00  0.00     0.049 A 
ATOM     47  H   UNL A   1      42.023  28.730  28.943  1.00  0.00     0.167 HD
ATOM     48  C   UNL A   1      46.085  28.399  27.347  1.00  0.00     0.034 A 
ATOM     49  C   UNL A   1      39.934  30.033  30.264  1.00  0.00     0.034 A 
ATOM     50  C   UNL A   1      45.957  29.767  27.769  1.00  0.00     0.049 A 
ATOM     51  C   UNL A   1      41.042  31.044  30.126  1.00  0.00     0.074 A 
ATOM     52  C   UNL A   1      46.894  30.783  27.691  1.00  0.00     0.029 A 
ATOM     53  N   UNL A   1      44.821  30.315  28.342  1.00  0.00    -0.354 N 
ATOM     54  N   UNL A   1      42.213  30.911  29.550  1.00  0.00    -0.248 NA
ATOM     55  C   UNL A   1      40.793  32.384  30.676  1.00  0.00     0.031 C 
ATOM     56  C   UNL A   1      46.324  31.946  28.222  1.00  0.00     0.029 A 
ATOM     57  C   UNL A   1      45.028  31.655  28.619  1.00  0.00     0.049 A 
ATOM     58  H   UNL A   1      43.988  29.823  28.526  1.00  0.00     0.167 HD
ATOM     59  C   UNL A   1      42.824  32.157  29.636  1.00  0.00     0.074 A 
ATOM     60  C   UNL A   1      41.886  33.038  30.302  1.00  0.00     0.031 C 
ATOM     61  C   UNL A   1      44.058  32.535  29.219  1.00  0.00     0.034 A 
BRANCH  48  62
ATOM     62  C   UNL A   1      47.386  27.964  26.726  1.00  0.00     0.023 A 
ATOM     63  C   UNL A   1      48.461  27.592  27.558  1.00  0.00     0.012 A 
ATOM     64  C   UNL A   1      47.529  27.878  25.328  1.00  0.00     0.148 A 
ATOM     65  C   UNL A   1      49.669  27.164  27.007  1.00  0.00     0.002 A 
ATOM     66  C   UNL A   1      48.724  27.415  24.787  1.00  0.00     0.091 A 
ATOM     67  F   UNL A   1      46.505  28.262  24.554  1.00  0.00    -0.205 F 
ATOM     68  C   UNL A   1      49.796  27.065  25.624  1.00  0.00     0.022 A 
BRANCH  66  69
ATOM     69  S   UNL A   1      48.957  27.191  23.020  1.00  0.00     0.127 S 
ATOM     70  O   UNL A   1      50.411  27.074  22.926  1.00  0.00    -0.237 OA
ATOM     71  O   UNL A   1      48.228  25.947  22.765  1.00  0.00    -0.237 OA
ATOM     72  O   UNL A   1      48.378  28.369  22.389  1.00  0.00    -0.744 OA
ENDBRANCH  66  69
ENDBRANCH  48  62
BRANCH  49  73
ATOM     73  C   UNL A   1      38.636  30.403  30.899  1.00  0.00     0.023 A 
ATOM     74  C   UNL A   1      38.387  30.033  32.235  1.00  0.00     0.012 A 
ATOM     75  C   UNL A   1      37.661  31.138  30.198  1.00  0.00     0.148 A 
ATOM     76  C   UNL A   1      37.181  30.365  32.852  1.00  0.00     0.002 A 
ATOM     77  C   UNL A   1      36.484  31.512  30.835  1.00  0.00     0.091 A 
ATOM     78  F   UNL A   1      37.904  31.460  28.919  1.00  0.00    -0.205 F 
ATOM     79  C   UNL A   1      36.234  31.114  32.157  1.00  0.00     0.022 A 
BRANCH  77  80
ATOM     80  S   UNL A   1      35.274  32.584  30.052  1.00  0.00     0.127 S 
ATOM     81  O   UNL A   1      36.081  33.754  29.718  1.00  0.00    -0.237 OA
ATOM     82  O   UNL A   1      34.849  31.782  28.903  1.00  0.00    -0.237 OA
ATOM     83  O   UNL A   1      34.233  32.788  31.051  1.00  0.00    -0.744 OA
ENDBRANCH  77  80
ENDBRANCH  49  73
BRANCH  61  84
ATOM     84  C   UNL A   1      44.460  33.970  29.433  1.00  0.00     0.023 A 
ATOM     85  C   UNL A   1      45.116  34.341  30.624  1.00  0.00     0.012 A 
ATOM     86  C   UNL A   1      44.261  34.934  28.425  1.00  0.00     0.148 A 
ATOM     87  C   UNL A   1      45.539  35.655  30.820  1.00  0.00     0.002 A 
ATOM     88  C   UNL A   1      44.724  36.231  28.610  1.00  0.00     0.091 A 
ATOM     89  F   UNL A   1      43.616  34.569  27.307  1.00  0.00    -0.205 F 
ATOM     90  C   UNL A   1      45.355  36.595  29.810  1.00  0.00     0.022 A 
BRANCH  88  91
ATOM     91  S   UNL A   1      44.605  37.476  27.320  1.00  0.00     0.127 S 
ATOM     92  O   UNL A   1      45.739  37.131  26.465  1.00  0.00    -0.237 OA
ATOM     93  O   UNL A   1      43.293  37.199  26.732  1.00  0.00    -0.237 OA
ATOM     94  O   UNL A   1      44.694  38.760  28.003  1.00  0.00    -0.744 OA
ENDBRANCH  88  91
ENDBRANCH  61  84
ENDBRANCH  35  36
ENDBRANCH  28  30
ENDBRANCH  27  28
ENDBRANCH  26  27
ENDBRANCH   1  26
TORSDOF 17
ENDMDL
MODEL 3
REMARK VINA RESULT:     -10.5      5.920     12.163
REMARK SMILES CC[C@H]1CCCCN1S(=O)(=O)c1ccc2oc(C(=O)OCCOC(=O)c3ccc(-c4c5nc(c(-c6cccc(S(=O)(=O)[O-])c6F)c6ccc([nH]6)c(-c6cccc(S(=O)(=O)[O-])c6F)c6nc(c(-c7cccc(S(=O)(=O)[O-])c7F)c7ccc4[nH]7)C=C6)C=C5)cc3)c(C)c2c1
REMARK SMILES IDX 21 1 20 2 18 3 19 4 17 5 12 6 13 7 92 8 14 9 91 10 15 11
REMARK SMILES IDX 89 12 16 13 90 14 9 15 10 16 11 17 8 18 3 19 4 20 5 21 7 22
REMARK SMILES IDX 6 23 2 24 1 25 22 26 23 27 24 28 25 29 26 30 27 31 88 32
REMARK SMILES IDX 28 33 87 34 29 35 30 36 31 37 81 38 32 39 86 40 80 41 82 42
REMARK SMILES IDX 33 43 85 44 79 45 78 46 34 48 66 49 46 50 65 51 47 52 50 53
REMARK SMILES IDX 64 54 83 55 48 56 49 57 63 59 84 60 51 61 35 62 36 63 44 64
REMARK SMILES IDX 37 65 39 66 45 67 38 68 40 69 41 70 42 71 43 72 67 73 68 74
REMARK SMILES IDX 76 75 69 76 71 77 77 78 70 79 72 80 73 81 74 82 75 83 52 84
REMARK SMILES IDX 53 85 61 86 54 87 56 88 62 89 55 90 57 91 58 92 59 93 60 94
REMARK H PARENT 82 47 50 58
REMARK Flexibility Score: inf
ROOT
ATOM      1  C   UNL A   1      34.943  20.626  25.149  1.00  0.00     0.275 C 
ENDROOT
BRANCH   1   2
ATOM      2  O   UNL A   1      34.244  19.377  25.008  1.00  0.00    -0.456 OA
BRANCH   2   3
ATOM      3  C   UNL A   1      32.881  19.442  25.095  1.00  0.00     0.374 C 
ATOM      4  O   UNL A   1      32.168  18.482  25.342  1.00  0.00    -0.242 OA
BRANCH   3   5
ATOM      5  C   UNL A   1      32.422  20.806  24.921  1.00  0.00     0.215 A 
ATOM      6  C   UNL A   1      30.918  25.117  24.685  1.00  0.00     0.083 A 
ATOM      7  C   UNL A   1      31.001  24.980  26.073  1.00  0.00     0.025 A 
ATOM      8  C   UNL A   1      31.407  24.127  23.814  1.00  0.00     0.034 A 
ATOM      9  C   UNL A   1      31.486  23.792  26.633  1.00  0.00     0.049 A 
ATOM     10  C   UNL A   1      31.795  22.897  24.363  1.00  0.00     0.025 A 
ATOM     11  C   UNL A   1      31.818  22.771  25.741  1.00  0.00     0.135 A 
ATOM     12  C   UNL A   1      32.157  21.622  23.825  1.00  0.00     0.010 A 
ATOM     13  O   UNL A   1      32.190  21.513  26.079  1.00  0.00    -0.449 OA
ATOM     14  C   UNL A   1      32.165  21.290  22.377  1.00  0.00     0.049 C 
BRANCH   6  15
ATOM     15  S   UNL A   1      30.136  26.538  23.954  1.00  0.00     0.243 S 
ATOM     16  O   UNL A   1      28.721  26.443  24.245  1.00  0.00    -0.207 OA
ATOM     17  O   UNL A   1      30.614  26.674  22.595  1.00  0.00    -0.207 OA
BRANCH  15  18
ATOM     18  N   UNL A   1      30.775  27.863  24.868  1.00  0.00    -0.195 NA
ATOM     19  C   UNL A   1      32.108  27.571  25.525  1.00  0.00     0.073 C 
ATOM     20  C   UNL A   1      32.434  28.720  26.497  1.00  0.00     0.020 C 
ATOM     21  C   UNL A   1      32.465  30.071  25.797  1.00  0.00     0.003 C 
ATOM     22  C   UNL A   1      30.728  29.195  24.196  1.00  0.00     0.103 C 
ATOM     23  C   UNL A   1      31.120  30.324  25.140  1.00  0.00     0.017 C 
BRANCH  19  24
ATOM     24  C   UNL A   1      33.215  27.285  24.486  1.00  0.00     0.017 C 
ATOM     25  C   UNL A   1      34.275  26.292  24.940  1.00  0.00     0.005 C 
ENDBRANCH  19  24
ENDBRANCH  15  18
ENDBRANCH   6  15
ENDBRANCH   3   5
ENDBRANCH   2   3
ENDBRANCH   1   2
BRANCH   1  26
ATOM     26  C   UNL A   1      36.458  20.440  25.000  1.00  0.00     0.275 C 
BRANCH  26  27
ATOM     27  O   UNL A   1      37.193  21.591  25.456  1.00  0.00    -0.458 OA
BRANCH  27  28
ATOM     28  C   UNL A   1      38.470  21.342  25.835  1.00  0.00     0.338 C 
ATOM     29  O   UNL A   1      39.104  20.322  25.615  1.00  0.00    -0.246 OA
BRANCH  28  30
ATOM     30  C   UNL A   1      39.069  22.544  26.445  1.00  0.00     0.060 A 
ATOM     31  C   UNL A   1      38.473  23.776  26.162  1.00  0.00     0.016 A 
ATOM     32  C   UNL A   1      40.235  22.488  27.212  1.00  0.00     0.016 A 
ATOM     33  C   UNL A   1      39.038  24.957  26.629  1.00  0.00     0.010 A 
ATOM     34  C   UNL A   1      40.811  23.680  27.674  1.00  0.00     0.010 A 
ATOM     35  C   UNL A   1      40.227  24.921  27.366  1.00  0.00    -0.014 A 
BRANCH  35  36
ATOM     36  C   UNL A   1      40.893  26.199  27.720  1.00  0.00     0.031 A 
ATOM     37  C   UNL A   1      42.301  26.452  27.259  1.00  0.00     0.074 A 
ATOM     38  C   UNL A   1      40.226  27.144  28.408  1.00  0.00     0.049 A 
ATOM     39  N   UNL A   1      43.059  27.500  27.453  1.00  0.00    -0.248 NA
ATOM     40  C   UNL A   1      42.944  25.382  26.477  1.00  0.00     0.031 C 
ATOM     41  C   UNL A   1      38.852  27.020  28.896  1.00  0.00     0.029 A 
ATOM     42  N   UNL A   1      40.617  28.394  28.818  1.00  0.00    -0.354 N 
ATOM     43  C   UNL A   1      44.275  27.206  26.850  1.00  0.00     0.074 A 
ATOM     44  C   UNL A   1      44.159  25.878  26.288  1.00  0.00     0.031 C 
ATOM     45  C   UNL A   1      38.518  28.146  29.549  1.00  0.00     0.029 A 
ATOM     46  C   UNL A   1      39.658  29.060  29.544  1.00  0.00     0.049 A 
ATOM     47  H   UNL A   1      41.500  28.777  28.613  1.00  0.00     0.167 HD
ATOM     48  C   UNL A   1      45.383  27.979  26.757  1.00  0.00     0.034 A 
ATOM     49  C   UNL A   1      39.698  30.268  30.141  1.00  0.00     0.034 A 
ATOM     50  C   UNL A   1      45.483  29.315  27.276  1.00  0.00     0.049 A 
ATOM     51  C   UNL A   1      40.936  31.114  30.005  1.00  0.00     0.074 A 
ATOM     52  C   UNL A   1      46.556  30.187  27.210  1.00  0.00     0.029 A 
ATOM     53  N   UNL A   1      44.471  29.979  27.953  1.00  0.00    -0.354 N 
ATOM     54  N   UNL A   1      42.044  30.856  29.351  1.00  0.00    -0.248 NA
ATOM     55  C   UNL A   1      40.919  32.431  30.657  1.00  0.00     0.031 C 
ATOM     56  C   UNL A   1      46.193  31.377  27.852  1.00  0.00     0.029 A 
ATOM     57  C   UNL A   1      44.890  31.250  28.306  1.00  0.00     0.049 A 
ATOM     58  H   UNL A   1      43.584  29.601  28.152  1.00  0.00     0.167 HD
ATOM     59  C   UNL A   1      42.839  31.990  29.484  1.00  0.00     0.074 A 
ATOM     60  C   UNL A   1      42.077  32.945  30.262  1.00  0.00     0.031 C 
ATOM     61  C   UNL A   1      44.093  32.213  29.020  1.00  0.00     0.034 A 
BRANCH  48  62
ATOM     62  C   UNL A   1      46.572  27.407  26.032  1.00  0.00     0.023 A 
ATOM     63  C   UNL A   1      46.654  27.527  24.630  1.00  0.00     0.012 A 
ATOM     64  C   UNL A   1      47.627  26.798  26.737  1.00  0.00     0.148 A 
ATOM     65  C   UNL A   1      47.756  27.025  23.938  1.00  0.00     0.002 A 
ATOM     66  C   UNL A   1      48.740  26.333  26.044  1.00  0.00     0.091 A 
ATOM     67  F   UNL A   1      47.519  26.669  28.067  1.00  0.00    -0.205 F 
ATOM     68  C   UNL A   1      48.803  26.439  24.645  1.00  0.00     0.022 A 
BRANCH  66  69
ATOM     69  S   UNL A   1      50.166  25.624  26.876  1.00  0.00     0.127 S 
ATOM     70  O   UNL A   1      50.541  26.701  27.790  1.00  0.00    -0.237 OA
ATOM     71  O   UNL A   1      49.591  24.445  27.528  1.00  0.00    -0.237 OA
ATOM     72  O   UNL A   1      51.131  25.322  25.828  1.00  0.00    -0.744 OA
ENDBRANCH  66  69
ENDBRANCH  48  62
BRANCH  49  73
ATOM     73  C   UNL A   1      38.503  30.774  30.876  1.00  0.00     0.023 A 
ATOM     74  C   UNL A   1      38.433  30.621  32.274  1.00  0.00     0.012 A 
ATOM     75  C   UNL A   1      37.452  31.427  30.204  1.00  0.00     0.148 A 
ATOM     76  C   UNL A   1      37.325  31.083  32.985  1.00  0.00     0.002 A 
ATOM     77  C   UNL A   1      36.377  31.933  30.924  1.00  0.00     0.091 A 
ATOM     78  F   UNL A   1      37.523  31.541  28.870  1.00  0.00    -0.205 F 
ATOM     79  C   UNL A   1      36.303  31.750  32.313  1.00  0.00     0.022 A 
BRANCH  77  80
ATOM     80  S   UNL A   1      35.086  32.914  30.150  1.00  0.00     0.127 S 
ATOM     81  O   UNL A   1      34.548  31.978  29.166  1.00  0.00    -0.237 OA
ATOM     82  O   UNL A   1      34.197  33.199  31.277  1.00  0.00    -0.237 OA
ATOM     83  O   UNL A   1      35.761  34.088  29.613  1.00  0.00    -0.744 OA
ENDBRANCH  77  80
ENDBRANCH  49  73
BRANCH  61  84
ATOM     84  C   UNL A   1      44.716  33.555  29.305  1.00  0.00     0.023 A 
ATOM     85  C   UNL A   1      45.482  33.734  30.474  1.00  0.00     0.012 A 
ATOM     86  C   UNL A   1      44.608  34.612  28.380  1.00  0.00     0.148 A 
ATOM     87  C   UNL A   1      46.107  34.953  30.732  1.00  0.00     0.002 A 
ATOM     88  C   UNL A   1      45.269  35.811  28.623  1.00  0.00     0.091 A 
ATOM     89  F   UNL A   1      43.857  34.431  27.284  1.00  0.00    -0.205 F 
ATOM     90  C   UNL A   1      46.011  35.986  29.802  1.00  0.00     0.022 A 
BRANCH  88  91
ATOM     91  S   UNL A   1      45.268  37.155  27.431  1.00  0.00     0.127 S 
ATOM     92  O   UNL A   1      46.303  36.725  26.494  1.00  0.00    -0.237 OA
ATOM     93  O   UNL A   1      43.905  37.105  26.898  1.00  0.00    -0.237 OA
ATOM     94  O   UNL A   1      45.566  38.359  28.197  1.00  0.00    -0.744 OA
ENDBRANCH  88  91
ENDBRANCH  61  84
ENDBRANCH  35  36
ENDBRANCH  28  30
ENDBRANCH  27  28
ENDBRANCH  26  27
ENDBRANCH   1  26
TORSDOF 17
ENDMDL
