MODEL 1
REMARK VINA RESULT:     -11.5      0.000      0.000
REMARK SMILES CC(C)(C)SCC(=O)N1CC(n2cc(C(=O)OCCOC(=O)c3ccc(-c4c5nc(c(-c6cccc(S(=O)(=O)[O-])c6F)c6ccc([nH]6)c(-c6cccc(S(=O)(=O)[O-])c6F)c6nc(c(-c7cccc(S(=O)(=O)[O-])c7F)c7ccc4[nH]7)C=C6)C=C5)cc3)nn2)C1
REMARK SMILES IDX 18 1 17 2 15 3 16 4 14 5 12 6 13 7 87 8 86 9 11 10 7 11 8 12
REMARK SMILES IDX 9 13 10 14 88 15 6 16 5 17 2 18 1 19 3 20 4 21 19 22 20 23
REMARK SMILES IDX 21 24 22 25 23 26 24 27 85 28 25 29 84 30 26 31 27 32 28 33
REMARK SMILES IDX 78 34 29 35 83 36 77 37 79 38 30 39 82 40 76 41 75 42 31 44
REMARK SMILES IDX 63 45 43 46 62 47 44 48 47 49 61 50 80 51 45 52 46 53 60 55
REMARK SMILES IDX 81 56 48 57 32 58 33 59 41 60 34 61 36 62 42 63 35 64 37 65
REMARK SMILES IDX 38 66 39 67 40 68 64 69 65 70 73 71 66 72 68 73 74 74 67 75
REMARK SMILES IDX 69 76 70 77 71 78 72 79 49 80 50 81 58 82 51 83 53 84 59 85
REMARK SMILES IDX 52 86 54 87 55 88 56 89 57 90
REMARK H PARENT 79 43 47 54
REMARK Flexibility Score: inf
ROOT
ATOM      1  C   UNL A   1      36.266  20.986  24.922  1.00  0.00     0.275 C 
ENDROOT
BRANCH   1   2
ATOM      2  O   UNL A   1      35.186  20.289  25.567  1.00  0.00    -0.457 OA
BRANCH   2   3
ATOM      3  C   UNL A   1      34.093  20.022  24.784  1.00  0.00     0.360 C 
ATOM      4  O   UNL A   1      33.917  18.963  24.186  1.00  0.00    -0.244 OA
BRANCH   3   5
ATOM      5  C   UNL A   1      33.147  21.125  24.758  1.00  0.00     0.190 A 
ATOM      6  N   UNL A   1      31.955  22.848  24.218  1.00  0.00    -0.245 N 
ATOM      7  C   UNL A   1      33.020  22.109  23.798  1.00  0.00     0.147 A 
ATOM      8  N   UNL A   1      31.467  22.391  25.380  1.00  0.00    -0.066 NA
ATOM      9  N   UNL A   1      32.206  21.348  25.738  1.00  0.00    -0.123 NA
BRANCH   6  10
ATOM     10  C   UNL A   1      31.306  23.790  23.370  1.00  0.00     0.148 C 
ATOM     11  C   UNL A   1      30.596  26.971  22.701  1.00  0.00     0.232 C 
ATOM     12  O   UNL A   1      31.047  27.402  21.634  1.00  0.00    -0.274 OA
ATOM     13  N   UNL A   1      31.046  25.795  23.215  1.00  0.00    -0.338 N 
ATOM     14  C   UNL A   1      32.143  24.930  22.777  1.00  0.00     0.148 C 
ATOM     15  C   UNL A   1      30.633  24.876  24.249  1.00  0.00     0.148 C 
BRANCH  11  16
ATOM     16  C   UNL A   1      29.646  27.841  23.507  1.00  0.00     0.170 C 
BRANCH  16  17
ATOM     17  S   UNL A   1      29.801  29.644  23.400  1.00  0.00    -0.146 SA
BRANCH  17  18
ATOM     18  C   UNL A   1      28.154  30.213  22.784  1.00  0.00     0.008 C 
ATOM     19  C   UNL A   1      27.185  29.062  23.113  1.00  0.00     0.022 C 
ATOM     20  C   UNL A   1      28.148  30.444  21.271  1.00  0.00     0.022 C 
ATOM     21  C   UNL A   1      27.697  31.475  23.523  1.00  0.00     0.022 C 
ENDBRANCH  17  18
ENDBRANCH  16  17
ENDBRANCH  11  16
ENDBRANCH   6  10
ENDBRANCH   3   5
ENDBRANCH   2   3
ENDBRANCH   1   2
BRANCH   1  22
ATOM     22  C   UNL A   1      37.513  20.118  24.864  1.00  0.00     0.275 C 
BRANCH  22  23
ATOM     23  O   UNL A   1      38.621  20.802  25.440  1.00  0.00    -0.458 OA
BRANCH  23  24
ATOM     24  C   UNL A   1      39.717  20.042  25.661  1.00  0.00     0.338 C 
ATOM     25  O   UNL A   1      39.811  18.832  25.532  1.00  0.00    -0.246 OA
BRANCH  24  26
ATOM     26  C   UNL A   1      40.725  20.864  26.331  1.00  0.00     0.060 A 
ATOM     27  C   UNL A   1      40.816  20.768  27.723  1.00  0.00     0.016 A 
ATOM     28  C   UNL A   1      41.277  21.934  25.614  1.00  0.00     0.016 A 
ATOM     29  C   UNL A   1      41.294  21.856  28.420  1.00  0.00     0.010 A 
ATOM     30  C   UNL A   1      41.711  23.028  26.308  1.00  0.00     0.010 A 
ATOM     31  C   UNL A   1      41.641  23.000  27.698  1.00  0.00    -0.014 A 
BRANCH  31  32
ATOM     32  C   UNL A   1      42.038  24.191  28.411  1.00  0.00     0.031 A 
ATOM     33  C   UNL A   1      41.056  25.288  28.259  1.00  0.00     0.074 A 
ATOM     34  C   UNL A   1      43.089  24.170  29.254  1.00  0.00     0.049 A 
ATOM     35  N   UNL A   1      41.218  26.418  27.655  1.00  0.00    -0.248 NA
ATOM     36  C   UNL A   1      39.659  25.009  28.641  1.00  0.00     0.031 C 
ATOM     37  C   UNL A   1      43.880  23.010  29.681  1.00  0.00     0.029 A 
ATOM     38  N   UNL A   1      43.569  25.167  30.039  1.00  0.00    -0.354 N 
ATOM     39  C   UNL A   1      40.001  27.081  27.805  1.00  0.00     0.074 A 
ATOM     40  C   UNL A   1      39.034  26.083  28.165  1.00  0.00     0.031 C 
ATOM     41  C   UNL A   1      44.540  23.320  30.820  1.00  0.00     0.029 A 
ATOM     42  C   UNL A   1      44.314  24.722  31.127  1.00  0.00     0.049 A 
ATOM     43  H   UNL A   1      43.405  26.120  29.854  1.00  0.00     0.167 HD
ATOM     44  C   UNL A   1      39.945  28.434  27.927  1.00  0.00     0.034 A 
ATOM     45  C   UNL A   1      44.611  25.443  32.239  1.00  0.00     0.034 A 
ATOM     46  C   UNL A   1      41.176  29.045  27.497  1.00  0.00     0.049 A 
ATOM     47  C   UNL A   1      44.382  26.871  31.909  1.00  0.00     0.074 A 
ATOM     48  C   UNL A   1      41.884  29.075  26.313  1.00  0.00     0.029 A 
ATOM     49  N   UNL A   1      42.061  29.407  28.485  1.00  0.00    -0.354 N 
ATOM     50  N   UNL A   1      45.090  27.530  31.036  1.00  0.00    -0.248 NA
ATOM     51  C   UNL A   1      43.068  27.427  32.199  1.00  0.00     0.031 C 
ATOM     52  C   UNL A   1      43.252  28.998  26.703  1.00  0.00     0.029 A 
ATOM     53  C   UNL A   1      43.310  29.000  28.098  1.00  0.00     0.049 A 
ATOM     54  H   UNL A   1      41.837  29.875  29.320  1.00  0.00     0.167 HD
ATOM     55  C   UNL A   1      44.158  28.289  30.338  1.00  0.00     0.074 A 
ATOM     56  C   UNL A   1      42.951  28.262  31.162  1.00  0.00     0.031 C 
ATOM     57  C   UNL A   1      44.352  28.606  29.023  1.00  0.00     0.034 A 
BRANCH  44  58
ATOM     58  C   UNL A   1      38.945  29.175  28.787  1.00  0.00     0.023 A 
ATOM     59  C   UNL A   1      38.244  30.237  28.178  1.00  0.00     0.012 A 
ATOM     60  C   UNL A   1      38.844  29.068  30.196  1.00  0.00     0.148 A 
ATOM     61  C   UNL A   1      37.528  31.172  28.932  1.00  0.00     0.002 A 
ATOM     62  C   UNL A   1      38.063  29.950  30.933  1.00  0.00     0.091 A 
ATOM     63  F   UNL A   1      39.608  28.203  30.865  1.00  0.00    -0.205 F 
ATOM     64  C   UNL A   1      37.429  31.024  30.310  1.00  0.00     0.022 A 
BRANCH  62  65
ATOM     65  S   UNL A   1      37.867  29.773  32.712  1.00  0.00     0.127 S 
ATOM     66  O   UNL A   1      39.217  30.062  33.185  1.00  0.00    -0.237 OA
ATOM     67  O   UNL A   1      36.872  30.805  33.006  1.00  0.00    -0.237 OA
ATOM     68  O   UNL A   1      37.392  28.411  32.923  1.00  0.00    -0.744 OA
ENDBRANCH  62  65
ENDBRANCH  44  58
BRANCH  45  69
ATOM     69  C   UNL A   1      44.756  24.986  33.644  1.00  0.00     0.023 A 
ATOM     70  C   UNL A   1      43.674  24.361  34.294  1.00  0.00     0.012 A 
ATOM     71  C   UNL A   1      46.030  24.908  34.251  1.00  0.00     0.148 A 
ATOM     72  C   UNL A   1      43.857  23.660  35.494  1.00  0.00     0.002 A 
ATOM     73  C   UNL A   1      46.207  24.218  35.447  1.00  0.00     0.091 A 
ATOM     74  F   UNL A   1      47.084  25.426  33.609  1.00  0.00    -0.205 F 
ATOM     75  C   UNL A   1      45.124  23.583  36.067  1.00  0.00     0.022 A 
BRANCH  73  76
ATOM     76  S   UNL A   1      47.818  24.051  36.229  1.00  0.00     0.127 S 
ATOM     77  O   UNL A   1      47.472  23.424  37.504  1.00  0.00    -0.237 OA
ATOM     78  O   UNL A   1      48.521  23.182  35.289  1.00  0.00    -0.237 OA
ATOM     79  O   UNL A   1      48.343  25.406  36.351  1.00  0.00    -0.744 OA
ENDBRANCH  73  76
ENDBRANCH  45  69
BRANCH  57  80
ATOM     80  C   UNL A   1      45.699  28.304  28.414  1.00  0.00     0.023 A 
ATOM     81  C   UNL A   1      46.823  29.141  28.596  1.00  0.00     0.012 A 
ATOM     82  C   UNL A   1      45.879  27.053  27.806  1.00  0.00     0.148 A 
ATOM     83  C   UNL A   1      48.091  28.742  28.163  1.00  0.00     0.002 A 
ATOM     84  C   UNL A   1      47.149  26.639  27.424  1.00  0.00     0.091 A 
ATOM     85  F   UNL A   1      44.803  26.268  27.644  1.00  0.00    -0.205 F 
ATOM     86  C   UNL A   1      48.257  27.484  27.591  1.00  0.00     0.022 A 
BRANCH  84  87
ATOM     87  S   UNL A   1      47.442  24.980  26.807  1.00  0.00     0.127 S 
ATOM     88  O   UNL A   1      48.901  24.905  26.817  1.00  0.00    -0.237 OA
ATOM     89  O   UNL A   1      46.778  24.150  27.813  1.00  0.00    -0.237 OA
ATOM     90  O   UNL A   1      46.819  24.927  25.489  1.00  0.00    -0.744 OA
ENDBRANCH  84  87
ENDBRANCH  57  80
ENDBRANCH  31  32
ENDBRANCH  24  26
ENDBRANCH  23  24
ENDBRANCH  22  23
ENDBRANCH   1  22
TORSDOF 18
ENDMDL
MODEL 2
REMARK VINA RESULT:     -11.3      1.626      2.120
REMARK SMILES CC(C)(C)SCC(=O)N1CC(n2cc(C(=O)OCCOC(=O)c3ccc(-c4c5nc(c(-c6cccc(S(=O)(=O)[O-])c6F)c6ccc([nH]6)c(-c6cccc(S(=O)(=O)[O-])c6F)c6nc(c(-c7cccc(S(=O)(=O)[O-])c7F)c7ccc4[nH]7)C=C6)C=C5)cc3)nn2)C1
REMARK SMILES IDX 18 1 17 2 15 3 16 4 14 5 12 6 13 7 87 8 86 9 11 10 7 11 8 12
REMARK SMILES IDX 9 13 10 14 88 15 6 16 5 17 2 18 1 19 3 20 4 21 19 22 20 23
REMARK SMILES IDX 21 24 22 25 23 26 24 27 85 28 25 29 84 30 26 31 27 32 28 33
REMARK SMILES IDX 78 34 29 35 83 36 77 37 79 38 30 39 82 40 76 41 75 42 31 44
REMARK SMILES IDX 63 45 43 46 62 47 44 48 47 49 61 50 80 51 45 52 46 53 60 55
REMARK SMILES IDX 81 56 48 57 32 58 33 59 41 60 34 61 36 62 42 63 35 64 37 65
REMARK SMILES IDX 38 66 39 67 40 68 64 69 65 70 73 71 66 72 68 73 74 74 67 75
REMARK SMILES IDX 69 76 70 77 71 78 72 79 49 80 50 81 58 82 51 83 53 84 59 85
REMARK SMILES IDX 52 86 54 87 55 88 56 89 57 90
REMARK H PARENT 79 43 47 54
REMARK Flexibility Score: inf
ROOT
ATOM      1  C   UNL A   1      36.783  20.700  24.947  1.00  0.00     0.275 C 
ENDROOT
BRANCH   1   2
ATOM      2  O   UNL A   1      37.082  21.839  24.121  1.00  0.00    -0.457 OA
BRANCH   2   3
ATOM      3  C   UNL A   1      36.763  23.062  24.651  1.00  0.00     0.360 C 
ATOM      4  O   UNL A   1      37.481  23.683  25.432  1.00  0.00    -0.244 OA
BRANCH   3   5
ATOM      5  C   UNL A   1      35.486  23.560  24.167  1.00  0.00     0.190 A 
ATOM      6  N   UNL A   1      33.492  24.377  23.984  1.00  0.00    -0.245 N 
ATOM      7  C   UNL A   1      34.385  23.932  24.912  1.00  0.00     0.147 A 
ATOM      8  N   UNL A   1      33.974  24.260  22.740  1.00  0.00    -0.066 NA
ATOM      9  N   UNL A   1      35.190  23.734  22.834  1.00  0.00    -0.123 NA
BRANCH   6  10
ATOM     10  C   UNL A   1      32.331  25.119  24.347  1.00  0.00     0.148 C 
ATOM     11  C   UNL A   1      30.121  27.477  23.557  1.00  0.00     0.232 C 
ATOM     12  O   UNL A   1      28.956  27.089  23.425  1.00  0.00    -0.274 OA
ATOM     13  N   UNL A   1      31.146  26.583  23.598  1.00  0.00    -0.338 N 
ATOM     14  C   UNL A   1      31.147  25.137  23.373  1.00  0.00     0.148 C 
ATOM     15  C   UNL A   1      32.543  26.605  23.959  1.00  0.00     0.148 C 
BRANCH  11  16
ATOM     16  C   UNL A   1      30.413  28.968  23.519  1.00  0.00     0.170 C 
BRANCH  16  17
ATOM     17  S   UNL A   1      29.933  29.920  22.053  1.00  0.00    -0.146 SA
BRANCH  17  18
ATOM     18  C   UNL A   1      28.535  30.983  22.630  1.00  0.00     0.008 C 
ATOM     19  C   UNL A   1      29.081  31.724  23.865  1.00  0.00     0.022 C 
ATOM     20  C   UNL A   1      27.314  30.160  23.049  1.00  0.00     0.022 C 
ATOM     21  C   UNL A   1      28.150  32.012  21.562  1.00  0.00     0.022 C 
ENDBRANCH  17  18
ENDBRANCH  16  17
ENDBRANCH  11  16
ENDBRANCH   6  10
ENDBRANCH   3   5
ENDBRANCH   2   3
ENDBRANCH   1   2
BRANCH   1  22
ATOM     22  C   UNL A   1      38.010  19.820  25.120  1.00  0.00     0.275 C 
BRANCH  22  23
ATOM     23  O   UNL A   1      39.151  20.614  25.431  1.00  0.00    -0.458 OA
BRANCH  23  24
ATOM     24  C   UNL A   1      40.265  19.921  25.758  1.00  0.00     0.338 C 
ATOM     25  O   UNL A   1      40.425  18.713  25.695  1.00  0.00    -0.246 OA
BRANCH  24  26
ATOM     26  C   UNL A   1      41.185  20.822  26.452  1.00  0.00     0.060 A 
ATOM     27  C   UNL A   1      41.039  20.956  27.836  1.00  0.00     0.016 A 
ATOM     28  C   UNL A   1      41.898  21.749  25.679  1.00  0.00     0.016 A 
ATOM     29  C   UNL A   1      41.445  22.134  28.422  1.00  0.00     0.010 A 
ATOM     30  C   UNL A   1      42.263  22.933  26.254  1.00  0.00     0.010 A 
ATOM     31  C   UNL A   1      41.962  23.136  27.597  1.00  0.00    -0.014 A 
BRANCH  31  32
ATOM     32  C   UNL A   1      42.290  24.421  28.170  1.00  0.00     0.031 A 
ATOM     33  C   UNL A   1      41.153  25.367  28.112  1.00  0.00     0.074 A 
ATOM     34  C   UNL A   1      43.448  24.602  28.834  1.00  0.00     0.049 A 
ATOM     35  N   UNL A   1      41.064  26.458  27.427  1.00  0.00    -0.248 NA
ATOM     36  C   UNL A   1      39.882  24.941  28.727  1.00  0.00     0.031 C 
ATOM     37  C   UNL A   1      44.448  23.590  29.197  1.00  0.00     0.029 A 
ATOM     38  N   UNL A   1      43.896  25.711  29.475  1.00  0.00    -0.354 N 
ATOM     39  C   UNL A   1      39.803  26.967  27.729  1.00  0.00     0.074 A 
ATOM     40  C   UNL A   1      39.049  25.884  28.295  1.00  0.00     0.031 C 
ATOM     41  C   UNL A   1      45.221  24.072  30.197  1.00  0.00     0.029 A 
ATOM     42  C   UNL A   1      44.849  25.452  30.454  1.00  0.00     0.049 A 
ATOM     43  H   UNL A   1      43.575  26.618  29.264  1.00  0.00     0.167 HD
ATOM     44  C   UNL A   1      39.576  28.307  27.781  1.00  0.00     0.034 A 
ATOM     45  C   UNL A   1      45.206  26.290  31.462  1.00  0.00     0.034 A 
ATOM     46  C   UNL A   1      40.632  29.036  27.127  1.00  0.00     0.049 A 
ATOM     47  C   UNL A   1      44.734  27.647  31.091  1.00  0.00     0.074 A 
ATOM     48  C   UNL A   1      41.144  29.065  25.845  1.00  0.00     0.029 A 
ATOM     49  N   UNL A   1      41.596  29.586  27.939  1.00  0.00    -0.354 N 
ATOM     50  N   UNL A   1      45.204  28.321  30.080  1.00  0.00    -0.248 NA
ATOM     51  C   UNL A   1      43.413  28.050  31.554  1.00  0.00     0.031 C 
ATOM     52  C   UNL A   1      42.552  29.196  26.017  1.00  0.00     0.029 A 
ATOM     53  C   UNL A   1      42.817  29.314  27.383  1.00  0.00     0.049 A 
ATOM     54  H   UNL A   1      41.435  30.085  28.771  1.00  0.00     0.167 HD
ATOM     55  C   UNL A   1      44.082  28.897  29.497  1.00  0.00     0.074 A 
ATOM     56  C   UNL A   1      43.026  28.778  30.503  1.00  0.00     0.031 C 
ATOM     57  C   UNL A   1      44.030  29.132  28.152  1.00  0.00     0.034 A 
BRANCH  44  58
ATOM     58  C   UNL A   1      38.623  28.978  28.744  1.00  0.00     0.023 A 
ATOM     59  C   UNL A   1      37.738  29.935  28.204  1.00  0.00     0.012 A 
ATOM     60  C   UNL A   1      38.718  28.923  30.156  1.00  0.00     0.148 A 
ATOM     61  C   UNL A   1      37.029  30.823  29.019  1.00  0.00     0.002 A 
ATOM     62  C   UNL A   1      37.949  29.751  30.965  1.00  0.00     0.091 A 
ATOM     63  F   UNL A   1      39.651  28.171  30.743  1.00  0.00    -0.205 F 
ATOM     64  C   UNL A   1      37.127  30.726  30.401  1.00  0.00     0.022 A 
BRANCH  62  65
ATOM     65  S   UNL A   1      38.006  29.633  32.759  1.00  0.00     0.127 S 
ATOM     66  O   UNL A   1      37.069  30.680  33.151  1.00  0.00    -0.237 OA
ATOM     67  O   UNL A   1      37.538  28.265  32.982  1.00  0.00    -0.237 OA
ATOM     68  O   UNL A   1      39.401  29.851  33.124  1.00  0.00    -0.744 OA
ENDBRANCH  62  65
ENDBRANCH  44  58
BRANCH  45  69
ATOM     69  C   UNL A   1      45.622  25.968  32.851  1.00  0.00     0.023 A 
ATOM     70  C   UNL A   1      46.745  26.607  33.412  1.00  0.00     0.012 A 
ATOM     71  C   UNL A   1      44.763  25.253  33.715  1.00  0.00     0.148 A 
ATOM     72  C   UNL A   1      46.991  26.557  34.792  1.00  0.00     0.002 A 
ATOM     73  C   UNL A   1      45.015  25.199  35.084  1.00  0.00     0.091 A 
ATOM     74  F   UNL A   1      43.649  24.707  33.213  1.00  0.00    -0.205 F 
ATOM     75  C   UNL A   1      46.123  25.860  35.628  1.00  0.00     0.022 A 
BRANCH  73  76
ATOM     76  S   UNL A   1      43.922  24.342  36.227  1.00  0.00     0.127 S 
ATOM     77  O   UNL A   1      42.746  25.212  36.229  1.00  0.00    -0.237 OA
ATOM     78  O   UNL A   1      43.734  23.058  35.558  1.00  0.00    -0.237 OA
ATOM     79  O   UNL A   1      44.634  24.294  37.498  1.00  0.00    -0.744 OA
ENDBRANCH  73  76
ENDBRANCH  45  69
BRANCH  57  80
ATOM     80  C   UNL A   1      45.300  28.960  27.355  1.00  0.00     0.023 A 
ATOM     81  C   UNL A   1      46.312  29.944  27.312  1.00  0.00     0.012 A 
ATOM     82  C   UNL A   1      45.558  27.699  26.796  1.00  0.00     0.148 A 
ATOM     83  C   UNL A   1      47.545  29.680  26.707  1.00  0.00     0.002 A 
ATOM     84  C   UNL A   1      46.801  27.424  26.241  1.00  0.00     0.091 A 
ATOM     85  F   UNL A   1      44.589  26.774  26.849  1.00  0.00    -0.205 F 
ATOM     86  C   UNL A   1      47.795  28.414  26.185  1.00  0.00     0.022 A 
BRANCH  84  87
ATOM     87  S   UNL A   1      47.225  25.775  25.677  1.00  0.00     0.127 S 
ATOM     88  O   UNL A   1      46.224  25.540  24.640  1.00  0.00    -0.237 OA
ATOM     89  O   UNL A   1      48.591  25.954  25.182  1.00  0.00    -0.237 OA
ATOM     90  O   UNL A   1      47.128  24.913  26.850  1.00  0.00    -0.744 OA
ENDBRANCH  84  87
ENDBRANCH  57  80
ENDBRANCH  31  32
ENDBRANCH  24  26
ENDBRANCH  23  24
ENDBRANCH  22  23
ENDBRANCH   1  22
TORSDOF 18
ENDMDL
MODEL 3
REMARK VINA RESULT:     -11.2      1.875      2.201
REMARK SMILES CC(C)(C)SCC(=O)N1CC(n2cc(C(=O)OCCOC(=O)c3ccc(-c4c5nc(c(-c6cccc(S(=O)(=O)[O-])c6F)c6ccc([nH]6)c(-c6cccc(S(=O)(=O)[O-])c6F)c6nc(c(-c7cccc(S(=O)(=O)[O-])c7F)c7ccc4[nH]7)C=C6)C=C5)cc3)nn2)C1
REMARK SMILES IDX 18 1 17 2 15 3 16 4 14 5 12 6 13 7 87 8 86 9 11 10 7 11 8 12
REMARK SMILES IDX 9 13 10 14 88 15 6 16 5 17 2 18 1 19 3 20 4 21 19 22 20 23
REMARK SMILES IDX 21 24 22 25 23 26 24 27 85 28 25 29 84 30 26 31 27 32 28 33
REMARK SMILES IDX 78 34 29 35 83 36 77 37 79 38 30 39 82 40 76 41 75 42 31 44
REMARK SMILES IDX 63 45 43 46 62 47 44 48 47 49 61 50 80 51 45 52 46 53 60 55
REMARK SMILES IDX 81 56 48 57 32 58 33 59 41 60 34 61 36 62 42 63 35 64 37 65
REMARK SMILES IDX 38 66 39 67 40 68 64 69 65 70 73 71 66 72 68 73 74 74 67 75
REMARK SMILES IDX 69 76 70 77 71 78 72 79 49 80 50 81 58 82 51 83 53 84 59 85
REMARK SMILES IDX 52 86 54 87 55 88 56 89 57 90
REMARK H PARENT 79 43 47 54
REMARK Flexibility Score: inf
ROOT
ATOM      1  C   UNL A   1      36.672  20.731  24.840  1.00  0.00     0.275 C 
ENDROOT
BRANCH   1   2
ATOM      2  O   UNL A   1      36.929  21.848  23.971  1.00  0.00    -0.457 OA
BRANCH   2   3
ATOM      3  C   UNL A   1      36.645  23.086  24.488  1.00  0.00     0.360 C 
ATOM      4  O   UNL A   1      37.406  23.718  25.218  1.00  0.00    -0.244 OA
BRANCH   3   5
ATOM      5  C   UNL A   1      35.350  23.584  24.056  1.00  0.00     0.190 A 
ATOM      6  N   UNL A   1      33.360  24.426  23.951  1.00  0.00    -0.245 N 
ATOM      7  C   UNL A   1      34.299  24.006  24.845  1.00  0.00     0.147 A 
ATOM      8  N   UNL A   1      33.768  24.246  22.688  1.00  0.00    -0.066 NA
ATOM      9  N   UNL A   1      34.980  23.704  22.735  1.00  0.00    -0.123 NA
BRANCH   6  10
ATOM     10  C   UNL A   1      32.233  25.202  24.346  1.00  0.00     0.148 C 
ATOM     11  C   UNL A   1      30.011  27.555  23.577  1.00  0.00     0.232 C 
ATOM     12  O   UNL A   1      28.834  27.179  23.534  1.00  0.00    -0.274 OA
ATOM     13  N   UNL A   1      31.024  26.647  23.599  1.00  0.00    -0.338 N 
ATOM     14  C   UNL A   1      30.993  25.193  23.445  1.00  0.00     0.148 C 
ATOM     15  C   UNL A   1      32.441  26.664  23.874  1.00  0.00     0.148 C 
BRANCH  11  16
ATOM     16  C   UNL A   1      30.319  29.037  23.448  1.00  0.00     0.170 C 
BRANCH  16  17
ATOM     17  S   UNL A   1      29.457  30.007  22.183  1.00  0.00    -0.146 SA
BRANCH  17  18
ATOM     18  C   UNL A   1      28.725  31.429  23.109  1.00  0.00     0.008 C 
ATOM     19  C   UNL A   1      29.673  31.659  24.301  1.00  0.00     0.022 C 
ATOM     20  C   UNL A   1      27.326  31.115  23.646  1.00  0.00     0.022 C 
ATOM     21  C   UNL A   1      28.698  32.693  22.245  1.00  0.00     0.022 C 
ENDBRANCH  17  18
ENDBRANCH  16  17
ENDBRANCH  11  16
ENDBRANCH   6  10
ENDBRANCH   3   5
ENDBRANCH   2   3
ENDBRANCH   1   2
BRANCH   1  22
ATOM     22  C   UNL A   1      37.920  19.879  25.009  1.00  0.00     0.275 C 
BRANCH  22  23
ATOM     23  O   UNL A   1      38.968  20.644  25.596  1.00  0.00    -0.458 OA
BRANCH  23  24
ATOM     24  C   UNL A   1      40.138  19.989  25.762  1.00  0.00     0.338 C 
ATOM     25  O   UNL A   1      40.345  18.798  25.592  1.00  0.00    -0.246 OA
BRANCH  24  26
ATOM     26  C   UNL A   1      41.082  20.884  26.430  1.00  0.00     0.060 A 
ATOM     27  C   UNL A   1      41.145  20.833  27.826  1.00  0.00     0.016 A 
ATOM     28  C   UNL A   1      41.591  21.964  25.694  1.00  0.00     0.016 A 
ATOM     29  C   UNL A   1      41.544  21.966  28.501  1.00  0.00     0.010 A 
ATOM     30  C   UNL A   1      41.946  23.100  26.365  1.00  0.00     0.010 A 
ATOM     31  C   UNL A   1      41.844  23.107  27.753  1.00  0.00    -0.014 A 
BRANCH  31  32
ATOM     32  C   UNL A   1      42.157  24.338  28.440  1.00  0.00     0.031 A 
ATOM     33  C   UNL A   1      41.108  25.366  28.251  1.00  0.00     0.074 A 
ATOM     34  C   UNL A   1      43.198  24.406  29.292  1.00  0.00     0.049 A 
ATOM     35  N   UNL A   1      41.204  26.489  27.621  1.00  0.00    -0.248 NA
ATOM     36  C   UNL A   1      39.728  25.007  28.628  1.00  0.00     0.031 C 
ATOM     37  C   UNL A   1      44.057  23.309  29.756  1.00  0.00     0.029 A 
ATOM     38  N   UNL A   1      43.605  25.450  30.056  1.00  0.00    -0.354 N 
ATOM     39  C   UNL A   1      39.946  27.075  27.743  1.00  0.00     0.074 A 
ATOM     40  C   UNL A   1      39.041  26.027  28.119  1.00  0.00     0.031 C 
ATOM     41  C   UNL A   1      44.684  23.690  30.893  1.00  0.00     0.029 A 
ATOM     42  C   UNL A   1      44.365  25.081  31.161  1.00  0.00     0.049 A 
ATOM     43  H   UNL A   1      43.382  26.386  29.846  1.00  0.00     0.167 HD
ATOM     44  C   UNL A   1      39.801  28.425  27.830  1.00  0.00     0.034 A 
ATOM     45  C   UNL A   1      44.604  25.846  32.258  1.00  0.00     0.034 A 
ATOM     46  C   UNL A   1      40.995  29.103  27.396  1.00  0.00     0.049 A 
ATOM     47  C   UNL A   1      44.288  27.249  31.890  1.00  0.00     0.074 A 
ATOM     48  C   UNL A   1      41.712  29.149  26.218  1.00  0.00     0.029 A 
ATOM     49  N   UNL A   1      41.845  29.545  28.382  1.00  0.00    -0.354 N 
ATOM     50  N   UNL A   1      44.961  27.930  31.006  1.00  0.00    -0.248 NA
ATOM     51  C   UNL A   1      42.938  27.726  32.154  1.00  0.00     0.031 C 
ATOM     52  C   UNL A   1      43.079  29.170  26.621  1.00  0.00     0.029 A 
ATOM     53  C   UNL A   1      43.122  29.209  28.017  1.00  0.00     0.049 A 
ATOM     54  H   UNL A   1      41.582  30.019  29.203  1.00  0.00     0.167 HD
ATOM     55  C   UNL A   1      43.990  28.610  30.281  1.00  0.00     0.074 A 
ATOM     56  C   UNL A   1      42.778  28.526  31.095  1.00  0.00     0.031 C 
ATOM     57  C   UNL A   1      44.177  28.907  28.961  1.00  0.00     0.034 A 
BRANCH  44  58
ATOM     58  C   UNL A   1      38.748  29.121  28.662  1.00  0.00     0.023 A 
ATOM     59  C   UNL A   1      37.957  30.090  28.009  1.00  0.00     0.012 A 
ATOM     60  C   UNL A   1      38.662  29.076  30.075  1.00  0.00     0.148 A 
ATOM     61  C   UNL A   1      37.168  30.998  28.723  1.00  0.00     0.002 A 
ATOM     62  C   UNL A   1      37.814  29.924  30.776  1.00  0.00     0.091 A 
ATOM     63  F   UNL A   1      39.499  28.311  30.779  1.00  0.00    -0.205 F 
ATOM     64  C   UNL A   1      37.089  30.910  30.107  1.00  0.00     0.022 A 
BRANCH  62  65
ATOM     65  S   UNL A   1      37.643  29.819  32.563  1.00  0.00     0.127 S 
ATOM     66  O   UNL A   1      38.949  30.290  33.010  1.00  0.00    -0.237 OA
ATOM     67  O   UNL A   1      36.533  30.740  32.810  1.00  0.00    -0.237 OA
ATOM     68  O   UNL A   1      37.333  28.423  32.848  1.00  0.00    -0.744 OA
ENDBRANCH  62  65
ENDBRANCH  44  58
BRANCH  45  69
ATOM     69  C   UNL A   1      44.763  25.435  33.675  1.00  0.00     0.023 A 
ATOM     70  C   UNL A   1      43.625  25.152  34.456  1.00  0.00     0.012 A 
ATOM     71  C   UNL A   1      46.026  25.050  34.179  1.00  0.00     0.148 A 
ATOM     72  C   UNL A   1      43.737  24.485  35.684  1.00  0.00     0.002 A 
ATOM     73  C   UNL A   1      46.134  24.395  35.403  1.00  0.00     0.091 A 
ATOM     74  F   UNL A   1      47.110  25.239  33.417  1.00  0.00    -0.205 F 
ATOM     75  C   UNL A   1      44.990  24.101  36.154  1.00  0.00     0.022 A 
BRANCH  73  76
ATOM     76  S   UNL A   1      47.716  23.844  36.059  1.00  0.00     0.127 S 
ATOM     77  O   UNL A   1      47.326  23.272  37.347  1.00  0.00    -0.237 OA
ATOM     78  O   UNL A   1      48.134  22.868  35.056  1.00  0.00    -0.237 OA
ATOM     79  O   UNL A   1      48.543  25.040  36.160  1.00  0.00    -0.744 OA
ENDBRANCH  73  76
ENDBRANCH  45  69
BRANCH  57  80
ATOM     80  C   UNL A   1      45.547  28.677  28.371  1.00  0.00     0.023 A 
ATOM     81  C   UNL A   1      45.928  27.450  27.785  1.00  0.00     0.012 A 
ATOM     82  C   UNL A   1      46.398  29.784  28.237  1.00  0.00     0.148 A 
ATOM     83  C   UNL A   1      47.140  27.329  27.097  1.00  0.00     0.002 A 
ATOM     84  C   UNL A   1      47.576  29.674  27.510  1.00  0.00     0.091 A 
ATOM     85  F   UNL A   1      46.019  30.943  28.795  1.00  0.00    -0.205 F 
ATOM     86  C   UNL A   1      47.957  28.446  26.946  1.00  0.00     0.022 A 
BRANCH  84  87
ATOM     87  S   UNL A   1      48.598  31.108  27.169  1.00  0.00     0.127 S 
ATOM     88  O   UNL A   1      47.681  31.967  26.424  1.00  0.00    -0.237 OA
ATOM     89  O   UNL A   1      48.929  31.584  28.513  1.00  0.00    -0.237 OA
ATOM     90  O   UNL A   1      49.745  30.613  26.417  1.00  0.00    -0.744 OA
ENDBRANCH  84  87
ENDBRANCH  57  80
ENDBRANCH  31  32
ENDBRANCH  24  26
ENDBRANCH  23  24
ENDBRANCH  22  23
ENDBRANCH   1  22
TORSDOF 18
ENDMDL
