MODEL 1
REMARK VINA RESULT:     -13.3      0.000      0.000
REMARK SMILES COc1ccc(-c2ccc(/C=C3\SC(=S)N([C@H](Cc4ccccc4)C(=O)OCCOC(=O)c4ccc(-c5c6nc(c(-c7cccc(S(=O)(=O)[O-])c7F)c7ccc([nH]7)c(-c7cccc(S(=O)(=O)[O-])c7F)c7nc(c(-c8cccc(S(=O)(=O)[O-])c8F)c8ccc5[nH]8)C=C7)C=C6)cc4)C3=O)o2)cc1
REMARK SMILES IDX 28 1 27 2 25 3 26 4 17 5 16 6 11 7 12 8 13 9 96 10 14 11
REMARK SMILES IDX 97 12 15 13 10 14 7 15 8 16 98 17 9 18 6 19 3 20 4 21 100 22
REMARK SMILES IDX 5 23 99 24 2 25 1 26 18 27 19 28 20 29 24 30 21 31 23 32
REMARK SMILES IDX 22 33 29 34 30 35 31 36 32 37 33 38 34 39 95 40 35 41 94 42
REMARK SMILES IDX 36 43 37 44 38 45 88 46 39 47 93 48 87 49 89 50 40 51 92 52
REMARK SMILES IDX 86 53 85 54 41 56 73 57 53 58 72 59 54 60 57 61 71 62 90 63
REMARK SMILES IDX 55 64 56 65 70 67 91 68 58 69 42 70 43 71 51 72 44 73 46 74
REMARK SMILES IDX 52 75 45 76 47 77 48 78 49 79 50 80 74 81 75 82 83 83 76 84
REMARK SMILES IDX 78 85 84 86 77 87 79 88 80 89 81 90 82 91 59 92 60 93 68 94
REMARK SMILES IDX 61 95 63 96 69 97 62 98 64 99 65 100 66 101 67 102
REMARK H PARENT 89 55 57 66
REMARK Flexibility Score: inf
ROOT
ATOM      1  C   UNL A   1      31.886  29.274  26.215  1.00  0.00     0.274 C 
ENDROOT
BRANCH   1   2
ATOM      2  O   UNL A   1      33.005  28.954  25.365  1.00  0.00    -0.461 OA
BRANCH   2   3
ATOM      3  C   UNL A   1      32.769  28.849  24.033  1.00  0.00     0.329 C 
ATOM      4  O   UNL A   1      33.544  29.256  23.177  1.00  0.00    -0.250 OA
BRANCH   3   5
ATOM      5  C   UNL A   1      31.446  28.098  23.735  1.00  0.00     0.206 C 
BRANCH   5   6
ATOM      6  N   UNL A   1      31.701  26.638  23.867  1.00  0.00    -0.278 N 
ATOM      7  C   UNL A   1      34.343  24.317  23.977  1.00  0.00     0.068 C 
ATOM      8  C   UNL A   1      33.090  24.777  24.005  1.00  0.00     0.084 C 
ATOM      9  S   UNL A   1      31.681  24.222  24.799  1.00  0.00    -0.054 SA
ATOM     10  C   UNL A   1      32.757  26.006  23.268  1.00  0.00     0.267 C 
ATOM     11  C   UNL A   1      30.824  25.736  24.446  1.00  0.00     0.149 C 
ATOM     12  O   UNL A   1      33.223  26.230  22.160  1.00  0.00    -0.268 OA
ATOM     13  S   UNL A   1      29.196  25.924  24.757  1.00  0.00    -0.052 S 
BRANCH   7  14
ATOM     14  C   UNL A   1      34.748  23.086  24.542  1.00  0.00     0.128 A 
ATOM     15  C   UNL A   1      34.773  20.912  24.966  1.00  0.00     0.134 A 
ATOM     16  C   UNL A   1      35.600  21.490  25.900  1.00  0.00     0.051 A 
ATOM     17  O   UNL A   1      34.247  21.864  24.147  1.00  0.00    -0.457 OA
ATOM     18  C   UNL A   1      35.597  22.871  25.620  1.00  0.00     0.051 A 
BRANCH  15  19
ATOM     19  C   UNL A   1      34.345  19.547  24.748  1.00  0.00     0.017 A 
ATOM     20  C   UNL A   1      33.504  16.875  24.540  1.00  0.00     0.118 A 
ATOM     21  C   UNL A   1      34.852  17.208  24.380  1.00  0.00     0.047 A 
ATOM     22  C   UNL A   1      32.576  17.880  24.808  1.00  0.00     0.047 A 
ATOM     23  C   UNL A   1      35.271  18.539  24.467  1.00  0.00     0.016 A 
ATOM     24  C   UNL A   1      32.996  19.210  24.912  1.00  0.00     0.016 A 
BRANCH  20  25
ATOM     25  O   UNL A   1      33.216  15.539  24.467  1.00  0.00    -0.497 OA
ATOM     26  C   UNL A   1      32.419  15.027  25.529  1.00  0.00     0.278 C 
ENDBRANCH  20  25
ENDBRANCH  15  19
ENDBRANCH   7  14
ENDBRANCH   5   6
BRANCH   5  27
ATOM     27  C   UNL A   1      30.788  28.618  22.424  1.00  0.00     0.073 C 
BRANCH  27  28
ATOM     28  C   UNL A   1      29.743  29.716  22.512  1.00  0.00    -0.045 A 
ATOM     29  C   UNL A   1      29.057  30.067  21.335  1.00  0.00     0.004 A 
ATOM     30  C   UNL A   1      29.487  30.451  23.675  1.00  0.00     0.004 A 
ATOM     31  C   UNL A   1      28.236  31.192  21.293  1.00  0.00     0.000 A 
ATOM     32  C   UNL A   1      28.655  31.572  23.634  1.00  0.00     0.000 A 
ATOM     33  C   UNL A   1      28.049  31.955  22.439  1.00  0.00     0.000 A 
ENDBRANCH  27  28
ENDBRANCH   5  27
ENDBRANCH   3   5
ENDBRANCH   2   3
ENDBRANCH   1   2
BRANCH   1  34
ATOM     34  C   UNL A   1      32.150  30.617  26.898  1.00  0.00     0.275 C 
BRANCH  34  35
ATOM     35  O   UNL A   1      33.499  31.053  26.645  1.00  0.00    -0.458 OA
BRANCH  35  36
ATOM     36  C   UNL A   1      33.966  31.990  27.499  1.00  0.00     0.338 C 
ATOM     37  O   UNL A   1      33.390  33.000  27.891  1.00  0.00    -0.246 OA
BRANCH  36  38
ATOM     38  C   UNL A   1      35.257  31.563  28.038  1.00  0.00     0.060 A 
ATOM     39  C   UNL A   1      35.367  30.264  28.534  1.00  0.00     0.016 A 
ATOM     40  C   UNL A   1      36.319  32.456  28.145  1.00  0.00     0.016 A 
ATOM     41  C   UNL A   1      36.525  29.851  29.177  1.00  0.00     0.010 A 
ATOM     42  C   UNL A   1      37.501  32.029  28.754  1.00  0.00     0.010 A 
ATOM     43  C   UNL A   1      37.606  30.731  29.286  1.00  0.00    -0.014 A 
BRANCH  43  44
ATOM     44  C   UNL A   1      38.856  30.292  29.947  1.00  0.00     0.031 A 
ATOM     45  C   UNL A   1      39.732  29.270  29.286  1.00  0.00     0.074 A 
ATOM     46  C   UNL A   1      39.170  30.786  31.159  1.00  0.00     0.049 A 
ATOM     47  N   UNL A   1      40.767  28.636  29.770  1.00  0.00    -0.248 NA
ATOM     48  C   UNL A   1      39.397  28.906  27.899  1.00  0.00     0.031 C 
ATOM     49  C   UNL A   1      38.405  31.808  31.879  1.00  0.00     0.029 A 
ATOM     50  N   UNL A   1      40.197  30.475  32.012  1.00  0.00    -0.354 N 
ATOM     51  C   UNL A   1      41.171  27.756  28.775  1.00  0.00     0.074 A 
ATOM     52  C   UNL A   1      40.280  27.948  27.651  1.00  0.00     0.031 C 
ATOM     53  C   UNL A   1      38.981  32.026  33.071  1.00  0.00     0.029 A 
ATOM     54  C   UNL A   1      40.113  31.120  33.223  1.00  0.00     0.049 A 
ATOM     55  H   UNL A   1      40.923  29.852  31.780  1.00  0.00     0.167 HD
ATOM     56  C   UNL A   1      42.198  26.875  28.800  1.00  0.00     0.034 A 
ATOM     57  C   UNL A   1      40.840  30.965  34.347  1.00  0.00     0.034 A 
ATOM     58  C   UNL A   1      43.109  26.735  29.902  1.00  0.00     0.049 A 
ATOM     59  C   UNL A   1      41.949  29.952  34.358  1.00  0.00     0.074 A 
ATOM     60  C   UNL A   1      44.225  25.923  30.000  1.00  0.00     0.029 A 
ATOM     61  N   UNL A   1      43.006  27.420  31.104  1.00  0.00    -0.354 N 
ATOM     62  N   UNL A   1      42.377  29.189  33.381  1.00  0.00    -0.248 NA
ATOM     63  C   UNL A   1      42.680  29.782  35.621  1.00  0.00     0.031 C 
ATOM     64  C   UNL A   1      44.786  26.104  31.269  1.00  0.00     0.029 A 
ATOM     65  C   UNL A   1      44.025  27.035  31.958  1.00  0.00     0.049 A 
ATOM     66  H   UNL A   1      42.311  28.083  31.318  1.00  0.00     0.167 HD
ATOM     67  C   UNL A   1      43.439  28.462  33.903  1.00  0.00     0.074 A 
ATOM     68  C   UNL A   1      43.603  28.894  35.278  1.00  0.00     0.031 C 
ATOM     69  C   UNL A   1      44.198  27.510  33.307  1.00  0.00     0.034 A 
BRANCH  56  70
ATOM     70  C   UNL A   1      42.404  26.006  27.590  1.00  0.00     0.023 A 
ATOM     71  C   UNL A   1      43.104  26.512  26.478  1.00  0.00     0.012 A 
ATOM     72  C   UNL A   1      41.954  24.671  27.576  1.00  0.00     0.148 A 
ATOM     73  C   UNL A   1      43.333  25.711  25.359  1.00  0.00     0.002 A 
ATOM     74  C   UNL A   1      42.214  23.868  26.472  1.00  0.00     0.091 A 
ATOM     75  F   UNL A   1      41.264  24.218  28.633  1.00  0.00    -0.205 F 
ATOM     76  C   UNL A   1      42.897  24.387  25.361  1.00  0.00     0.022 A 
BRANCH  74  77
ATOM     77  S   UNL A   1      41.744  22.135  26.412  1.00  0.00     0.127 S 
ATOM     78  O   UNL A   1      42.574  21.642  25.314  1.00  0.00    -0.237 OA
ATOM     79  O   UNL A   1      42.143  21.658  27.737  1.00  0.00    -0.237 OA
ATOM     80  O   UNL A   1      40.308  22.121  26.174  1.00  0.00    -0.744 OA
ENDBRANCH  74  77
ENDBRANCH  56  70
BRANCH  57  81
ATOM     81  C   UNL A   1      40.542  31.803  35.541  1.00  0.00     0.023 A 
ATOM     82  C   UNL A   1      41.431  32.836  35.893  1.00  0.00     0.012 A 
ATOM     83  C   UNL A   1      39.367  31.621  36.297  1.00  0.00     0.148 A 
ATOM     84  C   UNL A   1      41.163  33.665  36.983  1.00  0.00     0.002 A 
ATOM     85  C   UNL A   1      39.079  32.483  37.349  1.00  0.00     0.091 A 
ATOM     86  F   UNL A   1      38.544  30.617  35.962  1.00  0.00    -0.205 F 
ATOM     87  C   UNL A   1      39.981  33.497  37.701  1.00  0.00     0.022 A 
BRANCH  85  88
ATOM     88  S   UNL A   1      37.519  32.416  38.240  1.00  0.00     0.127 S 
ATOM     89  O   UNL A   1      37.386  30.985  38.502  1.00  0.00    -0.237 OA
ATOM     90  O   UNL A   1      37.804  33.233  39.420  1.00  0.00    -0.237 OA
ATOM     91  O   UNL A   1      36.532  32.994  37.338  1.00  0.00    -0.744 OA
ENDBRANCH  85  88
ENDBRANCH  57  81
BRANCH  69  92
ATOM     92  C   UNL A   1      45.281  26.871  34.130  1.00  0.00     0.023 A 
ATOM     93  C   UNL A   1      46.584  27.406  34.092  1.00  0.00     0.012 A 
ATOM     94  C   UNL A   1      44.994  25.802  35.002  1.00  0.00     0.148 A 
ATOM     95  C   UNL A   1      47.590  26.876  34.897  1.00  0.00     0.002 A 
ATOM     96  C   UNL A   1      45.992  25.306  35.833  1.00  0.00     0.091 A 
ATOM     97  F   UNL A   1      43.752  25.296  35.005  1.00  0.00    -0.205 F 
ATOM     98  C   UNL A   1      47.291  25.836  35.775  1.00  0.00     0.022 A 
BRANCH  96  99
ATOM     99  S   UNL A   1      45.678  24.030  37.057  1.00  0.00     0.127 S 
ATOM    100  O   UNL A   1      44.494  24.553  37.736  1.00  0.00    -0.237 OA
ATOM    101  O   UNL A   1      45.434  22.853  36.224  1.00  0.00    -0.237 OA
ATOM    102  O   UNL A   1      46.884  23.952  37.871  1.00  0.00    -0.744 OA
ENDBRANCH  96  99
ENDBRANCH  69  92
ENDBRANCH  43  44
ENDBRANCH  36  38
ENDBRANCH  35  36
ENDBRANCH  34  35
ENDBRANCH   1  34
TORSDOF 20
ENDMDL
MODEL 2
REMARK VINA RESULT:     -12.4      1.813      2.880
REMARK SMILES COc1ccc(-c2ccc(/C=C3\SC(=S)N([C@H](Cc4ccccc4)C(=O)OCCOC(=O)c4ccc(-c5c6nc(c(-c7cccc(S(=O)(=O)[O-])c7F)c7ccc([nH]7)c(-c7cccc(S(=O)(=O)[O-])c7F)c7nc(c(-c8cccc(S(=O)(=O)[O-])c8F)c8ccc5[nH]8)C=C7)C=C6)cc4)C3=O)o2)cc1
REMARK SMILES IDX 28 1 27 2 25 3 26 4 17 5 16 6 11 7 12 8 13 9 96 10 14 11
REMARK SMILES IDX 97 12 15 13 10 14 7 15 8 16 98 17 9 18 6 19 3 20 4 21 100 22
REMARK SMILES IDX 5 23 99 24 2 25 1 26 18 27 19 28 20 29 24 30 21 31 23 32
REMARK SMILES IDX 22 33 29 34 30 35 31 36 32 37 33 38 34 39 95 40 35 41 94 42
REMARK SMILES IDX 36 43 37 44 38 45 88 46 39 47 93 48 87 49 89 50 40 51 92 52
REMARK SMILES IDX 86 53 85 54 41 56 73 57 53 58 72 59 54 60 57 61 71 62 90 63
REMARK SMILES IDX 55 64 56 65 70 67 91 68 58 69 42 70 43 71 51 72 44 73 46 74
REMARK SMILES IDX 52 75 45 76 47 77 48 78 49 79 50 80 74 81 75 82 83 83 76 84
REMARK SMILES IDX 78 85 84 86 77 87 79 88 80 89 81 90 82 91 59 92 60 93 68 94
REMARK SMILES IDX 61 95 63 96 69 97 62 98 64 99 65 100 66 101 67 102
REMARK H PARENT 89 55 57 66
REMARK Flexibility Score: inf
ROOT
ATOM      1  C   UNL A   1      32.026  29.193  25.682  1.00  0.00     0.274 C 
ENDROOT
BRANCH   1   2
ATOM      2  O   UNL A   1      33.150  28.976  24.807  1.00  0.00    -0.461 OA
BRANCH   2   3
ATOM      3  C   UNL A   1      32.909  28.364  23.619  1.00  0.00     0.329 C 
ATOM      4  O   UNL A   1      33.681  28.410  22.669  1.00  0.00    -0.250 OA
BRANCH   3   5
ATOM      5  C   UNL A   1      31.586  27.557  23.639  1.00  0.00     0.206 C 
BRANCH   5   6
ATOM      6  N   UNL A   1      31.912  26.140  23.951  1.00  0.00    -0.278 N 
ATOM      7  C   UNL A   1      34.490  23.775  23.579  1.00  0.00     0.068 C 
ATOM      8  C   UNL A   1      33.313  24.282  23.953  1.00  0.00     0.084 C 
ATOM      9  S   UNL A   1      32.287  23.948  25.278  1.00  0.00    -0.054 SA
ATOM     10  C   UNL A   1      32.709  25.363  23.156  1.00  0.00     0.267 C 
ATOM     11  C   UNL A   1      31.318  25.401  24.962  1.00  0.00     0.149 C 
ATOM     12  O   UNL A   1      32.753  25.353  21.934  1.00  0.00    -0.268 OA
ATOM     13  S   UNL A   1      29.897  25.712  25.778  1.00  0.00    -0.052 S 
BRANCH   7  14
ATOM     14  C   UNL A   1      35.101  22.657  24.193  1.00  0.00     0.128 A 
ATOM     15  C   UNL A   1      36.700  21.362  25.010  1.00  0.00     0.134 A 
ATOM     16  C   UNL A   1      35.572  20.579  24.953  1.00  0.00     0.051 A 
ATOM     17  O   UNL A   1      36.432  22.613  24.548  1.00  0.00    -0.457 OA
ATOM     18  C   UNL A   1      34.550  21.408  24.448  1.00  0.00     0.051 A 
BRANCH  15  19
ATOM     19  C   UNL A   1      38.066  21.085  25.406  1.00  0.00     0.017 A 
ATOM     20  C   UNL A   1      40.634  20.451  26.349  1.00  0.00     0.118 A 
ATOM     21  C   UNL A   1      40.113  21.736  26.522  1.00  0.00     0.047 A 
ATOM     22  C   UNL A   1      39.867  19.480  25.705  1.00  0.00     0.047 A 
ATOM     23  C   UNL A   1      38.841  22.060  26.040  1.00  0.00     0.016 A 
ATOM     24  C   UNL A   1      38.588  19.797  25.238  1.00  0.00     0.016 A 
BRANCH  20  25
ATOM     25  O   UNL A   1      41.873  20.241  26.890  1.00  0.00    -0.497 OA
ATOM     26  C   UNL A   1      42.970  20.476  26.013  1.00  0.00     0.278 C 
ENDBRANCH  20  25
ENDBRANCH  15  19
ENDBRANCH   7  14
ENDBRANCH   5   6
BRANCH   5  27
ATOM     27  C   UNL A   1      30.726  27.857  22.377  1.00  0.00     0.073 C 
BRANCH  27  28
ATOM     28  C   UNL A   1      29.582  28.851  22.486  1.00  0.00    -0.045 A 
ATOM     29  C   UNL A   1      29.861  30.204  22.223  1.00  0.00     0.004 A 
ATOM     30  C   UNL A   1      28.295  28.506  22.913  1.00  0.00     0.004 A 
ATOM     31  C   UNL A   1      28.919  31.195  22.496  1.00  0.00     0.000 A 
ATOM     32  C   UNL A   1      27.349  29.500  23.176  1.00  0.00     0.000 A 
ATOM     33  C   UNL A   1      27.668  30.843  22.989  1.00  0.00     0.000 A 
ENDBRANCH  27  28
ENDBRANCH   5  27
ENDBRANCH   3   5
ENDBRANCH   2   3
ENDBRANCH   1   2
BRANCH   1  34
ATOM     34  C   UNL A   1      32.388  30.282  26.693  1.00  0.00     0.275 C 
BRANCH  34  35
ATOM     35  O   UNL A   1      33.802  30.260  26.971  1.00  0.00    -0.458 OA
BRANCH  35  36
ATOM     36  C   UNL A   1      34.287  31.378  27.554  1.00  0.00     0.338 C 
ATOM     37  O   UNL A   1      33.739  32.472  27.647  1.00  0.00    -0.246 OA
BRANCH  36  38
ATOM     38  C   UNL A   1      35.554  31.075  28.218  1.00  0.00     0.060 A 
ATOM     39  C   UNL A   1      35.659  29.876  28.922  1.00  0.00     0.016 A 
ATOM     40  C   UNL A   1      36.595  32.000  28.232  1.00  0.00     0.016 A 
ATOM     41  C   UNL A   1      36.788  29.601  29.681  1.00  0.00     0.010 A 
ATOM     42  C   UNL A   1      37.749  31.705  28.959  1.00  0.00     0.010 A 
ATOM     43  C   UNL A   1      37.847  30.513  29.700  1.00  0.00    -0.014 A 
BRANCH  43  44
ATOM     44  C   UNL A   1      39.067  30.217  30.484  1.00  0.00     0.031 A 
ATOM     45  C   UNL A   1      40.053  29.205  29.980  1.00  0.00     0.074 A 
ATOM     46  C   UNL A   1      39.256  30.830  31.666  1.00  0.00     0.049 A 
ATOM     47  N   UNL A   1      41.085  28.686  30.590  1.00  0.00    -0.248 NA
ATOM     48  C   UNL A   1      39.848  28.704  28.610  1.00  0.00     0.031 C 
ATOM     49  C   UNL A   1      38.378  31.855  32.237  1.00  0.00     0.029 A 
ATOM     50  N   UNL A   1      40.233  30.663  32.614  1.00  0.00    -0.354 N 
ATOM     51  C   UNL A   1      41.617  27.755  29.708  1.00  0.00     0.074 A 
ATOM     52  C   UNL A   1      40.805  27.791  28.511  1.00  0.00     0.031 C 
ATOM     53  C   UNL A   1      38.845  32.211  33.442  1.00  0.00     0.029 A 
ATOM     54  C   UNL A   1      40.016  31.400  33.755  1.00  0.00     0.049 A 
ATOM     55  H   UNL A   1      41.011  30.073  32.490  1.00  0.00     0.167 HD
ATOM     56  C   UNL A   1      42.692  26.951  29.883  1.00  0.00     0.034 A 
ATOM     57  C   UNL A   1      40.663  31.389  34.936  1.00  0.00     0.034 A 
ATOM     58  C   UNL A   1      43.523  26.966  31.056  1.00  0.00     0.049 A 
ATOM     59  C   UNL A   1      41.828  30.459  35.116  1.00  0.00     0.074 A 
ATOM     60  C   UNL A   1      44.676  26.243  31.304  1.00  0.00     0.029 A 
ATOM     61  N   UNL A   1      43.286  27.740  32.182  1.00  0.00    -0.354 N 
ATOM     62  N   UNL A   1      42.377  29.648  34.243  1.00  0.00    -0.248 NA
ATOM     63  C   UNL A   1      42.470  30.445  36.438  1.00  0.00     0.031 C 
ATOM     64  C   UNL A   1      45.126  26.568  32.588  1.00  0.00     0.029 A 
ATOM     65  C   UNL A   1      44.258  27.499  33.137  1.00  0.00     0.049 A 
ATOM     66  H   UNL A   1      42.537  28.370  32.287  1.00  0.00     0.167 HD
ATOM     67  C   UNL A   1      43.439  29.041  34.901  1.00  0.00     0.074 A 
ATOM     68  C   UNL A   1      43.470  29.596  36.241  1.00  0.00     0.031 C 
ATOM     69  C   UNL A   1      44.298  28.096  34.447  1.00  0.00     0.034 A 
BRANCH  56  70
ATOM     70  C   UNL A   1      43.043  26.000  28.773  1.00  0.00     0.023 A 
ATOM     71  C   UNL A   1      42.355  24.776  28.659  1.00  0.00     0.012 A 
ATOM     72  C   UNL A   1      44.016  26.340  27.813  1.00  0.00     0.148 A 
ATOM     73  C   UNL A   1      42.644  23.895  27.617  1.00  0.00     0.002 A 
ATOM     74  C   UNL A   1      44.277  25.472  26.759  1.00  0.00     0.091 A 
ATOM     75  F   UNL A   1      44.680  27.495  27.957  1.00  0.00    -0.205 F 
ATOM     76  C   UNL A   1      43.597  24.247  26.663  1.00  0.00     0.022 A 
BRANCH  74  77
ATOM     77  S   UNL A   1      45.442  25.870  25.452  1.00  0.00     0.127 S 
ATOM     78  O   UNL A   1      45.241  24.756  24.526  1.00  0.00    -0.237 OA
ATOM     79  O   UNL A   1      44.942  27.159  24.970  1.00  0.00    -0.237 OA
ATOM     80  O   UNL A   1      46.749  25.932  26.090  1.00  0.00    -0.744 OA
ENDBRANCH  74  77
ENDBRANCH  56  70
BRANCH  57  81
ATOM     81  C   UNL A   1      40.224  32.303  36.027  1.00  0.00     0.023 A 
ATOM     82  C   UNL A   1      40.859  33.550  36.175  1.00  0.00     0.012 A 
ATOM     83  C   UNL A   1      39.154  31.970  36.883  1.00  0.00     0.148 A 
ATOM     84  C   UNL A   1      40.446  34.445  37.162  1.00  0.00     0.002 A 
ATOM     85  C   UNL A   1      38.713  32.888  37.829  1.00  0.00     0.091 A 
ATOM     86  F   UNL A   1      38.578  30.768  36.743  1.00  0.00    -0.205 F 
ATOM     87  C   UNL A   1      39.365  34.120  37.979  1.00  0.00     0.022 A 
BRANCH  85  88
ATOM     88  S   UNL A   1      37.249  32.599  38.831  1.00  0.00     0.127 S 
ATOM     89  O   UNL A   1      37.408  31.193  39.194  1.00  0.00    -0.237 OA
ATOM     90  O   UNL A   1      37.438  33.544  39.931  1.00  0.00    -0.237 OA
ATOM     91  O   UNL A   1      36.119  32.910  37.965  1.00  0.00    -0.744 OA
ENDBRANCH  85  88
ENDBRANCH  57  81
BRANCH  69  92
ATOM     92  C   UNL A   1      45.352  27.603  35.399  1.00  0.00     0.023 A 
ATOM     93  C   UNL A   1      46.599  28.257  35.446  1.00  0.00     0.012 A 
ATOM     94  C   UNL A   1      45.082  26.556  36.301  1.00  0.00     0.148 A 
ATOM     95  C   UNL A   1      47.569  27.864  36.366  1.00  0.00     0.002 A 
ATOM     96  C   UNL A   1      46.038  26.198  37.244  1.00  0.00     0.091 A 
ATOM     97  F   UNL A   1      43.895  25.935  36.223  1.00  0.00    -0.205 F 
ATOM     98  C   UNL A   1      47.284  26.845  37.273  1.00  0.00     0.022 A 
BRANCH  96  99
ATOM     99  S   UNL A   1      45.727  24.959  38.508  1.00  0.00     0.127 S 
ATOM    100  O   UNL A   1      47.029  24.871  39.166  1.00  0.00    -0.237 OA
ATOM    101  O   UNL A   1      44.678  25.589  39.309  1.00  0.00    -0.237 OA
ATOM    102  O   UNL A   1      45.303  23.760  37.796  1.00  0.00    -0.744 OA
ENDBRANCH  96  99
ENDBRANCH  69  92
ENDBRANCH  43  44
ENDBRANCH  36  38
ENDBRANCH  35  36
ENDBRANCH  34  35
ENDBRANCH   1  34
TORSDOF 20
ENDMDL
MODEL 3
REMARK VINA RESULT:     -10.9      5.353     10.818
REMARK SMILES COc1ccc(-c2ccc(/C=C3\SC(=S)N([C@H](Cc4ccccc4)C(=O)OCCOC(=O)c4ccc(-c5c6nc(c(-c7cccc(S(=O)(=O)[O-])c7F)c7ccc([nH]7)c(-c7cccc(S(=O)(=O)[O-])c7F)c7nc(c(-c8cccc(S(=O)(=O)[O-])c8F)c8ccc5[nH]8)C=C7)C=C6)cc4)C3=O)o2)cc1
REMARK SMILES IDX 28 1 27 2 25 3 26 4 17 5 16 6 11 7 12 8 13 9 96 10 14 11
REMARK SMILES IDX 97 12 15 13 10 14 7 15 8 16 98 17 9 18 6 19 3 20 4 21 100 22
REMARK SMILES IDX 5 23 99 24 2 25 1 26 18 27 19 28 20 29 24 30 21 31 23 32
REMARK SMILES IDX 22 33 29 34 30 35 31 36 32 37 33 38 34 39 95 40 35 41 94 42
REMARK SMILES IDX 36 43 37 44 38 45 88 46 39 47 93 48 87 49 89 50 40 51 92 52
REMARK SMILES IDX 86 53 85 54 41 56 73 57 53 58 72 59 54 60 57 61 71 62 90 63
REMARK SMILES IDX 55 64 56 65 70 67 91 68 58 69 42 70 43 71 51 72 44 73 46 74
REMARK SMILES IDX 52 75 45 76 47 77 48 78 49 79 50 80 74 81 75 82 83 83 76 84
REMARK SMILES IDX 78 85 84 86 77 87 79 88 80 89 81 90 82 91 59 92 60 93 68 94
REMARK SMILES IDX 61 95 63 96 69 97 62 98 64 99 65 100 66 101 67 102
REMARK H PARENT 89 55 57 66
REMARK Flexibility Score: inf
ROOT
ATOM      1  C   UNL A   1      36.643  32.876  29.255  1.00  0.00     0.274 C 
ENDROOT
BRANCH   1   2
ATOM      2  O   UNL A   1      36.547  33.734  30.409  1.00  0.00    -0.461 OA
BRANCH   2   3
ATOM      3  C   UNL A   1      37.412  33.509  31.430  1.00  0.00     0.329 C 
ATOM      4  O   UNL A   1      38.613  33.330  31.269  1.00  0.00    -0.250 OA
BRANCH   3   5
ATOM      5  C   UNL A   1      36.711  33.575  32.811  1.00  0.00     0.206 C 
BRANCH   5   6
ATOM      6  N   UNL A   1      37.338  32.557  33.697  1.00  0.00    -0.278 N 
ATOM      7  C   UNL A   1      39.471  29.761  33.580  1.00  0.00     0.068 C 
ATOM      8  C   UNL A   1      38.691  30.710  34.106  1.00  0.00     0.084 C 
ATOM      9  S   UNL A   1      38.704  31.496  35.624  1.00  0.00    -0.054 SA
ATOM     10  C   UNL A   1      37.600  31.275  33.297  1.00  0.00     0.267 C 
ATOM     11  C   UNL A   1      37.560  32.726  35.054  1.00  0.00     0.149 C 
ATOM     12  O   UNL A   1      36.912  30.569  32.574  1.00  0.00    -0.268 OA
ATOM     13  S   UNL A   1      36.873  33.842  36.087  1.00  0.00    -0.052 S 
BRANCH   7  14
ATOM     14  C   UNL A   1      40.464  29.062  34.304  1.00  0.00     0.128 A 
ATOM     15  C   UNL A   1      41.773  27.392  34.937  1.00  0.00     0.134 A 
ATOM     16  C   UNL A   1      41.909  28.364  35.899  1.00  0.00     0.051 A 
ATOM     17  O   UNL A   1      40.900  27.796  33.975  1.00  0.00    -0.457 OA
ATOM     18  C   UNL A   1      41.088  29.434  35.488  1.00  0.00     0.051 A 
BRANCH  15  19
ATOM     19  C   UNL A   1      42.327  26.060  34.804  1.00  0.00     0.017 A 
ATOM     20  C   UNL A   1      43.486  23.503  34.746  1.00  0.00     0.118 A 
ATOM     21  C   UNL A   1      44.097  24.572  34.088  1.00  0.00     0.047 A 
ATOM     22  C   UNL A   1      42.293  23.714  35.437  1.00  0.00     0.047 A 
ATOM     23  C   UNL A   1      43.516  25.843  34.101  1.00  0.00     0.016 A 
ATOM     24  C   UNL A   1      41.719  24.988  35.467  1.00  0.00     0.016 A 
BRANCH  20  25
ATOM     25  O   UNL A   1      44.162  22.315  34.691  1.00  0.00    -0.497 OA
ATOM     26  C   UNL A   1      45.220  22.170  35.633  1.00  0.00     0.278 C 
ENDBRANCH  20  25
ENDBRANCH  15  19
ENDBRANCH   7  14
ENDBRANCH   5   6
BRANCH   5  27
ATOM     27  C   UNL A   1      35.163  33.566  32.655  1.00  0.00     0.073 C 
BRANCH  27  28
ATOM     28  C   UNL A   1      34.443  34.878  32.397  1.00  0.00    -0.045 A 
ATOM     29  C   UNL A   1      34.546  35.887  33.372  1.00  0.00     0.004 A 
ATOM     30  C   UNL A   1      33.620  35.105  31.288  1.00  0.00     0.004 A 
ATOM     31  C   UNL A   1      33.757  37.034  33.302  1.00  0.00     0.000 A 
ATOM     32  C   UNL A   1      32.837  36.260  31.214  1.00  0.00     0.000 A 
ATOM     33  C   UNL A   1      32.889  37.211  32.231  1.00  0.00     0.000 A 
ENDBRANCH  27  28
ENDBRANCH   5  27
ENDBRANCH   3   5
ENDBRANCH   2   3
ENDBRANCH   1   2
BRANCH   1  34
ATOM     34  C   UNL A   1      35.283  32.221  29.009  1.00  0.00     0.275 C 
BRANCH  34  35
ATOM     35  O   UNL A   1      35.297  31.484  27.771  1.00  0.00    -0.458 OA
BRANCH  35  36
ATOM     36  C   UNL A   1      35.376  30.143  27.906  1.00  0.00     0.338 C 
ATOM     37  O   UNL A   1      34.517  29.310  27.629  1.00  0.00    -0.246 OA
BRANCH  36  38
ATOM     38  C   UNL A   1      36.730  29.769  28.313  1.00  0.00     0.060 A 
ATOM     39  C   UNL A   1      37.766  29.948  27.397  1.00  0.00     0.016 A 
ATOM     40  C   UNL A   1      36.966  29.160  29.542  1.00  0.00     0.016 A 
ATOM     41  C   UNL A   1      39.044  29.487  27.680  1.00  0.00     0.010 A 
ATOM     42  C   UNL A   1      38.260  28.734  29.846  1.00  0.00     0.010 A 
ATOM     43  C   UNL A   1      39.303  28.881  28.913  1.00  0.00    -0.014 A 
BRANCH  43  44
ATOM     44  C   UNL A   1      40.668  28.410  29.236  1.00  0.00     0.031 A 
ATOM     45  C   UNL A   1      41.564  29.248  30.099  1.00  0.00     0.074 A 
ATOM     46  C   UNL A   1      41.107  27.250  28.713  1.00  0.00     0.049 A 
ATOM     47  N   UNL A   1      42.836  29.097  30.357  1.00  0.00    -0.248 NA
ATOM     48  C   UNL A   1      40.951  30.416  30.754  1.00  0.00     0.031 C 
ATOM     49  C   UNL A   1      40.309  26.340  27.887  1.00  0.00     0.029 A 
ATOM     50  N   UNL A   1      42.339  26.651  28.774  1.00  0.00    -0.354 N 
ATOM     51  C   UNL A   1      43.192  30.179  31.152  1.00  0.00     0.074 A 
ATOM     52  C   UNL A   1      41.998  30.972  31.349  1.00  0.00     0.031 C 
ATOM     53  C   UNL A   1      41.077  25.309  27.505  1.00  0.00     0.029 A 
ATOM     54  C   UNL A   1      42.431  25.515  28.006  1.00  0.00     0.049 A 
ATOM     55  H   UNL A   1      43.083  27.001  29.315  1.00  0.00     0.167 HD
ATOM     56  C   UNL A   1      44.405  30.474  31.672  1.00  0.00     0.034 A 
ATOM     57  C   UNL A   1      43.497  24.751  27.702  1.00  0.00     0.034 A 
ATOM     58  C   UNL A   1      45.570  29.647  31.514  1.00  0.00     0.049 A 
ATOM     59  C   UNL A   1      44.840  25.124  28.263  1.00  0.00     0.074 A 
ATOM     60  C   UNL A   1      46.829  29.818  32.060  1.00  0.00     0.029 A 
ATOM     61  N   UNL A   1      45.621  28.492  30.747  1.00  0.00    -0.354 N 
ATOM     62  N   UNL A   1      45.146  26.100  29.086  1.00  0.00    -0.248 NA
ATOM     63  C   UNL A   1      45.982  24.292  27.863  1.00  0.00     0.031 C 
ATOM     64  C   UNL A   1      47.646  28.777  31.607  1.00  0.00     0.029 A 
ATOM     65  C   UNL A   1      46.894  27.951  30.787  1.00  0.00     0.049 A 
ATOM     66  H   UNL A   1      44.862  28.113  30.247  1.00  0.00     0.167 HD
ATOM     67  C   UNL A   1      46.511  25.988  29.317  1.00  0.00     0.074 A 
ATOM     68  C   UNL A   1      46.968  24.835  28.565  1.00  0.00     0.031 C 
ATOM     69  C   UNL A   1      47.318  26.778  30.067  1.00  0.00     0.034 A 
BRANCH  56  70
ATOM     70  C   UNL A   1      44.532  31.736  32.480  1.00  0.00     0.023 A 
ATOM     71  C   UNL A   1      44.846  32.949  31.835  1.00  0.00     0.012 A 
ATOM     72  C   UNL A   1      44.287  31.732  33.867  1.00  0.00     0.148 A 
ATOM     73  C   UNL A   1      44.937  34.135  32.563  1.00  0.00     0.002 A 
ATOM     74  C   UNL A   1      44.348  32.924  34.581  1.00  0.00     0.091 A 
ATOM     75  F   UNL A   1      44.020  30.563  34.466  1.00  0.00    -0.205 F 
ATOM     76  C   UNL A   1      44.678  34.124  33.932  1.00  0.00     0.022 A 
BRANCH  74  77
ATOM     77  S   UNL A   1      43.969  33.013  36.334  1.00  0.00     0.127 S 
ATOM     78  O   UNL A   1      45.116  32.319  36.920  1.00  0.00    -0.237 OA
ATOM     79  O   UNL A   1      43.945  34.457  36.575  1.00  0.00    -0.237 OA
ATOM     80  O   UNL A   1      42.682  32.353  36.497  1.00  0.00    -0.744 OA
ENDBRANCH  74  77
ENDBRANCH  56  70
BRANCH  57  81
ATOM     81  C   UNL A   1      43.325  23.552  26.835  1.00  0.00     0.023 A 
ATOM     82  C   UNL A   1      43.928  23.533  25.563  1.00  0.00     0.012 A 
ATOM     83  C   UNL A   1      42.617  22.417  27.277  1.00  0.00     0.148 A 
ATOM     84  C   UNL A   1      43.819  22.411  24.742  1.00  0.00     0.002 A 
ATOM     85  C   UNL A   1      42.556  21.283  26.475  1.00  0.00     0.091 A 
ATOM     86  F   UNL A   1      42.028  22.463  28.480  1.00  0.00    -0.205 F 
ATOM     87  C   UNL A   1      43.145  21.282  25.203  1.00  0.00     0.022 A 
BRANCH  85  88
ATOM     88  S   UNL A   1      41.820  19.746  27.048  1.00  0.00     0.127 S 
ATOM     89  O   UNL A   1      42.864  19.223  27.926  1.00  0.00    -0.237 OA
ATOM     90  O   UNL A   1      40.618  20.218  27.735  1.00  0.00    -0.237 OA
ATOM     91  O   UNL A   1      41.553  18.971  25.843  1.00  0.00    -0.744 OA
ENDBRANCH  85  88
ENDBRANCH  57  81
BRANCH  69  92
ATOM     92  C   UNL A   1      48.778  26.424  30.123  1.00  0.00     0.023 A 
ATOM     93  C   UNL A   1      49.662  26.992  29.184  1.00  0.00     0.012 A 
ATOM     94  C   UNL A   1      49.286  25.604  31.149  1.00  0.00     0.148 A 
ATOM     95  C   UNL A   1      51.030  26.734  29.255  1.00  0.00     0.002 A 
ATOM     96  C   UNL A   1      50.656  25.386  31.239  1.00  0.00     0.091 A 
ATOM     97  F   UNL A   1      48.422  25.059  32.019  1.00  0.00    -0.205 F 
ATOM     98  C   UNL A   1      51.527  25.943  30.289  1.00  0.00     0.022 A 
BRANCH  96  99
ATOM     99  S   UNL A   1      51.395  24.455  32.586  1.00  0.00     0.127 S 
ATOM    100  O   UNL A   1      52.821  24.687  32.360  1.00  0.00    -0.237 OA
ATOM    101  O   UNL A   1      50.847  25.125  33.765  1.00  0.00    -0.237 OA
ATOM    102  O   UNL A   1      50.949  23.079  32.413  1.00  0.00    -0.744 OA
ENDBRANCH  96  99
ENDBRANCH  69  92
ENDBRANCH  43  44
ENDBRANCH  36  38
ENDBRANCH  35  36
ENDBRANCH  34  35
ENDBRANCH   1  34
TORSDOF 20
ENDMDL
