MODEL 1
REMARK VINA RESULT:     -12.0      0.000      0.000
REMARK SMILES C[C@@H](C(=O)OCCOC(=O)c1ccc(-c2c3nc(c(-c4cccc(S(=O)(=O)[O-])c4F)c4ccc([nH]4)c(-c4cccc(S(=O)(=O)[O-])c4F)c4nc(c(-c5cccc(S(=O)(=O)[O-])c5F)c5ccc2[nH]5)C=C4)C=C3)cc1)c1ccc(C[C@@H]2CCC[C@@H]2O)cc1Br
REMARK SMILES IDX 6 1 5 2 3 3 4 4 2 5 1 6 74 7 75 8 86 9 76 10 85 11 87 12
REMARK SMILES IDX 77 13 78 14 79 15 80 16 83 17 81 18 82 19 84 20 7 22 8 23
REMARK SMILES IDX 9 24 10 25 11 26 12 27 73 28 13 29 72 30 14 31 15 32 16 33
REMARK SMILES IDX 66 34 17 35 71 36 65 37 67 38 18 39 70 40 64 41 63 42 19 44
REMARK SMILES IDX 51 45 31 46 50 47 32 48 35 49 49 50 68 51 33 52 34 53 48 55
REMARK SMILES IDX 69 56 36 57 20 58 21 59 29 60 22 61 24 62 30 63 23 64 25 65
REMARK SMILES IDX 26 66 27 67 28 68 52 69 53 70 61 71 54 72 56 73 62 74 55 75
REMARK SMILES IDX 57 76 58 77 59 78 60 79 37 80 38 81 46 82 39 83 41 84 47 85
REMARK SMILES IDX 40 86 42 87 43 88 44 89 45 90
REMARK H PARENT 84 21 67 43 35 54
REMARK Flexibility Score: inf
ROOT
ATOM      1  C   UNL A   1      31.732  28.660  24.418  1.00  0.00     0.274 C 
ENDROOT
BRANCH   1   2
ATOM      2  O   UNL A   1      31.260  27.421  24.990  1.00  0.00    -0.462 OA
BRANCH   2   3
ATOM      3  C   UNL A   1      31.836  26.282  24.510  1.00  0.00     0.313 C 
ATOM      4  O   UNL A   1      31.638  25.848  23.381  1.00  0.00    -0.252 OA
BRANCH   3   5
ATOM      5  C   UNL A   1      32.673  25.562  25.586  1.00  0.00     0.127 C 
ATOM      6  C   UNL A   1      34.024  26.242  25.831  1.00  0.00     0.025 C 
BRANCH   5   7
ATOM      7  C   UNL A   1      32.789  24.076  25.239  1.00  0.00    -0.020 A 
ATOM      8  C   UNL A   1      33.844  23.618  24.428  1.00  0.00     0.006 A 
ATOM      9  C   UNL A   1      31.770  23.159  25.544  1.00  0.00     0.022 A 
ATOM     10  C   UNL A   1      33.791  22.365  23.803  1.00  0.00     0.004 A 
ATOM     11  C   UNL A   1      31.754  21.889  24.960  1.00  0.00     0.019 A 
ATOM     12  Br  UNL A   1      30.309  23.572  26.692  1.00  0.00    -0.050 Br
ATOM     13  C   UNL A   1      32.700  21.518  24.004  1.00  0.00    -0.047 A 
BRANCH  13  14
ATOM     14  C   UNL A   1      32.534  20.233  23.227  1.00  0.00     0.041 C 
BRANCH  14  15
ATOM     15  C   UNL A   1      32.447  18.885  23.985  1.00  0.00     0.022 C 
ATOM     16  C   UNL A   1      33.554  18.652  25.003  1.00  0.00     0.007 C 
ATOM     17  C   UNL A   1      32.477  17.554  23.227  1.00  0.00     0.117 C 
ATOM     18  C   UNL A   1      34.632  17.829  24.300  1.00  0.00     0.003 C 
ATOM     19  C   UNL A   1      33.948  17.165  23.114  1.00  0.00     0.032 C 
BRANCH  17  20
ATOM     20  O   UNL A   1      31.819  17.583  21.979  1.00  0.00    -0.393 OA
ATOM     21  H   UNL A   1      31.539  16.685  21.740  1.00  0.00     0.210 HD
ENDBRANCH  17  20
ENDBRANCH  14  15
ENDBRANCH  13  14
ENDBRANCH   5   7
ENDBRANCH   3   5
ENDBRANCH   2   3
ENDBRANCH   1   2
BRANCH   1  22
ATOM     22  C   UNL A   1      31.673  29.813  25.422  1.00  0.00     0.275 C 
BRANCH  22  23
ATOM     23  O   UNL A   1      32.758  29.745  26.369  1.00  0.00    -0.458 OA
BRANCH  23  24
ATOM     24  C   UNL A   1      33.116  30.919  26.941  1.00  0.00     0.338 C 
ATOM     25  O   UNL A   1      32.404  31.888  27.136  1.00  0.00    -0.246 OA
BRANCH  24  26
ATOM     26  C   UNL A   1      34.489  30.818  27.472  1.00  0.00     0.060 A 
ATOM     27  C   UNL A   1      34.929  29.540  27.783  1.00  0.00     0.016 A 
ATOM     28  C   UNL A   1      35.293  31.922  27.770  1.00  0.00     0.016 A 
ATOM     29  C   UNL A   1      36.160  29.354  28.404  1.00  0.00     0.010 A 
ATOM     30  C   UNL A   1      36.555  31.727  28.372  1.00  0.00     0.010 A 
ATOM     31  C   UNL A   1      37.000  30.437  28.693  1.00  0.00    -0.014 A 
BRANCH  31  32
ATOM     32  C   UNL A   1      38.295  30.135  29.371  1.00  0.00     0.031 A 
ATOM     33  C   UNL A   1      38.408  30.317  30.857  1.00  0.00     0.074 A 
ATOM     34  C   UNL A   1      39.299  29.520  28.711  1.00  0.00     0.049 A 
ATOM     35  N   UNL A   1      39.367  29.942  31.664  1.00  0.00    -0.248 NA
ATOM     36  C   UNL A   1      37.295  31.013  31.521  1.00  0.00     0.031 C 
ATOM     37  C   UNL A   1      39.293  29.212  27.287  1.00  0.00     0.029 A 
ATOM     38  N   UNL A   1      40.459  28.933  29.175  1.00  0.00    -0.354 N 
ATOM     39  C   UNL A   1      39.036  30.466  32.905  1.00  0.00     0.074 A 
ATOM     40  C   UNL A   1      37.728  31.073  32.773  1.00  0.00     0.031 C 
ATOM     41  C   UNL A   1      40.296  28.357  27.023  1.00  0.00     0.029 A 
ATOM     42  C   UNL A   1      41.048  28.091  28.250  1.00  0.00     0.049 A 
ATOM     43  H   UNL A   1      40.830  29.096  30.073  1.00  0.00     0.167 HD
ATOM     44  C   UNL A   1      39.789  30.510  34.030  1.00  0.00     0.034 A 
ATOM     45  C   UNL A   1      42.024  27.166  28.403  1.00  0.00     0.034 A 
ATOM     46  C   UNL A   1      41.087  29.910  34.172  1.00  0.00     0.049 A 
ATOM     47  C   UNL A   1      42.770  27.093  29.715  1.00  0.00     0.074 A 
ATOM     48  C   UNL A   1      41.985  30.029  35.220  1.00  0.00     0.029 A 
ATOM     49  N   UNL A   1      41.673  29.070  33.242  1.00  0.00    -0.354 N 
ATOM     50  N   UNL A   1      42.477  27.634  30.871  1.00  0.00    -0.248 NA
ATOM     51  C   UNL A   1      44.015  26.305  29.723  1.00  0.00     0.031 C 
ATOM     52  C   UNL A   1      43.119  29.267  34.916  1.00  0.00     0.029 A 
ATOM     53  C   UNL A   1      42.916  28.658  33.691  1.00  0.00     0.049 A 
ATOM     54  H   UNL A   1      41.265  28.805  32.386  1.00  0.00     0.167 HD
ATOM     55  C   UNL A   1      43.529  27.305  31.721  1.00  0.00     0.074 A 
ATOM     56  C   UNL A   1      44.409  26.424  30.984  1.00  0.00     0.031 C 
ATOM     57  C   UNL A   1      43.784  27.761  32.973  1.00  0.00     0.034 A 
BRANCH  44  58
ATOM     58  C   UNL A   1      39.274  31.363  35.152  1.00  0.00     0.023 A 
ATOM     59  C   UNL A   1      38.364  30.849  36.092  1.00  0.00     0.012 A 
ATOM     60  C   UNL A   1      39.716  32.696  35.261  1.00  0.00     0.148 A 
ATOM     61  C   UNL A   1      37.882  31.665  37.116  1.00  0.00     0.002 A 
ATOM     62  C   UNL A   1      39.260  33.490  36.304  1.00  0.00     0.091 A 
ATOM     63  F   UNL A   1      40.556  33.170  34.329  1.00  0.00    -0.205 F 
ATOM     64  C   UNL A   1      38.336  32.979  37.227  1.00  0.00     0.022 A 
BRANCH  62  65
ATOM     65  S   UNL A   1      39.840  35.170  36.550  1.00  0.00     0.127 S 
ATOM     66  O   UNL A   1      39.289  35.847  35.376  1.00  0.00    -0.237 OA
ATOM     67  O   UNL A   1      39.205  35.533  37.818  1.00  0.00    -0.237 OA
ATOM     68  O   UNL A   1      41.292  35.091  36.603  1.00  0.00    -0.744 OA
ENDBRANCH  62  65
ENDBRANCH  44  58
BRANCH  45  69
ATOM     69  C   UNL A   1      42.319  26.151  27.340  1.00  0.00     0.023 A 
ATOM     70  C   UNL A   1      43.193  26.514  26.289  1.00  0.00     0.012 A 
ATOM     71  C   UNL A   1      41.769  24.860  27.331  1.00  0.00     0.148 A 
ATOM     72  C   UNL A   1      43.484  25.627  25.249  1.00  0.00     0.002 A 
ATOM     73  C   UNL A   1      42.137  23.949  26.342  1.00  0.00     0.091 A 
ATOM     74  F   UNL A   1      40.882  24.527  28.281  1.00  0.00    -0.205 F 
ATOM     75  C   UNL A   1      42.971  24.336  25.286  1.00  0.00     0.022 A 
BRANCH  73  76
ATOM     76  S   UNL A   1      41.671  22.220  26.488  1.00  0.00     0.127 S 
ATOM     77  O   UNL A   1      40.217  22.282  26.387  1.00  0.00    -0.237 OA
ATOM     78  O   UNL A   1      42.342  21.607  25.341  1.00  0.00    -0.237 OA
ATOM     79  O   UNL A   1      42.220  21.816  27.778  1.00  0.00    -0.744 OA
ENDBRANCH  73  76
ENDBRANCH  45  69
BRANCH  57  80
ATOM     80  C   UNL A   1      45.107  27.402  33.600  1.00  0.00     0.023 A 
ATOM     81  C   UNL A   1      46.224  28.226  33.343  1.00  0.00     0.012 A 
ATOM     82  C   UNL A   1      45.238  26.331  34.504  1.00  0.00     0.148 A 
ATOM     83  C   UNL A   1      47.453  27.975  33.950  1.00  0.00     0.002 A 
ATOM     84  C   UNL A   1      46.459  26.109  35.137  1.00  0.00     0.091 A 
ATOM     85  F   UNL A   1      44.173  25.548  34.730  1.00  0.00    -0.205 F 
ATOM     86  C   UNL A   1      47.568  26.924  34.854  1.00  0.00     0.022 A 
BRANCH  84  87
ATOM     87  S   UNL A   1      46.687  24.830  36.380  1.00  0.00     0.127 S 
ATOM     88  O   UNL A   1      46.481  23.613  35.596  1.00  0.00    -0.237 OA
ATOM     89  O   UNL A   1      48.070  25.053  36.805  1.00  0.00    -0.237 OA
ATOM     90  O   UNL A   1      45.690  25.090  37.408  1.00  0.00    -0.744 OA
ENDBRANCH  84  87
ENDBRANCH  57  80
ENDBRANCH  31  32
ENDBRANCH  24  26
ENDBRANCH  23  24
ENDBRANCH  22  23
ENDBRANCH   1  22
TORSDOF 18
ENDMDL
MODEL 2
REMARK VINA RESULT:     -11.5      4.734      7.833
REMARK SMILES C[C@@H](C(=O)OCCOC(=O)c1ccc(-c2c3nc(c(-c4cccc(S(=O)(=O)[O-])c4F)c4ccc([nH]4)c(-c4cccc(S(=O)(=O)[O-])c4F)c4nc(c(-c5cccc(S(=O)(=O)[O-])c5F)c5ccc2[nH]5)C=C4)C=C3)cc1)c1ccc(C[C@@H]2CCC[C@@H]2O)cc1Br
REMARK SMILES IDX 6 1 5 2 3 3 4 4 2 5 1 6 74 7 75 8 86 9 76 10 85 11 87 12
REMARK SMILES IDX 77 13 78 14 79 15 80 16 83 17 81 18 82 19 84 20 7 22 8 23
REMARK SMILES IDX 9 24 10 25 11 26 12 27 73 28 13 29 72 30 14 31 15 32 16 33
REMARK SMILES IDX 66 34 17 35 71 36 65 37 67 38 18 39 70 40 64 41 63 42 19 44
REMARK SMILES IDX 51 45 31 46 50 47 32 48 35 49 49 50 68 51 33 52 34 53 48 55
REMARK SMILES IDX 69 56 36 57 20 58 21 59 29 60 22 61 24 62 30 63 23 64 25 65
REMARK SMILES IDX 26 66 27 67 28 68 52 69 53 70 61 71 54 72 56 73 62 74 55 75
REMARK SMILES IDX 57 76 58 77 59 78 60 79 37 80 38 81 46 82 39 83 41 84 47 85
REMARK SMILES IDX 40 86 42 87 43 88 44 89 45 90
REMARK H PARENT 84 21 67 43 35 54
REMARK Flexibility Score: inf
ROOT
ATOM      1  C   UNL A   1      34.672  20.779  24.984  1.00  0.00     0.274 C 
ENDROOT
BRANCH   1   2
ATOM      2  O   UNL A   1      34.493  22.210  24.904  1.00  0.00    -0.462 OA
BRANCH   2   3
ATOM      3  C   UNL A   1      34.034  22.690  23.713  1.00  0.00     0.313 C 
ATOM      4  O   UNL A   1      34.754  23.223  22.876  1.00  0.00    -0.252 OA
BRANCH   3   5
ATOM      5  C   UNL A   1      32.501  22.575  23.598  1.00  0.00     0.127 C 
ATOM      6  C   UNL A   1      32.061  21.839  22.328  1.00  0.00     0.025 C 
BRANCH   5   7
ATOM      7  C   UNL A   1      31.867  23.959  23.754  1.00  0.00    -0.020 A 
ATOM      8  C   UNL A   1      31.767  24.821  22.647  1.00  0.00     0.006 A 
ATOM      9  C   UNL A   1      31.543  24.490  25.013  1.00  0.00     0.022 A 
ATOM     10  C   UNL A   1      31.533  26.193  22.811  1.00  0.00     0.004 A 
ATOM     11  C   UNL A   1      31.255  25.851  25.161  1.00  0.00     0.019 A 
ATOM     12  Br  UNL A   1      31.540  23.455  26.610  1.00  0.00    -0.050 Br
ATOM     13  C   UNL A   1      31.353  26.735  24.086  1.00  0.00    -0.047 A 
BRANCH  13  14
ATOM     14  C   UNL A   1      31.256  28.225  24.313  1.00  0.00     0.041 C 
BRANCH  14  15
ATOM     15  C   UNL A   1      32.541  29.043  24.593  1.00  0.00     0.022 C 
ATOM     16  C   UNL A   1      33.821  28.221  24.653  1.00  0.00     0.007 C 
ATOM     17  C   UNL A   1      32.680  29.874  25.872  1.00  0.00     0.117 C 
ATOM     18  C   UNL A   1      34.074  27.908  26.127  1.00  0.00     0.003 C 
ATOM     19  C   UNL A   1      33.287  28.943  26.918  1.00  0.00     0.032 C 
BRANCH  17  20
ATOM     20  O   UNL A   1      31.480  30.478  26.304  1.00  0.00    -0.393 OA
ATOM     21  H   UNL A   1      30.808  30.396  25.609  1.00  0.00     0.210 HD
ENDBRANCH  17  20
ENDBRANCH  14  15
ENDBRANCH  13  14
ENDBRANCH   5   7
ENDBRANCH   3   5
ENDBRANCH   2   3
ENDBRANCH   1   2
BRANCH   1  22
ATOM     22  C   UNL A   1      36.152  20.390  25.034  1.00  0.00     0.275 C 
BRANCH  22  23
ATOM     23  O   UNL A   1      36.946  21.409  25.672  1.00  0.00    -0.458 OA
BRANCH  23  24
ATOM     24  C   UNL A   1      38.260  21.123  25.827  1.00  0.00     0.338 C 
ATOM     25  O   UNL A   1      38.825  20.084  25.532  1.00  0.00    -0.246 OA
BRANCH  24  26
ATOM     26  C   UNL A   1      38.987  22.330  26.261  1.00  0.00     0.060 A 
ATOM     27  C   UNL A   1      38.433  23.544  25.883  1.00  0.00     0.016 A 
ATOM     28  C   UNL A   1      40.224  22.304  26.913  1.00  0.00     0.016 A 
ATOM     29  C   UNL A   1      39.109  24.733  26.137  1.00  0.00     0.010 A 
ATOM     30  C   UNL A   1      40.892  23.515  27.196  1.00  0.00     0.010 A 
ATOM     31  C   UNL A   1      40.337  24.743  26.810  1.00  0.00    -0.014 A 
BRANCH  31  32
ATOM     32  C   UNL A   1      40.988  26.069  27.024  1.00  0.00     0.031 A 
ATOM     33  C   UNL A   1      40.465  26.982  28.094  1.00  0.00     0.074 A 
ATOM     34  C   UNL A   1      42.151  26.378  26.414  1.00  0.00     0.049 A 
ATOM     35  N   UNL A   1      40.989  28.082  28.569  1.00  0.00    -0.248 NA
ATOM     36  C   UNL A   1      39.182  26.607  28.709  1.00  0.00     0.031 C 
ATOM     37  C   UNL A   1      42.812  25.551  25.413  1.00  0.00     0.029 A 
ATOM     38  N   UNL A   1      43.044  27.408  26.638  1.00  0.00    -0.354 N 
ATOM     39  C   UNL A   1      40.044  28.598  29.444  1.00  0.00     0.074 A 
ATOM     40  C   UNL A   1      38.973  27.627  29.531  1.00  0.00     0.031 C 
ATOM     41  C   UNL A   1      44.066  26.003  25.234  1.00  0.00     0.029 A 
ATOM     42  C   UNL A   1      44.284  27.183  26.072  1.00  0.00     0.049 A 
ATOM     43  H   UNL A   1      42.819  28.219  27.149  1.00  0.00     0.167 HD
ATOM     44  C   UNL A   1      40.030  29.807  30.054  1.00  0.00     0.034 A 
ATOM     45  C   UNL A   1      45.466  27.812  26.272  1.00  0.00     0.034 A 
ATOM     46  C   UNL A   1      41.086  30.778  29.975  1.00  0.00     0.049 A 
ATOM     47  C   UNL A   1      45.495  29.082  27.089  1.00  0.00     0.074 A 
ATOM     48  C   UNL A   1      41.097  32.084  30.436  1.00  0.00     0.029 A 
ATOM     49  N   UNL A   1      42.327  30.548  29.405  1.00  0.00    -0.354 N 
ATOM     50  N   UNL A   1      44.577  29.589  27.874  1.00  0.00    -0.248 NA
ATOM     51  C   UNL A   1      46.724  29.891  27.010  1.00  0.00     0.031 C 
ATOM     52  C   UNL A   1      42.343  32.647  30.133  1.00  0.00     0.029 A 
ATOM     53  C   UNL A   1      43.113  31.683  29.506  1.00  0.00     0.049 A 
ATOM     54  H   UNL A   1      42.607  29.701  28.989  1.00  0.00     0.167 HD
ATOM     55  C   UNL A   1      45.092  30.799  28.329  1.00  0.00     0.074 A 
ATOM     56  C   UNL A   1      46.445  30.898  27.826  1.00  0.00     0.031 C 
ATOM     57  C   UNL A   1      44.468  31.778  29.030  1.00  0.00     0.034 A 
BRANCH  44  58
ATOM     58  C   UNL A   1      38.757  30.197  30.746  1.00  0.00     0.023 A 
ATOM     59  C   UNL A   1      38.534  29.863  32.093  1.00  0.00     0.012 A 
ATOM     60  C   UNL A   1      37.777  30.914  30.032  1.00  0.00     0.148 A 
ATOM     61  C   UNL A   1      37.336  30.217  32.713  1.00  0.00     0.002 A 
ATOM     62  C   UNL A   1      36.603  31.295  30.666  1.00  0.00     0.091 A 
ATOM     63  F   UNL A   1      38.002  31.188  28.738  1.00  0.00    -0.205 F 
ATOM     64  C   UNL A   1      36.377  30.940  32.004  1.00  0.00     0.022 A 
BRANCH  62  65
ATOM     65  S   UNL A   1      35.346  32.275  29.841  1.00  0.00     0.127 S 
ATOM     66  O   UNL A   1      34.390  32.501  30.925  1.00  0.00    -0.237 OA
ATOM     67  O   UNL A   1      36.099  33.463  29.434  1.00  0.00    -0.237 OA
ATOM     68  O   UNL A   1      34.861  31.460  28.738  1.00  0.00    -0.744 OA
ENDBRANCH  62  65
ENDBRANCH  44  58
BRANCH  45  69
ATOM     69  C   UNL A   1      46.758  27.231  25.783  1.00  0.00     0.023 A 
ATOM     70  C   UNL A   1      47.110  27.423  24.426  1.00  0.00     0.012 A 
ATOM     71  C   UNL A   1      47.636  26.502  26.600  1.00  0.00     0.148 A 
ATOM     72  C   UNL A   1      48.285  26.880  23.899  1.00  0.00     0.002 A 
ATOM     73  C   UNL A   1      48.849  26.044  26.091  1.00  0.00     0.091 A 
ATOM     74  F   UNL A   1      47.280  26.250  27.869  1.00  0.00    -0.205 F 
ATOM     75  C   UNL A   1      49.166  26.206  24.736  1.00  0.00     0.022 A 
BRANCH  73  76
ATOM     76  S   UNL A   1      50.097  25.373  27.195  1.00  0.00     0.127 S 
ATOM     77  O   UNL A   1      50.302  26.470  28.135  1.00  0.00    -0.237 OA
ATOM     78  O   UNL A   1      49.432  24.196  27.757  1.00  0.00    -0.237 OA
ATOM     79  O   UNL A   1      51.213  25.053  26.311  1.00  0.00    -0.744 OA
ENDBRANCH  73  76
ENDBRANCH  45  69
BRANCH  57  80
ATOM     80  C   UNL A   1      45.196  33.085  29.221  1.00  0.00     0.023 A 
ATOM     81  C   UNL A   1      45.989  33.255  30.376  1.00  0.00     0.012 A 
ATOM     82  C   UNL A   1      45.184  34.096  28.242  1.00  0.00     0.148 A 
ATOM     83  C   UNL A   1      46.733  34.418  30.567  1.00  0.00     0.002 A 
ATOM     84  C   UNL A   1      45.959  35.239  28.421  1.00  0.00     0.091 A 
ATOM     85  F   UNL A   1      44.415  33.927  27.155  1.00  0.00    -0.205 F 
ATOM     86  C   UNL A   1      46.727  35.405  29.586  1.00  0.00     0.022 A 
BRANCH  84  87
ATOM     87  S   UNL A   1      46.082  36.532  27.178  1.00  0.00     0.127 S 
ATOM     88  O   UNL A   1      44.716  37.052  27.154  1.00  0.00    -0.237 OA
ATOM     89  O   UNL A   1      47.069  37.438  27.767  1.00  0.00    -0.237 OA
ATOM     90  O   UNL A   1      46.522  35.871  25.957  1.00  0.00    -0.744 OA
ENDBRANCH  84  87
ENDBRANCH  57  80
ENDBRANCH  31  32
ENDBRANCH  24  26
ENDBRANCH  23  24
ENDBRANCH  22  23
ENDBRANCH   1  22
TORSDOF 18
ENDMDL
MODEL 3
REMARK VINA RESULT:     -11.5      5.274     10.096
REMARK SMILES C[C@@H](C(=O)OCCOC(=O)c1ccc(-c2c3nc(c(-c4cccc(S(=O)(=O)[O-])c4F)c4ccc([nH]4)c(-c4cccc(S(=O)(=O)[O-])c4F)c4nc(c(-c5cccc(S(=O)(=O)[O-])c5F)c5ccc2[nH]5)C=C4)C=C3)cc1)c1ccc(C[C@@H]2CCC[C@@H]2O)cc1Br
REMARK SMILES IDX 6 1 5 2 3 3 4 4 2 5 1 6 74 7 75 8 86 9 76 10 85 11 87 12
REMARK SMILES IDX 77 13 78 14 79 15 80 16 83 17 81 18 82 19 84 20 7 22 8 23
REMARK SMILES IDX 9 24 10 25 11 26 12 27 73 28 13 29 72 30 14 31 15 32 16 33
REMARK SMILES IDX 66 34 17 35 71 36 65 37 67 38 18 39 70 40 64 41 63 42 19 44
REMARK SMILES IDX 51 45 31 46 50 47 32 48 35 49 49 50 68 51 33 52 34 53 48 55
REMARK SMILES IDX 69 56 36 57 20 58 21 59 29 60 22 61 24 62 30 63 23 64 25 65
REMARK SMILES IDX 26 66 27 67 28 68 52 69 53 70 61 71 54 72 56 73 62 74 55 75
REMARK SMILES IDX 57 76 58 77 59 78 60 79 37 80 38 81 46 82 39 83 41 84 47 85
REMARK SMILES IDX 40 86 42 87 43 88 44 89 45 90
REMARK H PARENT 84 21 67 43 35 54
REMARK Flexibility Score: inf
ROOT
ATOM      1  C   UNL A   1      34.525  20.739  25.405  1.00  0.00     0.274 C 
ENDROOT
BRANCH   1   2
ATOM      2  O   UNL A   1      34.010  22.088  25.419  1.00  0.00    -0.462 OA
BRANCH   2   3
ATOM      3  C   UNL A   1      33.521  22.555  24.235  1.00  0.00     0.313 C 
ATOM      4  O   UNL A   1      33.082  21.828  23.351  1.00  0.00    -0.252 OA
BRANCH   3   5
ATOM      5  C   UNL A   1      33.684  24.083  24.106  1.00  0.00     0.127 C 
ATOM      6  C   UNL A   1      34.549  24.677  25.223  1.00  0.00     0.025 C 
BRANCH   5   7
ATOM      7  C   UNL A   1      32.308  24.739  23.983  1.00  0.00    -0.020 A 
ATOM      8  C   UNL A   1      31.953  25.425  22.806  1.00  0.00     0.006 A 
ATOM      9  C   UNL A   1      31.436  24.851  25.078  1.00  0.00     0.022 A 
ATOM     10  C   UNL A   1      30.878  26.324  22.783  1.00  0.00     0.004 A 
ATOM     11  C   UNL A   1      30.332  25.708  25.028  1.00  0.00     0.019 A 
ATOM     12  Br  UNL A   1      31.707  23.929  26.721  1.00  0.00    -0.050 Br
ATOM     13  C   UNL A   1      30.103  26.532  23.926  1.00  0.00    -0.047 A 
BRANCH  13  14
ATOM     14  C   UNL A   1      29.040  27.604  23.984  1.00  0.00     0.041 C 
BRANCH  14  15
ATOM     15  C   UNL A   1      28.923  28.631  22.831  1.00  0.00     0.022 C 
ATOM     16  C   UNL A   1      29.913  29.786  22.900  1.00  0.00     0.007 C 
ATOM     17  C   UNL A   1      27.618  29.394  22.587  1.00  0.00     0.117 C 
ATOM     18  C   UNL A   1      29.190  30.943  23.587  1.00  0.00     0.003 C 
ATOM     19  C   UNL A   1      27.703  30.659  23.436  1.00  0.00     0.032 C 
BRANCH  17  20
ATOM     20  O   UNL A   1      26.451  28.642  22.839  1.00  0.00    -0.393 OA
ATOM     21  H   UNL A   1      25.726  28.972  22.284  1.00  0.00     0.210 HD
ENDBRANCH  17  20
ENDBRANCH  14  15
ENDBRANCH  13  14
ENDBRANCH   5   7
ENDBRANCH   3   5
ENDBRANCH   2   3
ENDBRANCH   1   2
BRANCH   1  22
ATOM     22  C   UNL A   1      35.974  20.685  24.917  1.00  0.00     0.275 C 
BRANCH  22  23
ATOM     23  O   UNL A   1      36.827  21.549  25.693  1.00  0.00    -0.458 OA
BRANCH  23  24
ATOM     24  C   UNL A   1      38.145  21.239  25.686  1.00  0.00     0.338 C 
ATOM     25  O   UNL A   1      38.679  20.316  25.095  1.00  0.00    -0.246 OA
BRANCH  24  26
ATOM     26  C   UNL A   1      38.911  22.294  26.376  1.00  0.00     0.060 A 
ATOM     27  C   UNL A   1      38.514  23.598  26.123  1.00  0.00     0.016 A 
ATOM     28  C   UNL A   1      40.047  22.052  27.154  1.00  0.00     0.016 A 
ATOM     29  C   UNL A   1      39.251  24.666  26.627  1.00  0.00     0.010 A 
ATOM     30  C   UNL A   1      40.773  23.137  27.690  1.00  0.00     0.010 A 
ATOM     31  C   UNL A   1      40.379  24.457  27.430  1.00  0.00    -0.014 A 
BRANCH  31  32
ATOM     32  C   UNL A   1      41.108  25.666  27.913  1.00  0.00     0.031 A 
ATOM     33  C   UNL A   1      42.402  26.055  27.259  1.00  0.00     0.074 A 
ATOM     34  C   UNL A   1      40.535  26.522  28.785  1.00  0.00     0.049 A 
ATOM     35  N   UNL A   1      43.096  27.156  27.393  1.00  0.00    -0.248 NA
ATOM     36  C   UNL A   1      42.992  25.075  26.335  1.00  0.00     0.031 C 
ATOM     37  C   UNL A   1      39.249  26.309  29.437  1.00  0.00     0.029 A 
ATOM     38  N   UNL A   1      40.900  27.796  29.174  1.00  0.00    -0.354 N 
ATOM     39  C   UNL A   1      44.264  26.950  26.673  1.00  0.00     0.074 A 
ATOM     40  C   UNL A   1      44.127  25.675  26.001  1.00  0.00     0.031 C 
ATOM     41  C   UNL A   1      38.852  27.464  30.001  1.00  0.00     0.029 A 
ATOM     42  C   UNL A   1      39.876  28.488  29.793  1.00  0.00     0.049 A 
ATOM     43  H   UNL A   1      41.797  28.173  29.025  1.00  0.00     0.167 HD
ATOM     44  C   UNL A   1      45.381  27.715  26.641  1.00  0.00     0.034 A 
ATOM     45  C   UNL A   1      39.758  29.804  30.083  1.00  0.00     0.034 A 
ATOM     46  C   UNL A   1      45.527  28.982  27.302  1.00  0.00     0.049 A 
ATOM     47  C   UNL A   1      40.954  30.708  29.900  1.00  0.00     0.074 A 
ATOM     48  C   UNL A   1      46.667  29.755  27.448  1.00  0.00     0.029 A 
ATOM     49  N   UNL A   1      44.499  29.670  27.923  1.00  0.00    -0.354 N 
ATOM     50  N   UNL A   1      42.076  30.487  29.260  1.00  0.00    -0.248 NA
ATOM     51  C   UNL A   1      40.876  32.042  30.523  1.00  0.00     0.031 C 
ATOM     52  C   UNL A   1      46.327  30.907  28.168  1.00  0.00     0.029 A 
ATOM     53  C   UNL A   1      44.973  30.860  28.449  1.00  0.00     0.049 A 
ATOM     54  H   UNL A   1      43.567  29.358  27.981  1.00  0.00     0.167 HD
ATOM     55  C   UNL A   1      42.856  31.624  29.458  1.00  0.00     0.074 A 
ATOM     56  C   UNL A   1      42.039  32.577  30.177  1.00  0.00     0.031 C 
ATOM     57  C   UNL A   1      44.159  31.824  29.143  1.00  0.00     0.034 A 
BRANCH  44  58
ATOM     58  C   UNL A   1      46.586  27.119  25.973  1.00  0.00     0.023 A 
ATOM     59  C   UNL A   1      47.334  26.108  26.601  1.00  0.00     0.012 A 
ATOM     60  C   UNL A   1      46.964  27.580  24.697  1.00  0.00     0.148 A 
ATOM     61  C   UNL A   1      48.463  25.581  25.972  1.00  0.00     0.002 A 
ATOM     62  C   UNL A   1      48.065  27.024  24.062  1.00  0.00     0.091 A 
ATOM     63  F   UNL A   1      46.252  28.570  24.138  1.00  0.00    -0.205 F 
ATOM     64  C   UNL A   1      48.822  26.031  24.702  1.00  0.00     0.022 A 
BRANCH  62  65
ATOM     65  S   UNL A   1      48.558  27.508  22.406  1.00  0.00     0.127 S 
ATOM     66  O   UNL A   1      49.809  28.221  22.667  1.00  0.00    -0.237 OA
ATOM     67  O   UNL A   1      48.720  26.213  21.742  1.00  0.00    -0.237 OA
ATOM     68  O   UNL A   1      47.471  28.322  21.884  1.00  0.00    -0.744 OA
ENDBRANCH  62  65
ENDBRANCH  44  58
BRANCH  45  69
ATOM     69  C   UNL A   1      38.447  30.405  30.492  1.00  0.00     0.023 A 
ATOM     70  C   UNL A   1      38.157  30.507  31.872  1.00  0.00     0.012 A 
ATOM     71  C   UNL A   1      37.490  30.867  29.575  1.00  0.00     0.148 A 
ATOM     72  C   UNL A   1      36.939  31.027  32.320  1.00  0.00     0.002 A 
ATOM     73  C   UNL A   1      36.319  31.470  30.031  1.00  0.00     0.091 A 
ATOM     74  F   UNL A   1      37.721  30.710  28.263  1.00  0.00    -0.205 F 
ATOM     75  C   UNL A   1      36.027  31.527  31.399  1.00  0.00     0.022 A 
BRANCH  73  76
ATOM     76  S   UNL A   1      35.234  32.321  28.879  1.00  0.00     0.127 S 
ATOM     77  O   UNL A   1      34.383  33.099  29.772  1.00  0.00    -0.237 OA
ATOM     78  O   UNL A   1      36.170  33.110  28.076  1.00  0.00    -0.237 OA
ATOM     79  O   UNL A   1      34.590  31.240  28.140  1.00  0.00    -0.744 OA
ENDBRANCH  73  76
ENDBRANCH  45  69
BRANCH  57  80
ATOM     80  C   UNL A   1      44.825  33.077  29.651  1.00  0.00     0.023 A 
ATOM     81  C   UNL A   1      45.454  33.044  30.915  1.00  0.00     0.012 A 
ATOM     82  C   UNL A   1      44.920  34.242  28.868  1.00  0.00     0.148 A 
ATOM     83  C   UNL A   1      46.139  34.155  31.402  1.00  0.00     0.002 A 
ATOM     84  C   UNL A   1      45.639  35.337  29.345  1.00  0.00     0.091 A 
ATOM     85  F   UNL A   1      44.307  34.265  27.676  1.00  0.00    -0.205 F 
ATOM     86  C   UNL A   1      46.240  35.297  30.614  1.00  0.00     0.022 A 
BRANCH  84  87
ATOM     87  S   UNL A   1      45.896  36.825  28.370  1.00  0.00     0.127 S 
ATOM     88  O   UNL A   1      46.677  37.651  29.290  1.00  0.00    -0.237 OA
ATOM     89  O   UNL A   1      46.645  36.318  27.220  1.00  0.00    -0.237 OA
ATOM     90  O   UNL A   1      44.567  37.329  28.052  1.00  0.00    -0.744 OA
ENDBRANCH  84  87
ENDBRANCH  57  80
ENDBRANCH  31  32
ENDBRANCH  24  26
ENDBRANCH  23  24
ENDBRANCH  22  23
ENDBRANCH   1  22
TORSDOF 18
ENDMDL
