MODEL 1
REMARK VINA RESULT:     -12.3      0.000      0.000
REMARK SMILES COc1cc(CC(=O)N[C@@H](CC(=O)OCCOC(=O)c2ccc(-c3c4nc(c(-c5cccc(S(=O)(=O)[O-])c5F)c5ccc([nH]5)c(-c5cccc(S(=O)(=O)[O-])c5F)c5nc(c(-c6cccc(S(=O)(=O)[O-])c6F)c6ccc3[nH]6)C=C5)C=C4)cc2)c2cccs2)ccc1C
REMARK SMILES IDX 15 1 14 2 12 3 13 4 11 5 10 6 9 7 7 8 8 9 6 11 5 12 3 13
REMARK SMILES IDX 4 14 90 15 89 16 91 17 88 18 2 19 1 20 83 21 84 22 87 23
REMARK SMILES IDX 85 24 86 25 16 26 17 27 18 28 19 29 20 30 21 31 82 32 22 33
REMARK SMILES IDX 81 34 23 35 24 36 25 37 75 38 26 39 80 40 74 41 76 42 27 43
REMARK SMILES IDX 79 44 73 45 72 46 28 48 60 49 40 50 59 51 41 52 44 53 58 54
REMARK SMILES IDX 77 55 42 56 43 57 57 59 78 60 45 61 29 62 30 63 38 64 31 65
REMARK SMILES IDX 33 66 39 67 32 68 34 69 35 70 36 71 37 72 61 73 62 74 70 75
REMARK SMILES IDX 63 76 65 77 71 78 64 79 66 80 67 81 68 82 69 83 46 84 47 85
REMARK SMILES IDX 55 86 48 87 50 88 56 89 49 90 51 91 52 92 53 93 54 94
REMARK H PARENT 9 10 76 47 44 58
REMARK Flexibility Score: inf
ROOT
ATOM      1  C   UNL A   1      34.534  28.907  27.497  1.00  0.00     0.274 C 
ENDROOT
BRANCH   1   2
ATOM      2  O   UNL A   1      33.572  29.083  26.450  1.00  0.00    -0.462 OA
BRANCH   2   3
ATOM      3  C   UNL A   1      32.195  28.792  26.781  1.00  0.00     0.308 C 
ATOM      4  O   UNL A   1      31.709  29.881  27.178  1.00  0.00    -0.252 OA
BRANCH   3   5
ATOM      5  C   UNL A   1      31.260  26.836  26.437  1.00  0.00     0.153 C 
BRANCH   5   6
ATOM      6  C   UNL A   1      30.848  25.759  25.147  1.00  0.00     0.133 C 
BRANCH   6   7
ATOM      7  N   UNL A   1      30.206  24.520  25.607  1.00  0.00    -0.348 N 
ATOM      8  C   UNL A   1      30.667  23.467  26.330  1.00  0.00     0.224 C 
ATOM      9  O   UNL A   1      29.910  22.498  26.439  1.00  0.00    -0.275 OA
ATOM     10  H   UNL A   1      29.263  24.437  25.341  1.00  0.00     0.164 HD
BRANCH   8  11
ATOM     11  C   UNL A   1      31.967  23.523  27.106  1.00  0.00     0.135 C 
BRANCH  11  12
ATOM     12  C   UNL A   1      33.142  22.778  26.529  1.00  0.00    -0.035 A 
ATOM     13  C   UNL A   1      34.005  20.813  25.359  1.00  0.00     0.122 A 
ATOM     14  C   UNL A   1      32.935  21.554  25.869  1.00  0.00     0.051 A 
ATOM     15  C   UNL A   1      35.310  21.311  25.487  1.00  0.00    -0.009 A 
ATOM     16  C   UNL A   1      35.511  22.559  26.100  1.00  0.00     0.007 A 
ATOM     17  C   UNL A   1      36.512  20.557  24.986  1.00  0.00     0.048 C 
ATOM     18  C   UNL A   1      34.438  23.290  26.611  1.00  0.00     0.005 A 
BRANCH  13  19
ATOM     19  O   UNL A   1      33.874  19.580  24.779  1.00  0.00    -0.496 OA
ATOM     20  C   UNL A   1      32.918  18.694  25.340  1.00  0.00     0.278 C 
ENDBRANCH  13  19
ENDBRANCH  11  12
ENDBRANCH   8  11
ENDBRANCH   6   7
BRANCH   6  21
ATOM     21  C   UNL A   1      31.836  25.503  24.008  1.00  0.00     0.027 A 
ATOM     22  C   UNL A   1      32.170  24.292  23.416  1.00  0.00     0.017 A 
ATOM     23  S   UNL A   1      32.745  26.779  23.289  1.00  0.00    -0.147 S 
ATOM     24  C   UNL A   1      32.930  24.461  22.221  1.00  0.00     0.012 A 
ATOM     25  C   UNL A   1      33.334  25.763  22.051  1.00  0.00     0.065 A 
ENDBRANCH   6  21
ENDBRANCH   5   6
ENDBRANCH   3   5
ENDBRANCH   2   3
ENDBRANCH   1   2
BRANCH   1  26
ATOM     26  C   UNL A   1      35.332  30.206  27.642  1.00  0.00     0.275 C 
BRANCH  26  27
ATOM     27  O   UNL A   1      34.638  31.452  27.345  1.00  0.00    -0.458 OA
BRANCH  27  28
ATOM     28  C   UNL A   1      34.153  32.436  28.150  1.00  0.00     0.338 C 
ATOM     29  O   UNL A   1      33.121  33.027  27.858  1.00  0.00    -0.246 OA
BRANCH  28  30
ATOM     30  C   UNL A   1      35.008  32.973  29.244  1.00  0.00     0.060 A 
ATOM     31  C   UNL A   1      36.493  33.780  28.594  1.00  0.00     0.016 A 
ATOM     32  C   UNL A   1      35.061  32.118  30.830  1.00  0.00     0.016 A 
ATOM     33  C   UNL A   1      38.091  33.492  29.402  1.00  0.00     0.010 A 
ATOM     34  C   UNL A   1      36.650  31.879  31.665  1.00  0.00     0.010 A 
ATOM     35  C   UNL A   1      38.162  32.484  30.867  1.00  0.00    -0.014 A 
BRANCH  35  36
ATOM     36  C   UNL A   1      39.313  31.645  31.119  1.00  0.00     0.031 A 
ATOM     37  C   UNL A   1      39.350  30.361  30.420  1.00  0.00     0.074 A 
ATOM     38  C   UNL A   1      40.377  32.193  31.762  1.00  0.00     0.049 A 
ATOM     39  N   UNL A   1      40.096  29.382  30.785  1.00  0.00    -0.248 NA
ATOM     40  C   UNL A   1      38.459  30.016  29.307  1.00  0.00     0.031 C 
ATOM     41  C   UNL A   1      41.777  31.803  31.656  1.00  0.00     0.029 A 
ATOM     42  N   UNL A   1      40.431  33.212  32.718  1.00  0.00    -0.354 N 
ATOM     43  C   UNL A   1      40.103  28.521  29.713  1.00  0.00     0.074 A 
ATOM     44  C   UNL A   1      38.889  28.790  28.999  1.00  0.00     0.031 C 
ATOM     45  C   UNL A   1      42.470  32.357  32.669  1.00  0.00     0.029 A 
ATOM     46  C   UNL A   1      41.507  32.968  33.567  1.00  0.00     0.049 A 
ATOM     47  H   UNL A   1      39.810  33.974  32.781  1.00  0.00     0.167 HD
ATOM     48  C   UNL A   1      41.272  27.903  29.401  1.00  0.00     0.034 A 
ATOM     49  C   UNL A   1      41.380  32.723  34.907  1.00  0.00     0.034 A 
ATOM     50  C   UNL A   1      42.263  28.133  30.463  1.00  0.00     0.049 A 
ATOM     51  C   UNL A   1      41.838  31.310  35.243  1.00  0.00     0.074 A 
ATOM     52  C   UNL A   1      43.416  28.894  30.549  1.00  0.00     0.029 A 
ATOM     53  N   UNL A   1      41.932  27.785  31.768  1.00  0.00    -0.354 N 
ATOM     54  N   UNL A   1      42.161  30.431  34.333  1.00  0.00    -0.248 NA
ATOM     55  C   UNL A   1      41.971  30.759  36.588  1.00  0.00     0.031 C 
ATOM     56  C   UNL A   1      43.727  29.057  31.933  1.00  0.00     0.029 A 
ATOM     57  C   UNL A   1      42.795  28.358  32.683  1.00  0.00     0.049 A 
ATOM     58  H   UNL A   1      41.175  27.203  32.010  1.00  0.00     0.167 HD
ATOM     59  C   UNL A   1      42.415  29.213  34.896  1.00  0.00     0.074 A 
ATOM     60  C   UNL A   1      42.342  29.490  36.323  1.00  0.00     0.031 C 
ATOM     61  C   UNL A   1      42.607  28.101  34.115  1.00  0.00     0.034 A 
BRANCH  48  62
ATOM     62  C   UNL A   1      41.615  27.277  28.063  1.00  0.00     0.023 A 
ATOM     63  C   UNL A   1      41.610  28.145  26.951  1.00  0.00     0.012 A 
ATOM     64  C   UNL A   1      41.879  25.911  27.783  1.00  0.00     0.148 A 
ATOM     65  C   UNL A   1      41.854  27.698  25.648  1.00  0.00     0.002 A 
ATOM     66  C   UNL A   1      42.201  25.476  26.493  1.00  0.00     0.091 A 
ATOM     67  F   UNL A   1      41.732  24.982  28.730  1.00  0.00    -0.205 F 
ATOM     68  C   UNL A   1      42.173  26.368  25.420  1.00  0.00     0.022 A 
BRANCH  66  69
ATOM     69  S   UNL A   1      42.693  23.778  26.133  1.00  0.00     0.127 S 
ATOM     70  O   UNL A   1      41.430  23.055  26.270  1.00  0.00    -0.237 OA
ATOM     71  O   UNL A   1      43.188  23.881  24.759  1.00  0.00    -0.237 OA
ATOM     72  O   UNL A   1      43.716  23.430  27.112  1.00  0.00    -0.744 OA
ENDBRANCH  66  69
ENDBRANCH  48  62
BRANCH  49  73
ATOM     73  C   UNL A   1      40.263  33.479  35.558  1.00  0.00     0.023 A 
ATOM     74  C   UNL A   1      38.993  32.849  35.547  1.00  0.00     0.012 A 
ATOM     75  C   UNL A   1      40.494  34.505  36.490  1.00  0.00     0.148 A 
ATOM     76  C   UNL A   1      38.070  33.077  36.570  1.00  0.00     0.002 A 
ATOM     77  C   UNL A   1      39.558  34.741  37.500  1.00  0.00     0.091 A 
ATOM     78  F   UNL A   1      41.644  35.186  36.418  1.00  0.00    -0.205 F 
ATOM     79  C   UNL A   1      38.376  33.988  37.574  1.00  0.00     0.022 A 
BRANCH  77  80
ATOM     80  S   UNL A   1      39.892  35.877  38.861  1.00  0.00     0.127 S 
ATOM     81  O   UNL A   1      38.795  35.574  39.775  1.00  0.00    -0.237 OA
ATOM     82  O   UNL A   1      41.212  35.444  39.322  1.00  0.00    -0.237 OA
ATOM     83  O   UNL A   1      39.877  37.201  38.254  1.00  0.00    -0.744 OA
ENDBRANCH  77  80
ENDBRANCH  49  73
BRANCH  61  84
ATOM     84  C   UNL A   1      42.625  26.650  34.590  1.00  0.00     0.023 A 
ATOM     85  C   UNL A   1      41.557  26.061  35.286  1.00  0.00     0.012 A 
ATOM     86  C   UNL A   1      43.694  25.775  34.240  1.00  0.00     0.148 A 
ATOM     87  C   UNL A   1      41.570  24.715  35.673  1.00  0.00     0.002 A 
ATOM     88  C   UNL A   1      43.640  24.411  34.502  1.00  0.00     0.091 A 
ATOM     89  F   UNL A   1      44.812  26.258  33.681  1.00  0.00    -0.205 F 
ATOM     90  C   UNL A   1      42.599  23.882  35.259  1.00  0.00     0.022 A 
BRANCH  88  91
ATOM     91  S   UNL A   1      44.819  23.268  33.768  1.00  0.00     0.127 S 
ATOM     92  O   UNL A   1      44.412  21.996  34.362  1.00  0.00    -0.237 OA
ATOM     93  O   UNL A   1      44.524  23.398  32.339  1.00  0.00    -0.237 OA
ATOM     94  O   UNL A   1      46.135  23.763  34.151  1.00  0.00    -0.744 OA
ENDBRANCH  88  91
ENDBRANCH  61  84
ENDBRANCH  35  36
ENDBRANCH  28  30
ENDBRANCH  27  28
ENDBRANCH  26  27
ENDBRANCH   1  26
TORSDOF 20
ENDMDL
MODEL 2
REMARK VINA RESULT:     -11.9      5.614      8.870
REMARK SMILES COc1cc(CC(=O)N[C@@H](CC(=O)OCCOC(=O)c2ccc(-c3c4nc(c(-c5cccc(S(=O)(=O)[O-])c5F)c5ccc([nH]5)c(-c5cccc(S(=O)(=O)[O-])c5F)c5nc(c(-c6cccc(S(=O)(=O)[O-])c6F)c6ccc3[nH]6)C=C5)C=C4)cc2)c2cccs2)ccc1C
REMARK SMILES IDX 15 1 14 2 12 3 13 4 11 5 10 6 9 7 7 8 8 9 6 11 5 12 3 13
REMARK SMILES IDX 4 14 90 15 89 16 91 17 88 18 2 19 1 20 83 21 84 22 87 23
REMARK SMILES IDX 85 24 86 25 16 26 17 27 18 28 19 29 20 30 21 31 82 32 22 33
REMARK SMILES IDX 81 34 23 35 24 36 25 37 75 38 26 39 80 40 74 41 76 42 27 43
REMARK SMILES IDX 79 44 73 45 72 46 28 48 60 49 40 50 59 51 41 52 44 53 58 54
REMARK SMILES IDX 77 55 42 56 43 57 57 59 78 60 45 61 29 62 30 63 38 64 31 65
REMARK SMILES IDX 33 66 39 67 32 68 34 69 35 70 36 71 37 72 61 73 62 74 70 75
REMARK SMILES IDX 63 76 65 77 71 78 64 79 66 80 67 81 68 82 69 83 46 84 47 85
REMARK SMILES IDX 55 86 48 87 50 88 56 89 49 90 51 91 52 92 53 93 54 94
REMARK H PARENT 9 10 76 47 44 58
REMARK Flexibility Score: inf
ROOT
ATOM      1  C   UNL A   1      38.449  20.904  25.486  1.00  0.00     0.274 C 
ENDROOT
BRANCH   1   2
ATOM      2  O   UNL A   1      37.650  21.882  24.809  1.00  0.00    -0.462 OA
BRANCH   2   3
ATOM      3  C   UNL A   1      36.371  22.199  25.403  1.00  0.00     0.308 C 
ATOM      4  O   UNL A   1      36.388  23.442  25.590  1.00  0.00    -0.252 OA
BRANCH   3   5
ATOM      5  C   UNL A   1      34.776  20.719  25.691  1.00  0.00     0.153 C 
BRANCH   5   6
ATOM      6  C   UNL A   1      33.409  20.049  24.869  1.00  0.00     0.133 C 
BRANCH   6   7
ATOM      7  N   UNL A   1      32.124  20.551  25.373  1.00  0.00    -0.348 N 
ATOM      8  C   UNL A   1      31.513  21.760  25.275  1.00  0.00     0.224 C 
ATOM      9  O   UNL A   1      30.481  21.913  25.935  1.00  0.00    -0.275 OA
ATOM     10  H   UNL A   1      31.606  19.884  25.879  1.00  0.00     0.164 HD
BRANCH   8  11
ATOM     11  C   UNL A   1      31.965  22.818  24.290  1.00  0.00     0.135 C 
BRANCH  11  12
ATOM     12  C   UNL A   1      31.850  24.255  24.727  1.00  0.00    -0.035 A 
ATOM     13  C   UNL A   1      30.774  26.437  24.484  1.00  0.00     0.122 A 
ATOM     14  C   UNL A   1      30.883  25.088  24.136  1.00  0.00     0.051 A 
ATOM     15  C   UNL A   1      31.632  26.967  25.458  1.00  0.00    -0.009 A 
ATOM     16  C   UNL A   1      32.564  26.123  26.086  1.00  0.00     0.007 A 
ATOM     17  C   UNL A   1      31.592  28.415  25.865  1.00  0.00     0.048 C 
ATOM     18  C   UNL A   1      32.669  24.778  25.729  1.00  0.00     0.005 A 
BRANCH  13  19
ATOM     19  O   UNL A   1      29.908  27.313  23.888  1.00  0.00    -0.496 OA
ATOM     20  C   UNL A   1      28.555  26.907  23.761  1.00  0.00     0.278 C 
ENDBRANCH  13  19
ENDBRANCH  11  12
ENDBRANCH   8  11
ENDBRANCH   6   7
BRANCH   6  21
ATOM     21  C   UNL A   1      33.355  18.554  24.550  1.00  0.00     0.027 A 
ATOM     22  C   UNL A   1      33.711  17.913  23.372  1.00  0.00     0.017 A 
ATOM     23  S   UNL A   1      32.771  17.403  25.692  1.00  0.00    -0.147 S 
ATOM     24  C   UNL A   1      33.771  16.496  23.519  1.00  0.00     0.012 A 
ATOM     25  C   UNL A   1      33.258  16.085  24.725  1.00  0.00     0.065 A 
ENDBRANCH   6  21
ENDBRANCH   5   6
ENDBRANCH   3   5
ENDBRANCH   2   3
ENDBRANCH   1   2
BRANCH   1  26
ATOM     26  C   UNL A   1      39.596  21.627  26.198  1.00  0.00     0.275 C 
BRANCH  26  27
ATOM     27  O   UNL A   1      40.898  21.619  25.544  1.00  0.00    -0.458 OA
BRANCH  27  28
ATOM     28  C   UNL A   1      41.982  22.432  25.667  1.00  0.00     0.338 C 
ATOM     29  O   UNL A   1      43.007  22.201  25.040  1.00  0.00    -0.246 OA
BRANCH  28  30
ATOM     30  C   UNL A   1      42.013  23.448  26.754  1.00  0.00     0.060 A 
ATOM     31  C   UNL A   1      42.609  25.049  26.154  1.00  0.00     0.016 A 
ATOM     32  C   UNL A   1      42.359  22.929  28.445  1.00  0.00     0.016 A 
ATOM     33  C   UNL A   1      43.782  25.998  27.158  1.00  0.00     0.010 A 
ATOM     34  C   UNL A   1      43.487  23.908  29.469  1.00  0.00     0.010 A 
ATOM     35  C   UNL A   1      44.269  25.380  28.755  1.00  0.00    -0.014 A 
BRANCH  35  36
ATOM     36  C   UNL A   1      45.610  25.608  29.247  1.00  0.00     0.031 A 
ATOM     37  C   UNL A   1      46.704  25.109  28.415  1.00  0.00     0.074 A 
ATOM     38  C   UNL A   1      45.773  26.470  30.284  1.00  0.00     0.049 A 
ATOM     39  N   UNL A   1      47.894  24.923  28.855  1.00  0.00    -0.248 NA
ATOM     40  C   UNL A   1      46.530  24.660  27.029  1.00  0.00     0.031 C 
ATOM     41  C   UNL A   1      46.948  27.274  30.595  1.00  0.00     0.029 A 
ATOM     42  N   UNL A   1      44.919  26.782  31.346  1.00  0.00    -0.354 N 
ATOM     43  C   UNL A   1      48.674  24.790  27.730  1.00  0.00     0.074 A 
ATOM     44  C   UNL A   1      47.784  24.338  26.701  1.00  0.00     0.031 C 
ATOM     45  C   UNL A   1      46.846  27.742  31.853  1.00  0.00     0.029 A 
ATOM     46  C   UNL A   1      45.691  27.104  32.458  1.00  0.00     0.049 A 
ATOM     47  H   UNL A   1      43.934  26.775  31.313  1.00  0.00     0.167 HD
ATOM     48  C   UNL A   1      49.904  25.364  27.737  1.00  0.00     0.034 A 
ATOM     49  C   UNL A   1      45.681  26.389  33.625  1.00  0.00     0.034 A 
ATOM     50  C   UNL A   1      50.234  25.835  29.092  1.00  0.00     0.049 A 
ATOM     51  C   UNL A   1      47.038  25.746  33.876  1.00  0.00     0.074 A 
ATOM     52  C   UNL A   1      50.339  27.086  29.673  1.00  0.00     0.029 A 
ATOM     53  N   UNL A   1      50.182  24.924  30.142  1.00  0.00    -0.354 N 
ATOM     54  N   UNL A   1      48.010  25.770  33.006  1.00  0.00    -0.248 NA
ATOM     55  C   UNL A   1      47.426  25.031  35.089  1.00  0.00     0.031 C 
ATOM     56  C   UNL A   1      50.272  26.915  31.089  1.00  0.00     0.029 A 
ATOM     57  C   UNL A   1      50.178  25.562  31.369  1.00  0.00     0.049 A 
ATOM     58  H   UNL A   1      50.151  23.946  30.025  1.00  0.00     0.167 HD
ATOM     59  C   UNL A   1      49.068  25.018  33.429  1.00  0.00     0.074 A 
ATOM     60  C   UNL A   1      48.673  24.626  34.774  1.00  0.00     0.031 C 
ATOM     61  C   UNL A   1      50.131  24.763  32.599  1.00  0.00     0.034 A 
BRANCH  48  62
ATOM     62  C   UNL A   1      50.731  25.708  26.513  1.00  0.00     0.023 A 
ATOM     63  C   UNL A   1      52.068  25.259  26.519  1.00  0.00     0.012 A 
ATOM     64  C   UNL A   1      50.341  26.482  25.388  1.00  0.00     0.148 A 
ATOM     65  C   UNL A   1      52.962  25.548  25.483  1.00  0.00     0.002 A 
ATOM     66  C   UNL A   1      51.211  26.706  24.316  1.00  0.00     0.091 A 
ATOM     67  F   UNL A   1      49.160  27.103  25.367  1.00  0.00    -0.205 F 
ATOM     68  C   UNL A   1      52.528  26.251  24.369  1.00  0.00     0.022 A 
BRANCH  66  69
ATOM     69  S   UNL A   1      50.697  27.550  22.806  1.00  0.00     0.127 S 
ATOM     70  O   UNL A   1      51.688  27.079  21.839  1.00  0.00    -0.237 OA
ATOM     71  O   UNL A   1      49.347  27.024  22.598  1.00  0.00    -0.237 OA
ATOM     72  O   UNL A   1      50.746  28.978  23.097  1.00  0.00    -0.744 OA
ENDBRANCH  66  69
ENDBRANCH  48  62
BRANCH  49  73
ATOM     73  C   UNL A   1      44.342  25.814  33.972  1.00  0.00     0.023 A 
ATOM     74  C   UNL A   1      44.138  24.454  33.629  1.00  0.00     0.012 A 
ATOM     75  C   UNL A   1      43.503  26.394  34.939  1.00  0.00     0.148 A 
ATOM     76  C   UNL A   1      43.283  23.644  34.380  1.00  0.00     0.002 A 
ATOM     77  C   UNL A   1      42.637  25.582  35.675  1.00  0.00     0.091 A 
ATOM     78  F   UNL A   1      43.610  27.708  35.171  1.00  0.00    -0.205 F 
ATOM     79  C   UNL A   1      42.571  24.200  35.436  1.00  0.00     0.022 A 
BRANCH  77  80
ATOM     80  S   UNL A   1      41.706  26.214  37.084  1.00  0.00     0.127 S 
ATOM     81  O   UNL A   1      40.798  25.105  37.361  1.00  0.00    -0.237 OA
ATOM     82  O   UNL A   1      42.748  26.420  38.091  1.00  0.00    -0.237 OA
ATOM     83  O   UNL A   1      41.091  27.444  36.604  1.00  0.00    -0.744 OA
ENDBRANCH  77  80
ENDBRANCH  49  73
BRANCH  61  84
ATOM     84  C   UNL A   1      51.234  23.733  32.827  1.00  0.00     0.023 A 
ATOM     85  C   UNL A   1      52.601  24.040  32.714  1.00  0.00     0.012 A 
ATOM     86  C   UNL A   1      50.929  22.420  33.288  1.00  0.00     0.148 A 
ATOM     87  C   UNL A   1      53.601  23.093  32.973  1.00  0.00     0.002 A 
ATOM     88  C   UNL A   1      51.925  21.531  33.678  1.00  0.00     0.091 A 
ATOM     89  F   UNL A   1      49.661  21.987  33.317  1.00  0.00    -0.205 F 
ATOM     90  C   UNL A   1      53.265  21.847  33.481  1.00  0.00     0.022 A 
BRANCH  88  91
ATOM     91  S   UNL A   1      51.534  20.018  34.568  1.00  0.00     0.127 S 
ATOM     92  O   UNL A   1      51.480  20.489  35.950  1.00  0.00    -0.237 OA
ATOM     93  O   UNL A   1      50.235  19.652  33.996  1.00  0.00    -0.237 OA
ATOM     94  O   UNL A   1      52.608  19.087  34.249  1.00  0.00    -0.744 OA
ENDBRANCH  88  91
ENDBRANCH  61  84
ENDBRANCH  35  36
ENDBRANCH  28  30
ENDBRANCH  27  28
ENDBRANCH  26  27
ENDBRANCH   1  26
TORSDOF 20
ENDMDL
MODEL 3
REMARK VINA RESULT:     -11.6      4.152      9.965
REMARK SMILES COc1cc(CC(=O)N[C@@H](CC(=O)OCCOC(=O)c2ccc(-c3c4nc(c(-c5cccc(S(=O)(=O)[O-])c5F)c5ccc([nH]5)c(-c5cccc(S(=O)(=O)[O-])c5F)c5nc(c(-c6cccc(S(=O)(=O)[O-])c6F)c6ccc3[nH]6)C=C5)C=C4)cc2)c2cccs2)ccc1C
REMARK SMILES IDX 15 1 14 2 12 3 13 4 11 5 10 6 9 7 7 8 8 9 6 11 5 12 3 13
REMARK SMILES IDX 4 14 90 15 89 16 91 17 88 18 2 19 1 20 83 21 84 22 87 23
REMARK SMILES IDX 85 24 86 25 16 26 17 27 18 28 19 29 20 30 21 31 82 32 22 33
REMARK SMILES IDX 81 34 23 35 24 36 25 37 75 38 26 39 80 40 74 41 76 42 27 43
REMARK SMILES IDX 79 44 73 45 72 46 28 48 60 49 40 50 59 51 41 52 44 53 58 54
REMARK SMILES IDX 77 55 42 56 43 57 57 59 78 60 45 61 29 62 30 63 38 64 31 65
REMARK SMILES IDX 33 66 39 67 32 68 34 69 35 70 36 71 37 72 61 73 62 74 70 75
REMARK SMILES IDX 63 76 65 77 71 78 64 79 66 80 67 81 68 82 69 83 46 84 47 85
REMARK SMILES IDX 55 86 48 87 50 88 56 89 49 90 51 91 52 92 53 93 54 94
REMARK H PARENT 9 10 76 47 44 58
REMARK Flexibility Score: inf
ROOT
ATOM      1  C   UNL A   1      38.318  21.440  25.310  1.00  0.00     0.274 C 
ENDROOT
BRANCH   1   2
ATOM      2  O   UNL A   1      37.043  21.756  25.882  1.00  0.00    -0.462 OA
BRANCH   2   3
ATOM      3  C   UNL A   1      36.357  22.907  25.340  1.00  0.00     0.308 C 
ATOM      4  O   UNL A   1      37.160  23.866  25.468  1.00  0.00    -0.252 OA
BRANCH   3   5
ATOM      5  C   UNL A   1      34.389  22.794  24.376  1.00  0.00     0.153 C 
BRANCH   5   6
ATOM      6  C   UNL A   1      32.852  22.020  24.558  1.00  0.00     0.133 C 
BRANCH   6   7
ATOM      7  N   UNL A   1      32.157  22.395  25.797  1.00  0.00    -0.348 N 
ATOM      8  C   UNL A   1      31.412  23.480  26.134  1.00  0.00     0.224 C 
ATOM      9  O   UNL A   1      31.071  23.570  27.317  1.00  0.00    -0.275 OA
ATOM     10  H   UNL A   1      32.247  21.735  26.521  1.00  0.00     0.164 HD
BRANCH   8  11
ATOM     11  C   UNL A   1      30.881  24.451  25.100  1.00  0.00     0.135 C 
BRANCH  11  12
ATOM     12  C   UNL A   1      31.183  25.912  25.312  1.00  0.00    -0.035 A 
ATOM     13  C   UNL A   1      30.838  28.239  24.647  1.00  0.00     0.122 A 
ATOM     14  C   UNL A   1      30.552  26.878  24.509  1.00  0.00     0.051 A 
ATOM     15  C   UNL A   1      31.758  28.652  25.622  1.00  0.00    -0.009 A 
ATOM     16  C   UNL A   1      32.350  27.692  26.459  1.00  0.00     0.007 A 
ATOM     17  C   UNL A   1      32.136  30.096  25.811  1.00  0.00     0.048 C 
ATOM     18  C   UNL A   1      32.062  26.334  26.311  1.00  0.00     0.005 A 
BRANCH  13  19
ATOM     19  O   UNL A   1      30.316  29.215  23.843  1.00  0.00    -0.496 OA
ATOM     20  C   UNL A   1      30.173  28.917  22.464  1.00  0.00     0.278 C 
ENDBRANCH  13  19
ENDBRANCH  11  12
ENDBRANCH   8  11
ENDBRANCH   6   7
BRANCH   6  21
ATOM     21  C   UNL A   1      32.692  20.533  24.240  1.00  0.00     0.027 A 
ATOM     22  C   UNL A   1      32.268  19.950  23.054  1.00  0.00     0.017 A 
ATOM     23  S   UNL A   1      33.015  19.313  25.413  1.00  0.00    -0.147 S 
ATOM     24  C   UNL A   1      32.484  18.540  23.033  1.00  0.00     0.012 A 
ATOM     25  C   UNL A   1      32.861  18.061  24.263  1.00  0.00     0.065 A 
ENDBRANCH   6  21
ENDBRANCH   5   6
ENDBRANCH   3   5
ENDBRANCH   2   3
ENDBRANCH   1   2
BRANCH   1  26
ATOM     26  C   UNL A   1      39.366  21.462  26.426  1.00  0.00     0.275 C 
BRANCH  26  27
ATOM     27  O   UNL A   1      40.584  22.225  26.183  1.00  0.00    -0.458 OA
BRANCH  27  28
ATOM     28  C   UNL A   1      41.054  23.382  26.723  1.00  0.00     0.338 C 
ATOM     29  O   UNL A   1      42.107  23.394  27.348  1.00  0.00    -0.246 OA
BRANCH  28  30
ATOM     30  C   UNL A   1      40.166  24.575  26.780  1.00  0.00     0.060 A 
ATOM     31  C   UNL A   1      40.856  25.964  25.847  1.00  0.00     0.016 A 
ATOM     32  C   UNL A   1      39.179  24.877  28.258  1.00  0.00     0.016 A 
ATOM     33  C   UNL A   1      40.787  27.634  26.550  1.00  0.00     0.010 A 
ATOM     34  C   UNL A   1      39.064  26.555  28.929  1.00  0.00     0.010 A 
ATOM     35  C   UNL A   1      39.972  27.894  28.111  1.00  0.00    -0.014 A 
BRANCH  35  36
ATOM     36  C   UNL A   1      40.465  28.894  29.032  1.00  0.00     0.031 A 
ATOM     37  C   UNL A   1      39.591  30.040  29.281  1.00  0.00     0.074 A 
ATOM     38  C   UNL A   1      41.555  28.591  29.784  1.00  0.00     0.049 A 
ATOM     39  N   UNL A   1      40.007  31.147  29.779  1.00  0.00    -0.248 NA
ATOM     40  C   UNL A   1      38.181  30.087  28.880  1.00  0.00     0.031 C 
ATOM     41  C   UNL A   1      41.906  29.121  31.095  1.00  0.00     0.029 A 
ATOM     42  N   UNL A   1      42.644  27.758  29.506  1.00  0.00    -0.354 N 
ATOM     43  C   UNL A   1      38.867  31.813  30.165  1.00  0.00     0.074 A 
ATOM     44  C   UNL A   1      37.820  31.288  29.340  1.00  0.00     0.031 C 
ATOM     45  C   UNL A   1      43.194  28.830  31.361  1.00  0.00     0.029 A 
ATOM     46  C   UNL A   1      43.767  28.265  30.153  1.00  0.00     0.049 A 
ATOM     47  H   UNL A   1      42.620  26.949  28.946  1.00  0.00     0.167 HD
ATOM     48  C   UNL A   1      38.900  32.505  31.333  1.00  0.00     0.034 A 
ATOM     49  C   UNL A   1      44.885  28.712  29.502  1.00  0.00     0.034 A 
ATOM     50  C   UNL A   1      40.279  32.574  31.841  1.00  0.00     0.049 A 
ATOM     51  C   UNL A   1      45.079  30.205  29.727  1.00  0.00     0.074 A 
ATOM     52  C   UNL A   1      40.941  31.981  32.902  1.00  0.00     0.029 A 
ATOM     53  N   UNL A   1      41.268  33.091  31.010  1.00  0.00    -0.354 N 
ATOM     54  N   UNL A   1      44.203  30.954  30.339  1.00  0.00    -0.248 NA
ATOM     55  C   UNL A   1      46.238  30.983  29.299  1.00  0.00     0.031 C 
ATOM     56  C   UNL A   1      42.343  32.087  32.654  1.00  0.00     0.029 A 
ATOM     57  C   UNL A   1      42.534  32.785  31.473  1.00  0.00     0.049 A 
ATOM     58  H   UNL A   1      41.087  33.612  30.193  1.00  0.00     0.167 HD
ATOM     59  C   UNL A   1      44.565  32.270  30.297  1.00  0.00     0.074 A 
ATOM     60  C   UNL A   1      45.885  32.225  29.685  1.00  0.00     0.031 C 
ATOM     61  C   UNL A   1      43.709  33.252  30.729  1.00  0.00     0.034 A 
BRANCH  48  62
ATOM     62  C   UNL A   1      37.693  32.938  32.143  1.00  0.00     0.023 A 
ATOM     63  C   UNL A   1      37.616  32.436  33.460  1.00  0.00     0.012 A 
ATOM     64  C   UNL A   1      36.598  33.734  31.717  1.00  0.00     0.148 A 
ATOM     65  C   UNL A   1      36.533  32.706  34.303  1.00  0.00     0.002 A 
ATOM     66  C   UNL A   1      35.554  34.069  32.585  1.00  0.00     0.091 A 
ATOM     67  F   UNL A   1      36.485  34.107  30.440  1.00  0.00    -0.205 F 
ATOM     68  C   UNL A   1      35.513  33.542  33.876  1.00  0.00     0.022 A 
BRANCH  66  69
ATOM     69  S   UNL A   1      34.230  35.205  32.123  1.00  0.00     0.127 S 
ATOM     70  O   UNL A   1      34.184  35.048  30.669  1.00  0.00    -0.237 OA
ATOM     71  O   UNL A   1      33.077  34.646  32.830  1.00  0.00    -0.237 OA
ATOM     72  O   UNL A   1      34.639  36.524  32.591  1.00  0.00    -0.744 OA
ENDBRANCH  66  69
ENDBRANCH  48  62
BRANCH  49  73
ATOM     73  C   UNL A   1      45.206  27.947  28.254  1.00  0.00     0.023 A 
ATOM     74  C   UNL A   1      44.915  28.599  27.029  1.00  0.00     0.012 A 
ATOM     75  C   UNL A   1      46.115  26.876  28.244  1.00  0.00     0.148 A 
ATOM     76  C   UNL A   1      45.668  28.340  25.883  1.00  0.00     0.002 A 
ATOM     77  C   UNL A   1      46.853  26.611  27.088  1.00  0.00     0.091 A 
ATOM     78  F   UNL A   1      46.294  26.179  29.373  1.00  0.00    -0.205 F 
ATOM     79  C   UNL A   1      46.671  27.381  25.928  1.00  0.00     0.022 A 
BRANCH  77  80
ATOM     80  S   UNL A   1      48.198  25.409  27.071  1.00  0.00     0.127 S 
ATOM     81  O   UNL A   1      48.995  25.873  25.940  1.00  0.00    -0.237 OA
ATOM     82  O   UNL A   1      48.820  25.606  28.382  1.00  0.00    -0.237 OA
ATOM     83  O   UNL A   1      47.543  24.118  26.910  1.00  0.00    -0.744 OA
ENDBRANCH  77  80
ENDBRANCH  49  73
BRANCH  61  84
ATOM     84  C   UNL A   1      43.857  34.753  30.493  1.00  0.00     0.023 A 
ATOM     85  C   UNL A   1      44.233  35.652  31.505  1.00  0.00     0.012 A 
ATOM     86  C   UNL A   1      43.735  35.307  29.186  1.00  0.00     0.148 A 
ATOM     87  C   UNL A   1      44.410  37.019  31.260  1.00  0.00     0.002 A 
ATOM     88  C   UNL A   1      44.049  36.635  28.921  1.00  0.00     0.091 A 
ATOM     89  F   UNL A   1      43.268  34.564  28.173  1.00  0.00    -0.205 F 
ATOM     90  C   UNL A   1      44.345  37.508  29.963  1.00  0.00     0.022 A 
BRANCH  88  91
ATOM     91  S   UNL A   1      44.220  37.240  27.236  1.00  0.00     0.127 S 
ATOM     92  O   UNL A   1      44.714  38.597  27.454  1.00  0.00    -0.237 OA
ATOM     93  O   UNL A   1      45.206  36.312  26.675  1.00  0.00    -0.237 OA
ATOM     94  O   UNL A   1      42.894  37.128  26.643  1.00  0.00    -0.744 OA
ENDBRANCH  88  91
ENDBRANCH  61  84
ENDBRANCH  35  36
ENDBRANCH  28  30
ENDBRANCH  27  28
ENDBRANCH  26  27
ENDBRANCH   1  26
TORSDOF 20
ENDMDL
