MODEL 1
REMARK VINA RESULT:     -11.5      0.000      0.000
REMARK SMILES CCNC(=O)[C@@H](C)Oc1ccc(OC)cc1/C=C/C(=O)OCCOC(=O)c1ccc(-c2c3nc(c(-c4cccc(S(=O)(=O)[O-])c4F)c4ccc([nH]4)c(-c4cccc(S(=O)(=O)[O-])c4F)c4nc(c(-c5cccc(S(=O)(=O)[O-])c5F)c5ccc2[nH]5)C=C4)C=C3)cc1
REMARK SMILES IDX 22 1 21 2 19 3 20 4 18 5 17 6 16 7 9 8 10 9 11 10 15 11
REMARK SMILES IDX 12 12 8 13 6 14 7 15 4 16 3 17 5 19 2 20 1 21 13 22 14 23
REMARK SMILES IDX 23 24 24 25 25 26 26 27 27 28 28 29 89 30 29 31 88 32 30 33
REMARK SMILES IDX 31 34 32 35 82 36 33 37 87 38 81 39 83 40 34 41 86 42 80 43
REMARK SMILES IDX 79 44 35 46 67 47 47 48 66 49 48 50 51 51 65 52 84 53 49 54
REMARK SMILES IDX 50 55 64 57 85 58 52 59 36 60 37 61 45 62 38 63 40 64 46 65
REMARK SMILES IDX 39 66 41 67 42 68 43 69 44 70 68 71 69 72 77 73 70 74 72 75
REMARK SMILES IDX 78 76 71 77 73 78 74 79 75 80 76 81 53 82 54 83 62 84 55 85
REMARK SMILES IDX 57 86 63 87 56 88 58 89 59 90 60 91 61 92
REMARK H PARENT 3 18 83 45 51 56
REMARK Flexibility Score: inf
ROOT
ATOM      1  C   UNL A   1      35.455  22.305  25.399  1.00  0.00     0.275 C 
ENDROOT
BRANCH   1   2
ATOM      2  O   UNL A   1      34.599  22.284  24.246  1.00  0.00    -0.459 OA
BRANCH   2   3
ATOM      3  C   UNL A   1      34.908  23.208  23.314  1.00  0.00     0.330 C 
ATOM      4  O   UNL A   1      35.938  23.269  22.656  1.00  0.00    -0.247 OA
BRANCH   3   5
ATOM      5  C   UNL A   1      33.872  24.233  23.136  1.00  0.00     0.094 C 
ATOM      6  C   UNL A   1      32.856  24.228  22.263  1.00  0.00     0.019 C 
BRANCH   6   7
ATOM      7  C   UNL A   1      31.747  25.153  22.534  1.00  0.00     0.020 A 
ATOM      8  C   UNL A   1      30.741  24.797  23.448  1.00  0.00     0.127 A 
ATOM      9  C   UNL A   1      29.746  25.718  23.784  1.00  0.00     0.051 A 
ATOM     10  C   UNL A   1      29.801  27.020  23.284  1.00  0.00     0.050 A 
ATOM     11  C   UNL A   1      31.763  26.456  22.002  1.00  0.00     0.058 A 
ATOM     12  C   UNL A   1      30.822  27.400  22.413  1.00  0.00     0.119 A 
BRANCH   8  13
ATOM     13  O   UNL A   1      30.628  23.519  23.915  1.00  0.00    -0.480 OA
BRANCH  13  14
ATOM     14  C   UNL A   1      31.252  23.207  25.159  1.00  0.00     0.258 C 
ATOM     15  C   UNL A   1      31.435  21.711  25.395  1.00  0.00     0.064 C 
BRANCH  14  16
ATOM     16  C   UNL A   1      30.963  24.012  26.455  1.00  0.00     0.260 C 
ATOM     17  N   UNL A   1      31.673  25.113  26.828  1.00  0.00    -0.353 N 
ATOM     18  H   UNL A   1      31.315  25.581  27.617  1.00  0.00     0.163 HD
ATOM     19  O   UNL A   1      30.036  23.672  27.201  1.00  0.00    -0.271 OA
BRANCH  17  20
ATOM     20  C   UNL A   1      32.866  25.710  26.263  1.00  0.00     0.112 C 
ATOM     21  C   UNL A   1      32.596  27.130  25.796  1.00  0.00     0.027 C 
ENDBRANCH  17  20
ENDBRANCH  14  16
ENDBRANCH  13  14
ENDBRANCH   8  13
BRANCH  12  22
ATOM     22  O   UNL A   1      30.802  28.710  22.018  1.00  0.00    -0.497 OA
ATOM     23  C   UNL A   1      29.643  29.447  22.405  1.00  0.00     0.278 C 
ENDBRANCH  12  22
ENDBRANCH   6   7
ENDBRANCH   3   5
ENDBRANCH   2   3
ENDBRANCH   1   2
BRANCH   1  24
ATOM     24  C   UNL A   1      36.449  21.143  25.377  1.00  0.00     0.275 C 
BRANCH  24  25
ATOM     25  O   UNL A   1      37.758  21.557  24.948  1.00  0.00    -0.458 OA
BRANCH  25  26
ATOM     26  C   UNL A   1      38.769  21.194  25.775  1.00  0.00     0.338 C 
ATOM     27  O   UNL A   1      39.216  20.074  25.954  1.00  0.00    -0.246 OA
BRANCH  26  28
ATOM     28  C   UNL A   1      39.353  22.389  26.399  1.00  0.00     0.060 A 
ATOM     29  C   UNL A   1      38.900  23.646  25.993  1.00  0.00     0.016 A 
ATOM     30  C   UNL A   1      40.431  22.271  27.274  1.00  0.00     0.016 A 
ATOM     31  C   UNL A   1      39.531  24.798  26.445  1.00  0.00     0.010 A 
ATOM     32  C   UNL A   1      41.060  23.429  27.737  1.00  0.00     0.010 A 
ATOM     33  C   UNL A   1      40.628  24.697  27.306  1.00  0.00    -0.014 A 
BRANCH  33  34
ATOM     34  C   UNL A   1      41.372  25.915  27.696  1.00  0.00     0.031 A 
ATOM     35  C   UNL A   1      40.680  26.973  28.507  1.00  0.00     0.074 A 
ATOM     36  C   UNL A   1      42.654  26.067  27.321  1.00  0.00     0.049 A 
ATOM     37  N   UNL A   1      41.109  28.158  28.854  1.00  0.00    -0.248 NA
ATOM     38  C   UNL A   1      39.324  26.658  28.986  1.00  0.00     0.031 C 
ATOM     39  C   UNL A   1      43.430  25.090  26.556  1.00  0.00     0.029 A 
ATOM     40  N   UNL A   1      43.524  27.111  27.513  1.00  0.00    -0.354 N 
ATOM     41  C   UNL A   1      40.060  28.750  29.547  1.00  0.00     0.074 A 
ATOM     42  C   UNL A   1      38.976  27.791  29.580  1.00  0.00     0.031 C 
ATOM     43  C   UNL A   1      44.654  25.590  26.323  1.00  0.00     0.029 A 
ATOM     44  C   UNL A   1      44.733  26.936  26.884  1.00  0.00     0.049 A 
ATOM     45  H   UNL A   1      43.302  27.907  28.048  1.00  0.00     0.167 HD
ATOM     46  C   UNL A   1      40.009  29.980  30.111  1.00  0.00     0.034 A 
ATOM     47  C   UNL A   1      45.773  27.782  26.746  1.00  0.00     0.034 A 
ATOM     48  C   UNL A   1      41.107  30.908  30.108  1.00  0.00     0.049 A 
ATOM     49  C   UNL A   1      45.689  29.144  27.378  1.00  0.00     0.074 A 
ATOM     50  C   UNL A   1      41.171  32.168  30.677  1.00  0.00     0.029 A 
ATOM     51  N   UNL A   1      42.335  30.677  29.509  1.00  0.00    -0.354 N 
ATOM     52  N   UNL A   1      44.720  29.663  28.094  1.00  0.00    -0.248 NA
ATOM     53  C   UNL A   1      46.849  30.031  27.205  1.00  0.00     0.031 C 
ATOM     54  C   UNL A   1      42.437  32.701  30.414  1.00  0.00     0.029 A 
ATOM     55  C   UNL A   1      43.165  31.768  29.691  1.00  0.00     0.049 A 
ATOM     56  H   UNL A   1      42.581  29.855  29.024  1.00  0.00     0.167 HD
ATOM     57  C   UNL A   1      45.160  30.925  28.476  1.00  0.00     0.074 A 
ATOM     58  C   UNL A   1      46.494  31.082  27.933  1.00  0.00     0.031 C 
ATOM     59  C   UNL A   1      44.511  31.878  29.189  1.00  0.00     0.034 A 
BRANCH  46  60
ATOM     60  C   UNL A   1      38.732  30.379  30.799  1.00  0.00     0.023 A 
ATOM     61  C   UNL A   1      38.548  30.065  32.160  1.00  0.00     0.012 A 
ATOM     62  C   UNL A   1      37.733  31.096  30.112  1.00  0.00     0.148 A 
ATOM     63  C   UNL A   1      37.378  30.436  32.821  1.00  0.00     0.002 A 
ATOM     64  C   UNL A   1      36.585  31.494  30.788  1.00  0.00     0.091 A 
ATOM     65  F   UNL A   1      37.915  31.359  28.810  1.00  0.00    -0.205 F 
ATOM     66  C   UNL A   1      36.402  31.158  32.138  1.00  0.00     0.022 A 
BRANCH  64  67
ATOM     67  S   UNL A   1      35.304  32.484  30.008  1.00  0.00     0.127 S 
ATOM     68  O   UNL A   1      36.064  33.647  29.553  1.00  0.00    -0.237 OA
ATOM     69  O   UNL A   1      34.840  31.602  28.936  1.00  0.00    -0.237 OA
ATOM     70  O   UNL A   1      34.316  32.745  31.045  1.00  0.00    -0.744 OA
ENDBRANCH  64  67
ENDBRANCH  46  60
BRANCH  47  71
ATOM     71  C   UNL A   1      46.988  27.346  26.002  1.00  0.00     0.023 A 
ATOM     72  C   UNL A   1      47.916  26.495  26.631  1.00  0.00     0.012 A 
ATOM     73  C   UNL A   1      47.207  27.732  24.665  1.00  0.00     0.148 A 
ATOM     74  C   UNL A   1      49.050  26.051  25.948  1.00  0.00     0.002 A 
ATOM     75  C   UNL A   1      48.308  27.240  23.973  1.00  0.00     0.091 A 
ATOM     76  F   UNL A   1      46.327  28.562  24.090  1.00  0.00    -0.205 F 
ATOM     77  C   UNL A   1      49.238  26.411  24.617  1.00  0.00     0.022 A 
BRANCH  75  78
ATOM     78  S   UNL A   1      48.545  27.544  22.217  1.00  0.00     0.127 S 
ATOM     79  O   UNL A   1      47.285  28.184  21.852  1.00  0.00    -0.237 OA
ATOM     80  O   UNL A   1      49.710  28.430  22.213  1.00  0.00    -0.237 OA
ATOM     81  O   UNL A   1      48.791  26.233  21.629  1.00  0.00    -0.744 OA
ENDBRANCH  75  78
ENDBRANCH  47  71
BRANCH  59  82
ATOM     82  C   UNL A   1      45.242  33.167  29.448  1.00  0.00     0.023 A 
ATOM     83  C   UNL A   1      46.027  33.298  30.610  1.00  0.00     0.012 A 
ATOM     84  C   UNL A   1      45.218  34.213  28.506  1.00  0.00     0.148 A 
ATOM     85  C   UNL A   1      46.757  34.463  30.843  1.00  0.00     0.002 A 
ATOM     86  C   UNL A   1      45.981  35.354  28.724  1.00  0.00     0.091 A 
ATOM     87  F   UNL A   1      44.447  34.078  27.417  1.00  0.00    -0.205 F 
ATOM     88  C   UNL A   1      46.744  35.484  29.896  1.00  0.00     0.022 A 
BRANCH  86  89
ATOM     89  S   UNL A   1      46.088  36.675  27.512  1.00  0.00     0.127 S 
ATOM     90  O   UNL A   1      44.893  37.458  27.817  1.00  0.00    -0.237 OA
ATOM     91  O   UNL A   1      47.350  37.326  27.866  1.00  0.00    -0.237 OA
ATOM     92  O   UNL A   1      46.097  36.018  26.212  1.00  0.00    -0.744 OA
ENDBRANCH  86  89
ENDBRANCH  59  82
ENDBRANCH  33  34
ENDBRANCH  26  28
ENDBRANCH  25  26
ENDBRANCH  24  25
ENDBRANCH   1  24
TORSDOF 20
ENDMDL
MODEL 2
REMARK VINA RESULT:     -11.0      1.190      2.352
REMARK SMILES CCNC(=O)[C@@H](C)Oc1ccc(OC)cc1/C=C/C(=O)OCCOC(=O)c1ccc(-c2c3nc(c(-c4cccc(S(=O)(=O)[O-])c4F)c4ccc([nH]4)c(-c4cccc(S(=O)(=O)[O-])c4F)c4nc(c(-c5cccc(S(=O)(=O)[O-])c5F)c5ccc2[nH]5)C=C4)C=C3)cc1
REMARK SMILES IDX 22 1 21 2 19 3 20 4 18 5 17 6 16 7 9 8 10 9 11 10 15 11
REMARK SMILES IDX 12 12 8 13 6 14 7 15 4 16 3 17 5 19 2 20 1 21 13 22 14 23
REMARK SMILES IDX 23 24 24 25 25 26 26 27 27 28 28 29 89 30 29 31 88 32 30 33
REMARK SMILES IDX 31 34 32 35 82 36 33 37 87 38 81 39 83 40 34 41 86 42 80 43
REMARK SMILES IDX 79 44 35 46 67 47 47 48 66 49 48 50 51 51 65 52 84 53 49 54
REMARK SMILES IDX 50 55 64 57 85 58 52 59 36 60 37 61 45 62 38 63 40 64 46 65
REMARK SMILES IDX 39 66 41 67 42 68 43 69 44 70 68 71 69 72 77 73 70 74 72 75
REMARK SMILES IDX 78 76 71 77 73 78 74 79 75 80 76 81 53 82 54 83 62 84 55 85
REMARK SMILES IDX 57 86 63 87 56 88 58 89 59 90 60 91 61 92
REMARK H PARENT 3 18 83 45 51 56
REMARK Flexibility Score: inf
ROOT
ATOM      1  C   UNL A   1      35.238  21.389  24.820  1.00  0.00     0.275 C 
ENDROOT
BRANCH   1   2
ATOM      2  O   UNL A   1      35.398  22.810  24.946  1.00  0.00    -0.459 OA
BRANCH   2   3
ATOM      3  C   UNL A   1      34.754  23.344  26.004  1.00  0.00     0.330 C 
ATOM      4  O   UNL A   1      34.611  22.836  27.108  1.00  0.00    -0.247 OA
BRANCH   3   5
ATOM      5  C   UNL A   1      34.165  24.661  25.731  1.00  0.00     0.094 C 
ATOM      6  C   UNL A   1      33.034  25.173  26.235  1.00  0.00     0.019 C 
BRANCH   6   7
ATOM      7  C   UNL A   1      32.859  26.627  26.123  1.00  0.00     0.020 A 
ATOM      8  C   UNL A   1      31.576  27.171  25.943  1.00  0.00     0.127 A 
ATOM      9  C   UNL A   1      31.398  28.556  25.942  1.00  0.00     0.051 A 
ATOM     10  C   UNL A   1      32.478  29.399  26.212  1.00  0.00     0.050 A 
ATOM     11  C   UNL A   1      33.946  27.492  26.349  1.00  0.00     0.058 A 
ATOM     12  C   UNL A   1      33.748  28.870  26.442  1.00  0.00     0.119 A 
BRANCH   8  13
ATOM     13  O   UNL A   1      30.510  26.379  25.625  1.00  0.00    -0.480 OA
BRANCH  13  14
ATOM     14  C   UNL A   1      30.228  26.165  24.243  1.00  0.00     0.258 C 
ATOM     15  C   UNL A   1      28.847  26.655  23.816  1.00  0.00     0.064 C 
BRANCH  14  16
ATOM     16  C   UNL A   1      30.699  24.891  23.490  1.00  0.00     0.260 C 
ATOM     17  N   UNL A   1      31.448  24.926  22.353  1.00  0.00    -0.353 N 
ATOM     18  H   UNL A   1      31.759  24.046  22.042  1.00  0.00     0.163 HD
ATOM     19  O   UNL A   1      30.410  23.771  23.928  1.00  0.00    -0.271 OA
BRANCH  17  20
ATOM     20  C   UNL A   1      31.863  26.039  21.522  1.00  0.00     0.112 C 
ATOM     21  C   UNL A   1      32.536  25.550  20.252  1.00  0.00     0.027 C 
ENDBRANCH  17  20
ENDBRANCH  14  16
ENDBRANCH  13  14
ENDBRANCH   8  13
BRANCH  12  22
ATOM     22  O   UNL A   1      34.722  29.784  26.738  1.00  0.00    -0.497 OA
ATOM     23  C   UNL A   1      35.752  29.318  27.609  1.00  0.00     0.278 C 
ENDBRANCH  12  22
ENDBRANCH   6   7
ENDBRANCH   3   5
ENDBRANCH   2   3
ENDBRANCH   1   2
BRANCH   1  24
ATOM     24  C   UNL A   1      36.567  20.659  25.023  1.00  0.00     0.275 C 
BRANCH  24  25
ATOM     25  O   UNL A   1      37.691  21.556  24.969  1.00  0.00    -0.458 OA
BRANCH  25  26
ATOM     26  C   UNL A   1      38.740  21.200  25.750  1.00  0.00     0.338 C 
ATOM     27  O   UNL A   1      39.215  20.086  25.893  1.00  0.00    -0.246 OA
BRANCH  26  28
ATOM     28  C   UNL A   1      39.326  22.396  26.369  1.00  0.00     0.060 A 
ATOM     29  C   UNL A   1      38.819  23.649  26.017  1.00  0.00     0.016 A 
ATOM     30  C   UNL A   1      40.452  22.288  27.183  1.00  0.00     0.016 A 
ATOM     31  C   UNL A   1      39.443  24.808  26.462  1.00  0.00     0.010 A 
ATOM     32  C   UNL A   1      41.075  23.453  27.638  1.00  0.00     0.010 A 
ATOM     33  C   UNL A   1      40.588  24.717  27.261  1.00  0.00    -0.014 A 
BRANCH  33  34
ATOM     34  C   UNL A   1      41.319  25.947  27.638  1.00  0.00     0.031 A 
ATOM     35  C   UNL A   1      40.615  27.009  28.433  1.00  0.00     0.074 A 
ATOM     36  C   UNL A   1      42.602  26.105  27.267  1.00  0.00     0.049 A 
ATOM     37  N   UNL A   1      41.033  28.201  28.768  1.00  0.00    -0.248 NA
ATOM     38  C   UNL A   1      39.260  26.687  28.912  1.00  0.00     0.031 C 
ATOM     39  C   UNL A   1      43.389  25.126  26.517  1.00  0.00     0.029 A 
ATOM     40  N   UNL A   1      43.462  27.159  27.449  1.00  0.00    -0.354 N 
ATOM     41  C   UNL A   1      39.976  28.793  29.449  1.00  0.00     0.074 A 
ATOM     42  C   UNL A   1      38.900  27.825  29.489  1.00  0.00     0.031 C 
ATOM     43  C   UNL A   1      44.609  25.633  26.282  1.00  0.00     0.029 A 
ATOM     44  C   UNL A   1      44.675  26.987  26.827  1.00  0.00     0.049 A 
ATOM     45  H   UNL A   1      43.231  27.959  27.974  1.00  0.00     0.167 HD
ATOM     46  C   UNL A   1      39.913  30.029  29.998  1.00  0.00     0.034 A 
ATOM     47  C   UNL A   1      45.708  27.839  26.683  1.00  0.00     0.034 A 
ATOM     48  C   UNL A   1      41.002  30.967  29.989  1.00  0.00     0.049 A 
ATOM     49  C   UNL A   1      45.611  29.209  27.298  1.00  0.00     0.074 A 
ATOM     50  C   UNL A   1      41.053  32.234  30.542  1.00  0.00     0.029 A 
ATOM     51  N   UNL A   1      42.234  30.738  29.397  1.00  0.00    -0.354 N 
ATOM     52  N   UNL A   1      44.633  29.727  28.004  1.00  0.00    -0.248 NA
ATOM     53  C   UNL A   1      46.763  30.103  27.119  1.00  0.00     0.031 C 
ATOM     54  C   UNL A   1      42.316  32.774  30.277  1.00  0.00     0.029 A 
ATOM     55  C   UNL A   1      43.055  31.839  29.569  1.00  0.00     0.049 A 
ATOM     56  H   UNL A   1      42.490  29.913  28.923  1.00  0.00     0.167 HD
ATOM     57  C   UNL A   1      45.061  30.998  28.371  1.00  0.00     0.074 A 
ATOM     58  C   UNL A   1      46.397  31.160  27.832  1.00  0.00     0.031 C 
ATOM     59  C   UNL A   1      44.401  31.954  29.071  1.00  0.00     0.034 A 
BRANCH  46  60
ATOM     60  C   UNL A   1      38.629  30.425  30.676  1.00  0.00     0.023 A 
ATOM     61  C   UNL A   1      38.362  29.967  31.982  1.00  0.00     0.012 A 
ATOM     62  C   UNL A   1      37.708  31.279  30.040  1.00  0.00     0.148 A 
ATOM     63  C   UNL A   1      37.185  30.332  32.634  1.00  0.00     0.002 A 
ATOM     64  C   UNL A   1      36.554  31.668  30.711  1.00  0.00     0.091 A 
ATOM     65  F   UNL A   1      37.967  31.680  28.786  1.00  0.00    -0.205 F 
ATOM     66  C   UNL A   1      36.287  31.189  32.003  1.00  0.00     0.022 A 
BRANCH  64  67
ATOM     67  S   UNL A   1      35.371  32.821  30.002  1.00  0.00     0.127 S 
ATOM     68  O   UNL A   1      34.754  32.005  28.957  1.00  0.00    -0.237 OA
ATOM     69  O   UNL A   1      34.500  33.112  31.142  1.00  0.00    -0.237 OA
ATOM     70  O   UNL A   1      36.153  33.956  29.535  1.00  0.00    -0.744 OA
ENDBRANCH  64  67
ENDBRANCH  46  60
BRANCH  47  71
ATOM     71  C   UNL A   1      46.930  27.405  25.949  1.00  0.00     0.023 A 
ATOM     72  C   UNL A   1      47.868  26.578  26.595  1.00  0.00     0.012 A 
ATOM     73  C   UNL A   1      47.146  27.768  24.605  1.00  0.00     0.148 A 
ATOM     74  C   UNL A   1      49.008  26.135  25.923  1.00  0.00     0.002 A 
ATOM     75  C   UNL A   1      48.255  27.278  23.924  1.00  0.00     0.091 A 
ATOM     76  F   UNL A   1      46.257  28.577  24.013  1.00  0.00    -0.205 F 
ATOM     77  C   UNL A   1      49.194  26.472  24.585  1.00  0.00     0.022 A 
BRANCH  75  78
ATOM     78  S   UNL A   1      48.491  27.551  22.164  1.00  0.00     0.127 S 
ATOM     79  O   UNL A   1      48.640  26.186  21.667  1.00  0.00    -0.237 OA
ATOM     80  O   UNL A   1      47.242  28.212  21.785  1.00  0.00    -0.237 OA
ATOM     81  O   UNL A   1      49.670  28.402  22.061  1.00  0.00    -0.744 OA
ENDBRANCH  75  78
ENDBRANCH  47  71
BRANCH  59  82
ATOM     82  C   UNL A   1      45.121  33.252  29.316  1.00  0.00     0.023 A 
ATOM     83  C   UNL A   1      45.982  33.370  30.425  1.00  0.00     0.012 A 
ATOM     84  C   UNL A   1      45.008  34.324  28.410  1.00  0.00     0.148 A 
ATOM     85  C   UNL A   1      46.701  34.544  30.642  1.00  0.00     0.002 A 
ATOM     86  C   UNL A   1      45.759  35.476  28.609  1.00  0.00     0.091 A 
ATOM     87  F   UNL A   1      44.165  34.201  27.374  1.00  0.00    -0.205 F 
ATOM     88  C   UNL A   1      46.599  35.591  29.729  1.00  0.00     0.022 A 
BRANCH  86  89
ATOM     89  S   UNL A   1      45.753  36.833  27.433  1.00  0.00     0.127 S 
ATOM     90  O   UNL A   1      46.735  36.381  26.450  1.00  0.00    -0.237 OA
ATOM     91  O   UNL A   1      44.369  36.833  26.958  1.00  0.00    -0.237 OA
ATOM     92  O   UNL A   1      46.124  38.018  28.195  1.00  0.00    -0.744 OA
ENDBRANCH  86  89
ENDBRANCH  59  82
ENDBRANCH  33  34
ENDBRANCH  26  28
ENDBRANCH  25  26
ENDBRANCH  24  25
ENDBRANCH   1  24
TORSDOF 20
ENDMDL
MODEL 3
REMARK VINA RESULT:     -10.9      1.825      2.102
REMARK SMILES CCNC(=O)[C@@H](C)Oc1ccc(OC)cc1/C=C/C(=O)OCCOC(=O)c1ccc(-c2c3nc(c(-c4cccc(S(=O)(=O)[O-])c4F)c4ccc([nH]4)c(-c4cccc(S(=O)(=O)[O-])c4F)c4nc(c(-c5cccc(S(=O)(=O)[O-])c5F)c5ccc2[nH]5)C=C4)C=C3)cc1
REMARK SMILES IDX 22 1 21 2 19 3 20 4 18 5 17 6 16 7 9 8 10 9 11 10 15 11
REMARK SMILES IDX 12 12 8 13 6 14 7 15 4 16 3 17 5 19 2 20 1 21 13 22 14 23
REMARK SMILES IDX 23 24 24 25 25 26 26 27 27 28 28 29 89 30 29 31 88 32 30 33
REMARK SMILES IDX 31 34 32 35 82 36 33 37 87 38 81 39 83 40 34 41 86 42 80 43
REMARK SMILES IDX 79 44 35 46 67 47 47 48 66 49 48 50 51 51 65 52 84 53 49 54
REMARK SMILES IDX 50 55 64 57 85 58 52 59 36 60 37 61 45 62 38 63 40 64 46 65
REMARK SMILES IDX 39 66 41 67 42 68 43 69 44 70 68 71 69 72 77 73 70 74 72 75
REMARK SMILES IDX 78 76 71 77 73 78 74 79 75 80 76 81 53 82 54 83 62 84 55 85
REMARK SMILES IDX 57 86 63 87 56 88 58 89 59 90 60 91 61 92
REMARK H PARENT 3 18 83 45 51 56
REMARK Flexibility Score: inf
ROOT
ATOM      1  C   UNL A   1      35.482  22.452  25.423  1.00  0.00     0.275 C 
ENDROOT
BRANCH   1   2
ATOM      2  O   UNL A   1      34.612  22.517  24.283  1.00  0.00    -0.459 OA
BRANCH   2   3
ATOM      3  C   UNL A   1      34.933  23.485  23.400  1.00  0.00     0.330 C 
ATOM      4  O   UNL A   1      35.998  23.615  22.811  1.00  0.00    -0.247 OA
BRANCH   3   5
ATOM      5  C   UNL A   1      33.862  24.466  23.187  1.00  0.00     0.094 C 
ATOM      6  C   UNL A   1      32.838  24.387  22.326  1.00  0.00     0.019 C 
BRANCH   6   7
ATOM      7  C   UNL A   1      31.701  25.286  22.567  1.00  0.00     0.020 A 
ATOM      8  C   UNL A   1      30.685  24.913  23.462  1.00  0.00     0.127 A 
ATOM      9  C   UNL A   1      29.661  25.812  23.770  1.00  0.00     0.051 A 
ATOM     10  C   UNL A   1      29.695  27.111  23.262  1.00  0.00     0.050 A 
ATOM     11  C   UNL A   1      31.697  26.586  22.026  1.00  0.00     0.058 A 
ATOM     12  C   UNL A   1      30.726  27.510  22.410  1.00  0.00     0.119 A 
BRANCH   8  13
ATOM     13  O   UNL A   1      30.593  23.636  23.936  1.00  0.00    -0.480 OA
BRANCH  13  14
ATOM     14  C   UNL A   1      31.203  23.346  25.192  1.00  0.00     0.258 C 
ATOM     15  C   UNL A   1      31.473  21.861  25.415  1.00  0.00     0.064 C 
BRANCH  14  16
ATOM     16  C   UNL A   1      30.829  24.114  26.490  1.00  0.00     0.260 C 
ATOM     17  N   UNL A   1      31.356  25.325  26.822  1.00  0.00    -0.353 N 
ATOM     18  H   UNL A   1      30.953  25.740  27.618  1.00  0.00     0.163 HD
ATOM     19  O   UNL A   1      30.003  23.635  27.276  1.00  0.00    -0.271 OA
BRANCH  17  20
ATOM     20  C   UNL A   1      32.408  26.107  26.202  1.00  0.00     0.112 C 
ATOM     21  C   UNL A   1      32.559  27.455  26.885  1.00  0.00     0.027 C 
ENDBRANCH  17  20
ENDBRANCH  14  16
ENDBRANCH  13  14
ENDBRANCH   8  13
BRANCH  12  22
ATOM     22  O   UNL A   1      30.682  28.816  22.005  1.00  0.00    -0.497 OA
ATOM     23  C   UNL A   1      29.493  29.524  22.353  1.00  0.00     0.278 C 
ENDBRANCH  12  22
ENDBRANCH   6   7
ENDBRANCH   3   5
ENDBRANCH   2   3
ENDBRANCH   1   2
BRANCH   1  24
ATOM     24  C   UNL A   1      36.403  21.233  25.352  1.00  0.00     0.275 C 
BRANCH  24  25
ATOM     25  O   UNL A   1      37.727  21.579  24.909  1.00  0.00    -0.458 OA
BRANCH  25  26
ATOM     26  C   UNL A   1      38.723  21.209  25.751  1.00  0.00     0.338 C 
ATOM     27  O   UNL A   1      39.157  20.085  25.939  1.00  0.00    -0.246 OA
BRANCH  26  28
ATOM     28  C   UNL A   1      39.310  22.400  26.380  1.00  0.00     0.060 A 
ATOM     29  C   UNL A   1      38.835  23.658  26.004  1.00  0.00     0.016 A 
ATOM     30  C   UNL A   1      40.408  22.280  27.229  1.00  0.00     0.016 A 
ATOM     31  C   UNL A   1      39.465  24.810  26.458  1.00  0.00     0.010 A 
ATOM     32  C   UNL A   1      41.036  23.437  27.694  1.00  0.00     0.010 A 
ATOM     33  C   UNL A   1      40.582  24.707  27.293  1.00  0.00    -0.014 A 
BRANCH  33  34
ATOM     34  C   UNL A   1      41.322  25.927  27.685  1.00  0.00     0.031 A 
ATOM     35  C   UNL A   1      40.623  26.989  28.483  1.00  0.00     0.074 A 
ATOM     36  C   UNL A   1      42.608  26.076  27.322  1.00  0.00     0.049 A 
ATOM     37  N   UNL A   1      41.049  28.175  28.829  1.00  0.00    -0.248 NA
ATOM     38  C   UNL A   1      39.262  26.677  28.950  1.00  0.00     0.031 C 
ATOM     39  C   UNL A   1      43.392  25.095  26.570  1.00  0.00     0.029 A 
ATOM     40  N   UNL A   1      43.477  27.120  27.517  1.00  0.00    -0.354 N 
ATOM     41  C   UNL A   1      39.993  28.771  29.508  1.00  0.00     0.074 A 
ATOM     42  C   UNL A   1      38.909  27.813  29.535  1.00  0.00     0.031 C 
ATOM     43  C   UNL A   1      44.618  25.593  26.346  1.00  0.00     0.029 A 
ATOM     44  C   UNL A   1      44.692  26.942  26.901  1.00  0.00     0.049 A 
ATOM     45  H   UNL A   1      43.250  27.919  28.047  1.00  0.00     0.167 HD
ATOM     46  C   UNL A   1      39.938  30.004  30.066  1.00  0.00     0.034 A 
ATOM     47  C   UNL A   1      45.734  27.786  26.770  1.00  0.00     0.034 A 
ATOM     48  C   UNL A   1      41.036  30.932  30.070  1.00  0.00     0.049 A 
ATOM     49  C   UNL A   1      45.645  29.152  27.395  1.00  0.00     0.074 A 
ATOM     50  C   UNL A   1      41.094  32.194  30.633  1.00  0.00     0.029 A 
ATOM     51  N   UNL A   1      42.270  30.697  29.484  1.00  0.00    -0.354 N 
ATOM     52  N   UNL A   1      44.668  29.674  28.098  1.00  0.00    -0.248 NA
ATOM     53  C   UNL A   1      46.806  30.037  27.229  1.00  0.00     0.031 C 
ATOM     54  C   UNL A   1      42.364  32.725  30.380  1.00  0.00     0.029 A 
ATOM     55  C   UNL A   1      43.099  31.788  29.669  1.00  0.00     0.049 A 
ATOM     56  H   UNL A   1      42.520  29.873  29.006  1.00  0.00     0.167 HD
ATOM     57  C   UNL A   1      45.105  30.938  28.478  1.00  0.00     0.074 A 
ATOM     58  C   UNL A   1      46.445  31.092  27.948  1.00  0.00     0.031 C 
ATOM     59  C   UNL A   1      44.450  31.895  29.181  1.00  0.00     0.034 A 
BRANCH  46  60
ATOM     60  C   UNL A   1      38.654  30.407  30.739  1.00  0.00     0.023 A 
ATOM     61  C   UNL A   1      38.456  30.099  32.099  1.00  0.00     0.012 A 
ATOM     62  C   UNL A   1      37.663  31.122  30.039  1.00  0.00     0.148 A 
ATOM     63  C   UNL A   1      37.279  30.473  32.747  1.00  0.00     0.002 A 
ATOM     64  C   UNL A   1      36.508  31.524  30.701  1.00  0.00     0.091 A 
ATOM     65  F   UNL A   1      37.858  31.379  28.737  1.00  0.00    -0.205 F 
ATOM     66  C   UNL A   1      36.311  31.194  32.051  1.00  0.00     0.022 A 
BRANCH  64  67
ATOM     67  S   UNL A   1      35.236  32.511  29.903  1.00  0.00     0.127 S 
ATOM     68  O   UNL A   1      36.001  33.674  29.457  1.00  0.00    -0.237 OA
ATOM     69  O   UNL A   1      34.786  31.627  28.827  1.00  0.00    -0.237 OA
ATOM     70  O   UNL A   1      34.235  32.772  30.928  1.00  0.00    -0.744 OA
ENDBRANCH  64  67
ENDBRANCH  46  60
BRANCH  47  71
ATOM     71  C   UNL A   1      46.957  27.347  26.041  1.00  0.00     0.023 A 
ATOM     72  C   UNL A   1      47.091  27.646  24.672  1.00  0.00     0.012 A 
ATOM     73  C   UNL A   1      48.004  26.676  26.703  1.00  0.00     0.148 A 
ATOM     74  C   UNL A   1      48.237  27.269  23.971  1.00  0.00     0.002 A 
ATOM     75  C   UNL A   1      49.167  26.354  26.012  1.00  0.00     0.091 A 
ATOM     76  F   UNL A   1      47.850  26.378  28.000  1.00  0.00    -0.205 F 
ATOM     77  C   UNL A   1      49.280  26.637  24.643  1.00  0.00     0.022 A 
BRANCH  75  78
ATOM     78  S   UNL A   1      50.608  25.668  26.838  1.00  0.00     0.127 S 
ATOM     79  O   UNL A   1      50.061  24.451  27.431  1.00  0.00    -0.237 OA
ATOM     80  O   UNL A   1      51.527  25.448  25.720  1.00  0.00    -0.237 OA
ATOM     81  O   UNL A   1      51.043  26.697  27.774  1.00  0.00    -0.744 OA
ENDBRANCH  75  78
ENDBRANCH  47  71
BRANCH  59  82
ATOM     82  C   UNL A   1      45.179  33.185  29.440  1.00  0.00     0.023 A 
ATOM     83  C   UNL A   1      45.045  34.253  28.531  1.00  0.00     0.012 A 
ATOM     84  C   UNL A   1      45.929  33.367  30.618  1.00  0.00     0.148 A 
ATOM     85  C   UNL A   1      45.668  35.475  28.778  1.00  0.00     0.002 A 
ATOM     86  C   UNL A   1      46.513  34.601  30.878  1.00  0.00     0.091 A 
ATOM     87  F   UNL A   1      46.064  32.331  31.458  1.00  0.00    -0.205 F 
ATOM     88  C   UNL A   1      46.390  35.653  29.956  1.00  0.00     0.022 A 
BRANCH  86  89
ATOM     89  S   UNL A   1      47.383  34.939  32.412  1.00  0.00     0.127 S 
ATOM     90  O   UNL A   1      48.516  34.020  32.322  1.00  0.00    -0.237 OA
ATOM     91  O   UNL A   1      47.732  36.353  32.272  1.00  0.00    -0.237 OA
ATOM     92  O   UNL A   1      46.429  34.661  33.477  1.00  0.00    -0.744 OA
ENDBRANCH  86  89
ENDBRANCH  59  82
ENDBRANCH  33  34
ENDBRANCH  26  28
ENDBRANCH  25  26
ENDBRANCH  24  25
ENDBRANCH   1  24
TORSDOF 20
ENDMDL
