MODEL 1
REMARK VINA RESULT:     -12.3      0.000      0.000
REMARK SMILES O=C(CNC(=O)N1CC(OCCOC(=O)c2ccc(-c3c4nc(c(-c5cccc(S(=O)(=O)[O-])c5F)c5ccc([nH]5)c(-c5cccc(S(=O)(=O)[O-])c5F)c5nc(c(-c6cccc(S(=O)(=O)[O-])c6F)c6ccc3[nH]6)C=C5)C=C4)cc2)=Nc2ccccc21)N[C@H](C(=O)[O-])c1ccccc1
REMARK SMILES IDX 11 1 10 2 9 3 7 4 8 5 85 6 80 7 84 8 79 9 81 10 83 11 82 12
REMARK SMILES IDX 5 13 4 14 6 16 3 17 2 18 1 19 86 20 87 22 91 23 92 24 96 25
REMARK SMILES IDX 93 26 95 27 94 28 88 29 89 30 90 31 12 32 13 33 14 34 15 35
REMARK SMILES IDX 16 36 17 37 78 38 18 39 77 40 19 41 20 42 21 43 71 44 22 45
REMARK SMILES IDX 76 46 70 47 72 48 23 49 75 50 69 51 68 52 24 54 56 55 36 56
REMARK SMILES IDX 55 57 37 58 40 59 54 60 73 61 38 62 39 63 53 65 74 66 41 67
REMARK SMILES IDX 25 68 26 69 34 70 27 71 29 72 35 73 28 74 30 75 31 76 32 77
REMARK SMILES IDX 33 78 57 79 58 80 66 81 59 82 61 83 67 84 60 85 62 86 63 87
REMARK SMILES IDX 64 88 65 89 42 90 43 91 51 92 44 93 46 94 52 95 45 96 47 97
REMARK SMILES IDX 48 98 49 99 50 100
REMARK H PARENT 4 15 86 21 72 53 40 64
REMARK Flexibility Score: inf
ROOT
ATOM      1  C   UNL A   1      37.008  19.793  24.985  1.00  0.00     0.272 C 
ENDROOT
BRANCH   1   2
ATOM      2  O   UNL A   1      36.463  21.122  24.805  1.00  0.00    -0.476 OA
BRANCH   2   3
ATOM      3  C   UNL A   1      35.149  21.290  25.086  1.00  0.00     0.209 C 
ATOM      4  N   UNL A   1      33.083  21.755  23.891  1.00  0.00    -0.283 N 
ATOM      5  C   UNL A   1      34.231  20.859  23.972  1.00  0.00     0.224 C 
ATOM      6  C   UNL A   1      32.502  22.069  25.171  1.00  0.00     0.072 A 
ATOM      7  C   UNL A   1      33.365  22.052  26.309  1.00  0.00     0.091 A 
ATOM      8  C   UNL A   1      31.203  22.567  25.318  1.00  0.00     0.029 A 
ATOM      9  N   UNL A   1      34.739  21.760  26.216  1.00  0.00    -0.214 NA
ATOM     10  C   UNL A   1      32.932  22.575  27.531  1.00  0.00     0.030 A 
ATOM     11  C   UNL A   1      30.790  23.088  26.556  1.00  0.00     0.002 A 
ATOM     12  C   UNL A   1      31.654  23.106  27.652  1.00  0.00     0.002 A 
BRANCH   4  13
ATOM     13  C   UNL A   1      32.424  21.748  22.691  1.00  0.00     0.322 C 
ATOM     14  N   UNL A   1      32.608  22.802  21.834  1.00  0.00    -0.329 N 
ATOM     15  H   UNL A   1      32.659  22.559  20.882  1.00  0.00     0.165 HD
ATOM     16  O   UNL A   1      31.891  20.732  22.241  1.00  0.00    -0.248 OA
BRANCH  14  17
ATOM     17  C   UNL A   1      32.741  24.230  22.116  1.00  0.00     0.218 C 
BRANCH  17  18
ATOM     18  C   UNL A   1      31.622  25.098  22.755  1.00  0.00     0.240 C 
ATOM     19  O   UNL A   1      30.498  24.623  22.916  1.00  0.00    -0.273 OA
ATOM     20  N   UNL A   1      31.895  26.435  22.938  1.00  0.00    -0.342 N 
ATOM     21  H   UNL A   1      32.792  26.751  22.688  1.00  0.00     0.164 HD
BRANCH  20  22
ATOM     22  C   UNL A   1      30.944  27.437  23.483  1.00  0.00     0.158 C 
BRANCH  22  23
ATOM     23  C   UNL A   1      31.226  27.990  24.887  1.00  0.00    -0.020 A 
ATOM     24  C   UNL A   1      31.122  27.172  26.022  1.00  0.00     0.006 A 
ATOM     25  C   UNL A   1      31.561  29.346  25.095  1.00  0.00     0.006 A 
ATOM     26  C   UNL A   1      31.452  27.657  27.291  1.00  0.00     0.000 A 
ATOM     27  C   UNL A   1      31.884  29.832  26.364  1.00  0.00     0.000 A 
ATOM     28  C   UNL A   1      31.848  28.981  27.460  1.00  0.00     0.000 A 
ENDBRANCH  22  23
BRANCH  22  29
ATOM     29  C   UNL A   1      30.612  28.559  22.468  1.00  0.00     0.068 C 
ATOM     30  O   UNL A   1      31.354  29.363  21.937  1.00  0.00    -0.548 OA
ATOM     31  O   UNL A   1      29.279  28.645  22.213  1.00  0.00    -0.548 OA
ENDBRANCH  22  29
ENDBRANCH  20  22
ENDBRANCH  17  18
ENDBRANCH  14  17
ENDBRANCH   4  13
ENDBRANCH   2   3
ENDBRANCH   1   2
BRANCH   1  32
ATOM     32  C   UNL A   1      38.547  19.769  24.971  1.00  0.00     0.274 C 
BRANCH  32  33
ATOM     33  O   UNL A   1      39.186  19.732  26.272  1.00  0.00    -0.458 OA
BRANCH  33  34
ATOM     34  C   UNL A   1      40.540  19.772  26.220  1.00  0.00     0.338 C 
ATOM     35  O   UNL A   1      41.218  18.960  25.596  1.00  0.00    -0.246 OA
BRANCH  34  36
ATOM     36  C   UNL A   1      41.143  21.014  26.783  1.00  0.00     0.060 A 
ATOM     37  C   UNL A   1      40.999  22.113  25.950  1.00  0.00     0.016 A 
ATOM     38  C   UNL A   1      41.896  21.184  27.941  1.00  0.00     0.016 A 
ATOM     39  C   UNL A   1      41.513  23.366  26.228  1.00  0.00     0.010 A 
ATOM     40  C   UNL A   1      42.432  22.470  28.249  1.00  0.00     0.010 A 
ATOM     41  C   UNL A   1      42.218  23.574  27.400  1.00  0.00    -0.014 A 
BRANCH  41  42
ATOM     42  C   UNL A   1      42.632  24.982  27.641  1.00  0.00     0.031 A 
ATOM     43  C   UNL A   1      43.902  25.524  27.049  1.00  0.00     0.074 A 
ATOM     44  C   UNL A   1      41.725  25.856  28.125  1.00  0.00     0.049 A 
ATOM     45  N   UNL A   1      44.389  26.737  27.119  1.00  0.00    -0.248 NA
ATOM     46  C   UNL A   1      44.701  24.597  26.235  1.00  0.00     0.031 C 
ATOM     47  C   UNL A   1      40.356  25.508  28.503  1.00  0.00     0.029 A 
ATOM     48  N   UNL A   1      41.793  27.213  28.332  1.00  0.00    -0.354 N 
ATOM     49  C   UNL A   1      45.587  26.706  26.417  1.00  0.00     0.074 A 
ATOM     50  C   UNL A   1      45.714  25.372  25.867  1.00  0.00     0.031 C 
ATOM     51  C   UNL A   1      39.711  26.622  28.885  1.00  0.00     0.029 A 
ATOM     52  C   UNL A   1      40.642  27.747  28.865  1.00  0.00     0.049 A 
ATOM     53  H   UNL A   1      42.589  27.752  28.119  1.00  0.00     0.167 HD
ATOM     54  C   UNL A   1      46.511  27.687  26.284  1.00  0.00     0.034 A 
ATOM     55  C   UNL A   1      40.384  28.985  29.338  1.00  0.00     0.034 A 
ATOM     56  C   UNL A   1      46.383  29.009  26.842  1.00  0.00     0.049 A 
ATOM     57  C   UNL A   1      41.483  30.016  29.312  1.00  0.00     0.074 A 
ATOM     58  C   UNL A   1      47.314  30.034  26.853  1.00  0.00     0.029 A 
ATOM     59  N   UNL A   1      45.262  29.487  27.502  1.00  0.00    -0.354 N 
ATOM     60  N   UNL A   1      42.659  29.956  28.735  1.00  0.00    -0.248 NA
ATOM     61  C   UNL A   1      41.228  31.281  30.018  1.00  0.00     0.031 C 
ATOM     62  C   UNL A   1      46.771  31.114  27.559  1.00  0.00     0.029 A 
ATOM     63  C   UNL A   1      45.482  30.782  27.942  1.00  0.00     0.049 A 
ATOM     64  H   UNL A   1      44.429  28.979  27.638  1.00  0.00     0.167 HD
ATOM     65  C   UNL A   1      43.279  31.171  29.001  1.00  0.00     0.074 A 
ATOM     66  C   UNL A   1      42.335  31.965  29.760  1.00  0.00     0.031 C 
ATOM     67  C   UNL A   1      44.527  31.582  28.666  1.00  0.00     0.034 A 
BRANCH  54  68
ATOM     68  C   UNL A   1      47.800  27.325  25.598  1.00  0.00     0.023 A 
ATOM     69  C   UNL A   1      48.874  26.771  26.320  1.00  0.00     0.012 A 
ATOM     70  C   UNL A   1      47.929  27.529  24.209  1.00  0.00     0.148 A 
ATOM     71  C   UNL A   1      50.072  26.461  25.674  1.00  0.00     0.002 A 
ATOM     72  C   UNL A   1      49.109  27.180  23.567  1.00  0.00     0.091 A 
ATOM     73  F   UNL A   1      46.900  28.077  23.548  1.00  0.00    -0.205 F 
ATOM     74  C   UNL A   1      50.186  26.657  24.299  1.00  0.00     0.022 A 
BRANCH  72  75
ATOM     75  S   UNL A   1      49.321  27.334  21.790  1.00  0.00     0.127 S 
ATOM     76  O   UNL A   1      48.826  28.689  21.550  1.00  0.00    -0.237 OA
ATOM     77  O   UNL A   1      50.768  27.178  21.639  1.00  0.00    -0.237 OA
ATOM     78  O   UNL A   1      48.529  26.266  21.193  1.00  0.00    -0.744 OA
ENDBRANCH  72  75
ENDBRANCH  54  68
BRANCH  55  79
ATOM     79  C   UNL A   1      39.060  29.303  29.954  1.00  0.00     0.023 A 
ATOM     80  C   UNL A   1      38.755  28.857  31.255  1.00  0.00     0.012 A 
ATOM     81  C   UNL A   1      38.090  30.036  29.241  1.00  0.00     0.148 A 
ATOM     82  C   UNL A   1      37.505  29.121  31.822  1.00  0.00     0.002 A 
ATOM     83  C   UNL A   1      36.881  30.362  29.842  1.00  0.00     0.091 A 
ATOM     84  F   UNL A   1      38.369  30.405  27.983  1.00  0.00    -0.205 F 
ATOM     85  C   UNL A   1      36.576  29.888  31.124  1.00  0.00     0.022 A 
BRANCH  83  86
ATOM     86  S   UNL A   1      35.702  31.474  29.066  1.00  0.00     0.127 S 
ATOM     87  O   UNL A   1      35.035  32.061  30.225  1.00  0.00    -0.237 OA
ATOM     88  O   UNL A   1      36.583  32.384  28.334  1.00  0.00    -0.237 OA
ATOM     89  O   UNL A   1      34.872  30.633  28.215  1.00  0.00    -0.744 OA
ENDBRANCH  83  86
ENDBRANCH  55  79
BRANCH  67  90
ATOM     90  C   UNL A   1      44.946  32.967  29.090  1.00  0.00     0.023 A 
ATOM     91  C   UNL A   1      45.668  33.153  30.285  1.00  0.00     0.012 A 
ATOM     92  C   UNL A   1      44.687  34.078  28.261  1.00  0.00     0.148 A 
ATOM     93  C   UNL A   1      46.095  34.426  30.667  1.00  0.00     0.002 A 
ATOM     94  C   UNL A   1      45.159  35.335  28.622  1.00  0.00     0.091 A 
ATOM     95  F   UNL A   1      43.984  33.884  27.136  1.00  0.00    -0.205 F 
ATOM     96  C   UNL A   1      45.851  35.513  29.831  1.00  0.00     0.022 A 
BRANCH  94  97
ATOM     97  S   UNL A   1      44.975  36.775  27.565  1.00  0.00     0.127 S 
ATOM     98  O   UNL A   1      45.226  37.868  28.504  1.00  0.00    -0.237 OA
ATOM     99  O   UNL A   1      46.031  36.567  26.574  1.00  0.00    -0.237 OA
ATOM    100  O   UNL A   1      43.622  36.714  27.030  1.00  0.00    -0.744 OA
ENDBRANCH  94  97
ENDBRANCH  67  90
ENDBRANCH  41  42
ENDBRANCH  34  36
ENDBRANCH  33  34
ENDBRANCH  32  33
ENDBRANCH   1  32
TORSDOF 19
ENDMDL
MODEL 2
REMARK VINA RESULT:     -12.1      1.309      2.121
REMARK SMILES O=C(CNC(=O)N1CC(OCCOC(=O)c2ccc(-c3c4nc(c(-c5cccc(S(=O)(=O)[O-])c5F)c5ccc([nH]5)c(-c5cccc(S(=O)(=O)[O-])c5F)c5nc(c(-c6cccc(S(=O)(=O)[O-])c6F)c6ccc3[nH]6)C=C5)C=C4)cc2)=Nc2ccccc21)N[C@H](C(=O)[O-])c1ccccc1
REMARK SMILES IDX 11 1 10 2 9 3 7 4 8 5 85 6 80 7 84 8 79 9 81 10 83 11 82 12
REMARK SMILES IDX 5 13 4 14 6 16 3 17 2 18 1 19 86 20 87 22 91 23 92 24 96 25
REMARK SMILES IDX 93 26 95 27 94 28 88 29 89 30 90 31 12 32 13 33 14 34 15 35
REMARK SMILES IDX 16 36 17 37 78 38 18 39 77 40 19 41 20 42 21 43 71 44 22 45
REMARK SMILES IDX 76 46 70 47 72 48 23 49 75 50 69 51 68 52 24 54 56 55 36 56
REMARK SMILES IDX 55 57 37 58 40 59 54 60 73 61 38 62 39 63 53 65 74 66 41 67
REMARK SMILES IDX 25 68 26 69 34 70 27 71 29 72 35 73 28 74 30 75 31 76 32 77
REMARK SMILES IDX 33 78 57 79 58 80 66 81 59 82 61 83 67 84 60 85 62 86 63 87
REMARK SMILES IDX 64 88 65 89 42 90 43 91 51 92 44 93 46 94 52 95 45 96 47 97
REMARK SMILES IDX 48 98 49 99 50 100
REMARK H PARENT 4 15 86 21 72 53 40 64
REMARK Flexibility Score: inf
ROOT
ATOM      1  C   UNL A   1      38.096  21.414  25.118  1.00  0.00     0.272 C 
ENDROOT
BRANCH   1   2
ATOM      2  O   UNL A   1      36.775  21.665  25.653  1.00  0.00    -0.476 OA
BRANCH   2   3
ATOM      3  C   UNL A   1      35.745  20.995  25.085  1.00  0.00     0.209 C 
ATOM      4  N   UNL A   1      33.327  21.184  24.921  1.00  0.00    -0.283 N 
ATOM      5  C   UNL A   1      34.590  21.878  24.694  1.00  0.00     0.224 C 
ATOM      6  C   UNL A   1      33.326  19.818  24.465  1.00  0.00     0.072 A 
ATOM      7  C   UNL A   1      34.575  19.125  24.458  1.00  0.00     0.091 A 
ATOM      8  C   UNL A   1      32.153  19.096  24.220  1.00  0.00     0.029 A 
ATOM      9  N   UNL A   1      35.776  19.719  24.887  1.00  0.00    -0.214 NA
ATOM     10  C   UNL A   1      34.613  17.742  24.261  1.00  0.00     0.030 A 
ATOM     11  C   UNL A   1      32.216  17.706  24.025  1.00  0.00     0.002 A 
ATOM     12  C   UNL A   1      33.437  17.030  24.061  1.00  0.00     0.002 A 
BRANCH   4  13
ATOM     13  C   UNL A   1      32.228  21.996  25.026  1.00  0.00     0.322 C 
ATOM     14  N   UNL A   1      31.770  22.630  23.902  1.00  0.00    -0.329 N 
ATOM     15  H   UNL A   1      30.790  22.683  23.825  1.00  0.00     0.165 HD
ATOM     16  O   UNL A   1      31.488  21.972  26.012  1.00  0.00    -0.248 OA
BRANCH  14  17
ATOM     17  C   UNL A   1      32.510  23.240  22.799  1.00  0.00     0.218 C 
BRANCH  17  18
ATOM     18  C   UNL A   1      32.731  24.770  22.641  1.00  0.00     0.240 C 
ATOM     19  O   UNL A   1      33.694  25.185  21.999  1.00  0.00    -0.273 OA
ATOM     20  N   UNL A   1      31.931  25.598  23.397  1.00  0.00    -0.342 N 
ATOM     21  H   UNL A   1      31.246  25.173  23.962  1.00  0.00     0.164 HD
BRANCH  20  22
ATOM     22  C   UNL A   1      32.020  27.080  23.428  1.00  0.00     0.158 C 
BRANCH  22  23
ATOM     23  C   UNL A   1      30.749  27.872  23.089  1.00  0.00    -0.020 A 
ATOM     24  C   UNL A   1      30.816  29.086  22.390  1.00  0.00     0.006 A 
ATOM     25  C   UNL A   1      29.471  27.432  23.499  1.00  0.00     0.006 A 
ATOM     26  C   UNL A   1      29.654  29.767  22.017  1.00  0.00     0.000 A 
ATOM     27  C   UNL A   1      28.310  28.116  23.132  1.00  0.00     0.000 A 
ATOM     28  C   UNL A   1      28.402  29.275  22.374  1.00  0.00     0.000 A 
ENDBRANCH  22  23
BRANCH  22  29
ATOM     29  C   UNL A   1      32.715  27.610  24.707  1.00  0.00     0.068 C 
ATOM     30  O   UNL A   1      32.268  28.311  25.595  1.00  0.00    -0.548 OA
ATOM     31  O   UNL A   1      34.027  27.254  24.765  1.00  0.00    -0.548 OA
ENDBRANCH  22  29
ENDBRANCH  20  22
ENDBRANCH  17  18
ENDBRANCH  14  17
ENDBRANCH   4  13
ENDBRANCH   2   3
ENDBRANCH   1   2
BRANCH   1  32
ATOM     32  C   UNL A   1      39.037  20.740  26.132  1.00  0.00     0.274 C 
BRANCH  32  33
ATOM     33  O   UNL A   1      39.829  19.640  25.618  1.00  0.00    -0.458 OA
BRANCH  33  34
ATOM     34  C   UNL A   1      41.105  19.622  26.074  1.00  0.00     0.338 C 
ATOM     35  O   UNL A   1      41.893  18.708  25.844  1.00  0.00    -0.246 OA
BRANCH  34  36
ATOM     36  C   UNL A   1      41.564  20.905  26.681  1.00  0.00     0.060 A 
ATOM     37  C   UNL A   1      41.717  21.921  25.750  1.00  0.00     0.016 A 
ATOM     38  C   UNL A   1      41.945  21.176  27.991  1.00  0.00     0.016 A 
ATOM     39  C   UNL A   1      42.175  23.189  26.057  1.00  0.00     0.010 A 
ATOM     40  C   UNL A   1      42.416  22.479  28.332  1.00  0.00     0.010 A 
ATOM     41  C   UNL A   1      42.508  23.499  27.364  1.00  0.00    -0.014 A 
BRANCH  41  42
ATOM     42  C   UNL A   1      42.888  24.918  27.593  1.00  0.00     0.031 A 
ATOM     43  C   UNL A   1      44.160  25.478  27.023  1.00  0.00     0.074 A 
ATOM     44  C   UNL A   1      41.952  25.780  28.044  1.00  0.00     0.049 A 
ATOM     45  N   UNL A   1      44.621  26.701  27.086  1.00  0.00    -0.248 NA
ATOM     46  C   UNL A   1      44.996  24.556  26.241  1.00  0.00     0.031 C 
ATOM     47  C   UNL A   1      40.582  25.410  28.396  1.00  0.00     0.029 A 
ATOM     48  N   UNL A   1      41.989  27.141  28.232  1.00  0.00    -0.354 N 
ATOM     49  C   UNL A   1      45.835  26.684  26.412  1.00  0.00     0.074 A 
ATOM     50  C   UNL A   1      46.002  25.346  25.885  1.00  0.00     0.031 C 
ATOM     51  C   UNL A   1      39.906  26.516  28.746  1.00  0.00     0.029 A 
ATOM     52  C   UNL A   1      40.815  27.660  28.731  1.00  0.00     0.049 A 
ATOM     53  H   UNL A   1      42.779  27.693  28.029  1.00  0.00     0.167 HD
ATOM     54  C   UNL A   1      46.742  27.683  26.285  1.00  0.00     0.034 A 
ATOM     55  C   UNL A   1      40.521  28.899  29.179  1.00  0.00     0.034 A 
ATOM     56  C   UNL A   1      46.575  29.010  26.821  1.00  0.00     0.049 A 
ATOM     57  C   UNL A   1      41.599  29.951  29.163  1.00  0.00     0.074 A 
ATOM     58  C   UNL A   1      47.485  30.054  26.838  1.00  0.00     0.029 A 
ATOM     59  N   UNL A   1      45.429  29.474  27.448  1.00  0.00    -0.354 N 
ATOM     60  N   UNL A   1      42.789  29.907  28.614  1.00  0.00    -0.248 NA
ATOM     61  C   UNL A   1      41.303  31.221  29.844  1.00  0.00     0.031 C 
ATOM     62  C   UNL A   1      46.904  31.132  27.516  1.00  0.00     0.029 A 
ATOM     63  C   UNL A   1      45.613  30.780  27.874  1.00  0.00     0.049 A 
ATOM     64  H   UNL A   1      44.603  28.951  27.572  1.00  0.00     0.167 HD
ATOM     65  C   UNL A   1      43.378  31.138  28.876  1.00  0.00     0.074 A 
ATOM     66  C   UNL A   1      42.401  31.924  29.601  1.00  0.00     0.031 C 
ATOM     67  C   UNL A   1      44.625  31.570  28.564  1.00  0.00     0.034 A 
BRANCH  54  68
ATOM     68  C   UNL A   1      48.054  27.337  25.635  1.00  0.00     0.023 A 
ATOM     69  C   UNL A   1      49.137  26.861  26.397  1.00  0.00     0.012 A 
ATOM     70  C   UNL A   1      48.195  27.478  24.239  1.00  0.00     0.148 A 
ATOM     71  C   UNL A   1      50.356  26.566  25.782  1.00  0.00     0.002 A 
ATOM     72  C   UNL A   1      49.396  27.143  23.630  1.00  0.00     0.091 A 
ATOM     73  F   UNL A   1      47.156  27.952  23.538  1.00  0.00    -0.205 F 
ATOM     74  C   UNL A   1      50.482  26.699  24.401  1.00  0.00     0.022 A 
BRANCH  72  75
ATOM     75  S   UNL A   1      49.628  27.217  21.851  1.00  0.00     0.127 S 
ATOM     76  O   UNL A   1      49.389  28.634  21.581  1.00  0.00    -0.237 OA
ATOM     77  O   UNL A   1      51.022  26.795  21.705  1.00  0.00    -0.237 OA
ATOM     78  O   UNL A   1      48.653  26.300  21.276  1.00  0.00    -0.744 OA
ENDBRANCH  72  75
ENDBRANCH  54  68
BRANCH  55  79
ATOM     79  C   UNL A   1      39.177  29.198  29.760  1.00  0.00     0.023 A 
ATOM     80  C   UNL A   1      38.855  28.776  31.064  1.00  0.00     0.012 A 
ATOM     81  C   UNL A   1      38.204  29.890  29.009  1.00  0.00     0.148 A 
ATOM     82  C   UNL A   1      37.588  29.023  31.600  1.00  0.00     0.002 A 
ATOM     83  C   UNL A   1      36.976  30.200  29.576  1.00  0.00     0.091 A 
ATOM     84  F   UNL A   1      38.501  30.235  27.749  1.00  0.00    -0.205 F 
ATOM     85  C   UNL A   1      36.655  29.749  30.864  1.00  0.00     0.022 A 
BRANCH  83  86
ATOM     86  S   UNL A   1      35.787  31.263  28.750  1.00  0.00     0.127 S 
ATOM     87  O   UNL A   1      36.634  32.361  28.291  1.00  0.00    -0.237 OA
ATOM     88  O   UNL A   1      35.284  30.387  27.691  1.00  0.00    -0.237 OA
ATOM     89  O   UNL A   1      34.797  31.605  29.762  1.00  0.00    -0.744 OA
ENDBRANCH  83  86
ENDBRANCH  55  79
BRANCH  67  90
ATOM     90  C   UNL A   1      45.007  32.970  28.976  1.00  0.00     0.023 A 
ATOM     91  C   UNL A   1      45.690  33.188  30.189  1.00  0.00     0.012 A 
ATOM     92  C   UNL A   1      44.751  34.062  28.122  1.00  0.00     0.148 A 
ATOM     93  C   UNL A   1      46.083  34.475  30.561  1.00  0.00     0.002 A 
ATOM     94  C   UNL A   1      45.189  35.333  28.475  1.00  0.00     0.091 A 
ATOM     95  F   UNL A   1      44.084  33.836  26.981  1.00  0.00    -0.205 F 
ATOM     96  C   UNL A   1      45.842  35.543  29.701  1.00  0.00     0.022 A 
BRANCH  94  97
ATOM     97  S   UNL A   1      45.009  36.752  27.390  1.00  0.00     0.127 S 
ATOM     98  O   UNL A   1      45.307  37.860  28.297  1.00  0.00    -0.237 OA
ATOM     99  O   UNL A   1      46.036  36.499  26.379  1.00  0.00    -0.237 OA
ATOM    100  O   UNL A   1      43.642  36.709  26.890  1.00  0.00    -0.744 OA
ENDBRANCH  94  97
ENDBRANCH  67  90
ENDBRANCH  41  42
ENDBRANCH  34  36
ENDBRANCH  33  34
ENDBRANCH  32  33
ENDBRANCH   1  32
TORSDOF 19
ENDMDL
MODEL 3
REMARK VINA RESULT:     -11.3      1.768      7.398
REMARK SMILES O=C(CNC(=O)N1CC(OCCOC(=O)c2ccc(-c3c4nc(c(-c5cccc(S(=O)(=O)[O-])c5F)c5ccc([nH]5)c(-c5cccc(S(=O)(=O)[O-])c5F)c5nc(c(-c6cccc(S(=O)(=O)[O-])c6F)c6ccc3[nH]6)C=C5)C=C4)cc2)=Nc2ccccc21)N[C@H](C(=O)[O-])c1ccccc1
REMARK SMILES IDX 11 1 10 2 9 3 7 4 8 5 85 6 80 7 84 8 79 9 81 10 83 11 82 12
REMARK SMILES IDX 5 13 4 14 6 16 3 17 2 18 1 19 86 20 87 22 91 23 92 24 96 25
REMARK SMILES IDX 93 26 95 27 94 28 88 29 89 30 90 31 12 32 13 33 14 34 15 35
REMARK SMILES IDX 16 36 17 37 78 38 18 39 77 40 19 41 20 42 21 43 71 44 22 45
REMARK SMILES IDX 76 46 70 47 72 48 23 49 75 50 69 51 68 52 24 54 56 55 36 56
REMARK SMILES IDX 55 57 37 58 40 59 54 60 73 61 38 62 39 63 53 65 74 66 41 67
REMARK SMILES IDX 25 68 26 69 34 70 27 71 29 72 35 73 28 74 30 75 31 76 32 77
REMARK SMILES IDX 33 78 57 79 58 80 66 81 59 82 61 83 67 84 60 85 62 86 63 87
REMARK SMILES IDX 64 88 65 89 42 90 43 91 51 92 44 93 46 94 52 95 45 96 47 97
REMARK SMILES IDX 48 98 49 99 50 100
REMARK H PARENT 4 15 86 21 72 53 40 64
REMARK Flexibility Score: inf
ROOT
ATOM      1  C   UNL A   1      38.529  21.378  25.313  1.00  0.00     0.272 C 
ENDROOT
BRANCH   1   2
ATOM      2  O   UNL A   1      37.297  21.994  25.757  1.00  0.00    -0.476 OA
BRANCH   2   3
ATOM      3  C   UNL A   1      36.143  21.377  25.411  1.00  0.00     0.209 C 
ATOM      4  N   UNL A   1      33.793  21.443  26.031  1.00  0.00    -0.283 N 
ATOM      5  C   UNL A   1      34.921  22.243  25.569  1.00  0.00     0.224 C 
ATOM      6  C   UNL A   1      33.653  20.186  25.341  1.00  0.00     0.072 A 
ATOM      7  C   UNL A   1      34.839  19.585  24.819  1.00  0.00     0.091 A 
ATOM      8  C   UNL A   1      32.464  19.451  25.329  1.00  0.00     0.029 A 
ATOM      9  N   UNL A   1      36.113  20.164  24.969  1.00  0.00    -0.214 NA
ATOM     10  C   UNL A   1      34.817  18.267  24.355  1.00  0.00     0.030 A 
ATOM     11  C   UNL A   1      32.465  18.126  24.858  1.00  0.00     0.002 A 
ATOM     12  C   UNL A   1      33.638  17.532  24.388  1.00  0.00     0.002 A 
BRANCH   4  13
ATOM     13  C   UNL A   1      32.780  22.151  26.621  1.00  0.00     0.322 C 
ATOM     14  N   UNL A   1      31.665  22.445  25.880  1.00  0.00    -0.329 N 
ATOM     15  H   UNL A   1      30.814  22.387  26.369  1.00  0.00     0.165 HD
ATOM     16  O   UNL A   1      32.711  22.302  27.842  1.00  0.00    -0.248 OA
BRANCH  14  17
ATOM     17  C   UNL A   1      31.546  22.831  24.475  1.00  0.00     0.218 C 
BRANCH  17  18
ATOM     18  C   UNL A   1      30.995  24.202  23.994  1.00  0.00     0.240 C 
ATOM     19  O   UNL A   1      30.114  24.239  23.136  1.00  0.00    -0.273 OA
ATOM     20  N   UNL A   1      31.663  25.328  24.421  1.00  0.00    -0.342 N 
ATOM     21  H   UNL A   1      32.422  25.199  25.033  1.00  0.00     0.164 HD
BRANCH  20  22
ATOM     22  C   UNL A   1      31.327  26.722  24.033  1.00  0.00     0.158 C 
BRANCH  22  23
ATOM     23  C   UNL A   1      31.464  27.808  25.109  1.00  0.00    -0.020 A 
ATOM     24  C   UNL A   1      31.615  27.473  26.463  1.00  0.00     0.006 A 
ATOM     25  C   UNL A   1      31.406  29.182  24.787  1.00  0.00     0.006 A 
ATOM     26  C   UNL A   1      31.815  28.461  27.431  1.00  0.00     0.000 A 
ATOM     27  C   UNL A   1      31.599  30.170  25.755  1.00  0.00     0.000 A 
ATOM     28  C   UNL A   1      31.823  29.807  27.076  1.00  0.00     0.000 A 
ENDBRANCH  22  23
BRANCH  22  29
ATOM     29  C   UNL A   1      31.978  27.142  22.692  1.00  0.00     0.068 C 
ATOM     30  O   UNL A   1      33.091  27.583  22.479  1.00  0.00    -0.548 OA
ATOM     31  O   UNL A   1      31.117  27.028  21.644  1.00  0.00    -0.548 OA
ENDBRANCH  22  29
ENDBRANCH  20  22
ENDBRANCH  17  18
ENDBRANCH  14  17
ENDBRANCH   4  13
ENDBRANCH   2   3
ENDBRANCH   1   2
BRANCH   1  32
ATOM     32  C   UNL A   1      39.614  21.352  26.405  1.00  0.00     0.274 C 
BRANCH  32  33
ATOM     33  O   UNL A   1      40.556  20.253  26.328  1.00  0.00    -0.458 OA
BRANCH  33  34
ATOM     34  C   UNL A   1      41.846  20.644  26.181  1.00  0.00     0.338 C 
ATOM     35  O   UNL A   1      42.628  20.115  25.396  1.00  0.00    -0.246 OA
BRANCH  34  36
ATOM     36  C   UNL A   1      42.187  21.921  26.871  1.00  0.00     0.060 A 
ATOM     37  C   UNL A   1      42.350  22.984  25.996  1.00  0.00     0.016 A 
ATOM     38  C   UNL A   1      42.458  22.154  28.217  1.00  0.00     0.016 A 
ATOM     39  C   UNL A   1      42.713  24.260  26.388  1.00  0.00     0.010 A 
ATOM     40  C   UNL A   1      42.830  23.463  28.643  1.00  0.00     0.010 A 
ATOM     41  C   UNL A   1      42.934  24.529  27.728  1.00  0.00    -0.014 A 
BRANCH  41  42
ATOM     42  C   UNL A   1      43.217  25.954  28.042  1.00  0.00     0.031 A 
ATOM     43  C   UNL A   1      42.156  26.839  28.633  1.00  0.00     0.074 A 
ATOM     44  C   UNL A   1      44.500  26.371  28.088  1.00  0.00     0.049 A 
ATOM     45  N   UNL A   1      42.245  28.089  29.010  1.00  0.00    -0.248 NA
ATOM     46  C   UNL A   1      40.842  26.225  28.876  1.00  0.00     0.031 C 
ATOM     47  C   UNL A   1      45.657  25.531  27.783  1.00  0.00     0.029 A 
ATOM     48  N   UNL A   1      45.050  27.575  28.456  1.00  0.00    -0.354 N 
ATOM     49  C   UNL A   1      40.982  28.437  29.471  1.00  0.00     0.074 A 
ATOM     50  C   UNL A   1      40.166  27.242  29.396  1.00  0.00     0.031 C 
ATOM     51  C   UNL A   1      46.778  26.240  27.987  1.00  0.00     0.029 A 
ATOM     52  C   UNL A   1      46.421  27.610  28.350  1.00  0.00     0.049 A 
ATOM     53  H   UNL A   1      44.513  28.340  28.768  1.00  0.00     0.167 HD
ATOM     54  C   UNL A   1      40.538  29.650  29.878  1.00  0.00     0.034 A 
ATOM     55  C   UNL A   1      47.287  28.638  28.472  1.00  0.00     0.034 A 
ATOM     56  C   UNL A   1      41.352  30.838  29.941  1.00  0.00     0.049 A 
ATOM     57  C   UNL A   1      46.746  30.010  28.780  1.00  0.00     0.074 A 
ATOM     58  C   UNL A   1      40.965  32.134  30.235  1.00  0.00     0.029 A 
ATOM     59  N   UNL A   1      42.715  30.879  29.693  1.00  0.00    -0.354 N 
ATOM     60  N   UNL A   1      45.530  30.362  29.119  1.00  0.00    -0.248 NA
ATOM     61  C   UNL A   1      47.693  31.134  28.703  1.00  0.00     0.031 C 
ATOM     62  C   UNL A   1      42.086  32.965  30.119  1.00  0.00     0.029 A 
ATOM     63  C   UNL A   1      43.182  32.179  29.806  1.00  0.00     0.049 A 
ATOM     64  H   UNL A   1      43.272  30.097  29.469  1.00  0.00     0.167 HD
ATOM     65  C   UNL A   1      45.566  31.739  29.304  1.00  0.00     0.074 A 
ATOM     66  C   UNL A   1      46.933  32.156  29.074  1.00  0.00     0.031 C 
ATOM     67  C   UNL A   1      44.551  32.584  29.612  1.00  0.00     0.034 A 
BRANCH  54  68
ATOM     68  C   UNL A   1      39.069  29.778  30.176  1.00  0.00     0.023 A 
ATOM     69  C   UNL A   1      38.562  29.490  31.457  1.00  0.00     0.012 A 
ATOM     70  C   UNL A   1      38.189  30.206  29.161  1.00  0.00     0.148 A 
ATOM     71  C   UNL A   1      37.193  29.591  31.712  1.00  0.00     0.002 A 
ATOM     72  C   UNL A   1      36.836  30.344  29.434  1.00  0.00     0.091 A 
ATOM     73  F   UNL A   1      38.693  30.454  27.944  1.00  0.00    -0.205 F 
ATOM     74  C   UNL A   1      36.333  30.025  30.705  1.00  0.00     0.022 A 
BRANCH  72  75
ATOM     75  S   UNL A   1      35.665  30.960  28.220  1.00  0.00     0.127 S 
ATOM     76  O   UNL A   1      36.334  32.175  27.755  1.00  0.00    -0.237 OA
ATOM     77  O   UNL A   1      35.632  29.871  27.244  1.00  0.00    -0.237 OA
ATOM     78  O   UNL A   1      34.413  31.173  28.935  1.00  0.00    -0.744 OA
ENDBRANCH  72  75
ENDBRANCH  54  68
BRANCH  55  79
ATOM     79  C   UNL A   1      48.747  28.437  28.223  1.00  0.00     0.023 A 
ATOM     80  C   UNL A   1      49.632  28.240  29.301  1.00  0.00     0.012 A 
ATOM     81  C   UNL A   1      49.265  28.459  26.912  1.00  0.00     0.148 A 
ATOM     82  C   UNL A   1      51.003  28.087  29.076  1.00  0.00     0.002 A 
ATOM     83  C   UNL A   1      50.616  28.227  26.692  1.00  0.00     0.091 A 
ATOM     84  F   UNL A   1      48.423  28.705  25.899  1.00  0.00    -0.205 F 
ATOM     85  C   UNL A   1      51.493  28.063  27.773  1.00  0.00     0.022 A 
BRANCH  83  86
ATOM     86  S   UNL A   1      51.291  28.027  25.039  1.00  0.00     0.127 S 
ATOM     87  O   UNL A   1      51.251  29.395  24.530  1.00  0.00    -0.237 OA
ATOM     88  O   UNL A   1      52.631  27.511  25.320  1.00  0.00    -0.237 OA
ATOM     89  O   UNL A   1      50.413  27.075  24.371  1.00  0.00    -0.744 OA
ENDBRANCH  83  86
ENDBRANCH  55  79
BRANCH  67  90
ATOM     90  C   UNL A   1      44.877  34.050  29.751  1.00  0.00     0.023 A 
ATOM     91  C   UNL A   1      45.374  34.551  30.971  1.00  0.00     0.012 A 
ATOM     92  C   UNL A   1      44.759  34.918  28.646  1.00  0.00     0.148 A 
ATOM     93  C   UNL A   1      45.715  35.898  31.099  1.00  0.00     0.002 A 
ATOM     94  C   UNL A   1      45.148  36.247  28.766  1.00  0.00     0.091 A 
ATOM     95  F   UNL A   1      44.268  34.427  27.500  1.00  0.00    -0.205 F 
ATOM     96  C   UNL A   1      45.613  36.742  29.996  1.00  0.00     0.022 A 
BRANCH  94  97
ATOM     97  S   UNL A   1      45.142  37.384  27.377  1.00  0.00     0.127 S 
ATOM     98  O   UNL A   1      45.650  38.610  27.992  1.00  0.00    -0.237 OA
ATOM     99  O   UNL A   1      46.067  36.738  26.446  1.00  0.00    -0.237 OA
ATOM    100  O   UNL A   1      43.762  37.448  26.913  1.00  0.00    -0.744 OA
ENDBRANCH  94  97
ENDBRANCH  67  90
ENDBRANCH  41  42
ENDBRANCH  34  36
ENDBRANCH  33  34
ENDBRANCH  32  33
ENDBRANCH   1  32
TORSDOF 19
ENDMDL
