MODEL 1
REMARK VINA RESULT:     -11.8      0.000      0.000
REMARK SMILES NS(=O)(=O)c1ccc(/N=N/c2ccc(O)c(C(=O)OCCOC(=O)c3ccc(-c4c5nc(c(-c6cccc(S(=O)(=O)[O-])c6F)c6ccc([nH]6)c(-c6cccc(S(=O)(=O)[O-])c6F)c6nc(c(-c7cccc(S(=O)(=O)[O-])c7F)c7ccc4[nH]7)C=C6)C=C5)cc3)c2)cc1
REMARK SMILES IDX 20 1 19 2 17 3 18 4 16 5 11 6 12 7 88 8 13 9 14 10 10 11
REMARK SMILES IDX 9 12 8 13 5 14 6 15 90 16 7 17 89 18 2 19 3 20 4 21 1 22
REMARK SMILES IDX 15 25 21 27 22 28 23 29 24 30 25 31 26 32 87 33 27 34 86 35
REMARK SMILES IDX 28 36 29 37 30 38 80 39 31 40 85 41 79 42 81 43 32 44 84 45
REMARK SMILES IDX 78 46 77 47 33 49 65 50 45 51 64 52 46 53 49 54 63 55 82 56
REMARK SMILES IDX 47 57 48 58 62 60 83 61 50 62 34 63 35 64 43 65 36 66 38 67
REMARK SMILES IDX 44 68 37 69 39 70 40 71 41 72 42 73 66 74 67 75 75 76 68 77
REMARK SMILES IDX 70 78 76 79 69 80 71 81 72 82 73 83 74 84 51 85 52 86 60 87
REMARK SMILES IDX 53 88 55 89 61 90 54 91 56 92 57 93 58 94 59 95
REMARK H PARENT 1 23 1 24 15 26 81 48 49 59
REMARK Flexibility Score: inf
ROOT
ATOM      1  C   UNL A   1      31.871  31.139  26.895  1.00  0.00     0.275 C 
ENDROOT
BRANCH   1   2
ATOM      2  O   UNL A   1      31.367  30.570  25.672  1.00  0.00    -0.458 OA
BRANCH   2   3
ATOM      3  C   UNL A   1      32.130  29.608  25.100  1.00  0.00     0.342 C 
ATOM      4  O   UNL A   1      33.351  29.548  25.110  1.00  0.00    -0.246 OA
BRANCH   3   5
ATOM      5  C   UNL A   1      31.301  28.535  24.504  1.00  0.00     0.104 A 
ATOM      6  C   UNL A   1      30.818  26.182  24.114  1.00  0.00     0.087 A 
ATOM      7  C   UNL A   1      29.783  26.545  23.246  1.00  0.00     0.034 A 
ATOM      8  C   UNL A   1      31.594  27.182  24.717  1.00  0.00     0.049 A 
ATOM      9  C   UNL A   1      29.475  27.889  23.038  1.00  0.00     0.049 A 
ATOM     10  C   UNL A   1      30.213  28.876  23.687  1.00  0.00     0.130 A 
BRANCH   6  11
ATOM     11  N   UNL A   1      31.066  24.823  24.379  1.00  0.00    -0.151 NA
ATOM     12  N   UNL A   1      31.689  24.334  23.411  1.00  0.00    -0.151 NA
BRANCH  12  13
ATOM     13  C   UNL A   1      32.023  22.978  23.583  1.00  0.00     0.086 A 
ATOM     14  C   UNL A   1      32.573  20.279  24.118  1.00  0.00     0.082 A 
ATOM     15  C   UNL A   1      32.618  21.212  25.156  1.00  0.00     0.024 A 
ATOM     16  C   UNL A   1      32.252  20.677  22.818  1.00  0.00     0.024 A 
ATOM     17  C   UNL A   1      32.343  22.554  24.881  1.00  0.00     0.031 A 
ATOM     18  C   UNL A   1      31.979  22.023  22.556  1.00  0.00     0.031 A 
BRANCH  14  19
ATOM     19  S   UNL A   1      32.862  18.568  24.454  1.00  0.00     0.238 S 
ATOM     20  O   UNL A   1      32.748  17.821  23.224  1.00  0.00    -0.207 OA
ATOM     21  O   UNL A   1      32.161  18.188  25.659  1.00  0.00    -0.207 OA
BRANCH  19  22
ATOM     22  N   UNL A   1      34.490  18.559  24.858  1.00  0.00    -0.225 NA
ATOM     23  H   UNL A   1      34.589  18.537  25.872  1.00  0.00     0.137 HD
ATOM     24  H   UNL A   1      34.936  19.401  24.491  1.00  0.00     0.137 HD
ENDBRANCH  19  22
ENDBRANCH  14  19
ENDBRANCH  12  13
ENDBRANCH   6  11
BRANCH  10  25
ATOM     25  O   UNL A   1      29.824  30.165  23.442  1.00  0.00    -0.507 OA
ATOM     26  H   UNL A   1      30.203  30.642  22.731  1.00  0.00     0.293 HD
ENDBRANCH  10  25
ENDBRANCH   3   5
ENDBRANCH   2   3
ENDBRANCH   1   2
BRANCH   1  27
ATOM     27  C   UNL A   1      31.792  32.668  26.870  1.00  0.00     0.275 C 
BRANCH  27  28
ATOM     28  O   UNL A   1      33.104  33.258  26.916  1.00  0.00    -0.458 OA
BRANCH  28  29
ATOM     29  C   UNL A   1      33.427  33.860  28.087  1.00  0.00     0.338 C 
ATOM     30  O   UNL A   1      32.750  34.668  28.703  1.00  0.00    -0.246 OA
BRANCH  29  31
ATOM     31  C   UNL A   1      34.658  33.254  28.634  1.00  0.00     0.060 A 
ATOM     32  C   UNL A   1      34.514  32.069  29.359  1.00  0.00     0.016 A 
ATOM     33  C   UNL A   1      35.923  33.822  28.459  1.00  0.00     0.016 A 
ATOM     34  C   UNL A   1      35.632  31.420  29.874  1.00  0.00     0.010 A 
ATOM     35  C   UNL A   1      37.045  33.186  29.008  1.00  0.00     0.010 A 
ATOM     36  C   UNL A   1      36.905  31.980  29.716  1.00  0.00    -0.014 A 
BRANCH  36  37
ATOM     37  C   UNL A   1      38.065  31.314  30.353  1.00  0.00     0.031 A 
ATOM     38  C   UNL A   1      38.428  31.647  31.771  1.00  0.00     0.074 A 
ATOM     39  C   UNL A   1      38.770  30.388  29.677  1.00  0.00     0.049 A 
ATOM     40  N   UNL A   1      39.368  31.136  32.523  1.00  0.00    -0.248 NA
ATOM     41  C   UNL A   1      37.623  32.687  32.430  1.00  0.00     0.031 C 
ATOM     42  C   UNL A   1      38.512  29.971  28.300  1.00  0.00     0.029 A 
ATOM     43  N   UNL A   1      39.855  29.639  30.059  1.00  0.00    -0.354 N 
ATOM     44  C   UNL A   1      39.279  31.799  33.740  1.00  0.00     0.074 A 
ATOM     45  C   UNL A   1      38.200  32.757  33.623  1.00  0.00     0.031 C 
ATOM     46  C   UNL A   1      39.433  29.059  27.941  1.00  0.00     0.029 A 
ATOM     47  C   UNL A   1      40.349  28.837  29.058  1.00  0.00     0.049 A 
ATOM     48  H   UNL A   1      40.243  29.673  30.963  1.00  0.00     0.167 HD
ATOM     49  C   UNL A   1      40.020  31.617  34.859  1.00  0.00     0.034 A 
ATOM     50  C   UNL A   1      41.425  28.024  29.042  1.00  0.00     0.034 A 
ATOM     51  C   UNL A   1      41.085  30.659  34.982  1.00  0.00     0.049 A 
ATOM     52  C   UNL A   1      42.246  27.859  30.294  1.00  0.00     0.074 A 
ATOM     53  C   UNL A   1      41.861  30.374  36.093  1.00  0.00     0.029 A 
ATOM     54  N   UNL A   1      41.540  29.841  33.959  1.00  0.00    -0.354 N 
ATOM     55  N   UNL A   1      42.062  28.387  31.480  1.00  0.00    -0.248 NA
ATOM     56  C   UNL A   1      43.403  26.954  30.217  1.00  0.00     0.031 C 
ATOM     57  C   UNL A   1      42.801  29.401  35.735  1.00  0.00     0.029 A 
ATOM     58  C   UNL A   1      42.596  29.064  34.407  1.00  0.00     0.049 A 
ATOM     59  H   UNL A   1      41.167  29.816  33.049  1.00  0.00     0.167 HD
ATOM     60  C   UNL A   1      43.058  27.858  32.295  1.00  0.00     0.074 A 
ATOM     61  C   UNL A   1      43.826  26.946  31.474  1.00  0.00     0.031 C 
ATOM     62  C   UNL A   1      43.324  28.119  33.599  1.00  0.00     0.034 A 
BRANCH  49  63
ATOM     63  C   UNL A   1      39.685  32.460  36.059  1.00  0.00     0.023 A 
ATOM     64  C   UNL A   1      40.306  33.713  36.222  1.00  0.00     0.012 A 
ATOM     65  C   UNL A   1      38.713  32.039  36.988  1.00  0.00     0.148 A 
ATOM     66  C   UNL A   1      39.983  34.529  37.307  1.00  0.00     0.002 A 
ATOM     67  C   UNL A   1      38.369  32.873  38.045  1.00  0.00     0.091 A 
ATOM     68  F   UNL A   1      38.153  30.832  36.826  1.00  0.00    -0.205 F 
ATOM     69  C   UNL A   1      39.007  34.114  38.211  1.00  0.00     0.022 A 
BRANCH  67  70
ATOM     70  S   UNL A   1      37.078  32.456  39.223  1.00  0.00     0.127 S 
ATOM     71  O   UNL A   1      37.312  33.440  40.278  1.00  0.00    -0.237 OA
ATOM     72  O   UNL A   1      35.862  32.681  38.440  1.00  0.00    -0.237 OA
ATOM     73  O   UNL A   1      37.309  31.067  39.596  1.00  0.00    -0.744 OA
ENDBRANCH  67  70
ENDBRANCH  49  63
BRANCH  50  74
ATOM     74  C   UNL A   1      41.775  27.276  27.801  1.00  0.00     0.023 A 
ATOM     75  C   UNL A   1      42.309  27.967  26.697  1.00  0.00     0.012 A 
ATOM     76  C   UNL A   1      41.580  25.883  27.712  1.00  0.00     0.148 A 
ATOM     77  C   UNL A   1      42.613  27.289  25.515  1.00  0.00     0.002 A 
ATOM     78  C   UNL A   1      41.935  25.207  26.550  1.00  0.00     0.091 A 
ATOM     79  F   UNL A   1      41.047  25.247  28.765  1.00  0.00    -0.205 F 
ATOM     80  C   UNL A   1      42.435  25.910  25.445  1.00  0.00     0.022 A 
BRANCH  78  81
ATOM     81  S   UNL A   1      41.850  23.417  26.421  1.00  0.00     0.127 S 
ATOM     82  O   UNL A   1      42.521  23.178  25.146  1.00  0.00    -0.237 OA
ATOM     83  O   UNL A   1      42.602  22.991  27.603  1.00  0.00    -0.237 OA
ATOM     84  O   UNL A   1      40.432  23.089  26.466  1.00  0.00    -0.744 OA
ENDBRANCH  78  81
ENDBRANCH  50  74
BRANCH  62  85
ATOM     85  C   UNL A   1      44.484  27.396  34.235  1.00  0.00     0.023 A 
ATOM     86  C   UNL A   1      45.765  27.983  34.219  1.00  0.00     0.012 A 
ATOM     87  C   UNL A   1      44.296  26.170  34.905  1.00  0.00     0.148 A 
ATOM     88  C   UNL A   1      46.846  27.346  34.828  1.00  0.00     0.002 A 
ATOM     89  C   UNL A   1      45.369  25.565  35.550  1.00  0.00     0.091 A 
ATOM     90  F   UNL A   1      43.076  25.615  34.895  1.00  0.00    -0.205 F 
ATOM     91  C   UNL A   1      46.647  26.144  35.502  1.00  0.00     0.022 A 
BRANCH  89  92
ATOM     92  S   UNL A   1      45.178  24.064  36.521  1.00  0.00     0.127 S 
ATOM     93  O   UNL A   1      44.528  24.570  37.728  1.00  0.00    -0.237 OA
ATOM     94  O   UNL A   1      44.320  23.243  35.665  1.00  0.00    -0.237 OA
ATOM     95  O   UNL A   1      46.525  23.536  36.703  1.00  0.00    -0.744 OA
ENDBRANCH  89  92
ENDBRANCH  62  85
ENDBRANCH  36  37
ENDBRANCH  29  31
ENDBRANCH  28  29
ENDBRANCH  27  28
ENDBRANCH   1  27
TORSDOF 19
ENDMDL
MODEL 2
REMARK VINA RESULT:     -11.8      1.715      2.110
REMARK SMILES NS(=O)(=O)c1ccc(/N=N/c2ccc(O)c(C(=O)OCCOC(=O)c3ccc(-c4c5nc(c(-c6cccc(S(=O)(=O)[O-])c6F)c6ccc([nH]6)c(-c6cccc(S(=O)(=O)[O-])c6F)c6nc(c(-c7cccc(S(=O)(=O)[O-])c7F)c7ccc4[nH]7)C=C6)C=C5)cc3)c2)cc1
REMARK SMILES IDX 20 1 19 2 17 3 18 4 16 5 11 6 12 7 88 8 13 9 14 10 10 11
REMARK SMILES IDX 9 12 8 13 5 14 6 15 90 16 7 17 89 18 2 19 3 20 4 21 1 22
REMARK SMILES IDX 15 25 21 27 22 28 23 29 24 30 25 31 26 32 87 33 27 34 86 35
REMARK SMILES IDX 28 36 29 37 30 38 80 39 31 40 85 41 79 42 81 43 32 44 84 45
REMARK SMILES IDX 78 46 77 47 33 49 65 50 45 51 64 52 46 53 49 54 63 55 82 56
REMARK SMILES IDX 47 57 48 58 62 60 83 61 50 62 34 63 35 64 43 65 36 66 38 67
REMARK SMILES IDX 44 68 37 69 39 70 40 71 41 72 42 73 66 74 67 75 75 76 68 77
REMARK SMILES IDX 70 78 76 79 69 80 71 81 72 82 73 83 74 84 51 85 52 86 60 87
REMARK SMILES IDX 53 88 55 89 61 90 54 91 56 92 57 93 58 94 59 95
REMARK H PARENT 1 23 1 24 15 26 81 48 49 59
REMARK Flexibility Score: inf
ROOT
ATOM      1  C   UNL A   1      31.549  29.228  26.907  1.00  0.00     0.275 C 
ENDROOT
BRANCH   1   2
ATOM      2  O   UNL A   1      31.952  28.380  25.815  1.00  0.00    -0.458 OA
BRANCH   2   3
ATOM      3  C   UNL A   1      31.512  27.100  25.857  1.00  0.00     0.342 C 
ATOM      4  O   UNL A   1      30.929  26.562  26.787  1.00  0.00    -0.246 OA
BRANCH   3   5
ATOM      5  C   UNL A   1      31.739  26.402  24.570  1.00  0.00     0.104 A 
ATOM      6  C   UNL A   1      32.551  24.496  23.293  1.00  0.00     0.087 A 
ATOM      7  C   UNL A   1      32.270  25.181  22.105  1.00  0.00     0.034 A 
ATOM      8  C   UNL A   1      32.311  25.125  24.523  1.00  0.00     0.049 A 
ATOM      9  C   UNL A   1      31.688  26.447  22.141  1.00  0.00     0.049 A 
ATOM     10  C   UNL A   1      31.399  27.041  23.368  1.00  0.00     0.130 A 
BRANCH   6  11
ATOM     11  N   UNL A   1      33.062  23.187  23.242  1.00  0.00    -0.151 NA
ATOM     12  N   UNL A   1      32.228  22.412  23.759  1.00  0.00    -0.151 NA
BRANCH  12  13
ATOM     13  C   UNL A   1      32.622  21.061  23.731  1.00  0.00     0.086 A 
ATOM     14  C   UNL A   1      33.387  18.366  23.899  1.00  0.00     0.082 A 
ATOM     15  C   UNL A   1      33.872  19.281  24.834  1.00  0.00     0.024 A 
ATOM     16  C   UNL A   1      32.520  18.779  22.883  1.00  0.00     0.024 A 
ATOM     17  C   UNL A   1      33.486  20.621  24.744  1.00  0.00     0.031 A 
ATOM     18  C   UNL A   1      32.142  20.124  22.803  1.00  0.00     0.031 A 
BRANCH  14  19
ATOM     19  S   UNL A   1      33.816  16.657  24.028  1.00  0.00     0.238 S 
ATOM     20  O   UNL A   1      34.267  16.185  22.741  1.00  0.00    -0.207 OA
ATOM     21  O   UNL A   1      32.808  15.963  24.798  1.00  0.00    -0.207 OA
BRANCH  19  22
ATOM     22  N   UNL A   1      35.175  16.709  25.010  1.00  0.00    -0.225 NA
ATOM     23  H   UNL A   1      36.014  16.683  24.432  1.00  0.00     0.137 HD
ATOM     24  H   UNL A   1      35.170  15.907  25.641  1.00  0.00     0.137 HD
ENDBRANCH  19  22
ENDBRANCH  14  19
ENDBRANCH  12  13
ENDBRANCH   6  11
BRANCH  10  25
ATOM     25  O   UNL A   1      30.806  28.272  23.306  1.00  0.00    -0.507 OA
ATOM     26  H   UNL A   1      30.362  28.617  24.055  1.00  0.00     0.293 HD
ENDBRANCH  10  25
ENDBRANCH   3   5
ENDBRANCH   2   3
ENDBRANCH   1   2
BRANCH   1  27
ATOM     27  C   UNL A   1      31.618  30.707  26.516  1.00  0.00     0.275 C 
BRANCH  27  28
ATOM     28  O   UNL A   1      32.983  31.144  26.374  1.00  0.00    -0.458 OA
BRANCH  28  29
ATOM     29  C   UNL A   1      33.373  32.110  27.241  1.00  0.00     0.338 C 
ATOM     30  O   UNL A   1      32.740  33.104  27.559  1.00  0.00    -0.246 OA
BRANCH  29  31
ATOM     31  C   UNL A   1      34.623  31.700  27.913  1.00  0.00     0.060 A 
ATOM     32  C   UNL A   1      34.695  30.381  28.367  1.00  0.00     0.016 A 
ATOM     33  C   UNL A   1      35.698  32.570  28.108  1.00  0.00     0.016 A 
ATOM     34  C   UNL A   1      35.853  29.909  28.977  1.00  0.00     0.010 A 
ATOM     35  C   UNL A   1      36.852  32.105  28.754  1.00  0.00     0.010 A 
ATOM     36  C   UNL A   1      36.936  30.771  29.189  1.00  0.00    -0.014 A 
BRANCH  36  37
ATOM     37  C   UNL A   1      38.121  30.266  29.922  1.00  0.00     0.031 A 
ATOM     38  C   UNL A   1      38.377  30.726  31.328  1.00  0.00     0.074 A 
ATOM     39  C   UNL A   1      38.944  29.372  29.345  1.00  0.00     0.049 A 
ATOM     40  N   UNL A   1      39.322  30.362  32.155  1.00  0.00    -0.248 NA
ATOM     41  C   UNL A   1      37.444  31.722  31.876  1.00  0.00     0.031 C 
ATOM     42  C   UNL A   1      38.798  28.842  27.990  1.00  0.00     0.029 A 
ATOM     43  N   UNL A   1      40.075  28.761  29.826  1.00  0.00    -0.354 N 
ATOM     44  C   UNL A   1      39.109  31.091  33.317  1.00  0.00     0.074 A 
ATOM     45  C   UNL A   1      37.950  31.927  33.085  1.00  0.00     0.031 C 
ATOM     46  C   UNL A   1      39.819  28.004  27.738  1.00  0.00     0.029 A 
ATOM     47  C   UNL A   1      40.694  27.947  28.907  1.00  0.00     0.049 A 
ATOM     48  H   UNL A   1      40.412  28.892  30.741  1.00  0.00     0.167 HD
ATOM     49  C   UNL A   1      39.806  31.057  34.478  1.00  0.00     0.034 A 
ATOM     50  C   UNL A   1      41.842  27.245  28.995  1.00  0.00     0.034 A 
ATOM     51  C   UNL A   1      40.951  30.218  34.715  1.00  0.00     0.049 A 
ATOM     52  C   UNL A   1      42.610  27.245  30.291  1.00  0.00     0.074 A 
ATOM     53  C   UNL A   1      41.692  30.085  35.876  1.00  0.00     0.029 A 
ATOM     54  N   UNL A   1      41.533  29.385  33.773  1.00  0.00    -0.354 N 
ATOM     55  N   UNL A   1      42.316  27.829  31.428  1.00  0.00    -0.248 NA
ATOM     56  C   UNL A   1      43.851  26.456  30.329  1.00  0.00     0.031 C 
ATOM     57  C   UNL A   1      42.738  29.189  35.630  1.00  0.00     0.029 A 
ATOM     58  C   UNL A   1      42.634  28.746  34.320  1.00  0.00     0.049 A 
ATOM     59  H   UNL A   1      41.210  29.262  32.851  1.00  0.00     0.167 HD
ATOM     60  C   UNL A   1      43.316  27.456  32.321  1.00  0.00     0.074 A 
ATOM     61  C   UNL A   1      44.208  26.572  31.601  1.00  0.00     0.031 C 
ATOM     62  C   UNL A   1      43.489  27.827  33.614  1.00  0.00     0.034 A 
BRANCH  49  63
ATOM     63  C   UNL A   1      39.331  31.939  35.599  1.00  0.00     0.023 A 
ATOM     64  C   UNL A   1      38.445  31.419  36.564  1.00  0.00     0.012 A 
ATOM     65  C   UNL A   1      39.807  33.257  35.733  1.00  0.00     0.148 A 
ATOM     66  C   UNL A   1      38.021  32.206  37.634  1.00  0.00     0.002 A 
ATOM     67  C   UNL A   1      39.409  34.023  36.822  1.00  0.00     0.091 A 
ATOM     68  F   UNL A   1      40.630  33.739  34.789  1.00  0.00    -0.205 F 
ATOM     69  C   UNL A   1      38.511  33.503  37.768  1.00  0.00     0.022 A 
BRANCH  67  70
ATOM     70  S   UNL A   1      40.038  35.680  37.117  1.00  0.00     0.127 S 
ATOM     71  O   UNL A   1      39.355  36.038  38.360  1.00  0.00    -0.237 OA
ATOM     72  O   UNL A   1      41.475  35.444  37.259  1.00  0.00    -0.237 OA
ATOM     73  O   UNL A   1      39.665  36.465  35.949  1.00  0.00    -0.744 OA
ENDBRANCH  67  70
ENDBRANCH  49  63
BRANCH  50  74
ATOM     74  C   UNL A   1      42.324  26.455  27.827  1.00  0.00     0.023 A 
ATOM     75  C   UNL A   1      43.175  27.058  26.880  1.00  0.00     0.012 A 
ATOM     76  C   UNL A   1      41.944  25.110  27.651  1.00  0.00     0.148 A 
ATOM     77  C   UNL A   1      43.611  26.345  25.763  1.00  0.00     0.002 A 
ATOM     78  C   UNL A   1      42.425  24.391  26.564  1.00  0.00     0.091 A 
ATOM     79  F   UNL A   1      41.114  24.562  28.550  1.00  0.00    -0.205 F 
ATOM     80  C   UNL A   1      43.245  25.011  25.610  1.00  0.00     0.022 A 
BRANCH  78  81
ATOM     81  S   UNL A   1      42.100  22.636  26.357  1.00  0.00     0.127 S 
ATOM     82  O   UNL A   1      42.662  22.081  27.586  1.00  0.00    -0.237 OA
ATOM     83  O   UNL A   1      40.639  22.605  26.278  1.00  0.00    -0.237 OA
ATOM     84  O   UNL A   1      42.773  22.257  25.122  1.00  0.00    -0.744 OA
ENDBRANCH  78  81
ENDBRANCH  50  74
BRANCH  62  85
ATOM     85  C   UNL A   1      44.679  27.265  34.350  1.00  0.00     0.023 A 
ATOM     86  C   UNL A   1      45.887  27.992  34.380  1.00  0.00     0.012 A 
ATOM     87  C   UNL A   1      44.585  26.055  35.065  1.00  0.00     0.148 A 
ATOM     88  C   UNL A   1      46.991  27.505  35.081  1.00  0.00     0.002 A 
ATOM     89  C   UNL A   1      45.675  25.601  35.800  1.00  0.00     0.091 A 
ATOM     90  F   UNL A   1      43.436  25.366  35.011  1.00  0.00    -0.205 F 
ATOM     91  C   UNL A   1      46.882  26.317  35.799  1.00  0.00     0.022 A 
BRANCH  89  92
ATOM     92  S   UNL A   1      45.589  24.129  36.829  1.00  0.00     0.127 S 
ATOM     93  O   UNL A   1      46.941  24.070  37.380  1.00  0.00    -0.237 OA
ATOM     94  O   UNL A   1      44.550  24.483  37.798  1.00  0.00    -0.237 OA
ATOM     95  O   UNL A   1      45.225  23.040  35.931  1.00  0.00    -0.744 OA
ENDBRANCH  89  92
ENDBRANCH  62  85
ENDBRANCH  36  37
ENDBRANCH  29  31
ENDBRANCH  28  29
ENDBRANCH  27  28
ENDBRANCH   1  27
TORSDOF 19
ENDMDL
MODEL 3
REMARK VINA RESULT:     -11.7      1.523      7.689
REMARK SMILES NS(=O)(=O)c1ccc(/N=N/c2ccc(O)c(C(=O)OCCOC(=O)c3ccc(-c4c5nc(c(-c6cccc(S(=O)(=O)[O-])c6F)c6ccc([nH]6)c(-c6cccc(S(=O)(=O)[O-])c6F)c6nc(c(-c7cccc(S(=O)(=O)[O-])c7F)c7ccc4[nH]7)C=C6)C=C5)cc3)c2)cc1
REMARK SMILES IDX 20 1 19 2 17 3 18 4 16 5 11 6 12 7 88 8 13 9 14 10 10 11
REMARK SMILES IDX 9 12 8 13 5 14 6 15 90 16 7 17 89 18 2 19 3 20 4 21 1 22
REMARK SMILES IDX 15 25 21 27 22 28 23 29 24 30 25 31 26 32 87 33 27 34 86 35
REMARK SMILES IDX 28 36 29 37 30 38 80 39 31 40 85 41 79 42 81 43 32 44 84 45
REMARK SMILES IDX 78 46 77 47 33 49 65 50 45 51 64 52 46 53 49 54 63 55 82 56
REMARK SMILES IDX 47 57 48 58 62 60 83 61 50 62 34 63 35 64 43 65 36 66 38 67
REMARK SMILES IDX 44 68 37 69 39 70 40 71 41 72 42 73 66 74 67 75 75 76 68 77
REMARK SMILES IDX 70 78 76 79 69 80 71 81 72 82 73 83 74 84 51 85 52 86 60 87
REMARK SMILES IDX 53 88 55 89 61 90 54 91 56 92 57 93 58 94 59 95
REMARK H PARENT 1 23 1 24 15 26 81 48 49 59
REMARK Flexibility Score: inf
ROOT
ATOM      1  C   UNL A   1      31.781  28.807  26.725  1.00  0.00     0.275 C 
ENDROOT
BRANCH   1   2
ATOM      2  O   UNL A   1      31.884  28.020  25.523  1.00  0.00    -0.458 OA
BRANCH   2   3
ATOM      3  C   UNL A   1      33.037  27.327  25.358  1.00  0.00     0.342 C 
ATOM      4  O   UNL A   1      33.985  27.302  26.128  1.00  0.00    -0.246 OA
BRANCH   3   5
ATOM      5  C   UNL A   1      33.002  26.493  24.134  1.00  0.00     0.104 A 
ATOM      6  C   UNL A   1      33.325  24.368  22.993  1.00  0.00     0.087 A 
ATOM      7  C   UNL A   1      33.050  24.990  21.770  1.00  0.00     0.034 A 
ATOM      8  C   UNL A   1      33.329  25.132  24.168  1.00  0.00     0.049 A 
ATOM      9  C   UNL A   1      32.710  26.342  21.727  1.00  0.00     0.049 A 
ATOM     10  C   UNL A   1      32.660  27.081  22.907  1.00  0.00     0.130 A 
BRANCH   6  11
ATOM     11  N   UNL A   1      33.586  22.986  23.033  1.00  0.00    -0.151 NA
ATOM     12  N   UNL A   1      33.207  22.539  24.137  1.00  0.00    -0.151 NA
BRANCH  12  13
ATOM     13  C   UNL A   1      33.388  21.150  24.275  1.00  0.00     0.086 A 
ATOM     14  C   UNL A   1      33.643  18.357  24.353  1.00  0.00     0.082 A 
ATOM     15  C   UNL A   1      32.445  18.929  23.925  1.00  0.00     0.024 A 
ATOM     16  C   UNL A   1      34.718  19.163  24.738  1.00  0.00     0.024 A 
ATOM     17  C   UNL A   1      32.326  20.321  23.889  1.00  0.00     0.031 A 
ATOM     18  C   UNL A   1      34.586  20.555  24.698  1.00  0.00     0.031 A 
BRANCH  14  19
ATOM     19  S   UNL A   1      33.835  16.600  24.352  1.00  0.00     0.238 S 
ATOM     20  O   UNL A   1      34.297  16.178  23.052  1.00  0.00    -0.207 OA
ATOM     21  O   UNL A   1      32.701  15.990  25.008  1.00  0.00    -0.207 OA
BRANCH  19  22
ATOM     22  N   UNL A   1      35.129  16.388  25.400  1.00  0.00    -0.225 NA
ATOM     23  H   UNL A   1      34.968  16.925  26.252  1.00  0.00     0.137 HD
ATOM     24  H   UNL A   1      35.986  16.710  24.951  1.00  0.00     0.137 HD
ENDBRANCH  19  22
ENDBRANCH  14  19
ENDBRANCH  12  13
ENDBRANCH   6  11
BRANCH  10  25
ATOM     25  O   UNL A   1      32.294  28.392  22.771  1.00  0.00    -0.507 OA
ATOM     26  H   UNL A   1      31.489  28.695  23.141  1.00  0.00     0.293 HD
ENDBRANCH  10  25
ENDBRANCH   3   5
ENDBRANCH   2   3
ENDBRANCH   1   2
BRANCH   1  27
ATOM     27  C   UNL A   1      31.853  30.305  26.415  1.00  0.00     0.275 C 
BRANCH  27  28
ATOM     28  O   UNL A   1      33.218  30.751  26.315  1.00  0.00    -0.458 OA
BRANCH  28  29
ATOM     29  C   UNL A   1      33.565  31.746  27.169  1.00  0.00     0.338 C 
ATOM     30  O   UNL A   1      32.887  32.713  27.475  1.00  0.00    -0.246 OA
BRANCH  29  31
ATOM     31  C   UNL A   1      34.833  31.402  27.844  1.00  0.00     0.060 A 
ATOM     32  C   UNL A   1      34.940  30.114  28.374  1.00  0.00     0.016 A 
ATOM     33  C   UNL A   1      35.892  32.304  27.969  1.00  0.00     0.016 A 
ATOM     34  C   UNL A   1      36.118  29.703  28.991  1.00  0.00     0.010 A 
ATOM     35  C   UNL A   1      37.065  31.902  28.622  1.00  0.00     0.010 A 
ATOM     36  C   UNL A   1      37.185  30.598  29.134  1.00  0.00    -0.014 A 
BRANCH  36  37
ATOM     37  C   UNL A   1      38.391  30.162  29.876  1.00  0.00     0.031 A 
ATOM     38  C   UNL A   1      39.323  29.160  29.258  1.00  0.00     0.074 A 
ATOM     39  C   UNL A   1      38.672  30.689  31.082  1.00  0.00     0.049 A 
ATOM     40  N   UNL A   1      40.455  28.695  29.718  1.00  0.00    -0.248 NA
ATOM     41  C   UNL A   1      38.932  28.616  27.949  1.00  0.00     0.031 C 
ATOM     42  C   UNL A   1      37.851  31.675  31.784  1.00  0.00     0.029 A 
ATOM     43  N   UNL A   1      39.722  30.456  31.934  1.00  0.00    -0.354 N 
ATOM     44  C   UNL A   1      40.908  27.793  28.764  1.00  0.00     0.074 A 
ATOM     45  C   UNL A   1      39.923  27.769  27.703  1.00  0.00     0.031 C 
ATOM     46  C   UNL A   1      38.415  31.943  32.974  1.00  0.00     0.029 A 
ATOM     47  C   UNL A   1      39.628  31.140  33.123  1.00  0.00     0.049 A 
ATOM     48  H   UNL A   1      40.471  29.855  31.717  1.00  0.00     0.167 HD
ATOM     49  C   UNL A   1      42.048  27.062  28.764  1.00  0.00     0.034 A 
ATOM     50  C   UNL A   1      40.425  31.115  34.211  1.00  0.00     0.034 A 
ATOM     51  C   UNL A   1      43.034  27.092  29.811  1.00  0.00     0.049 A 
ATOM     52  C   UNL A   1      41.674  30.273  34.192  1.00  0.00     0.074 A 
ATOM     53  C   UNL A   1      44.241  26.418  29.873  1.00  0.00     0.029 A 
ATOM     54  N   UNL A   1      42.922  27.819  30.986  1.00  0.00    -0.354 N 
ATOM     55  N   UNL A   1      42.161  29.535  33.224  1.00  0.00    -0.248 NA
ATOM     56  C   UNL A   1      42.506  30.291  35.405  1.00  0.00     0.031 C 
ATOM     57  C   UNL A   1      44.849  26.719  31.098  1.00  0.00     0.029 A 
ATOM     58  C   UNL A   1      44.030  27.598  31.788  1.00  0.00     0.049 A 
ATOM     59  H   UNL A   1      42.168  28.408  31.215  1.00  0.00     0.167 HD
ATOM     60  C   UNL A   1      43.366  29.026  33.698  1.00  0.00     0.074 A 
ATOM     61  C   UNL A   1      43.549  29.563  35.030  1.00  0.00     0.031 C 
ATOM     62  C   UNL A   1      44.232  28.177  33.092  1.00  0.00     0.034 A 
BRANCH  49  63
ATOM     63  C   UNL A   1      42.307  26.179  27.574  1.00  0.00     0.023 A 
ATOM     64  C   UNL A   1      43.026  26.689  26.475  1.00  0.00     0.012 A 
ATOM     65  C   UNL A   1      41.894  24.833  27.569  1.00  0.00     0.148 A 
ATOM     66  C   UNL A   1      43.311  25.878  25.377  1.00  0.00     0.002 A 
ATOM     67  C   UNL A   1      42.214  24.022  26.488  1.00  0.00     0.091 A 
ATOM     68  F   UNL A   1      41.189  24.377  28.615  1.00  0.00    -0.205 F 
ATOM     69  C   UNL A   1      42.915  24.543  25.388  1.00  0.00     0.022 A 
BRANCH  67  70
ATOM     70  S   UNL A   1      41.805  22.272  26.440  1.00  0.00     0.127 S 
ATOM     71  O   UNL A   1      42.477  21.846  25.213  1.00  0.00    -0.237 OA
ATOM     72  O   UNL A   1      42.419  21.778  27.673  1.00  0.00    -0.237 OA
ATOM     73  O   UNL A   1      40.351  22.201  26.417  1.00  0.00    -0.744 OA
ENDBRANCH  67  70
ENDBRANCH  49  63
BRANCH  50  74
ATOM     74  C   UNL A   1      40.082  31.937  35.405  1.00  0.00     0.023 A 
ATOM     75  C   UNL A   1      40.749  33.158  35.627  1.00  0.00     0.012 A 
ATOM     76  C   UNL A   1      39.098  31.516  36.321  1.00  0.00     0.148 A 
ATOM     77  C   UNL A   1      40.465  33.927  36.757  1.00  0.00     0.002 A 
ATOM     78  C   UNL A   1      38.783  32.313  37.415  1.00  0.00     0.091 A 
ATOM     79  F   UNL A   1      38.492  30.339  36.106  1.00  0.00    -0.205 F 
ATOM     80  C   UNL A   1      39.477  33.510  37.644  1.00  0.00     0.022 A 
BRANCH  78  81
ATOM     81  S   UNL A   1      37.441  31.908  38.539  1.00  0.00     0.127 S 
ATOM     82  O   UNL A   1      38.026  32.240  39.835  1.00  0.00    -0.237 OA
ATOM     83  O   UNL A   1      36.384  32.816  38.090  1.00  0.00    -0.237 OA
ATOM     84  O   UNL A   1      37.153  30.498  38.312  1.00  0.00    -0.744 OA
ENDBRANCH  78  81
ENDBRANCH  50  74
BRANCH  62  85
ATOM     85  C   UNL A   1      45.473  27.783  33.851  1.00  0.00     0.023 A 
ATOM     86  C   UNL A   1      46.634  28.578  33.751  1.00  0.00     0.012 A 
ATOM     87  C   UNL A   1      45.474  26.669  34.714  1.00  0.00     0.148 A 
ATOM     88  C   UNL A   1      47.784  28.249  34.469  1.00  0.00     0.002 A 
ATOM     89  C   UNL A   1      46.609  26.376  35.462  1.00  0.00     0.091 A 
ATOM     90  F   UNL A   1      44.370  25.913  34.785  1.00  0.00    -0.205 F 
ATOM     91  C   UNL A   1      47.769  27.157  35.332  1.00  0.00     0.022 A 
BRANCH  89  92
ATOM     92  S   UNL A   1      46.642  25.044  36.669  1.00  0.00     0.127 S 
ATOM     93  O   UNL A   1      47.985  25.179  37.228  1.00  0.00    -0.237 OA
ATOM     94  O   UNL A   1      45.561  25.419  37.582  1.00  0.00    -0.237 OA
ATOM     95  O   UNL A   1      46.393  23.822  35.915  1.00  0.00    -0.744 OA
ENDBRANCH  89  92
ENDBRANCH  62  85
ENDBRANCH  36  37
ENDBRANCH  29  31
ENDBRANCH  28  29
ENDBRANCH  27  28
ENDBRANCH   1  27
TORSDOF 19
ENDMDL
