MODEL 1
REMARK VINA RESULT:     -12.1      0.000      0.000
REMARK SMILES C[C@H]1[C@H](C(=O)OCCOC(=O)c2ccc(-c3c4nc(c(-c5cccc(S(=O)(=O)[O-])c5F)c5ccc([nH]5)c(-c5cccc(S(=O)(=O)[O-])c5F)c5nc(c(-c6cccc(S(=O)(=O)[O-])c6F)c6ccc3[nH]6)C=C5)C=C4)cc2)CC[N@@H+]1[C@@H](c1ccccc1)c1ccco1
REMARK SMILES IDX 8 1 7 2 6 3 4 4 5 5 3 6 1 7 2 8 77 9 75 10 76 11 78 13 79 14
REMARK SMILES IDX 80 15 84 16 81 17 83 18 82 19 85 20 86 21 89 22 87 23 88 24
REMARK SMILES IDX 9 25 10 26 11 27 12 28 13 29 74 30 14 31 73 32 15 33 16 34
REMARK SMILES IDX 17 35 67 36 18 37 72 38 66 39 68 40 19 41 71 42 65 43 64 44
REMARK SMILES IDX 20 46 52 47 32 48 51 49 33 50 36 51 50 52 69 53 34 54 35 55
REMARK SMILES IDX 49 57 70 58 37 59 21 60 22 61 30 62 23 63 25 64 31 65 24 66
REMARK SMILES IDX 26 67 27 68 28 69 29 70 53 71 54 72 62 73 55 74 57 75 63 76
REMARK SMILES IDX 56 77 58 78 59 79 60 80 61 81 38 82 39 83 47 84 40 85 42 86
REMARK SMILES IDX 48 87 41 88 43 89 44 90 45 91 46 92
REMARK H PARENT 77 12 68 45 36 56
REMARK Flexibility Score: inf
ROOT
ATOM      1  C   UNL A   1      36.827  20.413  24.767  1.00  0.00     0.275 C 
ENDROOT
BRANCH   1   2
ATOM      2  C   UNL A   1      35.312  20.474  24.960  1.00  0.00     0.274 C 
BRANCH   2   3
ATOM      3  O   UNL A   1      34.758  21.516  24.134  1.00  0.00    -0.462 OA
BRANCH   3   4
ATOM      4  C   UNL A   1      33.444  21.433  23.824  1.00  0.00     0.315 C 
ATOM      5  O   UNL A   1      32.746  20.443  24.028  1.00  0.00    -0.252 OA
BRANCH   4   6
ATOM      6  C   UNL A   1      32.863  22.710  23.244  1.00  0.00     0.162 C 
ATOM      7  C   UNL A   1      30.663  23.883  23.635  1.00  0.00     0.076 C 
ATOM      8  C   UNL A   1      32.075  23.627  24.188  1.00  0.00     0.196 C 
ATOM      9  N   UNL A   1      32.781  24.918  24.199  1.00  0.00    -0.319 N 
ATOM     10  C   UNL A   1      33.969  23.559  22.636  1.00  0.00     0.083 C 
ATOM     11  C   UNL A   1      33.626  24.984  23.012  1.00  0.00     0.264 C 
ATOM     12  H   UNL A   1      32.111  25.682  24.128  1.00  0.00     0.349 HD
BRANCH   9  13
ATOM     13  C   UNL A   1      33.395  25.285  25.495  1.00  0.00     0.283 C 
BRANCH  13  14
ATOM     14  C   UNL A   1      32.948  26.609  26.122  1.00  0.00     0.017 A 
ATOM     15  C   UNL A   1      33.879  27.654  26.273  1.00  0.00     0.010 A 
ATOM     16  C   UNL A   1      31.636  26.833  26.568  1.00  0.00     0.010 A 
ATOM     17  C   UNL A   1      33.506  28.878  26.835  1.00  0.00     0.001 A 
ATOM     18  C   UNL A   1      31.256  28.066  27.103  1.00  0.00     0.001 A 
ATOM     19  C   UNL A   1      32.190  29.087  27.238  1.00  0.00     0.000 A 
ENDBRANCH  13  14
BRANCH  13  20
ATOM     20  C   UNL A   1      33.397  24.100  26.437  1.00  0.00     0.165 A 
ATOM     21  C   UNL A   1      32.378  23.478  27.135  1.00  0.00     0.052 A 
ATOM     22  O   UNL A   1      34.585  23.492  26.731  1.00  0.00    -0.463 OA
ATOM     23  C   UNL A   1      32.978  22.451  27.900  1.00  0.00     0.042 A 
ATOM     24  C   UNL A   1      34.321  22.500  27.616  1.00  0.00     0.195 A 
ENDBRANCH  13  20
ENDBRANCH   9  13
ENDBRANCH   4   6
ENDBRANCH   3   4
ENDBRANCH   2   3
ENDBRANCH   1   2
BRANCH   1  25
ATOM     25  O   UNL A   1      37.480  21.341  25.647  1.00  0.00    -0.458 OA
BRANCH  25  26
ATOM     26  C   UNL A   1      38.775  21.055  25.916  1.00  0.00     0.338 C 
ATOM     27  O   UNL A   1      39.392  20.044  25.631  1.00  0.00    -0.246 OA
BRANCH  26  28
ATOM     28  C   UNL A   1      39.401  22.237  26.512  1.00  0.00     0.060 A 
ATOM     29  C   UNL A   1      38.988  23.497  26.080  1.00  0.00     0.016 A 
ATOM     30  C   UNL A   1      40.437  22.098  27.430  1.00  0.00     0.016 A 
ATOM     31  C   UNL A   1      39.645  24.638  26.516  1.00  0.00     0.010 A 
ATOM     32  C   UNL A   1      41.064  23.247  27.908  1.00  0.00     0.010 A 
ATOM     33  C   UNL A   1      40.688  24.520  27.437  1.00  0.00    -0.014 A 
BRANCH  33  34
ATOM     34  C   UNL A   1      41.420  25.715  27.904  1.00  0.00     0.031 A 
ATOM     35  C   UNL A   1      40.674  26.775  28.658  1.00  0.00     0.074 A 
ATOM     36  C   UNL A   1      42.717  25.871  27.583  1.00  0.00     0.049 A 
ATOM     37  N   UNL A   1      41.031  28.000  28.929  1.00  0.00    -0.248 NA
ATOM     38  C   UNL A   1      39.337  26.409  29.157  1.00  0.00     0.031 C 
ATOM     39  C   UNL A   1      43.542  24.883  26.885  1.00  0.00     0.029 A 
ATOM     40  N   UNL A   1      43.556  26.941  27.761  1.00  0.00    -0.354 N 
ATOM     41  C   UNL A   1      39.938  28.577  29.564  1.00  0.00     0.074 A 
ATOM     42  C   UNL A   1      38.912  27.561  29.656  1.00  0.00     0.031 C 
ATOM     43  C   UNL A   1      44.758  25.406  26.662  1.00  0.00     0.029 A 
ATOM     44  C   UNL A   1      44.773  26.783  27.141  1.00  0.00     0.049 A 
ATOM     45  H   UNL A   1      43.312  27.741  28.282  1.00  0.00     0.167 HD
ATOM     46  C   UNL A   1      39.811  29.841  30.023  1.00  0.00     0.034 A 
ATOM     47  C   UNL A   1      45.765  27.669  26.931  1.00  0.00     0.034 A 
ATOM     48  C   UNL A   1      40.865  30.817  29.962  1.00  0.00     0.049 A 
ATOM     49  C   UNL A   1      45.596  29.072  27.445  1.00  0.00     0.074 A 
ATOM     50  C   UNL A   1      40.863  32.118  30.432  1.00  0.00     0.029 A 
ATOM     51  N   UNL A   1      42.113  30.594  29.398  1.00  0.00    -0.354 N 
ATOM     52  N   UNL A   1      44.582  29.595  28.093  1.00  0.00    -0.248 NA
ATOM     53  C   UNL A   1      46.709  30.004  27.218  1.00  0.00     0.031 C 
ATOM     54  C   UNL A   1      42.106  32.685  30.138  1.00  0.00     0.029 A 
ATOM     55  C   UNL A   1      42.891  31.731  29.508  1.00  0.00     0.049 A 
ATOM     56  H   UNL A   1      42.402  29.750  28.983  1.00  0.00     0.167 HD
ATOM     57  C   UNL A   1      44.949  30.901  28.386  1.00  0.00     0.074 A 
ATOM     58  C   UNL A   1      46.282  31.090  27.851  1.00  0.00     0.031 C 
ATOM     59  C   UNL A   1      44.243  31.864  29.029  1.00  0.00     0.034 A 
BRANCH  46  60
ATOM     60  C   UNL A   1      38.498  30.239  30.641  1.00  0.00     0.023 A 
ATOM     61  C   UNL A   1      38.215  29.886  31.974  1.00  0.00     0.012 A 
ATOM     62  C   UNL A   1      37.564  31.005  29.914  1.00  0.00     0.148 A 
ATOM     63  C   UNL A   1      37.011  30.265  32.568  1.00  0.00     0.002 A 
ATOM     64  C   UNL A   1      36.384  31.414  30.526  1.00  0.00     0.091 A 
ATOM     65  F   UNL A   1      37.840  31.307  28.638  1.00  0.00    -0.205 F 
ATOM     66  C   UNL A   1      36.102  31.037  31.848  1.00  0.00     0.022 A 
BRANCH  64  67
ATOM     67  S   UNL A   1      35.186  32.470  29.703  1.00  0.00     0.127 S 
ATOM     68  O   UNL A   1      34.606  31.551  28.725  1.00  0.00    -0.237 OA
ATOM     69  O   UNL A   1      34.291  32.836  30.802  1.00  0.00    -0.237 OA
ATOM     70  O   UNL A   1      35.946  33.580  29.147  1.00  0.00    -0.744 OA
ENDBRANCH  64  67
ENDBRANCH  46  60
BRANCH  47  71
ATOM     71  C   UNL A   1      47.000  27.244  26.214  1.00  0.00     0.023 A 
ATOM     72  C   UNL A   1      47.157  27.580  24.856  1.00  0.00     0.012 A 
ATOM     73  C   UNL A   1      48.039  26.560  26.877  1.00  0.00     0.148 A 
ATOM     74  C   UNL A   1      48.317  27.223  24.166  1.00  0.00     0.002 A 
ATOM     75  C   UNL A   1      49.213  26.255  26.199  1.00  0.00     0.091 A 
ATOM     76  F   UNL A   1      47.864  26.234  28.166  1.00  0.00    -0.205 F 
ATOM     77  C   UNL A   1      49.349  26.573  24.839  1.00  0.00     0.022 A 
BRANCH  75  78
ATOM     78  S   UNL A   1      50.641  25.540  27.021  1.00  0.00     0.127 S 
ATOM     79  O   UNL A   1      51.558  25.335  25.903  1.00  0.00    -0.237 OA
ATOM     80  O   UNL A   1      51.026  26.607  27.946  1.00  0.00    -0.237 OA
ATOM     81  O   UNL A   1      50.153  24.332  27.672  1.00  0.00    -0.744 OA
ENDBRANCH  75  78
ENDBRANCH  47  71
BRANCH  59  82
ATOM     82  C   UNL A   1      44.911  33.192  29.249  1.00  0.00     0.023 A 
ATOM     83  C   UNL A   1      45.716  33.391  30.386  1.00  0.00     0.012 A 
ATOM     84  C   UNL A   1      44.834  34.196  28.264  1.00  0.00     0.148 A 
ATOM     85  C   UNL A   1      46.427  34.579  30.546  1.00  0.00     0.002 A 
ATOM     86  C   UNL A   1      45.581  35.357  28.407  1.00  0.00     0.091 A 
ATOM     87  F   UNL A   1      44.045  33.986  27.199  1.00  0.00    -0.205 F 
ATOM     88  C   UNL A   1      46.372  35.554  29.552  1.00  0.00     0.022 A 
BRANCH  86  89
ATOM     89  S   UNL A   1      45.650  36.621  27.134  1.00  0.00     0.127 S 
ATOM     90  O   UNL A   1      46.559  37.598  27.733  1.00  0.00    -0.237 OA
ATOM     91  O   UNL A   1      46.207  35.886  25.998  1.00  0.00    -0.237 OA
ATOM     92  O   UNL A   1      44.280  37.080  26.944  1.00  0.00    -0.744 OA
ENDBRANCH  86  89
ENDBRANCH  59  82
ENDBRANCH  33  34
ENDBRANCH  26  28
ENDBRANCH  25  26
ENDBRANCH   1  25
TORSDOF 17
ENDMDL
MODEL 2
REMARK VINA RESULT:     -12.1      4.914      9.955
REMARK SMILES C[C@H]1[C@H](C(=O)OCCOC(=O)c2ccc(-c3c4nc(c(-c5cccc(S(=O)(=O)[O-])c5F)c5ccc([nH]5)c(-c5cccc(S(=O)(=O)[O-])c5F)c5nc(c(-c6cccc(S(=O)(=O)[O-])c6F)c6ccc3[nH]6)C=C5)C=C4)cc2)CC[N@@H+]1[C@@H](c1ccccc1)c1ccco1
REMARK SMILES IDX 8 1 7 2 6 3 4 4 5 5 3 6 1 7 2 8 77 9 75 10 76 11 78 13 79 14
REMARK SMILES IDX 80 15 84 16 81 17 83 18 82 19 85 20 86 21 89 22 87 23 88 24
REMARK SMILES IDX 9 25 10 26 11 27 12 28 13 29 74 30 14 31 73 32 15 33 16 34
REMARK SMILES IDX 17 35 67 36 18 37 72 38 66 39 68 40 19 41 71 42 65 43 64 44
REMARK SMILES IDX 20 46 52 47 32 48 51 49 33 50 36 51 50 52 69 53 34 54 35 55
REMARK SMILES IDX 49 57 70 58 37 59 21 60 22 61 30 62 23 63 25 64 31 65 24 66
REMARK SMILES IDX 26 67 27 68 28 69 29 70 53 71 54 72 62 73 55 74 57 75 63 76
REMARK SMILES IDX 56 77 58 78 59 79 60 80 61 81 38 82 39 83 47 84 40 85 42 86
REMARK SMILES IDX 48 87 41 88 43 89 44 90 45 91 46 92
REMARK H PARENT 77 12 68 45 36 56
REMARK Flexibility Score: inf
ROOT
ATOM      1  C   UNL A   1      31.427  30.410  25.989  1.00  0.00     0.275 C 
ENDROOT
BRANCH   1   2
ATOM      2  C   UNL A   1      31.183  29.499  24.787  1.00  0.00     0.274 C 
BRANCH   2   3
ATOM      3  O   UNL A   1      30.701  28.218  25.237  1.00  0.00    -0.462 OA
BRANCH   3   4
ATOM      4  C   UNL A   1      30.263  27.352  24.295  1.00  0.00     0.315 C 
ATOM      5  O   UNL A   1      29.794  27.686  23.211  1.00  0.00    -0.252 OA
BRANCH   4   6
ATOM      6  C   UNL A   1      30.454  25.890  24.663  1.00  0.00     0.162 C 
ATOM      7  C   UNL A   1      30.922  23.852  23.250  1.00  0.00     0.076 C 
ATOM      8  C   UNL A   1      31.532  25.101  23.908  1.00  0.00     0.196 C 
ATOM      9  N   UNL A   1      32.493  24.639  24.921  1.00  0.00    -0.319 N 
ATOM     10  C   UNL A   1      30.777  25.761  26.144  1.00  0.00     0.083 C 
ATOM     11  C   UNL A   1      31.839  24.687  26.224  1.00  0.00     0.264 C 
ATOM     12  H   UNL A   1      32.738  23.665  24.749  1.00  0.00     0.349 HD
BRANCH   9  13
ATOM     13  C   UNL A   1      33.847  25.226  24.815  1.00  0.00     0.283 C 
BRANCH  13  14
ATOM     14  C   UNL A   1      35.011  24.251  24.617  1.00  0.00     0.017 A 
ATOM     15  C   UNL A   1      35.951  24.074  25.650  1.00  0.00     0.010 A 
ATOM     16  C   UNL A   1      35.195  23.520  23.433  1.00  0.00     0.010 A 
ATOM     17  C   UNL A   1      37.022  23.188  25.508  1.00  0.00     0.001 A 
ATOM     18  C   UNL A   1      36.250  22.613  23.301  1.00  0.00     0.001 A 
ATOM     19  C   UNL A   1      37.164  22.448  24.337  1.00  0.00     0.000 A 
ENDBRANCH  13  14
BRANCH  13  20
ATOM     20  C   UNL A   1      33.839  26.412  23.874  1.00  0.00     0.165 A 
ATOM     21  C   UNL A   1      33.668  26.499  22.504  1.00  0.00     0.052 A 
ATOM     22  O   UNL A   1      34.065  27.661  24.383  1.00  0.00    -0.463 OA
ATOM     23  C   UNL A   1      33.810  27.863  22.163  1.00  0.00     0.042 A 
ATOM     24  C   UNL A   1      34.047  28.528  23.341  1.00  0.00     0.195 A 
ENDBRANCH  13  20
ENDBRANCH   9  13
ENDBRANCH   4   6
ENDBRANCH   3   4
ENDBRANCH   2   3
ENDBRANCH   1   2
BRANCH   1  25
ATOM     25  O   UNL A   1      32.829  30.473  26.292  1.00  0.00    -0.458 OA
BRANCH  25  26
ATOM     26  C   UNL A   1      33.202  31.539  27.037  1.00  0.00     0.338 C 
ATOM     27  O   UNL A   1      32.547  32.531  27.304  1.00  0.00    -0.246 OA
BRANCH  26  28
ATOM     28  C   UNL A   1      34.522  31.269  27.611  1.00  0.00     0.060 A 
ATOM     29  C   UNL A   1      34.816  29.967  28.016  1.00  0.00     0.016 A 
ATOM     30  C   UNL A   1      35.426  32.305  27.819  1.00  0.00     0.016 A 
ATOM     31  C   UNL A   1      35.998  29.692  28.689  1.00  0.00     0.010 A 
ATOM     32  C   UNL A   1      36.637  32.020  28.448  1.00  0.00     0.010 A 
ATOM     33  C   UNL A   1      36.919  30.718  28.906  1.00  0.00    -0.014 A 
BRANCH  33  34
ATOM     34  C   UNL A   1      38.177  30.461  29.636  1.00  0.00     0.031 A 
ATOM     35  C   UNL A   1      39.184  29.523  29.041  1.00  0.00     0.074 A 
ATOM     36  C   UNL A   1      38.367  31.005  30.852  1.00  0.00     0.049 A 
ATOM     37  N   UNL A   1      40.212  28.951  29.603  1.00  0.00    -0.248 NA
ATOM     38  C   UNL A   1      38.994  29.170  27.623  1.00  0.00     0.031 C 
ATOM     39  C   UNL A   1      37.465  31.958  31.504  1.00  0.00     0.029 A 
ATOM     40  N   UNL A   1      39.359  30.798  31.776  1.00  0.00    -0.354 N 
ATOM     41  C   UNL A   1      40.750  28.112  28.635  1.00  0.00     0.074 A 
ATOM     42  C   UNL A   1      39.946  28.266  27.442  1.00  0.00     0.031 C 
ATOM     43  C   UNL A   1      37.926  32.225  32.736  1.00  0.00     0.029 A 
ATOM     44  C   UNL A   1      39.113  31.414  32.981  1.00  0.00     0.049 A 
ATOM     45  H   UNL A   1      40.166  30.262  31.595  1.00  0.00     0.167 HD
ATOM     46  C   UNL A   1      41.817  27.290  28.742  1.00  0.00     0.034 A 
ATOM     47  C   UNL A   1      39.741  31.290  34.165  1.00  0.00     0.034 A 
ATOM     48  C   UNL A   1      42.628  27.193  29.925  1.00  0.00     0.049 A 
ATOM     49  C   UNL A   1      40.921  30.364  34.260  1.00  0.00     0.074 A 
ATOM     50  C   UNL A   1      43.757  26.422  30.135  1.00  0.00     0.029 A 
ATOM     51  N   UNL A   1      42.394  27.894  31.099  1.00  0.00    -0.354 N 
ATOM     52  N   UNL A   1      41.458  29.616  33.325  1.00  0.00    -0.248 NA
ATOM     53  C   UNL A   1      41.596  30.274  35.563  1.00  0.00     0.031 C 
ATOM     54  C   UNL A   1      44.199  26.649  31.441  1.00  0.00     0.029 A 
ATOM     55  C   UNL A   1      43.358  27.577  32.038  1.00  0.00     0.049 A 
ATOM     56  H   UNL A   1      41.653  28.525  31.242  1.00  0.00     0.167 HD
ATOM     57  C   UNL A   1      42.554  28.998  33.913  1.00  0.00     0.074 A 
ATOM     58  C   UNL A   1      42.609  29.465  35.284  1.00  0.00     0.031 C 
ATOM     59  C   UNL A   1      43.429  28.115  33.373  1.00  0.00     0.034 A 
BRANCH  46  60
ATOM     60  C   UNL A   1      42.177  26.443  27.551  1.00  0.00     0.023 A 
ATOM     61  C   UNL A   1      42.918  27.002  26.493  1.00  0.00     0.012 A 
ATOM     62  C   UNL A   1      41.823  25.079  27.505  1.00  0.00     0.148 A 
ATOM     63  C   UNL A   1      43.278  26.225  25.392  1.00  0.00     0.002 A 
ATOM     64  C   UNL A   1      42.221  24.301  26.424  1.00  0.00     0.091 A 
ATOM     65  F   UNL A   1      41.094  24.573  28.510  1.00  0.00    -0.205 F 
ATOM     66  C   UNL A   1      42.939  24.873  25.363  1.00  0.00     0.022 A 
BRANCH  64  67
ATOM     67  S   UNL A   1      41.893  22.537  26.332  1.00  0.00     0.127 S 
ATOM     68  O   UNL A   1      40.432  22.511  26.276  1.00  0.00    -0.237 OA
ATOM     69  O   UNL A   1      42.559  22.164  25.083  1.00  0.00    -0.237 OA
ATOM     70  O   UNL A   1      42.485  21.957  27.529  1.00  0.00    -0.744 OA
ENDBRANCH  64  67
ENDBRANCH  46  60
BRANCH  47  71
ATOM     71  C   UNL A   1      39.269  32.076  35.341  1.00  0.00     0.023 A 
ATOM     72  C   UNL A   1      38.402  31.469  36.269  1.00  0.00     0.012 A 
ATOM     73  C   UNL A   1      39.711  33.394  35.573  1.00  0.00     0.148 A 
ATOM     74  C   UNL A   1      37.967  32.168  37.396  1.00  0.00     0.002 A 
ATOM     75  C   UNL A   1      39.317  34.064  36.725  1.00  0.00     0.091 A 
ATOM     76  F   UNL A   1      40.522  33.961  34.668  1.00  0.00    -0.205 F 
ATOM     77  C   UNL A   1      38.433  33.459  37.631  1.00  0.00     0.022 A 
BRANCH  75  78
ATOM     78  S   UNL A   1      39.974  35.677  37.171  1.00  0.00     0.127 S 
ATOM     79  O   UNL A   1      39.275  35.947  38.424  1.00  0.00    -0.237 OA
ATOM     80  O   UNL A   1      41.403  35.395  37.311  1.00  0.00    -0.237 OA
ATOM     81  O   UNL A   1      39.645  36.555  36.056  1.00  0.00    -0.744 OA
ENDBRANCH  75  78
ENDBRANCH  47  71
BRANCH  59  82
ATOM     82  C   UNL A   1      44.561  27.635  34.236  1.00  0.00     0.023 A 
ATOM     83  C   UNL A   1      45.746  28.389  34.319  1.00  0.00     0.012 A 
ATOM     84  C   UNL A   1      44.396  26.501  35.055  1.00  0.00     0.148 A 
ATOM     85  C   UNL A   1      46.760  28.012  35.199  1.00  0.00     0.002 A 
ATOM     86  C   UNL A   1      45.390  26.158  35.962  1.00  0.00     0.091 A 
ATOM     87  F   UNL A   1      43.263  25.791  34.942  1.00  0.00    -0.205 F 
ATOM     88  C   UNL A   1      46.576  26.908  36.029  1.00  0.00     0.022 A 
BRANCH  86  89
ATOM     89  S   UNL A   1      45.199  24.815  37.139  1.00  0.00     0.127 S 
ATOM     90  O   UNL A   1      44.014  25.237  37.882  1.00  0.00    -0.237 OA
ATOM     91  O   UNL A   1      44.991  23.663  36.261  1.00  0.00    -0.237 OA
ATOM     92  O   UNL A   1      46.435  24.774  37.909  1.00  0.00    -0.744 OA
ENDBRANCH  86  89
ENDBRANCH  59  82
ENDBRANCH  33  34
ENDBRANCH  26  28
ENDBRANCH  25  26
ENDBRANCH   1  25
TORSDOF 17
ENDMDL
MODEL 3
REMARK VINA RESULT:     -11.9      4.800      9.899
REMARK SMILES C[C@H]1[C@H](C(=O)OCCOC(=O)c2ccc(-c3c4nc(c(-c5cccc(S(=O)(=O)[O-])c5F)c5ccc([nH]5)c(-c5cccc(S(=O)(=O)[O-])c5F)c5nc(c(-c6cccc(S(=O)(=O)[O-])c6F)c6ccc3[nH]6)C=C5)C=C4)cc2)CC[N@@H+]1[C@@H](c1ccccc1)c1ccco1
REMARK SMILES IDX 8 1 7 2 6 3 4 4 5 5 3 6 1 7 2 8 77 9 75 10 76 11 78 13 79 14
REMARK SMILES IDX 80 15 84 16 81 17 83 18 82 19 85 20 86 21 89 22 87 23 88 24
REMARK SMILES IDX 9 25 10 26 11 27 12 28 13 29 74 30 14 31 73 32 15 33 16 34
REMARK SMILES IDX 17 35 67 36 18 37 72 38 66 39 68 40 19 41 71 42 65 43 64 44
REMARK SMILES IDX 20 46 52 47 32 48 51 49 33 50 36 51 50 52 69 53 34 54 35 55
REMARK SMILES IDX 49 57 70 58 37 59 21 60 22 61 30 62 23 63 25 64 31 65 24 66
REMARK SMILES IDX 26 67 27 68 28 69 29 70 53 71 54 72 62 73 55 74 57 75 63 76
REMARK SMILES IDX 56 77 58 78 59 79 60 80 61 81 38 82 39 83 47 84 40 85 42 86
REMARK SMILES IDX 48 87 41 88 43 89 44 90 45 91 46 92
REMARK H PARENT 77 12 68 45 36 56
REMARK Flexibility Score: inf
ROOT
ATOM      1  C   UNL A   1      32.428  29.725  25.207  1.00  0.00     0.275 C 
ENDROOT
BRANCH   1   2
ATOM      2  C   UNL A   1      31.377  28.666  24.878  1.00  0.00     0.274 C 
BRANCH   2   3
ATOM      3  O   UNL A   1      31.513  27.550  25.779  1.00  0.00    -0.462 OA
BRANCH   3   4
ATOM      4  C   UNL A   1      32.393  26.581  25.441  1.00  0.00     0.315 C 
ATOM      5  O   UNL A   1      33.419  26.328  26.066  1.00  0.00    -0.252 OA
BRANCH   4   6
ATOM      6  C   UNL A   1      31.978  25.764  24.229  1.00  0.00     0.162 C 
ATOM      7  C   UNL A   1      33.214  25.149  22.116  1.00  0.00     0.076 C 
ATOM      8  C   UNL A   1      33.025  24.828  23.609  1.00  0.00     0.196 C 
ATOM      9  N   UNL A   1      32.471  23.468  23.699  1.00  0.00    -0.319 N 
ATOM     10  C   UNL A   1      30.771  24.902  24.568  1.00  0.00     0.083 C 
ATOM     11  C   UNL A   1      31.029  23.577  23.886  1.00  0.00     0.264 C 
ATOM     12  H   UNL A   1      32.619  22.974  22.820  1.00  0.00     0.349 HD
BRANCH   9  13
ATOM     13  C   UNL A   1      33.209  22.549  24.593  1.00  0.00     0.283 C 
BRANCH  13  14
ATOM     14  C   UNL A   1      32.949  21.051  24.414  1.00  0.00     0.017 A 
ATOM     15  C   UNL A   1      33.145  20.178  25.501  1.00  0.00     0.010 A 
ATOM     16  C   UNL A   1      32.525  20.495  23.197  1.00  0.00     0.010 A 
ATOM     17  C   UNL A   1      32.910  18.805  25.376  1.00  0.00     0.001 A 
ATOM     18  C   UNL A   1      32.264  19.127  23.079  1.00  0.00     0.001 A 
ATOM     19  C   UNL A   1      32.457  18.283  24.168  1.00  0.00     0.000 A 
ENDBRANCH  13  14
BRANCH  13  20
ATOM     20  C   UNL A   1      34.670  22.940  24.668  1.00  0.00     0.165 A 
ATOM     21  C   UNL A   1      35.704  22.813  23.759  1.00  0.00     0.052 A 
ATOM     22  O   UNL A   1      35.146  23.499  25.821  1.00  0.00    -0.463 OA
ATOM     23  C   UNL A   1      36.866  23.306  24.394  1.00  0.00     0.042 A 
ATOM     24  C   UNL A   1      36.473  23.714  25.645  1.00  0.00     0.195 A 
ENDBRANCH  13  20
ENDBRANCH   9  13
ENDBRANCH   4   6
ENDBRANCH   3   4
ENDBRANCH   2   3
ENDBRANCH   1   2
BRANCH   1  25
ATOM     25  O   UNL A   1      32.579  29.855  26.630  1.00  0.00    -0.458 OA
BRANCH  25  26
ATOM     26  C   UNL A   1      33.062  31.049  27.043  1.00  0.00     0.338 C 
ATOM     27  O   UNL A   1      32.485  32.121  27.068  1.00  0.00    -0.246 OA
BRANCH  26  28
ATOM     28  C   UNL A   1      34.398  30.842  27.605  1.00  0.00     0.060 A 
ATOM     29  C   UNL A   1      34.768  29.551  27.984  1.00  0.00     0.016 A 
ATOM     30  C   UNL A   1      35.245  31.923  27.827  1.00  0.00     0.016 A 
ATOM     31  C   UNL A   1      35.968  29.330  28.644  1.00  0.00     0.010 A 
ATOM     32  C   UNL A   1      36.474  31.694  28.444  1.00  0.00     0.010 A 
ATOM     33  C   UNL A   1      36.831  30.402  28.875  1.00  0.00    -0.014 A 
BRANCH  33  34
ATOM     34  C   UNL A   1      38.107  30.202  29.593  1.00  0.00     0.031 A 
ATOM     35  C   UNL A   1      39.136  29.284  29.004  1.00  0.00     0.074 A 
ATOM     36  C   UNL A   1      38.295  30.780  30.793  1.00  0.00     0.049 A 
ATOM     37  N   UNL A   1      40.189  28.758  29.565  1.00  0.00    -0.248 NA
ATOM     38  C   UNL A   1      38.938  28.893  27.598  1.00  0.00     0.031 C 
ATOM     39  C   UNL A   1      37.372  31.718  31.437  1.00  0.00     0.029 A 
ATOM     40  N   UNL A   1      39.306  30.626  31.708  1.00  0.00    -0.354 N 
ATOM     41  C   UNL A   1      40.741  27.915  28.608  1.00  0.00     0.074 A 
ATOM     42  C   UNL A   1      39.916  28.015  27.423  1.00  0.00     0.031 C 
ATOM     43  C   UNL A   1      37.841  32.028  32.655  1.00  0.00     0.029 A 
ATOM     44  C   UNL A   1      39.057  31.261  32.902  1.00  0.00     0.049 A 
ATOM     45  H   UNL A   1      40.128  30.113  31.527  1.00  0.00     0.167 HD
ATOM     46  C   UNL A   1      41.836  27.130  28.719  1.00  0.00     0.034 A 
ATOM     47  C   UNL A   1      39.704  31.185  34.080  1.00  0.00     0.034 A 
ATOM     48  C   UNL A   1      42.665  27.086  29.892  1.00  0.00     0.049 A 
ATOM     49  C   UNL A   1      40.915  30.300  34.178  1.00  0.00     0.074 A 
ATOM     50  C   UNL A   1      43.821  26.357  30.103  1.00  0.00     0.029 A 
ATOM     51  N   UNL A   1      42.425  27.807  31.053  1.00  0.00    -0.354 N 
ATOM     52  N   UNL A   1      41.463  29.548  33.253  1.00  0.00    -0.248 NA
ATOM     53  C   UNL A   1      41.610  30.261  35.473  1.00  0.00     0.031 C 
ATOM     54  C   UNL A   1      44.273  26.628  31.398  1.00  0.00     0.029 A 
ATOM     55  C   UNL A   1      43.411  27.542  31.985  1.00  0.00     0.049 A 
ATOM     56  H   UNL A   1      41.665  28.416  31.192  1.00  0.00     0.167 HD
ATOM     57  C   UNL A   1      42.586  28.979  33.839  1.00  0.00     0.074 A 
ATOM     58  C   UNL A   1      42.645  29.479  35.198  1.00  0.00     0.031 C 
ATOM     59  C   UNL A   1      43.482  28.112  33.306  1.00  0.00     0.034 A 
BRANCH  46  60
ATOM     60  C   UNL A   1      42.207  26.268  27.542  1.00  0.00     0.023 A 
ATOM     61  C   UNL A   1      42.970  26.810  26.490  1.00  0.00     0.012 A 
ATOM     62  C   UNL A   1      41.840  24.908  27.503  1.00  0.00     0.148 A 
ATOM     63  C   UNL A   1      43.341  26.018  25.403  1.00  0.00     0.002 A 
ATOM     64  C   UNL A   1      42.248  24.115  26.437  1.00  0.00     0.091 A 
ATOM     65  F   UNL A   1      41.091  24.418  28.502  1.00  0.00    -0.205 F 
ATOM     66  C   UNL A   1      42.990  24.670  25.382  1.00  0.00     0.022 A 
BRANCH  64  67
ATOM     67  S   UNL A   1      41.905  22.353  26.357  1.00  0.00     0.127 S 
ATOM     68  O   UNL A   1      40.444  22.339  26.310  1.00  0.00    -0.237 OA
ATOM     69  O   UNL A   1      42.559  21.968  25.105  1.00  0.00    -0.237 OA
ATOM     70  O   UNL A   1      42.500  21.774  27.553  1.00  0.00    -0.744 OA
ENDBRANCH  64  67
ENDBRANCH  46  60
BRANCH  47  71
ATOM     71  C   UNL A   1      39.223  31.981  35.244  1.00  0.00     0.023 A 
ATOM     72  C   UNL A   1      38.332  31.390  36.160  1.00  0.00     0.012 A 
ATOM     73  C   UNL A   1      39.679  33.294  35.478  1.00  0.00     0.148 A 
ATOM     74  C   UNL A   1      37.887  32.100  37.276  1.00  0.00     0.002 A 
ATOM     75  C   UNL A   1      39.274  33.975  36.621  1.00  0.00     0.091 A 
ATOM     76  F   UNL A   1      40.513  33.847  34.586  1.00  0.00    -0.205 F 
ATOM     77  C   UNL A   1      38.367  33.385  37.514  1.00  0.00     0.022 A 
BRANCH  75  78
ATOM     78  S   UNL A   1      39.946  35.580  37.072  1.00  0.00     0.127 S 
ATOM     79  O   UNL A   1      39.224  35.868  38.308  1.00  0.00    -0.237 OA
ATOM     80  O   UNL A   1      41.367  35.278  37.245  1.00  0.00    -0.237 OA
ATOM     81  O   UNL A   1      39.654  36.457  35.945  1.00  0.00    -0.744 OA
ENDBRANCH  75  78
ENDBRANCH  47  71
BRANCH  59  82
ATOM     82  C   UNL A   1      44.641  27.688  34.164  1.00  0.00     0.023 A 
ATOM     83  C   UNL A   1      45.802  28.482  34.213  1.00  0.00     0.012 A 
ATOM     84  C   UNL A   1      44.524  26.569  35.011  1.00  0.00     0.148 A 
ATOM     85  C   UNL A   1      46.840  28.159  35.086  1.00  0.00     0.002 A 
ATOM     86  C   UNL A   1      45.540  26.280  35.911  1.00  0.00     0.091 A 
ATOM     87  F   UNL A   1      43.413  25.821  34.930  1.00  0.00    -0.205 F 
ATOM     88  C   UNL A   1      46.703  27.068  35.944  1.00  0.00     0.022 A 
BRANCH  86  89
ATOM     89  S   UNL A   1      45.409  24.959  37.120  1.00  0.00     0.127 S 
ATOM     90  O   UNL A   1      44.428  25.507  38.055  1.00  0.00    -0.237 OA
ATOM     91  O   UNL A   1      44.921  23.843  36.308  1.00  0.00    -0.237 OA
ATOM     92  O   UNL A   1      46.748  24.772  37.662  1.00  0.00    -0.744 OA
ENDBRANCH  86  89
ENDBRANCH  59  82
ENDBRANCH  33  34
ENDBRANCH  26  28
ENDBRANCH  25  26
ENDBRANCH   1  25
TORSDOF 17
ENDMDL
