MODEL 1
REMARK VINA RESULT:     -11.2      0.000      0.000
REMARK SMILES C/C=C/C[C@]1(C(=O)OCCOC(=O)c2ccc(-c3c4nc(c(-c5cccc(S(=O)(=O)[O-])c5F)c5ccc([nH]5)c(-c5cccc(S(=O)(=O)[O-])c5F)c5nc(c(-c6cccc(S(=O)(=O)[O-])c6F)c6ccc3[nH]6)C=C5)C=C4)cc2)CCN(C(=O)OC(C)(C)C)C1
REMARK SMILES IDX 9 1 8 2 6 3 7 4 5 5 77 6 87 7 78 8 79 9 4 10 3 11 1 12 2 13
REMARK SMILES IDX 80 14 81 15 82 16 83 17 84 18 85 19 86 20 10 21 11 22 12 23
REMARK SMILES IDX 13 24 14 25 15 26 76 27 16 28 75 29 17 30 18 31 19 32 69 33
REMARK SMILES IDX 20 34 74 35 68 36 70 37 21 38 73 39 67 40 66 41 22 43 54 44
REMARK SMILES IDX 34 45 53 46 35 47 38 48 52 49 71 50 36 51 37 52 51 54 72 55
REMARK SMILES IDX 39 56 23 57 24 58 32 59 25 60 27 61 33 62 26 63 28 64 29 65
REMARK SMILES IDX 30 66 31 67 55 68 56 69 64 70 57 71 59 72 65 73 58 74 60 75
REMARK SMILES IDX 61 76 62 77 63 78 40 79 41 80 49 81 42 82 44 83 50 84 43 85
REMARK SMILES IDX 45 86 46 87 47 88 48 89
REMARK H PARENT 70 42 38 53
REMARK Flexibility Score: inf
ROOT
ATOM      1  C   UNL A   1      38.172  19.960  24.738  1.00  0.00     0.274 C 
ENDROOT
BRANCH   1   2
ATOM      2  O   UNL A   1      37.137  20.683  25.435  1.00  0.00    -0.462 OA
BRANCH   2   3
ATOM      3  C   UNL A   1      36.429  21.559  24.679  1.00  0.00     0.314 C 
ATOM      4  O   UNL A   1      36.928  22.314  23.852  1.00  0.00    -0.252 OA
BRANCH   3   5
ATOM      5  C   UNL A   1      34.942  21.585  25.011  1.00  0.00     0.091 C 
ATOM      6  C   UNL A   1      33.947  21.812  23.847  1.00  0.00     0.042 C 
ATOM      7  C   UNL A   1      34.626  20.140  25.431  1.00  0.00     0.142 C 
ATOM      8  C   UNL A   1      32.716  21.039  24.301  1.00  0.00     0.124 C 
ATOM      9  N   UNL A   1      33.304  19.865  24.908  1.00  0.00    -0.307 N 
BRANCH   5  10
ATOM     10  C   UNL A   1      34.691  22.595  26.152  1.00  0.00     0.047 C 
BRANCH  10  11
ATOM     11  C   UNL A   1      34.075  23.845  25.594  1.00  0.00    -0.030 C 
ATOM     12  C   UNL A   1      33.889  26.186  24.835  1.00  0.00     0.035 C 
ATOM     13  C   UNL A   1      34.657  25.033  25.399  1.00  0.00    -0.035 C 
ENDBRANCH  10  11
ENDBRANCH   5  10
BRANCH   9  14
ATOM     14  C   UNL A   1      32.839  18.583  24.791  1.00  0.00     0.410 C 
ATOM     15  O   UNL A   1      31.796  18.301  24.220  1.00  0.00    -0.224 OA
BRANCH  14  16
ATOM     16  O   UNL A   1      33.658  17.697  25.408  1.00  0.00    -0.444 OA
BRANCH  16  17
ATOM     17  C   UNL A   1      33.994  16.445  24.765  1.00  0.00     0.106 C 
ATOM     18  C   UNL A   1      32.938  15.391  25.112  1.00  0.00     0.056 C 
ATOM     19  C   UNL A   1      34.194  16.589  23.251  1.00  0.00     0.056 C 
ATOM     20  C   UNL A   1      35.336  16.034  25.390  1.00  0.00     0.056 C 
ENDBRANCH  16  17
ENDBRANCH  14  16
ENDBRANCH   9  14
ENDBRANCH   3   5
ENDBRANCH   2   3
ENDBRANCH   1   2
BRANCH   1  21
ATOM     21  C   UNL A   1      39.246  19.449  25.692  1.00  0.00     0.275 C 
BRANCH  21  22
ATOM     22  O   UNL A   1      40.348  20.373  25.772  1.00  0.00    -0.458 OA
BRANCH  22  23
ATOM     23  C   UNL A   1      40.970  20.406  26.972  1.00  0.00     0.338 C 
ATOM     24  O   UNL A   1      41.624  19.500  27.471  1.00  0.00    -0.246 OA
BRANCH  23  25
ATOM     25  C   UNL A   1      40.872  21.720  27.645  1.00  0.00     0.060 A 
ATOM     26  C   UNL A   1      40.023  22.693  27.135  1.00  0.00     0.016 A 
ATOM     27  C   UNL A   1      41.895  22.088  28.524  1.00  0.00     0.016 A 
ATOM     28  C   UNL A   1      40.376  24.039  27.287  1.00  0.00     0.010 A 
ATOM     29  C   UNL A   1      42.133  23.440  28.805  1.00  0.00     0.010 A 
ATOM     30  C   UNL A   1      41.448  24.446  28.108  1.00  0.00    -0.014 A 
BRANCH  30  31
ATOM     31  C   UNL A   1      41.870  25.889  28.192  1.00  0.00     0.031 A 
ATOM     32  C   UNL A   1      43.236  26.364  27.713  1.00  0.00     0.074 A 
ATOM     33  C   UNL A   1      41.017  26.817  28.679  1.00  0.00     0.049 A 
ATOM     34  N   UNL A   1      43.781  27.557  27.804  1.00  0.00    -0.248 NA
ATOM     35  C   UNL A   1      44.103  25.387  27.034  1.00  0.00     0.031 C 
ATOM     36  C   UNL A   1      39.662  26.551  29.166  1.00  0.00     0.029 A 
ATOM     37  N   UNL A   1      41.164  28.174  28.859  1.00  0.00    -0.354 N 
ATOM     38  C   UNL A   1      45.053  27.459  27.242  1.00  0.00     0.074 A 
ATOM     39  C   UNL A   1      45.199  26.094  26.790  1.00  0.00     0.031 C 
ATOM     40  C   UNL A   1      39.090  27.700  29.544  1.00  0.00     0.029 A 
ATOM     41  C   UNL A   1      40.078  28.766  29.462  1.00  0.00     0.049 A 
ATOM     42  H   UNL A   1      41.967  28.672  28.580  1.00  0.00     0.167 HD
ATOM     43  C   UNL A   1      46.019  28.404  27.116  1.00  0.00     0.034 A 
ATOM     44  C   UNL A   1      39.901  29.998  29.978  1.00  0.00     0.034 A 
ATOM     45  C   UNL A   1      45.897  29.768  27.565  1.00  0.00     0.049 A 
ATOM     46  C   UNL A   1      41.013  30.998  29.909  1.00  0.00     0.074 A 
ATOM     47  C   UNL A   1      46.835  30.787  27.490  1.00  0.00     0.029 A 
ATOM     48  N   UNL A   1      44.783  30.306  28.190  1.00  0.00    -0.354 N 
ATOM     49  N   UNL A   1      42.193  30.885  29.354  1.00  0.00    -0.248 NA
ATOM     50  C   UNL A   1      40.762  32.305  30.533  1.00  0.00     0.031 C 
ATOM     51  C   UNL A   1      46.306  31.923  28.110  1.00  0.00     0.029 A 
ATOM     52  C   UNL A   1      45.018  31.631  28.524  1.00  0.00     0.049 A 
ATOM     53  H   UNL A   1      43.947  29.818  28.368  1.00  0.00     0.167 HD
ATOM     54  C   UNL A   1      42.819  32.111  29.541  1.00  0.00     0.074 A 
ATOM     55  C   UNL A   1      41.873  32.963  30.232  1.00  0.00     0.031 C 
ATOM     56  C   UNL A   1      44.070  32.490  29.183  1.00  0.00     0.034 A 
BRANCH  43  57
ATOM     57  C   UNL A   1      47.331  28.001  26.480  1.00  0.00     0.023 A 
ATOM     58  C   UNL A   1      48.410  27.582  27.283  1.00  0.00     0.012 A 
ATOM     59  C   UNL A   1      47.459  27.953  25.075  1.00  0.00     0.148 A 
ATOM     60  C   UNL A   1      49.603  27.147  26.701  1.00  0.00     0.002 A 
ATOM     61  C   UNL A   1      48.635  27.479  24.503  1.00  0.00     0.091 A 
ATOM     62  F   UNL A   1      46.428  28.367  24.327  1.00  0.00    -0.205 F 
ATOM     63  C   UNL A   1      49.711  27.085  25.313  1.00  0.00     0.022 A 
BRANCH  61  64
ATOM     64  S   UNL A   1      48.842  27.290  22.727  1.00  0.00     0.127 S 
ATOM     65  O   UNL A   1      48.019  28.387  22.217  1.00  0.00    -0.237 OA
ATOM     66  O   UNL A   1      50.283  27.483  22.562  1.00  0.00    -0.237 OA
ATOM     67  O   UNL A   1      48.367  25.953  22.407  1.00  0.00    -0.744 OA
ENDBRANCH  61  64
ENDBRANCH  43  57
BRANCH  44  68
ATOM     68  C   UNL A   1      38.615  30.328  30.658  1.00  0.00     0.023 A 
ATOM     69  C   UNL A   1      38.443  30.029  32.021  1.00  0.00     0.012 A 
ATOM     70  C   UNL A   1      37.581  30.984  29.961  1.00  0.00     0.148 A 
ATOM     71  C   UNL A   1      37.256  30.363  32.674  1.00  0.00     0.002 A 
ATOM     72  C   UNL A   1      36.437  31.386  30.635  1.00  0.00     0.091 A 
ATOM     73  F   UNL A   1      37.751  31.232  28.654  1.00  0.00    -0.205 F 
ATOM     74  C   UNL A   1      36.262  31.058  31.987  1.00  0.00     0.022 A 
BRANCH  72  75
ATOM     75  S   UNL A   1      35.197  32.435  29.868  1.00  0.00     0.127 S 
ATOM     76  O   UNL A   1      34.292  32.693  30.984  1.00  0.00    -0.237 OA
ATOM     77  O   UNL A   1      35.997  33.585  29.441  1.00  0.00    -0.237 OA
ATOM     78  O   UNL A   1      34.646  31.653  28.770  1.00  0.00    -0.744 OA
ENDBRANCH  72  75
ENDBRANCH  44  68
BRANCH  56  79
ATOM     79  C   UNL A   1      44.473  33.909  29.493  1.00  0.00     0.023 A 
ATOM     80  C   UNL A   1      45.090  34.220  30.722  1.00  0.00     0.012 A 
ATOM     81  C   UNL A   1      44.239  34.940  28.561  1.00  0.00     0.148 A 
ATOM     82  C   UNL A   1      45.413  35.538  31.042  1.00  0.00     0.002 A 
ATOM     83  C   UNL A   1      44.613  36.243  28.864  1.00  0.00     0.091 A 
ATOM     84  F   UNL A   1      43.633  34.633  27.404  1.00  0.00    -0.205 F 
ATOM     85  C   UNL A   1      45.181  36.548  30.111  1.00  0.00     0.022 A 
BRANCH  83  86
ATOM     86  S   UNL A   1      44.435  37.588  27.687  1.00  0.00     0.127 S 
ATOM     87  O   UNL A   1      45.647  37.442  26.882  1.00  0.00    -0.237 OA
ATOM     88  O   UNL A   1      43.197  37.231  26.992  1.00  0.00    -0.237 OA
ATOM     89  O   UNL A   1      44.350  38.805  28.482  1.00  0.00    -0.744 OA
ENDBRANCH  83  86
ENDBRANCH  56  79
ENDBRANCH  30  31
ENDBRANCH  23  25
ENDBRANCH  22  23
ENDBRANCH  21  22
ENDBRANCH   1  21
TORSDOF 19
ENDMDL
MODEL 2
REMARK VINA RESULT:     -11.2      1.575      3.346
REMARK SMILES C/C=C/C[C@]1(C(=O)OCCOC(=O)c2ccc(-c3c4nc(c(-c5cccc(S(=O)(=O)[O-])c5F)c5ccc([nH]5)c(-c5cccc(S(=O)(=O)[O-])c5F)c5nc(c(-c6cccc(S(=O)(=O)[O-])c6F)c6ccc3[nH]6)C=C5)C=C4)cc2)CCN(C(=O)OC(C)(C)C)C1
REMARK SMILES IDX 9 1 8 2 6 3 7 4 5 5 77 6 87 7 78 8 79 9 4 10 3 11 1 12 2 13
REMARK SMILES IDX 80 14 81 15 82 16 83 17 84 18 85 19 86 20 10 21 11 22 12 23
REMARK SMILES IDX 13 24 14 25 15 26 76 27 16 28 75 29 17 30 18 31 19 32 69 33
REMARK SMILES IDX 20 34 74 35 68 36 70 37 21 38 73 39 67 40 66 41 22 43 54 44
REMARK SMILES IDX 34 45 53 46 35 47 38 48 52 49 71 50 36 51 37 52 51 54 72 55
REMARK SMILES IDX 39 56 23 57 24 58 32 59 25 60 27 61 33 62 26 63 28 64 29 65
REMARK SMILES IDX 30 66 31 67 55 68 56 69 64 70 57 71 59 72 65 73 58 74 60 75
REMARK SMILES IDX 61 76 62 77 63 78 40 79 41 80 49 81 42 82 44 83 50 84 43 85
REMARK SMILES IDX 45 86 46 87 47 88 48 89
REMARK H PARENT 70 42 38 53
REMARK Flexibility Score: inf
ROOT
ATOM      1  C   UNL A   1      37.013  20.433  24.910  1.00  0.00     0.274 C 
ENDROOT
BRANCH   1   2
ATOM      2  O   UNL A   1      37.205  21.857  24.803  1.00  0.00    -0.462 OA
BRANCH   2   3
ATOM      3  C   UNL A   1      36.414  22.484  23.896  1.00  0.00     0.314 C 
ATOM      4  O   UNL A   1      36.683  22.588  22.704  1.00  0.00    -0.252 OA
BRANCH   3   5
ATOM      5  C   UNL A   1      35.181  23.135  24.509  1.00  0.00     0.091 C 
ATOM      6  C   UNL A   1      35.392  24.375  25.410  1.00  0.00     0.042 C 
ATOM      7  C   UNL A   1      34.433  23.731  23.306  1.00  0.00     0.142 C 
ATOM      8  C   UNL A   1      34.114  25.173  25.190  1.00  0.00     0.124 C 
ATOM      9  N   UNL A   1      33.881  24.985  23.775  1.00  0.00    -0.307 N 
BRANCH   5  10
ATOM     10  C   UNL A   1      34.347  22.060  25.243  1.00  0.00     0.047 C 
BRANCH  10  11
ATOM     11  C   UNL A   1      33.574  21.251  24.243  1.00  0.00    -0.030 C 
ATOM     12  C   UNL A   1      32.354  19.339  23.270  1.00  0.00     0.035 C 
ATOM     13  C   UNL A   1      33.105  20.006  24.379  1.00  0.00    -0.035 C 
ENDBRANCH  10  11
ENDBRANCH   5  10
BRANCH   9  14
ATOM     14  C   UNL A   1      33.448  25.943  22.899  1.00  0.00     0.410 C 
ATOM     15  O   UNL A   1      33.783  25.972  21.724  1.00  0.00    -0.224 OA
BRANCH  14  16
ATOM     16  O   UNL A   1      32.641  26.847  23.505  1.00  0.00    -0.444 OA
BRANCH  16  17
ATOM     17  C   UNL A   1      31.203  26.707  23.431  1.00  0.00     0.106 C 
ATOM     18  C   UNL A   1      30.652  27.636  22.345  1.00  0.00     0.056 C 
ATOM     19  C   UNL A   1      30.757  25.253  23.231  1.00  0.00     0.056 C 
ATOM     20  C   UNL A   1      30.696  27.182  24.801  1.00  0.00     0.056 C 
ENDBRANCH  16  17
ENDBRANCH  14  16
ENDBRANCH   9  14
ENDBRANCH   3   5
ENDBRANCH   2   3
ENDBRANCH   1   2
BRANCH   1  21
ATOM     21  C   UNL A   1      38.322  19.706  25.197  1.00  0.00     0.275 C 
BRANCH  21  22
ATOM     22  O   UNL A   1      39.426  20.630  25.247  1.00  0.00    -0.458 OA
BRANCH  22  23
ATOM     23  C   UNL A   1      40.169  20.561  26.374  1.00  0.00     0.338 C 
ATOM     24  O   UNL A   1      40.817  19.595  26.753  1.00  0.00    -0.246 OA
BRANCH  23  25
ATOM     25  C   UNL A   1      40.218  21.838  27.120  1.00  0.00     0.060 A 
ATOM     26  C   UNL A   1      39.435  22.908  26.706  1.00  0.00     0.016 A 
ATOM     27  C   UNL A   1      41.308  22.066  27.965  1.00  0.00     0.016 A 
ATOM     28  C   UNL A   1      39.912  24.207  26.912  1.00  0.00     0.010 A 
ATOM     29  C   UNL A   1      41.676  23.374  28.306  1.00  0.00     0.010 A 
ATOM     30  C   UNL A   1      41.051  24.473  27.699  1.00  0.00    -0.014 A 
BRANCH  30  31
ATOM     31  C   UNL A   1      41.602  25.868  27.839  1.00  0.00     0.031 A 
ATOM     32  C   UNL A   1      42.974  26.256  27.301  1.00  0.00     0.074 A 
ATOM     33  C   UNL A   1      40.863  26.831  28.432  1.00  0.00     0.049 A 
ATOM     34  N   UNL A   1      43.625  27.391  27.426  1.00  0.00    -0.248 NA
ATOM     35  C   UNL A   1      43.711  25.254  26.514  1.00  0.00     0.031 C 
ATOM     36  C   UNL A   1      39.521  26.649  28.988  1.00  0.00     0.029 A 
ATOM     37  N   UNL A   1      41.139  28.158  28.679  1.00  0.00    -0.354 N 
ATOM     38  C   UNL A   1      44.848  27.222  26.779  1.00  0.00     0.074 A 
ATOM     39  C   UNL A   1      44.848  25.881  26.241  1.00  0.00     0.031 C 
ATOM     40  C   UNL A   1      39.075  27.816  29.468  1.00  0.00     0.029 A 
ATOM     41  C   UNL A   1      40.146  28.799  29.385  1.00  0.00     0.049 A 
ATOM     42  H   UNL A   1      41.964  28.603  28.380  1.00  0.00     0.167 HD
ATOM     43  C   UNL A   1      45.884  28.090  26.647  1.00  0.00     0.034 A 
ATOM     44  C   UNL A   1      40.108  30.007  29.980  1.00  0.00     0.034 A 
ATOM     45  C   UNL A   1      45.908  29.428  27.180  1.00  0.00     0.049 A 
ATOM     46  C   UNL A   1      41.296  30.913  29.898  1.00  0.00     0.074 A 
ATOM     47  C   UNL A   1      46.926  30.368  27.104  1.00  0.00     0.029 A 
ATOM     48  N   UNL A   1      44.884  30.017  27.904  1.00  0.00    -0.354 N 
ATOM     49  N   UNL A   1      42.428  30.736  29.264  1.00  0.00    -0.248 NA
ATOM     50  C   UNL A   1      41.198  32.194  30.611  1.00  0.00     0.031 C 
ATOM     51  C   UNL A   1      46.535  31.504  27.821  1.00  0.00     0.029 A 
ATOM     52  C   UNL A   1      45.253  31.294  28.299  1.00  0.00     0.049 A 
ATOM     53  H   UNL A   1      44.021  29.591  28.108  1.00  0.00     0.167 HD
ATOM     54  C   UNL A   1      43.168  31.892  29.480  1.00  0.00     0.074 A 
ATOM     55  C   UNL A   1      42.342  32.774  30.278  1.00  0.00     0.031 C 
ATOM     56  C   UNL A   1      44.424  32.186  29.066  1.00  0.00     0.034 A 
BRANCH  43  57
ATOM     57  C   UNL A   1      47.116  27.619  25.906  1.00  0.00     0.023 A 
ATOM     58  C   UNL A   1      48.082  26.832  26.563  1.00  0.00     0.012 A 
ATOM     59  C   UNL A   1      47.267  27.886  24.528  1.00  0.00     0.148 A 
ATOM     60  C   UNL A   1      49.190  26.339  25.870  1.00  0.00     0.002 A 
ATOM     61  C   UNL A   1      48.351  27.357  23.835  1.00  0.00     0.091 A 
ATOM     62  F   UNL A   1      46.346  28.648  23.922  1.00  0.00    -0.205 F 
ATOM     63  C   UNL A   1      49.318  26.592  24.505  1.00  0.00     0.022 A 
BRANCH  61  64
ATOM     64  S   UNL A   1      48.563  27.564  22.062  1.00  0.00     0.127 S 
ATOM     65  O   UNL A   1      49.644  28.549  22.008  1.00  0.00    -0.237 OA
ATOM     66  O   UNL A   1      48.947  26.217  21.637  1.00  0.00    -0.237 OA
ATOM     67  O   UNL A   1      47.278  28.019  21.553  1.00  0.00    -0.744 OA
ENDBRANCH  61  64
ENDBRANCH  43  57
BRANCH  44  68
ATOM     68  C   UNL A   1      38.897  30.400  30.759  1.00  0.00     0.023 A 
ATOM     69  C   UNL A   1      38.869  30.221  32.154  1.00  0.00     0.012 A 
ATOM     70  C   UNL A   1      37.792  30.996  30.119  1.00  0.00     0.148 A 
ATOM     71  C   UNL A   1      37.755  30.616  32.895  1.00  0.00     0.002 A 
ATOM     72  C   UNL A   1      36.723  31.459  30.870  1.00  0.00     0.091 A 
ATOM     73  F   UNL A   1      37.825  31.128  28.784  1.00  0.00    -0.205 F 
ATOM     74  C   UNL A   1      36.691  31.252  32.257  1.00  0.00     0.022 A 
BRANCH  72  75
ATOM     75  S   UNL A   1      35.404  32.442  30.147  1.00  0.00     0.127 S 
ATOM     76  O   UNL A   1      34.995  31.610  29.020  1.00  0.00    -0.237 OA
ATOM     77  O   UNL A   1      34.441  32.510  31.248  1.00  0.00    -0.237 OA
ATOM     78  O   UNL A   1      36.011  33.722  29.807  1.00  0.00    -0.744 OA
ENDBRANCH  72  75
ENDBRANCH  44  68
BRANCH  56  79
ATOM     79  C   UNL A   1      44.967  33.545  29.430  1.00  0.00     0.023 A 
ATOM     80  C   UNL A   1      45.601  33.746  30.674  1.00  0.00     0.012 A 
ATOM     81  C   UNL A   1      44.848  34.627  28.536  1.00  0.00     0.148 A 
ATOM     82  C   UNL A   1      46.053  35.012  31.044  1.00  0.00     0.002 A 
ATOM     83  C   UNL A   1      45.350  35.874  28.889  1.00  0.00     0.091 A 
ATOM     84  F   UNL A   1      44.225  34.426  27.366  1.00  0.00    -0.205 F 
ATOM     85  C   UNL A   1      45.935  36.073  30.150  1.00  0.00     0.022 A 
BRANCH  83  86
ATOM     86  S   UNL A   1      45.322  37.271  27.762  1.00  0.00     0.127 S 
ATOM     87  O   UNL A   1      46.044  38.286  28.526  1.00  0.00    -0.237 OA
ATOM     88  O   UNL A   1      46.048  36.751  26.603  1.00  0.00    -0.237 OA
ATOM     89  O   UNL A   1      43.914  37.554  27.513  1.00  0.00    -0.744 OA
ENDBRANCH  83  86
ENDBRANCH  56  79
ENDBRANCH  30  31
ENDBRANCH  23  25
ENDBRANCH  22  23
ENDBRANCH  21  22
ENDBRANCH   1  21
TORSDOF 19
ENDMDL
MODEL 3
REMARK VINA RESULT:     -11.0      1.599      8.324
REMARK SMILES C/C=C/C[C@]1(C(=O)OCCOC(=O)c2ccc(-c3c4nc(c(-c5cccc(S(=O)(=O)[O-])c5F)c5ccc([nH]5)c(-c5cccc(S(=O)(=O)[O-])c5F)c5nc(c(-c6cccc(S(=O)(=O)[O-])c6F)c6ccc3[nH]6)C=C5)C=C4)cc2)CCN(C(=O)OC(C)(C)C)C1
REMARK SMILES IDX 9 1 8 2 6 3 7 4 5 5 77 6 87 7 78 8 79 9 4 10 3 11 1 12 2 13
REMARK SMILES IDX 80 14 81 15 82 16 83 17 84 18 85 19 86 20 10 21 11 22 12 23
REMARK SMILES IDX 13 24 14 25 15 26 76 27 16 28 75 29 17 30 18 31 19 32 69 33
REMARK SMILES IDX 20 34 74 35 68 36 70 37 21 38 73 39 67 40 66 41 22 43 54 44
REMARK SMILES IDX 34 45 53 46 35 47 38 48 52 49 71 50 36 51 37 52 51 54 72 55
REMARK SMILES IDX 39 56 23 57 24 58 32 59 25 60 27 61 33 62 26 63 28 64 29 65
REMARK SMILES IDX 30 66 31 67 55 68 56 69 64 70 57 71 59 72 65 73 58 74 60 75
REMARK SMILES IDX 61 76 62 77 63 78 40 79 41 80 49 81 42 82 44 83 50 84 43 85
REMARK SMILES IDX 45 86 46 87 47 88 48 89
REMARK H PARENT 70 42 38 53
REMARK Flexibility Score: inf
ROOT
ATOM      1  C   UNL A   1      35.990  20.217  25.002  1.00  0.00     0.274 C 
ENDROOT
BRANCH   1   2
ATOM      2  O   UNL A   1      35.514  21.575  25.087  1.00  0.00    -0.462 OA
BRANCH   2   3
ATOM      3  C   UNL A   1      34.382  21.750  25.815  1.00  0.00     0.314 C 
ATOM      4  O   UNL A   1      34.225  21.326  26.955  1.00  0.00    -0.252 OA
BRANCH   3   5
ATOM      5  C   UNL A   1      33.270  22.456  25.051  1.00  0.00     0.091 C 
ATOM      6  C   UNL A   1      32.040  22.945  25.853  1.00  0.00     0.042 C 
ATOM      7  C   UNL A   1      33.908  23.778  24.596  1.00  0.00     0.142 C 
ATOM      8  C   UNL A   1      31.596  24.174  25.072  1.00  0.00     0.124 C 
ATOM      9  N   UNL A   1      32.860  24.772  24.705  1.00  0.00    -0.307 N 
BRANCH   5  10
ATOM     10  C   UNL A   1      32.832  21.577  23.858  1.00  0.00     0.047 C 
BRANCH  10  11
ATOM     11  C   UNL A   1      32.567  20.178  24.331  1.00  0.00    -0.030 C 
ATOM     12  C   UNL A   1      32.296  17.725  24.248  1.00  0.00     0.035 C 
ATOM     13  C   UNL A   1      32.594  19.048  23.615  1.00  0.00    -0.035 C 
ENDBRANCH  10  11
ENDBRANCH   5  10
BRANCH   9  14
ATOM     14  C   UNL A   1      33.148  26.110  24.713  1.00  0.00     0.410 C 
ATOM     15  O   UNL A   1      34.175  26.569  25.191  1.00  0.00    -0.224 OA
BRANCH  14  16
ATOM     16  O   UNL A   1      32.150  26.839  24.158  1.00  0.00    -0.444 OA
BRANCH  16  17
ATOM     17  C   UNL A   1      32.294  27.376  22.822  1.00  0.00     0.106 C 
ATOM     18  C   UNL A   1      32.887  28.786  22.896  1.00  0.00     0.056 C 
ATOM     19  C   UNL A   1      33.099  26.456  21.896  1.00  0.00     0.056 C 
ATOM     20  C   UNL A   1      30.858  27.464  22.282  1.00  0.00     0.056 C 
ENDBRANCH  16  17
ENDBRANCH  14  16
ENDBRANCH   9  14
ENDBRANCH   3   5
ENDBRANCH   2   3
ENDBRANCH   1   2
BRANCH   1  21
ATOM     21  C   UNL A   1      37.497  20.160  24.771  1.00  0.00     0.275 C 
BRANCH  21  22
ATOM     22  O   UNL A   1      38.115  21.424  25.082  1.00  0.00    -0.458 OA
BRANCH  22  23
ATOM     23  C   UNL A   1      39.242  21.333  25.825  1.00  0.00     0.338 C 
ATOM     24  O   UNL A   1      40.104  20.470  25.725  1.00  0.00    -0.246 OA
BRANCH  23  25
ATOM     25  C   UNL A   1      39.414  22.462  26.764  1.00  0.00     0.060 A 
ATOM     26  C   UNL A   1      38.764  23.665  26.522  1.00  0.00     0.016 A 
ATOM     27  C   UNL A   1      40.503  22.430  27.640  1.00  0.00     0.016 A 
ATOM     28  C   UNL A   1      39.376  24.853  26.935  1.00  0.00     0.010 A 
ATOM     29  C   UNL A   1      41.005  23.618  28.187  1.00  0.00     0.010 A 
ATOM     30  C   UNL A   1      40.520  24.862  27.759  1.00  0.00    -0.014 A 
BRANCH  30  31
ATOM     31  C   UNL A   1      41.217  26.147  28.123  1.00  0.00     0.031 A 
ATOM     32  C   UNL A   1      40.507  27.272  28.866  1.00  0.00     0.074 A 
ATOM     33  C   UNL A   1      42.521  26.321  27.814  1.00  0.00     0.049 A 
ATOM     34  N   UNL A   1      40.945  28.474  29.167  1.00  0.00    -0.248 NA
ATOM     35  C   UNL A   1      39.138  27.021  29.345  1.00  0.00     0.031 C 
ATOM     36  C   UNL A   1      43.366  25.347  27.121  1.00  0.00     0.029 A 
ATOM     37  N   UNL A   1      43.366  27.386  28.031  1.00  0.00    -0.354 N 
ATOM     38  C   UNL A   1      39.900  29.126  29.823  1.00  0.00     0.074 A 
ATOM     39  C   UNL A   1      38.809  28.182  29.898  1.00  0.00     0.031 C 
ATOM     40  C   UNL A   1      44.607  25.833  27.010  1.00  0.00     0.029 A 
ATOM     41  C   UNL A   1      44.620  27.207  27.492  1.00  0.00     0.049 A 
ATOM     42  H   UNL A   1      43.100  28.196  28.525  1.00  0.00     0.167 HD
ATOM     43  C   UNL A   1      39.841  30.391  30.313  1.00  0.00     0.034 A 
ATOM     44  C   UNL A   1      45.650  28.057  27.318  1.00  0.00     0.034 A 
ATOM     45  C   UNL A   1      40.915  31.349  30.244  1.00  0.00     0.049 A 
ATOM     46  C   UNL A   1      45.530  29.475  27.784  1.00  0.00     0.074 A 
ATOM     47  C   UNL A   1      40.931  32.659  30.702  1.00  0.00     0.029 A 
ATOM     48  N   UNL A   1      42.153  31.120  29.667  1.00  0.00    -0.354 N 
ATOM     49  N   UNL A   1      44.541  30.055  28.418  1.00  0.00    -0.248 NA
ATOM     50  C   UNL A   1      46.676  30.355  27.518  1.00  0.00     0.031 C 
ATOM     51  C   UNL A   1      42.160  33.232  30.360  1.00  0.00     0.029 A 
ATOM     52  C   UNL A   1      42.931  32.266  29.738  1.00  0.00     0.049 A 
ATOM     53  H   UNL A   1      42.440  30.267  29.267  1.00  0.00     0.167 HD
ATOM     54  C   UNL A   1      44.954  31.361  28.647  1.00  0.00     0.074 A 
ATOM     55  C   UNL A   1      46.295  31.476  28.112  1.00  0.00     0.031 C 
ATOM     56  C   UNL A   1      44.275  32.376  29.235  1.00  0.00     0.034 A 
BRANCH  43  57
ATOM     57  C   UNL A   1      38.551  30.844  30.960  1.00  0.00     0.023 A 
ATOM     58  C   UNL A   1      38.376  30.726  32.353  1.00  0.00     0.012 A 
ATOM     59  C   UNL A   1      37.548  31.471  30.191  1.00  0.00     0.148 A 
ATOM     60  C   UNL A   1      37.215  31.201  32.966  1.00  0.00     0.002 A 
ATOM     61  C   UNL A   1      36.412  31.978  30.814  1.00  0.00     0.091 A 
ATOM     62  F   UNL A   1      37.724  31.562  28.865  1.00  0.00    -0.205 F 
ATOM     63  C   UNL A   1      36.240  31.836  32.200  1.00  0.00     0.022 A 
BRANCH  61  64
ATOM     64  S   UNL A   1      35.137  32.879  29.924  1.00  0.00     0.127 S 
ATOM     65  O   UNL A   1      34.205  33.211  31.002  1.00  0.00    -0.237 OA
ATOM     66  O   UNL A   1      35.880  34.020  29.390  1.00  0.00    -0.237 OA
ATOM     67  O   UNL A   1      34.625  31.962  28.917  1.00  0.00    -0.744 OA
ENDBRANCH  61  64
ENDBRANCH  43  57
BRANCH  44  68
ATOM     68  C   UNL A   1      46.876  27.585  26.612  1.00  0.00     0.023 A 
ATOM     69  C   UNL A   1      47.811  26.779  27.287  1.00  0.00     0.012 A 
ATOM     70  C   UNL A   1      47.090  27.896  25.254  1.00  0.00     0.148 A 
ATOM     71  C   UNL A   1      48.945  26.305  26.626  1.00  0.00     0.002 A 
ATOM     72  C   UNL A   1      48.176  27.356  24.582  1.00  0.00     0.091 A 
ATOM     73  F   UNL A   1      46.204  28.692  24.637  1.00  0.00    -0.205 F 
ATOM     74  C   UNL A   1      49.117  26.577  25.270  1.00  0.00     0.022 A 
BRANCH  72  75
ATOM     75  S   UNL A   1      48.369  27.513  22.803  1.00  0.00     0.127 S 
ATOM     76  O   UNL A   1      47.189  28.292  22.441  1.00  0.00    -0.237 OA
ATOM     77  O   UNL A   1      49.641  28.231  22.699  1.00  0.00    -0.237 OA
ATOM     78  O   UNL A   1      48.412  26.149  22.291  1.00  0.00    -0.744 OA
ENDBRANCH  72  75
ENDBRANCH  44  68
BRANCH  56  79
ATOM     79  C   UNL A   1      44.994  33.694  29.374  1.00  0.00     0.023 A 
ATOM     80  C   UNL A   1      45.713  33.989  30.550  1.00  0.00     0.012 A 
ATOM     81  C   UNL A   1      44.957  34.643  28.334  1.00  0.00     0.148 A 
ATOM     82  C   UNL A   1      46.332  35.229  30.712  1.00  0.00     0.002 A 
ATOM     83  C   UNL A   1      45.621  35.855  28.480  1.00  0.00     0.091 A 
ATOM     84  F   UNL A   1      44.252  34.357  27.230  1.00  0.00    -0.205 F 
ATOM     85  C   UNL A   1      46.292  36.158  29.676  1.00  0.00     0.022 A 
BRANCH  83  86
ATOM     86  S   UNL A   1      45.698  37.070  27.160  1.00  0.00     0.127 S 
ATOM     87  O   UNL A   1      44.283  37.371  26.949  1.00  0.00    -0.237 OA
ATOM     88  O   UNL A   1      46.465  38.153  27.777  1.00  0.00    -0.237 OA
ATOM     89  O   UNL A   1      46.373  36.411  26.051  1.00  0.00    -0.744 OA
ENDBRANCH  83  86
ENDBRANCH  56  79
ENDBRANCH  30  31
ENDBRANCH  23  25
ENDBRANCH  22  23
ENDBRANCH  21  22
ENDBRANCH   1  21
TORSDOF 19
ENDMDL
