MODEL 1
REMARK VINA RESULT:     -11.4      0.000      0.000
REMARK SMILES C[C@@H](C(=O)OCCOC(=O)c1ccc(-c2c3nc(c(-c4cccc(S(=O)(=O)[O-])c4F)c4ccc([nH]4)c(-c4cccc(S(=O)(=O)[O-])c4F)c4nc(c(-c5cccc(S(=O)(=O)[O-])c5F)c5ccc2[nH]5)C=C4)C=C3)cc1)c1ccn(C(F)F)c(=O)c1
REMARK SMILES IDX 7 1 6 2 5 3 3 4 4 5 2 6 1 7 74 8 75 9 83 10 76 11 81 12
REMARK SMILES IDX 77 13 82 14 78 15 79 16 80 17 8 18 9 19 10 20 11 21 12 22
REMARK SMILES IDX 73 23 13 24 72 25 14 26 15 27 16 28 66 29 17 30 71 31 65 32
REMARK SMILES IDX 67 33 18 34 70 35 64 36 63 37 19 39 51 40 31 41 50 42 32 43
REMARK SMILES IDX 35 44 49 45 68 46 33 47 34 48 48 50 69 51 36 52 20 53 21 54
REMARK SMILES IDX 29 55 22 56 24 57 30 58 23 59 25 60 26 61 27 62 28 63 52 64
REMARK SMILES IDX 53 65 61 66 54 67 56 68 62 69 55 70 57 71 58 72 59 73 60 74
REMARK SMILES IDX 37 75 38 76 46 77 39 78 41 79 47 80 40 81 42 82 43 83 44 84
REMARK SMILES IDX 45 85
REMARK H PARENT 67 38 35 49
REMARK Flexibility Score: inf
ROOT
ATOM      1  C   UNL A   1      36.537  20.990  24.549  1.00  0.00     0.275 C 
ENDROOT
BRANCH   1   2
ATOM      2  C   UNL A   1      35.687  22.101  23.937  1.00  0.00     0.274 C 
BRANCH   2   3
ATOM      3  O   UNL A   1      34.516  22.340  24.746  1.00  0.00    -0.462 OA
BRANCH   3   4
ATOM      4  C   UNL A   1      33.386  22.737  24.094  1.00  0.00     0.313 C 
ATOM      5  O   UNL A   1      33.335  23.722  23.369  1.00  0.00    -0.252 OA
BRANCH   4   6
ATOM      6  C   UNL A   1      32.156  21.858  24.438  1.00  0.00     0.126 C 
ATOM      7  C   UNL A   1      31.501  22.287  25.759  1.00  0.00     0.025 C 
BRANCH   6   8
ATOM      8  C   UNL A   1      32.473  20.358  24.331  1.00  0.00    -0.027 A 
ATOM      9  C   UNL A   1      33.019  19.616  25.460  1.00  0.00     0.023 A 
ATOM     10  C   UNL A   1      32.263  19.672  23.190  1.00  0.00     0.076 A 
ATOM     11  C   UNL A   1      33.357  18.325  25.339  1.00  0.00     0.095 A 
ATOM     12  C   UNL A   1      32.633  18.232  23.034  1.00  0.00     0.255 A 
ATOM     13  N   UNL A   1      33.188  17.635  24.152  1.00  0.00    -0.258 N 
ATOM     14  O   UNL A   1      32.416  17.704  21.950  1.00  0.00    -0.269 OA
BRANCH  13  15
ATOM     15  C   UNL A   1      33.711  16.283  24.068  1.00  0.00     0.451 C 
ATOM     16  F   UNL A   1      34.860  16.084  24.748  1.00  0.00    -0.185 F 
ATOM     17  F   UNL A   1      32.787  15.425  24.570  1.00  0.00    -0.185 F 
ENDBRANCH  13  15
ENDBRANCH   6   8
ENDBRANCH   4   6
ENDBRANCH   3   4
ENDBRANCH   2   3
ENDBRANCH   1   2
BRANCH   1  18
ATOM     18  O   UNL A   1      37.140  21.471  25.760  1.00  0.00    -0.458 OA
BRANCH  18  19
ATOM     19  C   UNL A   1      38.458  21.212  25.913  1.00  0.00     0.338 C 
ATOM     20  O   UNL A   1      39.068  20.213  25.576  1.00  0.00    -0.246 OA
BRANCH  19  21
ATOM     21  C   UNL A   1      39.102  22.407  26.476  1.00  0.00     0.060 A 
ATOM     22  C   UNL A   1      38.574  23.649  26.140  1.00  0.00     0.016 A 
ATOM     23  C   UNL A   1      40.262  22.314  27.242  1.00  0.00     0.016 A 
ATOM     24  C   UNL A   1      39.238  24.811  26.517  1.00  0.00     0.010 A 
ATOM     25  C   UNL A   1      40.899  23.490  27.665  1.00  0.00     0.010 A 
ATOM     26  C   UNL A   1      40.413  24.750  27.275  1.00  0.00    -0.014 A 
BRANCH  26  27
ATOM     27  C   UNL A   1      41.151  26.008  27.576  1.00  0.00     0.031 A 
ATOM     28  C   UNL A   1      40.521  27.062  28.448  1.00  0.00     0.074 A 
ATOM     29  C   UNL A   1      42.416  26.183  27.141  1.00  0.00     0.049 A 
ATOM     30  N   UNL A   1      40.973  28.246  28.776  1.00  0.00    -0.248 NA
ATOM     31  C   UNL A   1      39.207  26.742  29.034  1.00  0.00     0.031 C 
ATOM     32  C   UNL A   1      43.182  25.216  26.355  1.00  0.00     0.029 A 
ATOM     33  N   UNL A   1      43.288  27.230  27.320  1.00  0.00    -0.354 N 
ATOM     34  C   UNL A   1      39.979  28.833  29.547  1.00  0.00     0.074 A 
ATOM     35  C   UNL A   1      38.904  27.872  29.657  1.00  0.00     0.031 C 
ATOM     36  C   UNL A   1      44.420  25.694  26.156  1.00  0.00     0.029 A 
ATOM     37  C   UNL A   1      44.518  27.029  26.737  1.00  0.00     0.049 A 
ATOM     38  H   UNL A   1      43.054  28.047  27.816  1.00  0.00     0.167 HD
ATOM     39  C   UNL A   1      39.964  30.060  30.121  1.00  0.00     0.034 A 
ATOM     40  C   UNL A   1      45.596  27.834  26.661  1.00  0.00     0.034 A 
ATOM     41  C   UNL A   1      41.055  30.994  30.077  1.00  0.00     0.049 A 
ATOM     42  C   UNL A   1      45.540  29.201  27.286  1.00  0.00     0.074 A 
ATOM     43  C   UNL A   1      41.123  32.261  30.631  1.00  0.00     0.029 A 
ATOM     44  N   UNL A   1      42.272  30.763  29.458  1.00  0.00    -0.354 N 
ATOM     45  N   UNL A   1      44.601  29.736  28.026  1.00  0.00    -0.248 NA
ATOM     46  C   UNL A   1      46.700  30.080  27.062  1.00  0.00     0.031 C 
ATOM     47  C   UNL A   1      42.381  32.799  30.340  1.00  0.00     0.029 A 
ATOM     48  C   UNL A   1      43.098  31.864  29.611  1.00  0.00     0.049 A 
ATOM     49  H   UNL A   1      42.515  29.937  28.981  1.00  0.00     0.167 HD
ATOM     50  C   UNL A   1      45.057  31.005  28.365  1.00  0.00     0.074 A 
ATOM     51  C   UNL A   1      46.374  31.147  27.781  1.00  0.00     0.031 C 
ATOM     52  C   UNL A   1      44.428  31.976  29.071  1.00  0.00     0.034 A 
BRANCH  39  53
ATOM     53  C   UNL A   1      38.720  30.463  30.862  1.00  0.00     0.023 A 
ATOM     54  C   UNL A   1      38.598  30.172  32.234  1.00  0.00     0.012 A 
ATOM     55  C   UNL A   1      37.698  31.178  30.209  1.00  0.00     0.148 A 
ATOM     56  C   UNL A   1      37.465  30.572  32.942  1.00  0.00     0.002 A 
ATOM     57  C   UNL A   1      36.587  31.601  30.928  1.00  0.00     0.091 A 
ATOM     58  F   UNL A   1      37.822  31.416  28.895  1.00  0.00    -0.205 F 
ATOM     59  C   UNL A   1      36.466  31.294  32.293  1.00  0.00     0.022 A 
BRANCH  57  60
ATOM     60  S   UNL A   1      35.284  32.589  30.183  1.00  0.00     0.127 S 
ATOM     61  O   UNL A   1      36.029  33.759  29.722  1.00  0.00    -0.237 OA
ATOM     62  O   UNL A   1      34.800  31.713  29.114  1.00  0.00    -0.237 OA
ATOM     63  O   UNL A   1      34.317  32.832  31.244  1.00  0.00    -0.744 OA
ENDBRANCH  57  60
ENDBRANCH  39  53
BRANCH  40  64
ATOM     64  C   UNL A   1      46.837  27.361  25.979  1.00  0.00     0.023 A 
ATOM     65  C   UNL A   1      46.990  27.582  24.598  1.00  0.00     0.012 A 
ATOM     66  C   UNL A   1      47.867  26.713  26.688  1.00  0.00     0.148 A 
ATOM     67  C   UNL A   1      48.139  27.150  23.930  1.00  0.00     0.002 A 
ATOM     68  C   UNL A   1      49.033  26.337  26.029  1.00  0.00     0.091 A 
ATOM     69  F   UNL A   1      47.693  26.473  27.995  1.00  0.00    -0.205 F 
ATOM     70  C   UNL A   1      49.165  26.541  24.647  1.00  0.00     0.022 A 
BRANCH  68  71
ATOM     71  S   UNL A   1      50.445  25.671  26.919  1.00  0.00     0.127 S 
ATOM     72  O   UNL A   1      51.448  25.573  25.863  1.00  0.00    -0.237 OA
ATOM     73  O   UNL A   1      50.705  26.706  27.919  1.00  0.00    -0.237 OA
ATOM     74  O   UNL A   1      49.979  24.409  27.479  1.00  0.00    -0.744 OA
ENDBRANCH  68  71
ENDBRANCH  40  64
BRANCH  52  75
ATOM     75  C   UNL A   1      45.146  33.287  29.253  1.00  0.00     0.023 A 
ATOM     76  C   UNL A   1      46.012  33.449  30.353  1.00  0.00     0.012 A 
ATOM     77  C   UNL A   1      45.036  34.319  28.302  1.00  0.00     0.148 A 
ATOM     78  C   UNL A   1      46.738  34.627  30.517  1.00  0.00     0.002 A 
ATOM     79  C   UNL A   1      45.794  35.476  28.452  1.00  0.00     0.091 A 
ATOM     80  F   UNL A   1      44.193  34.157  27.272  1.00  0.00    -0.205 F 
ATOM     81  C   UNL A   1      46.639  35.635  29.561  1.00  0.00     0.022 A 
BRANCH  79  82
ATOM     82  S   UNL A   1      45.793  36.785  27.220  1.00  0.00     0.127 S 
ATOM     83  O   UNL A   1      46.717  37.752  27.809  1.00  0.00    -0.237 OA
ATOM     84  O   UNL A   1      46.304  36.100  26.031  1.00  0.00    -0.237 OA
ATOM     85  O   UNL A   1      44.408  37.223  27.109  1.00  0.00    -0.744 OA
ENDBRANCH  79  82
ENDBRANCH  52  75
ENDBRANCH  26  27
ENDBRANCH  19  21
ENDBRANCH  18  19
ENDBRANCH   1  18
TORSDOF 16
ENDMDL
MODEL 2
REMARK VINA RESULT:     -11.3      0.594      8.035
REMARK SMILES C[C@@H](C(=O)OCCOC(=O)c1ccc(-c2c3nc(c(-c4cccc(S(=O)(=O)[O-])c4F)c4ccc([nH]4)c(-c4cccc(S(=O)(=O)[O-])c4F)c4nc(c(-c5cccc(S(=O)(=O)[O-])c5F)c5ccc2[nH]5)C=C4)C=C3)cc1)c1ccn(C(F)F)c(=O)c1
REMARK SMILES IDX 7 1 6 2 5 3 3 4 4 5 2 6 1 7 74 8 75 9 83 10 76 11 81 12
REMARK SMILES IDX 77 13 82 14 78 15 79 16 80 17 8 18 9 19 10 20 11 21 12 22
REMARK SMILES IDX 73 23 13 24 72 25 14 26 15 27 16 28 66 29 17 30 71 31 65 32
REMARK SMILES IDX 67 33 18 34 70 35 64 36 63 37 19 39 51 40 31 41 50 42 32 43
REMARK SMILES IDX 35 44 49 45 68 46 33 47 34 48 48 50 69 51 36 52 20 53 21 54
REMARK SMILES IDX 29 55 22 56 24 57 30 58 23 59 25 60 26 61 27 62 28 63 52 64
REMARK SMILES IDX 53 65 61 66 54 67 56 68 62 69 55 70 57 71 58 72 59 73 60 74
REMARK SMILES IDX 37 75 38 76 46 77 39 78 41 79 47 80 40 81 42 82 43 83 44 84
REMARK SMILES IDX 45 85
REMARK H PARENT 67 38 35 49
REMARK Flexibility Score: inf
ROOT
ATOM      1  C   UNL A   1      37.092  21.049  24.410  1.00  0.00     0.275 C 
ENDROOT
BRANCH   1   2
ATOM      2  C   UNL A   1      36.348  22.247  23.826  1.00  0.00     0.274 C 
BRANCH   2   3
ATOM      3  O   UNL A   1      35.023  22.340  24.395  1.00  0.00    -0.462 OA
BRANCH   3   4
ATOM      4  C   UNL A   1      34.015  22.705  23.553  1.00  0.00     0.313 C 
ATOM      5  O   UNL A   1      34.175  23.438  22.585  1.00  0.00    -0.252 OA
BRANCH   4   6
ATOM      6  C   UNL A   1      32.633  22.166  24.003  1.00  0.00     0.126 C 
ATOM      7  C   UNL A   1      32.098  22.924  25.227  1.00  0.00     0.025 C 
BRANCH   6   8
ATOM      8  C   UNL A   1      32.630  20.635  24.139  1.00  0.00    -0.027 A 
ATOM      9  C   UNL A   1      32.806  19.987  25.431  1.00  0.00     0.023 A 
ATOM     10  C   UNL A   1      32.468  19.833  23.067  1.00  0.00     0.076 A 
ATOM     11  C   UNL A   1      32.871  18.653  25.532  1.00  0.00     0.095 A 
ATOM     12  C   UNL A   1      32.537  18.342  23.158  1.00  0.00     0.255 A 
ATOM     13  N   UNL A   1      32.756  17.832  24.425  1.00  0.00    -0.258 N 
ATOM     14  O   UNL A   1      32.394  17.703  22.123  1.00  0.00    -0.269 OA
BRANCH  13  15
ATOM     15  C   UNL A   1      32.979  16.408  24.605  1.00  0.00     0.451 C 
ATOM     16  F   UNL A   1      34.127  15.949  24.064  1.00  0.00    -0.185 F 
ATOM     17  F   UNL A   1      33.018  16.136  25.934  1.00  0.00    -0.185 F 
ENDBRANCH  13  15
ENDBRANCH   6   8
ENDBRANCH   4   6
ENDBRANCH   3   4
ENDBRANCH   2   3
ENDBRANCH   1   2
BRANCH   1  18
ATOM     18  O   UNL A   1      37.485  21.348  25.758  1.00  0.00    -0.458 OA
BRANCH  18  19
ATOM     19  C   UNL A   1      38.794  21.173  26.049  1.00  0.00     0.338 C 
ATOM     20  O   UNL A   1      39.490  20.202  25.811  1.00  0.00    -0.246 OA
BRANCH  19  21
ATOM     21  C   UNL A   1      39.310  22.421  26.628  1.00  0.00     0.060 A 
ATOM     22  C   UNL A   1      38.733  23.617  26.214  1.00  0.00     0.016 A 
ATOM     23  C   UNL A   1      40.406  22.424  27.488  1.00  0.00     0.016 A 
ATOM     24  C   UNL A   1      39.288  24.829  26.610  1.00  0.00     0.010 A 
ATOM     25  C   UNL A   1      40.929  23.649  27.928  1.00  0.00     0.010 A 
ATOM     26  C   UNL A   1      40.397  24.865  27.463  1.00  0.00    -0.014 A 
BRANCH  26  27
ATOM     27  C   UNL A   1      41.025  26.176  27.786  1.00  0.00     0.031 A 
ATOM     28  C   UNL A   1      42.391  26.511  27.247  1.00  0.00     0.074 A 
ATOM     29  C   UNL A   1      40.351  27.105  28.494  1.00  0.00     0.049 A 
ATOM     30  N   UNL A   1      43.131  27.568  27.463  1.00  0.00    -0.248 NA
ATOM     31  C   UNL A   1      43.007  25.527  26.339  1.00  0.00     0.031 C 
ATOM     32  C   UNL A   1      38.991  26.951  29.012  1.00  0.00     0.029 A 
ATOM     33  N   UNL A   1      40.711  28.373  28.879  1.00  0.00    -0.354 N 
ATOM     34  C   UNL A   1      44.317  27.350  26.776  1.00  0.00     0.074 A 
ATOM     35  C   UNL A   1      44.198  26.067  26.120  1.00  0.00     0.031 C 
ATOM     36  C   UNL A   1      38.616  28.094  29.609  1.00  0.00     0.029 A 
ATOM     37  C   UNL A   1      39.729  29.037  29.579  1.00  0.00     0.049 A 
ATOM     38  H   UNL A   1      41.588  28.770  28.675  1.00  0.00     0.167 HD
ATOM     39  C   UNL A   1      45.409  28.148  26.692  1.00  0.00     0.034 A 
ATOM     40  C   UNL A   1      39.730  30.258  30.150  1.00  0.00     0.034 A 
ATOM     41  C   UNL A   1      45.510  29.454  27.282  1.00  0.00     0.049 A 
ATOM     42  C   UNL A   1      40.966  31.112  30.062  1.00  0.00     0.074 A 
ATOM     43  C   UNL A   1      46.581  30.331  27.247  1.00  0.00     0.029 A 
ATOM     44  N   UNL A   1      44.506  30.080  28.002  1.00  0.00    -0.354 N 
ATOM     45  N   UNL A   1      42.074  30.899  29.395  1.00  0.00    -0.248 NA
ATOM     46  C   UNL A   1      40.950  32.379  30.809  1.00  0.00     0.031 C 
ATOM     47  C   UNL A   1      46.226  31.485  27.953  1.00  0.00     0.029 A 
ATOM     48  C   UNL A   1      44.932  31.329  28.421  1.00  0.00     0.049 A 
ATOM     49  H   UNL A   1      43.620  29.693  28.188  1.00  0.00     0.167 HD
ATOM     50  C   UNL A   1      42.881  32.006  29.632  1.00  0.00     0.074 A 
ATOM     51  C   UNL A   1      42.122  32.907  30.475  1.00  0.00     0.031 C 
ATOM     52  C   UNL A   1      44.149  32.241  29.215  1.00  0.00     0.034 A 
BRANCH  39  53
ATOM     53  C   UNL A   1      46.588  27.631  25.918  1.00  0.00     0.023 A 
ATOM     54  C   UNL A   1      46.665  27.852  24.530  1.00  0.00     0.012 A 
ATOM     55  C   UNL A   1      47.644  26.973  26.577  1.00  0.00     0.148 A 
ATOM     56  C   UNL A   1      47.771  27.409  23.804  1.00  0.00     0.002 A 
ATOM     57  C   UNL A   1      48.757  26.563  25.853  1.00  0.00     0.091 A 
ATOM     58  F   UNL A   1      47.535  26.746  27.894  1.00  0.00    -0.205 F 
ATOM     59  C   UNL A   1      48.820  26.775  24.466  1.00  0.00     0.022 A 
BRANCH  57  60
ATOM     60  S   UNL A   1      50.178  25.794  26.638  1.00  0.00     0.127 S 
ATOM     61  O   UNL A   1      51.081  25.616  25.502  1.00  0.00    -0.237 OA
ATOM     62  O   UNL A   1      50.599  26.817  27.596  1.00  0.00    -0.237 OA
ATOM     63  O   UNL A   1      49.679  24.569  27.247  1.00  0.00    -0.744 OA
ENDBRANCH  57  60
ENDBRANCH  39  53
BRANCH  40  64
ATOM     64  C   UNL A   1      38.509  30.760  30.845  1.00  0.00     0.023 A 
ATOM     65  C   UNL A   1      38.391  30.595  32.237  1.00  0.00     0.012 A 
ATOM     66  C   UNL A   1      37.476  31.412  30.143  1.00  0.00     0.148 A 
ATOM     67  C   UNL A   1      37.259  31.052  32.916  1.00  0.00     0.002 A 
ATOM     68  C   UNL A   1      36.379  31.917  30.833  1.00  0.00     0.091 A 
ATOM     69  F   UNL A   1      37.580  31.529  28.812  1.00  0.00    -0.205 F 
ATOM     70  C   UNL A   1      36.261  31.725  32.218  1.00  0.00     0.022 A 
BRANCH  68  71
ATOM     71  S   UNL A   1      35.125  32.909  30.012  1.00  0.00     0.127 S 
ATOM     72  O   UNL A   1      34.584  31.965  29.039  1.00  0.00    -0.237 OA
ATOM     73  O   UNL A   1      34.220  33.246  31.111  1.00  0.00    -0.237 OA
ATOM     74  O   UNL A   1      35.844  34.053  29.465  1.00  0.00    -0.744 OA
ENDBRANCH  68  71
ENDBRANCH  40  64
BRANCH  52  75
ATOM     75  C   UNL A   1      44.808  33.519  29.662  1.00  0.00     0.023 A 
ATOM     76  C   UNL A   1      45.616  33.508  30.817  1.00  0.00     0.012 A 
ATOM     77  C   UNL A   1      44.702  34.700  28.904  1.00  0.00     0.148 A 
ATOM     78  C   UNL A   1      46.289  34.659  31.223  1.00  0.00     0.002 A 
ATOM     79  C   UNL A   1      45.407  35.834  29.294  1.00  0.00     0.091 A 
ATOM     80  F   UNL A   1      43.913  34.699  27.820  1.00  0.00    -0.205 F 
ATOM     81  C   UNL A   1      46.194  35.817  30.456  1.00  0.00     0.022 A 
BRANCH  79  82
ATOM     82  S   UNL A   1      45.413  37.341  28.313  1.00  0.00     0.127 S 
ATOM     83  O   UNL A   1      45.934  36.864  27.034  1.00  0.00    -0.237 OA
ATOM     84  O   UNL A   1      43.996  37.711  28.295  1.00  0.00    -0.237 OA
ATOM     85  O   UNL A   1      46.266  38.277  29.033  1.00  0.00    -0.744 OA
ENDBRANCH  79  82
ENDBRANCH  52  75
ENDBRANCH  26  27
ENDBRANCH  19  21
ENDBRANCH  18  19
ENDBRANCH   1  18
TORSDOF 16
ENDMDL
MODEL 3
REMARK VINA RESULT:     -11.1      6.009      8.686
REMARK SMILES C[C@@H](C(=O)OCCOC(=O)c1ccc(-c2c3nc(c(-c4cccc(S(=O)(=O)[O-])c4F)c4ccc([nH]4)c(-c4cccc(S(=O)(=O)[O-])c4F)c4nc(c(-c5cccc(S(=O)(=O)[O-])c5F)c5ccc2[nH]5)C=C4)C=C3)cc1)c1ccn(C(F)F)c(=O)c1
REMARK SMILES IDX 7 1 6 2 5 3 3 4 4 5 2 6 1 7 74 8 75 9 83 10 76 11 81 12
REMARK SMILES IDX 77 13 82 14 78 15 79 16 80 17 8 18 9 19 10 20 11 21 12 22
REMARK SMILES IDX 73 23 13 24 72 25 14 26 15 27 16 28 66 29 17 30 71 31 65 32
REMARK SMILES IDX 67 33 18 34 70 35 64 36 63 37 19 39 51 40 31 41 50 42 32 43
REMARK SMILES IDX 35 44 49 45 68 46 33 47 34 48 48 50 69 51 36 52 20 53 21 54
REMARK SMILES IDX 29 55 22 56 24 57 30 58 23 59 25 60 26 61 27 62 28 63 52 64
REMARK SMILES IDX 53 65 61 66 54 67 56 68 62 69 55 70 57 71 58 72 59 73 60 74
REMARK SMILES IDX 37 75 38 76 46 77 39 78 41 79 47 80 40 81 42 82 43 83 44 84
REMARK SMILES IDX 45 85
REMARK H PARENT 67 38 35 49
REMARK Flexibility Score: inf
ROOT
ATOM      1  C   UNL A   1      31.708  29.937  26.772  1.00  0.00     0.275 C 
ENDROOT
BRANCH   1   2
ATOM      2  C   UNL A   1      31.821  28.436  27.024  1.00  0.00     0.274 C 
BRANCH   2   3
ATOM      3  O   UNL A   1      31.876  27.720  25.771  1.00  0.00    -0.462 OA
BRANCH   3   4
ATOM      4  C   UNL A   1      30.906  26.788  25.551  1.00  0.00     0.313 C 
ATOM      5  O   UNL A   1      30.335  26.181  26.448  1.00  0.00    -0.252 OA
BRANCH   4   6
ATOM      6  C   UNL A   1      30.667  26.517  24.043  1.00  0.00     0.126 C 
ATOM      7  C   UNL A   1      31.961  26.102  23.327  1.00  0.00     0.025 C 
BRANCH   6   8
ATOM      8  C   UNL A   1      29.893  27.661  23.369  1.00  0.00    -0.027 A 
ATOM      9  C   UNL A   1      30.574  28.666  22.564  1.00  0.00     0.023 A 
ATOM     10  C   UNL A   1      28.557  27.781  23.500  1.00  0.00     0.076 A 
ATOM     11  C   UNL A   1      29.903  29.698  22.037  1.00  0.00     0.095 A 
ATOM     12  C   UNL A   1      27.790  28.925  22.919  1.00  0.00     0.255 A 
ATOM     13  N   UNL A   1      28.539  29.849  22.214  1.00  0.00    -0.258 N 
ATOM     14  O   UNL A   1      26.579  28.952  23.109  1.00  0.00    -0.269 OA
BRANCH  13  15
ATOM     15  C   UNL A   1      27.918  31.069  21.728  1.00  0.00     0.451 C 
ATOM     16  F   UNL A   1      27.635  31.973  22.689  1.00  0.00    -0.185 F 
ATOM     17  F   UNL A   1      28.758  31.665  20.843  1.00  0.00    -0.185 F 
ENDBRANCH  13  15
ENDBRANCH   6   8
ENDBRANCH   4   6
ENDBRANCH   3   4
ENDBRANCH   2   3
ENDBRANCH   1   2
BRANCH   1  18
ATOM     18  O   UNL A   1      32.997  30.453  26.407  1.00  0.00    -0.458 OA
BRANCH  18  19
ATOM     19  C   UNL A   1      33.465  31.475  27.159  1.00  0.00     0.338 C 
ATOM     20  O   UNL A   1      32.891  32.508  27.457  1.00  0.00    -0.246 OA
BRANCH  19  21
ATOM     21  C   UNL A   1      34.787  31.100  27.678  1.00  0.00     0.060 A 
ATOM     22  C   UNL A   1      35.029  29.753  27.930  1.00  0.00     0.016 A 
ATOM     23  C   UNL A   1      35.739  32.064  28.004  1.00  0.00     0.016 A 
ATOM     24  C   UNL A   1      36.202  29.366  28.567  1.00  0.00     0.010 A 
ATOM     25  C   UNL A   1      36.945  31.662  28.598  1.00  0.00     0.010 A 
ATOM     26  C   UNL A   1      37.172  30.312  28.919  1.00  0.00    -0.014 A 
BRANCH  26  27
ATOM     27  C   UNL A   1      38.371  29.875  29.688  1.00  0.00     0.031 A 
ATOM     28  C   UNL A   1      38.551  30.317  31.117  1.00  0.00     0.074 A 
ATOM     29  C   UNL A   1      39.260  29.019  29.146  1.00  0.00     0.049 A 
ATOM     30  N   UNL A   1      39.551  30.096  31.932  1.00  0.00    -0.248 NA
ATOM     31  C   UNL A   1      37.462  31.112  31.711  1.00  0.00     0.031 C 
ATOM     32  C   UNL A   1      39.172  28.445  27.802  1.00  0.00     0.029 A 
ATOM     33  N   UNL A   1      40.403  28.465  29.668  1.00  0.00    -0.354 N 
ATOM     34  C   UNL A   1      39.243  30.773  33.105  1.00  0.00     0.074 A 
ATOM     35  C   UNL A   1      37.956  31.400  32.906  1.00  0.00     0.031 C 
ATOM     36  C   UNL A   1      40.190  27.590  27.623  1.00  0.00     0.029 A 
ATOM     37  C   UNL A   1      41.043  27.604  28.807  1.00  0.00     0.049 A 
ATOM     38  H   UNL A   1      40.734  28.665  30.574  1.00  0.00     0.167 HD
ATOM     39  C   UNL A   1      39.963  30.859  34.249  1.00  0.00     0.034 A 
ATOM     40  C   UNL A   1      42.196  26.919  28.944  1.00  0.00     0.034 A 
ATOM     41  C   UNL A   1      41.209  30.183  34.481  1.00  0.00     0.049 A 
ATOM     42  C   UNL A   1      42.987  27.055  30.216  1.00  0.00     0.074 A 
ATOM     43  C   UNL A   1      42.007  30.216  35.611  1.00  0.00     0.029 A 
ATOM     44  N   UNL A   1      41.835  29.341  33.576  1.00  0.00    -0.354 N 
ATOM     45  N   UNL A   1      42.675  27.684  31.323  1.00  0.00    -0.248 NA
ATOM     46  C   UNL A   1      44.295  26.382  30.259  1.00  0.00     0.031 C 
ATOM     47  C   UNL A   1      43.119  29.399  35.388  1.00  0.00     0.029 A 
ATOM     48  C   UNL A   1      43.011  28.852  34.120  1.00  0.00     0.049 A 
ATOM     49  H   UNL A   1      41.493  29.122  32.679  1.00  0.00     0.167 HD
ATOM     50  C   UNL A   1      43.738  27.477  32.194  1.00  0.00     0.074 A 
ATOM     51  C   UNL A   1      44.689  26.632  31.501  1.00  0.00     0.031 C 
ATOM     52  C   UNL A   1      43.925  27.968  33.443  1.00  0.00     0.034 A 
BRANCH  39  53
ATOM     53  C   UNL A   1      39.410  31.716  35.353  1.00  0.00     0.023 A 
ATOM     54  C   UNL A   1      38.465  31.180  36.248  1.00  0.00     0.012 A 
ATOM     55  C   UNL A   1      39.869  33.035  35.533  1.00  0.00     0.148 A 
ATOM     56  C   UNL A   1      37.970  31.953  37.298  1.00  0.00     0.002 A 
ATOM     57  C   UNL A   1      39.396  33.788  36.601  1.00  0.00     0.091 A 
ATOM     58  F   UNL A   1      40.746  33.535  34.650  1.00  0.00    -0.205 F 
ATOM     59  C   UNL A   1      38.442  33.250  37.481  1.00  0.00     0.022 A 
BRANCH  57  60
ATOM     60  S   UNL A   1      39.998  35.446  36.944  1.00  0.00     0.127 S 
ATOM     61  O   UNL A   1      41.434  35.215  37.082  1.00  0.00    -0.237 OA
ATOM     62  O   UNL A   1      39.610  36.175  35.735  1.00  0.00    -0.237 OA
ATOM     63  O   UNL A   1      39.307  35.874  38.152  1.00  0.00    -0.744 OA
ENDBRANCH  57  60
ENDBRANCH  39  53
BRANCH  40  64
ATOM     64  C   UNL A   1      42.667  26.020  27.850  1.00  0.00     0.023 A 
ATOM     65  C   UNL A   1      43.655  26.481  26.959  1.00  0.00     0.012 A 
ATOM     66  C   UNL A   1      42.160  24.715  27.695  1.00  0.00     0.148 A 
ATOM     67  C   UNL A   1      44.117  25.665  25.923  1.00  0.00     0.002 A 
ATOM     68  C   UNL A   1      42.666  23.888  26.698  1.00  0.00     0.091 A 
ATOM     69  F   UNL A   1      41.191  24.303  28.524  1.00  0.00    -0.205 F 
ATOM     70  C   UNL A   1      43.633  24.365  25.802  1.00  0.00     0.022 A 
BRANCH  68  71
ATOM     71  S   UNL A   1      42.181  22.162  26.572  1.00  0.00     0.127 S 
ATOM     72  O   UNL A   1      42.660  21.620  27.840  1.00  0.00    -0.237 OA
ATOM     73  O   UNL A   1      40.725  22.251  26.452  1.00  0.00    -0.237 OA
ATOM     74  O   UNL A   1      42.845  21.668  25.372  1.00  0.00    -0.744 OA
ENDBRANCH  68  71
ENDBRANCH  40  64
BRANCH  52  75
ATOM     75  C   UNL A   1      45.205  27.614  34.151  1.00  0.00     0.023 A 
ATOM     76  C   UNL A   1      46.308  28.486  34.056  1.00  0.00     0.012 A 
ATOM     77  C   UNL A   1      45.295  26.474  34.973  1.00  0.00     0.148 A 
ATOM     78  C   UNL A   1      47.487  28.219  34.748  1.00  0.00     0.002 A 
ATOM     79  C   UNL A   1      46.461  26.234  35.692  1.00  0.00     0.091 A 
ATOM     80  F   UNL A   1      44.244  25.644  35.036  1.00  0.00    -0.205 F 
ATOM     81  C   UNL A   1      47.560  27.100  35.575  1.00  0.00     0.022 A 
BRANCH  79  82
ATOM     82  S   UNL A   1      46.607  24.866  36.849  1.00  0.00     0.127 S 
ATOM     83  O   UNL A   1      47.972  25.036  37.344  1.00  0.00    -0.237 OA
ATOM     84  O   UNL A   1      45.561  25.168  37.828  1.00  0.00    -0.237 OA
ATOM     85  O   UNL A   1      46.365  23.660  36.068  1.00  0.00    -0.744 OA
ENDBRANCH  79  82
ENDBRANCH  52  75
ENDBRANCH  26  27
ENDBRANCH  19  21
ENDBRANCH  18  19
ENDBRANCH   1  18
TORSDOF 16
ENDMDL
