MODEL 1
REMARK VINA RESULT:     -11.5      0.000      0.000
REMARK SMILES O=C(OCCOC(=O)c1cc(S[C@H]2CCO[C@@]3(CCOC3)C2)cs1)c1ccc(-c2c3nc(c(-c4cccc(S(=O)(=O)[O-])c4F)c4ccc([nH]4)c(-c4cccc(S(=O)(=O)[O-])c4F)c4nc(c(-c5cccc(S(=O)(=O)[O-])c5F)c5ccc2[nH]5)C=C4)C=C3)cc1
REMARK SMILES IDX 4 1 3 2 2 3 1 4 25 5 26 6 87 7 27 8 86 9 28 10 29 11 30 12
REMARK SMILES IDX 80 13 31 14 85 15 79 16 81 17 32 18 84 19 78 20 77 21 33 23
REMARK SMILES IDX 65 24 45 25 64 26 46 27 49 28 63 29 82 30 47 31 48 32 62 34
REMARK SMILES IDX 83 35 50 36 34 37 35 38 43 39 36 40 38 41 44 42 37 43 39 44
REMARK SMILES IDX 40 45 41 46 42 47 66 48 67 49 75 50 68 51 70 52 76 53 69 54
REMARK SMILES IDX 71 55 72 56 73 57 74 58 51 59 52 60 60 61 53 62 55 63 61 64
REMARK SMILES IDX 54 65 56 66 57 67 58 68 59 69 5 70 6 71 7 72 8 73 9 74 10 75
REMARK SMILES IDX 24 76 11 77 23 78 12 79 13 80 14 81 22 82 15 83 17 84 16 85
REMARK SMILES IDX 18 86 21 87 19 88 20 89
REMARK H PARENT 81 22 49 33
REMARK Flexibility Score: inf
ROOT
ATOM      1  C   UNL A   1      31.567  31.577  26.644  1.00  0.00     0.275 C 
ENDROOT
BRANCH   1   2
ATOM      2  O   UNL A   1      32.739  32.406  26.638  1.00  0.00    -0.458 OA
BRANCH   2   3
ATOM      3  C   UNL A   1      33.501  32.886  27.649  1.00  0.00     0.338 C 
ATOM      4  O   UNL A   1      33.227  34.005  28.084  1.00  0.00    -0.246 OA
BRANCH   3   5
ATOM      5  C   UNL A   1      34.701  32.189  28.232  1.00  0.00     0.060 A 
ATOM      6  C   UNL A   1      34.749  30.897  28.765  1.00  0.00     0.016 A 
ATOM      7  C   UNL A   1      35.901  32.927  28.236  1.00  0.00     0.016 A 
ATOM      8  C   UNL A   1      35.936  30.359  29.284  1.00  0.00     0.010 A 
ATOM      9  C   UNL A   1      37.095  32.388  28.735  1.00  0.00     0.010 A 
ATOM     10  C   UNL A   1      37.115  31.103  29.284  1.00  0.00    -0.014 A 
BRANCH  10  11
ATOM     11  C   UNL A   1      38.339  30.580  29.936  1.00  0.00     0.031 A 
ATOM     12  C   UNL A   1      38.702  31.046  31.300  1.00  0.00     0.074 A 
ATOM     13  C   UNL A   1      39.126  29.660  29.352  1.00  0.00     0.049 A 
ATOM     14  N   UNL A   1      39.614  30.555  32.091  1.00  0.00    -0.248 NA
ATOM     15  C   UNL A   1      37.911  32.143  31.872  1.00  0.00     0.031 C 
ATOM     16  C   UNL A   1      38.790  28.986  28.116  1.00  0.00     0.029 A 
ATOM     17  N   UNL A   1      40.347  29.124  29.706  1.00  0.00    -0.354 N 
ATOM     18  C   UNL A   1      39.511  31.274  33.263  1.00  0.00     0.074 A 
ATOM     19  C   UNL A   1      38.457  32.252  33.074  1.00  0.00     0.031 C 
ATOM     20  C   UNL A   1      39.811  28.187  27.789  1.00  0.00     0.029 A 
ATOM     21  C   UNL A   1      40.876  28.283  28.750  1.00  0.00     0.049 A 
ATOM     22  H   UNL A   1      40.796  29.322  30.558  1.00  0.00     0.167 HD
ATOM     23  C   UNL A   1      40.225  31.113  34.397  1.00  0.00     0.034 A 
ATOM     24  C   UNL A   1      42.040  27.607  28.646  1.00  0.00     0.034 A 
ATOM     25  C   UNL A   1      41.292  30.166  34.564  1.00  0.00     0.049 A 
ATOM     26  C   UNL A   1      42.838  27.505  29.912  1.00  0.00     0.074 A 
ATOM     27  C   UNL A   1      42.087  29.961  35.677  1.00  0.00     0.029 A 
ATOM     28  N   UNL A   1      41.748  29.297  33.583  1.00  0.00    -0.354 N 
ATOM     29  N   UNL A   1      42.542  27.987  31.092  1.00  0.00    -0.248 NA
ATOM     30  C   UNL A   1      44.026  26.641  29.893  1.00  0.00     0.031 C 
ATOM     31  C   UNL A   1      43.060  29.011  35.352  1.00  0.00     0.029 A 
ATOM     32  C   UNL A   1      42.848  28.594  34.049  1.00  0.00     0.049 A 
ATOM     33  H   UNL A   1      41.349  29.195  32.688  1.00  0.00     0.167 HD
ATOM     34  C   UNL A   1      43.439  27.405  31.966  1.00  0.00     0.074 A 
ATOM     35  C   UNL A   1      44.246  26.487  31.188  1.00  0.00     0.031 C 
ATOM     36  C   UNL A   1      43.600  27.633  33.289  1.00  0.00     0.034 A 
BRANCH  23  37
ATOM     37  C   UNL A   1      39.899  32.051  35.514  1.00  0.00     0.023 A 
ATOM     38  C   UNL A   1      40.614  33.254  35.667  1.00  0.00     0.012 A 
ATOM     39  C   UNL A   1      38.892  31.708  36.432  1.00  0.00     0.148 A 
ATOM     40  C   UNL A   1      40.352  34.091  36.749  1.00  0.00     0.002 A 
ATOM     41  C   UNL A   1      38.604  32.568  37.478  1.00  0.00     0.091 A 
ATOM     42  F   UNL A   1      38.259  30.536  36.276  1.00  0.00    -0.205 F 
ATOM     43  C   UNL A   1      39.341  33.752  37.648  1.00  0.00     0.022 A 
BRANCH  41  44
ATOM     44  S   UNL A   1      37.283  32.245  38.645  1.00  0.00     0.127 S 
ATOM     45  O   UNL A   1      37.833  32.814  39.875  1.00  0.00    -0.237 OA
ATOM     46  O   UNL A   1      36.176  33.001  38.062  1.00  0.00    -0.237 OA
ATOM     47  O   UNL A   1      37.098  30.802  38.659  1.00  0.00    -0.744 OA
ENDBRANCH  41  44
ENDBRANCH  23  37
BRANCH  24  48
ATOM     48  C   UNL A   1      42.437  26.809  27.430  1.00  0.00     0.023 A 
ATOM     49  C   UNL A   1      43.007  27.481  26.327  1.00  0.00     0.012 A 
ATOM     50  C   UNL A   1      42.219  25.418  27.314  1.00  0.00     0.148 A 
ATOM     51  C   UNL A   1      43.225  26.834  25.108  1.00  0.00     0.002 A 
ATOM     52  C   UNL A   1      42.555  24.753  26.129  1.00  0.00     0.091 A 
ATOM     53  F   UNL A   1      41.711  24.761  28.365  1.00  0.00    -0.205 F 
ATOM     54  C   UNL A   1      43.008  25.468  25.011  1.00  0.00     0.022 A 
BRANCH  52  55
ATOM     55  S   UNL A   1      42.582  22.961  25.961  1.00  0.00     0.127 S 
ATOM     56  O   UNL A   1      43.077  22.790  24.596  1.00  0.00    -0.237 OA
ATOM     57  O   UNL A   1      43.536  22.586  27.005  1.00  0.00    -0.237 OA
ATOM     58  O   UNL A   1      41.216  22.517  26.189  1.00  0.00    -0.744 OA
ENDBRANCH  52  55
ENDBRANCH  24  48
BRANCH  36  59
ATOM     59  C   UNL A   1      44.700  26.870  33.970  1.00  0.00     0.023 A 
ATOM     60  C   UNL A   1      46.023  27.360  33.914  1.00  0.00     0.012 A 
ATOM     61  C   UNL A   1      44.430  25.680  34.668  1.00  0.00     0.148 A 
ATOM     62  C   UNL A   1      47.071  26.641  34.481  1.00  0.00     0.002 A 
ATOM     63  C   UNL A   1      45.470  25.007  35.294  1.00  0.00     0.091 A 
ATOM     64  F   UNL A   1      43.170  25.223  34.694  1.00  0.00    -0.205 F 
ATOM     65  C   UNL A   1      46.792  25.471  35.180  1.00  0.00     0.022 A 
BRANCH  63  66
ATOM     66  S   UNL A   1      45.204  23.559  36.319  1.00  0.00     0.127 S 
ATOM     67  O   UNL A   1      46.572  23.083  36.524  1.00  0.00    -0.237 OA
ATOM     68  O   UNL A   1      44.575  24.140  37.504  1.00  0.00    -0.237 OA
ATOM     69  O   UNL A   1      44.347  22.669  35.549  1.00  0.00    -0.744 OA
ENDBRANCH  63  66
ENDBRANCH  36  59
ENDBRANCH  10  11
ENDBRANCH   3   5
ENDBRANCH   2   3
ENDBRANCH   1   2
BRANCH   1  70
ATOM     70  C   UNL A   1      31.839  30.118  26.268  1.00  0.00     0.275 C 
BRANCH  70  71
ATOM     71  O   UNL A   1      33.134  29.906  25.690  1.00  0.00    -0.458 OA
BRANCH  71  72
ATOM     72  C   UNL A   1      33.638  28.635  25.836  1.00  0.00     0.348 C 
ATOM     73  O   UNL A   1      34.022  28.171  26.893  1.00  0.00    -0.245 OA
BRANCH  72  74
ATOM     74  C   UNL A   1      33.623  27.961  24.553  1.00  0.00     0.113 A 
ATOM     75  C   UNL A   1      33.668  26.609  24.281  1.00  0.00     0.042 A 
ATOM     76  S   UNL A   1      33.512  28.881  23.115  1.00  0.00    -0.136 S 
ATOM     77  C   UNL A   1      33.403  26.324  22.910  1.00  0.00     0.019 A 
ATOM     78  C   UNL A   1      33.463  27.469  22.146  1.00  0.00     0.080 A 
BRANCH  77  79
ATOM     79  S   UNL A   1      33.011  24.747  22.215  1.00  0.00    -0.122 SA
BRANCH  79  80
ATOM     80  C   UNL A   1      33.598  23.533  23.440  1.00  0.00     0.057 C 
ATOM     81  C   UNL A   1      32.865  22.203  23.351  1.00  0.00     0.043 C 
ATOM     82  C   UNL A   1      35.093  23.195  23.316  1.00  0.00     0.053 C 
ATOM     83  C   UNL A   1      33.316  21.368  24.542  1.00  0.00     0.162 C 
ATOM     84  C   UNL A   1      35.547  22.289  24.481  1.00  0.00     0.095 C 
ATOM     85  O   UNL A   1      34.720  21.112  24.517  1.00  0.00    -0.372 OA
ATOM     86  C   UNL A   1      37.002  21.856  24.275  1.00  0.00     0.066 C 
ATOM     87  C   UNL A   1      35.596  22.968  25.863  1.00  0.00     0.195 C 
ATOM     88  C   UNL A   1      37.752  22.330  25.504  1.00  0.00     0.163 C 
ATOM     89  O   UNL A   1      36.954  23.346  26.104  1.00  0.00    -0.378 OA
ENDBRANCH  79  80
ENDBRANCH  77  79
ENDBRANCH  72  74
ENDBRANCH  71  72
ENDBRANCH  70  71
ENDBRANCH   1  70
TORSDOF 16
ENDMDL
MODEL 2
REMARK VINA RESULT:     -11.3      1.665      2.215
REMARK SMILES O=C(OCCOC(=O)c1cc(S[C@H]2CCO[C@@]3(CCOC3)C2)cs1)c1ccc(-c2c3nc(c(-c4cccc(S(=O)(=O)[O-])c4F)c4ccc([nH]4)c(-c4cccc(S(=O)(=O)[O-])c4F)c4nc(c(-c5cccc(S(=O)(=O)[O-])c5F)c5ccc2[nH]5)C=C4)C=C3)cc1
REMARK SMILES IDX 4 1 3 2 2 3 1 4 25 5 26 6 87 7 27 8 86 9 28 10 29 11 30 12
REMARK SMILES IDX 80 13 31 14 85 15 79 16 81 17 32 18 84 19 78 20 77 21 33 23
REMARK SMILES IDX 65 24 45 25 64 26 46 27 49 28 63 29 82 30 47 31 48 32 62 34
REMARK SMILES IDX 83 35 50 36 34 37 35 38 43 39 36 40 38 41 44 42 37 43 39 44
REMARK SMILES IDX 40 45 41 46 42 47 66 48 67 49 75 50 68 51 70 52 76 53 69 54
REMARK SMILES IDX 71 55 72 56 73 57 74 58 51 59 52 60 60 61 53 62 55 63 61 64
REMARK SMILES IDX 54 65 56 66 57 67 58 68 59 69 5 70 6 71 7 72 8 73 9 74 10 75
REMARK SMILES IDX 24 76 11 77 23 78 12 79 13 80 14 81 22 82 15 83 17 84 16 85
REMARK SMILES IDX 18 86 21 87 19 88 20 89
REMARK H PARENT 81 22 49 33
REMARK Flexibility Score: inf
ROOT
ATOM      1  C   UNL A   1      31.880  30.375  26.344  1.00  0.00     0.275 C 
ENDROOT
BRANCH   1   2
ATOM      2  O   UNL A   1      32.978  31.300  26.384  1.00  0.00    -0.458 OA
BRANCH   2   3
ATOM      3  C   UNL A   1      33.687  31.802  27.422  1.00  0.00     0.338 C 
ATOM      4  O   UNL A   1      33.324  32.884  27.887  1.00  0.00    -0.246 OA
BRANCH   3   5
ATOM      5  C   UNL A   1      34.927  31.177  28.005  1.00  0.00     0.060 A 
ATOM      6  C   UNL A   1      35.069  29.868  28.474  1.00  0.00     0.016 A 
ATOM      7  C   UNL A   1      36.059  32.011  28.081  1.00  0.00     0.016 A 
ATOM      8  C   UNL A   1      36.284  29.404  29.000  1.00  0.00     0.010 A 
ATOM      9  C   UNL A   1      37.282  31.548  28.588  1.00  0.00     0.010 A 
ATOM     10  C   UNL A   1      37.396  30.241  29.072  1.00  0.00    -0.014 A 
BRANCH  10  11
ATOM     11  C   UNL A   1      38.643  29.788  29.733  1.00  0.00     0.031 A 
ATOM     12  C   UNL A   1      39.063  30.411  31.015  1.00  0.00     0.074 A 
ATOM     13  C   UNL A   1      39.401  28.797  29.233  1.00  0.00     0.049 A 
ATOM     14  N   UNL A   1      40.004  30.009  31.823  1.00  0.00    -0.248 NA
ATOM     15  C   UNL A   1      38.302  31.576  31.483  1.00  0.00     0.031 C 
ATOM     16  C   UNL A   1      39.011  27.983  28.101  1.00  0.00     0.029 A 
ATOM     17  N   UNL A   1      40.633  28.295  29.599  1.00  0.00    -0.354 N 
ATOM     18  C   UNL A   1      39.953  30.864  32.903  1.00  0.00     0.074 A 
ATOM     19  C   UNL A   1      38.898  31.823  32.640  1.00  0.00     0.031 C 
ATOM     20  C   UNL A   1      40.014  27.141  27.831  1.00  0.00     0.029 A 
ATOM     21  C   UNL A   1      41.118  27.341  28.731  1.00  0.00     0.049 A 
ATOM     22  H   UNL A   1      41.117  28.589  30.403  1.00  0.00     0.167 HD
ATOM     23  C   UNL A   1      40.712  30.833  34.018  1.00  0.00     0.034 A 
ATOM     24  C   UNL A   1      42.273  26.645  28.663  1.00  0.00     0.034 A 
ATOM     25  C   UNL A   1      41.780  29.902  34.255  1.00  0.00     0.049 A 
ATOM     26  C   UNL A   1      43.122  26.687  29.898  1.00  0.00     0.074 A 
ATOM     27  C   UNL A   1      42.619  29.823  35.353  1.00  0.00     0.029 A 
ATOM     28  N   UNL A   1      42.191  28.918  33.368  1.00  0.00    -0.354 N 
ATOM     29  N   UNL A   1      42.876  27.311  31.023  1.00  0.00    -0.248 NA
ATOM     30  C   UNL A   1      44.303  25.816  29.936  1.00  0.00     0.031 C 
ATOM     31  C   UNL A   1      43.573  28.832  35.106  1.00  0.00     0.029 A 
ATOM     32  C   UNL A   1      43.306  28.264  33.872  1.00  0.00     0.049 A 
ATOM     33  H   UNL A   1      41.756  28.713  32.509  1.00  0.00     0.167 HD
ATOM     34  C   UNL A   1      43.805  26.828  31.924  1.00  0.00     0.074 A 
ATOM     35  C   UNL A   1      44.575  25.816  31.231  1.00  0.00     0.031 C 
ATOM     36  C   UNL A   1      44.021  27.212  33.202  1.00  0.00     0.034 A 
BRANCH  23  37
ATOM     37  C   UNL A   1      40.436  31.901  35.027  1.00  0.00     0.023 A 
ATOM     38  C   UNL A   1      41.256  33.043  35.098  1.00  0.00     0.012 A 
ATOM     39  C   UNL A   1      39.370  31.742  35.928  1.00  0.00     0.148 A 
ATOM     40  C   UNL A   1      41.036  34.002  36.084  1.00  0.00     0.002 A 
ATOM     41  C   UNL A   1      39.128  32.722  36.875  1.00  0.00     0.091 A 
ATOM     42  F   UNL A   1      38.635  30.623  35.854  1.00  0.00    -0.205 F 
ATOM     43  C   UNL A   1      39.967  33.845  36.965  1.00  0.00     0.022 A 
BRANCH  41  44
ATOM     44  S   UNL A   1      37.741  32.636  38.007  1.00  0.00     0.127 S 
ATOM     45  O   UNL A   1      38.103  33.656  38.991  1.00  0.00    -0.237 OA
ATOM     46  O   UNL A   1      36.621  32.992  37.138  1.00  0.00    -0.237 OA
ATOM     47  O   UNL A   1      37.714  31.271  38.512  1.00  0.00    -0.744 OA
ENDBRANCH  41  44
ENDBRANCH  23  37
BRANCH  24  48
ATOM     48  C   UNL A   1      42.616  25.704  27.536  1.00  0.00     0.023 A 
ATOM     49  C   UNL A   1      43.410  26.175  26.468  1.00  0.00     0.012 A 
ATOM     50  C   UNL A   1      42.137  24.376  27.466  1.00  0.00     0.148 A 
ATOM     51  C   UNL A   1      43.609  25.415  25.312  1.00  0.00     0.002 A 
ATOM     52  C   UNL A   1      42.444  23.579  26.357  1.00  0.00     0.091 A 
ATOM     53  F   UNL A   1      41.411  23.904  28.489  1.00  0.00    -0.205 F 
ATOM     54  C   UNL A   1      43.134  24.114  25.260  1.00  0.00     0.022 A 
BRANCH  52  55
ATOM     55  S   UNL A   1      42.129  21.808  26.281  1.00  0.00     0.127 S 
ATOM     56  O   UNL A   1      40.710  21.765  25.934  1.00  0.00    -0.237 OA
ATOM     57  O   UNL A   1      43.032  21.399  25.205  1.00  0.00    -0.237 OA
ATOM     58  O   UNL A   1      42.465  21.285  27.596  1.00  0.00    -0.744 OA
ENDBRANCH  52  55
ENDBRANCH  24  48
BRANCH  36  59
ATOM     59  C   UNL A   1      45.144  26.525  33.926  1.00  0.00     0.023 A 
ATOM     60  C   UNL A   1      46.465  26.998  33.768  1.00  0.00     0.012 A 
ATOM     61  C   UNL A   1      44.898  25.423  34.764  1.00  0.00     0.148 A 
ATOM     62  C   UNL A   1      47.531  26.342  34.374  1.00  0.00     0.002 A 
ATOM     63  C   UNL A   1      45.959  24.820  35.425  1.00  0.00     0.091 A 
ATOM     64  F   UNL A   1      43.639  24.979  34.887  1.00  0.00    -0.205 F 
ATOM     65  C   UNL A   1      47.277  25.261  35.212  1.00  0.00     0.022 A 
BRANCH  63  66
ATOM     66  S   UNL A   1      45.728  23.499  36.616  1.00  0.00     0.127 S 
ATOM     67  O   UNL A   1      47.104  23.226  37.030  1.00  0.00    -0.237 OA
ATOM     68  O   UNL A   1      44.902  24.150  37.632  1.00  0.00    -0.237 OA
ATOM     69  O   UNL A   1      45.070  22.416  35.899  1.00  0.00    -0.744 OA
ENDBRANCH  63  66
ENDBRANCH  36  59
ENDBRANCH  10  11
ENDBRANCH   3   5
ENDBRANCH   2   3
ENDBRANCH   1   2
BRANCH   1  70
ATOM     70  C   UNL A   1      32.048  29.259  25.309  1.00  0.00     0.275 C 
BRANCH  70  71
ATOM     71  O   UNL A   1      32.505  28.021  25.870  1.00  0.00    -0.458 OA
BRANCH  71  72
ATOM     72  C   UNL A   1      33.294  27.260  25.040  1.00  0.00     0.348 C 
ATOM     73  O   UNL A   1      33.969  27.715  24.136  1.00  0.00    -0.245 OA
BRANCH  72  74
ATOM     74  C   UNL A   1      33.192  25.867  25.422  1.00  0.00     0.113 A 
ATOM     75  C   UNL A   1      34.003  24.807  25.070  1.00  0.00     0.042 A 
ATOM     76  S   UNL A   1      31.939  25.366  26.475  1.00  0.00    -0.136 S 
ATOM     77  C   UNL A   1      33.718  23.633  25.825  1.00  0.00     0.019 A 
ATOM     78  C   UNL A   1      32.523  23.756  26.501  1.00  0.00     0.080 A 
BRANCH  77  79
ATOM     79  S   UNL A   1      34.730  22.189  25.956  1.00  0.00    -0.122 SA
BRANCH  79  80
ATOM     80  C   UNL A   1      33.749  20.857  25.193  1.00  0.00     0.057 C 
ATOM     81  C   UNL A   1      33.081  21.284  23.895  1.00  0.00     0.043 C 
ATOM     82  C   UNL A   1      34.565  19.600  24.848  1.00  0.00     0.053 C 
ATOM     83  C   UNL A   1      32.151  20.151  23.482  1.00  0.00     0.162 C 
ATOM     84  C   UNL A   1      33.641  18.464  24.358  1.00  0.00     0.095 C 
ATOM     85  O   UNL A   1      32.861  18.935  23.243  1.00  0.00    -0.372 OA
ATOM     86  C   UNL A   1      34.477  17.267  23.896  1.00  0.00     0.066 C 
ATOM     87  C   UNL A   1      32.735  17.841  25.437  1.00  0.00     0.195 C 
ATOM     88  C   UNL A   1      34.017  16.094  24.740  1.00  0.00     0.163 C 
ATOM     89  O   UNL A   1      33.370  16.641  25.886  1.00  0.00    -0.378 OA
ENDBRANCH  79  80
ENDBRANCH  77  79
ENDBRANCH  72  74
ENDBRANCH  71  72
ENDBRANCH  70  71
ENDBRANCH   1  70
TORSDOF 16
ENDMDL
MODEL 3
REMARK VINA RESULT:     -11.3      2.451      4.013
REMARK SMILES O=C(OCCOC(=O)c1cc(S[C@H]2CCO[C@@]3(CCOC3)C2)cs1)c1ccc(-c2c3nc(c(-c4cccc(S(=O)(=O)[O-])c4F)c4ccc([nH]4)c(-c4cccc(S(=O)(=O)[O-])c4F)c4nc(c(-c5cccc(S(=O)(=O)[O-])c5F)c5ccc2[nH]5)C=C4)C=C3)cc1
REMARK SMILES IDX 4 1 3 2 2 3 1 4 25 5 26 6 87 7 27 8 86 9 28 10 29 11 30 12
REMARK SMILES IDX 80 13 31 14 85 15 79 16 81 17 32 18 84 19 78 20 77 21 33 23
REMARK SMILES IDX 65 24 45 25 64 26 46 27 49 28 63 29 82 30 47 31 48 32 62 34
REMARK SMILES IDX 83 35 50 36 34 37 35 38 43 39 36 40 38 41 44 42 37 43 39 44
REMARK SMILES IDX 40 45 41 46 42 47 66 48 67 49 75 50 68 51 70 52 76 53 69 54
REMARK SMILES IDX 71 55 72 56 73 57 74 58 51 59 52 60 60 61 53 62 55 63 61 64
REMARK SMILES IDX 54 65 56 66 57 67 58 68 59 69 5 70 6 71 7 72 8 73 9 74 10 75
REMARK SMILES IDX 24 76 11 77 23 78 12 79 13 80 14 81 22 82 15 83 17 84 16 85
REMARK SMILES IDX 18 86 21 87 19 88 20 89
REMARK H PARENT 81 22 49 33
REMARK Flexibility Score: inf
ROOT
ATOM      1  C   UNL A   1      31.342  32.093  26.681  1.00  0.00     0.275 C 
ENDROOT
BRANCH   1   2
ATOM      2  O   UNL A   1      32.376  33.086  26.756  1.00  0.00    -0.458 OA
BRANCH   2   3
ATOM      3  C   UNL A   1      33.100  33.545  27.804  1.00  0.00     0.338 C 
ATOM      4  O   UNL A   1      32.806  34.653  28.255  1.00  0.00    -0.246 OA
BRANCH   3   5
ATOM      5  C   UNL A   1      34.283  32.840  28.413  1.00  0.00     0.060 A 
ATOM      6  C   UNL A   1      34.275  31.625  29.105  1.00  0.00     0.016 A 
ATOM      7  C   UNL A   1      35.527  33.483  28.264  1.00  0.00     0.016 A 
ATOM      8  C   UNL A   1      35.452  31.070  29.630  1.00  0.00     0.010 A 
ATOM      9  C   UNL A   1      36.710  32.925  28.770  1.00  0.00     0.010 A 
ATOM     10  C   UNL A   1      36.676  31.719  29.477  1.00  0.00    -0.014 A 
BRANCH  10  11
ATOM     11  C   UNL A   1      37.897  31.193  30.131  1.00  0.00     0.031 A 
ATOM     12  C   UNL A   1      38.236  31.625  31.513  1.00  0.00     0.074 A 
ATOM     13  C   UNL A   1      38.704  30.301  29.532  1.00  0.00     0.049 A 
ATOM     14  N   UNL A   1      39.143  31.123  32.302  1.00  0.00    -0.248 NA
ATOM     15  C   UNL A   1      37.423  32.695  32.105  1.00  0.00     0.031 C 
ATOM     16  C   UNL A   1      38.394  29.658  28.273  1.00  0.00     0.029 A 
ATOM     17  N   UNL A   1      39.927  29.770  29.887  1.00  0.00    -0.354 N 
ATOM     18  C   UNL A   1      39.015  31.807  33.493  1.00  0.00     0.074 A 
ATOM     19  C   UNL A   1      37.951  32.776  33.317  1.00  0.00     0.031 C 
ATOM     20  C   UNL A   1      39.429  28.882  27.937  1.00  0.00     0.029 A 
ATOM     21  C   UNL A   1      40.480  28.964  28.916  1.00  0.00     0.049 A 
ATOM     22  H   UNL A   1      40.362  29.949  30.751  1.00  0.00     0.167 HD
ATOM     23  C   UNL A   1      39.716  31.622  34.631  1.00  0.00     0.034 A 
ATOM     24  C   UNL A   1      41.654  28.306  28.809  1.00  0.00     0.034 A 
ATOM     25  C   UNL A   1      40.793  30.684  34.786  1.00  0.00     0.049 A 
ATOM     26  C   UNL A   1      42.436  28.178  30.081  1.00  0.00     0.074 A 
ATOM     27  C   UNL A   1      41.576  30.457  35.903  1.00  0.00     0.029 A 
ATOM     28  N   UNL A   1      41.274  29.850  33.787  1.00  0.00    -0.354 N 
ATOM     29  N   UNL A   1      42.118  28.622  31.270  1.00  0.00    -0.248 NA
ATOM     30  C   UNL A   1      43.635  27.330  30.054  1.00  0.00     0.031 C 
ATOM     31  C   UNL A   1      42.565  29.529  35.565  1.00  0.00     0.029 A 
ATOM     32  C   UNL A   1      42.376  29.147  34.248  1.00  0.00     0.049 A 
ATOM     33  H   UNL A   1      40.888  29.768  32.884  1.00  0.00     0.167 HD
ATOM     34  C   UNL A   1      43.011  28.026  32.140  1.00  0.00     0.074 A 
ATOM     35  C   UNL A   1      43.840  27.142  31.348  1.00  0.00     0.031 C 
ATOM     36  C   UNL A   1      43.151  28.219  33.471  1.00  0.00     0.034 A 
BRANCH  23  37
ATOM     37  C   UNL A   1      39.363  32.523  35.770  1.00  0.00     0.023 A 
ATOM     38  C   UNL A   1      38.458  32.097  36.762  1.00  0.00     0.012 A 
ATOM     39  C   UNL A   1      39.916  33.813  35.828  1.00  0.00     0.148 A 
ATOM     40  C   UNL A   1      38.081  32.966  37.783  1.00  0.00     0.002 A 
ATOM     41  C   UNL A   1      39.573  34.654  36.873  1.00  0.00     0.091 A 
ATOM     42  F   UNL A   1      40.744  34.196  34.845  1.00  0.00    -0.205 F 
ATOM     43  C   UNL A   1      38.645  34.240  37.843  1.00  0.00     0.022 A 
BRANCH  41  44
ATOM     44  S   UNL A   1      40.294  36.284  37.065  1.00  0.00     0.127 S 
ATOM     45  O   UNL A   1      39.532  36.809  38.198  1.00  0.00    -0.237 OA
ATOM     46  O   UNL A   1      41.689  35.962  37.362  1.00  0.00    -0.237 OA
ATOM     47  O   UNL A   1      40.080  36.973  35.801  1.00  0.00    -0.744 OA
ENDBRANCH  41  44
ENDBRANCH  23  37
BRANCH  24  48
ATOM     48  C   UNL A   1      42.078  27.549  27.575  1.00  0.00     0.023 A 
ATOM     49  C   UNL A   1      42.547  28.270  26.456  1.00  0.00     0.012 A 
ATOM     50  C   UNL A   1      41.980  26.144  27.461  1.00  0.00     0.148 A 
ATOM     51  C   UNL A   1      42.779  27.647  25.228  1.00  0.00     0.002 A 
ATOM     52  C   UNL A   1      42.332  25.513  26.261  1.00  0.00     0.091 A 
ATOM     53  F   UNL A   1      41.569  25.442  28.526  1.00  0.00    -0.205 F 
ATOM     54  C   UNL A   1      42.681  26.267  25.132  1.00  0.00     0.022 A 
BRANCH  52  55
ATOM     55  S   UNL A   1      42.513  23.731  26.084  1.00  0.00     0.127 S 
ATOM     56  O   UNL A   1      43.433  23.408  27.172  1.00  0.00    -0.237 OA
ATOM     57  O   UNL A   1      41.138  23.278  26.295  1.00  0.00    -0.237 OA
ATOM     58  O   UNL A   1      43.032  23.513  24.743  1.00  0.00    -0.744 OA
ENDBRANCH  52  55
ENDBRANCH  24  48
BRANCH  36  59
ATOM     59  C   UNL A   1      44.252  27.450  34.145  1.00  0.00     0.023 A 
ATOM     60  C   UNL A   1      45.565  27.967  34.137  1.00  0.00     0.012 A 
ATOM     61  C   UNL A   1      43.991  26.229  34.790  1.00  0.00     0.148 A 
ATOM     62  C   UNL A   1      46.615  27.247  34.698  1.00  0.00     0.002 A 
ATOM     63  C   UNL A   1      45.031  25.552  35.412  1.00  0.00     0.091 A 
ATOM     64  F   UNL A   1      42.740  25.747  34.771  1.00  0.00    -0.205 F 
ATOM     65  C   UNL A   1      46.346  26.045  35.345  1.00  0.00     0.022 A 
BRANCH  63  66
ATOM     66  S   UNL A   1      44.773  24.059  36.373  1.00  0.00     0.127 S 
ATOM     67  O   UNL A   1      46.141  23.568  36.535  1.00  0.00    -0.237 OA
ATOM     68  O   UNL A   1      44.164  24.588  37.593  1.00  0.00    -0.237 OA
ATOM     69  O   UNL A   1      43.899  23.209  35.576  1.00  0.00    -0.744 OA
ENDBRANCH  63  66
ENDBRANCH  36  59
ENDBRANCH  10  11
ENDBRANCH   3   5
ENDBRANCH   2   3
ENDBRANCH   1   2
BRANCH   1  70
ATOM     70  C   UNL A   1      31.866  30.658  26.580  1.00  0.00     0.275 C 
BRANCH  70  71
ATOM     71  O   UNL A   1      33.178  30.566  26.007  1.00  0.00    -0.458 OA
BRANCH  71  72
ATOM     72  C   UNL A   1      33.730  29.306  26.012  1.00  0.00     0.348 C 
ATOM     73  O   UNL A   1      34.549  28.924  26.826  1.00  0.00    -0.245 OA
BRANCH  72  74
ATOM     74  C   UNL A   1      33.177  28.534  24.919  1.00  0.00     0.113 A 
ATOM     75  C   UNL A   1      32.151  27.610  24.938  1.00  0.00     0.042 A 
ATOM     76  S   UNL A   1      33.796  28.741  23.337  1.00  0.00    -0.136 S 
ATOM     77  C   UNL A   1      31.740  27.230  23.627  1.00  0.00     0.019 A 
ATOM     78  C   UNL A   1      32.653  27.646  22.682  1.00  0.00     0.080 A 
BRANCH  77  79
ATOM     79  S   UNL A   1      30.258  26.372  23.192  1.00  0.00    -0.122 SA
BRANCH  79  80
ATOM     80  C   UNL A   1      29.004  27.677  22.978  1.00  0.00     0.057 C 
ATOM     81  C   UNL A   1      27.723  27.396  23.750  1.00  0.00     0.043 C 
ATOM     82  C   UNL A   1      29.469  29.070  23.434  1.00  0.00     0.053 C 
ATOM     83  C   UNL A   1      26.711  28.452  23.327  1.00  0.00     0.162 C 
ATOM     84  C   UNL A   1      28.418  30.142  23.075  1.00  0.00     0.095 C 
ATOM     85  O   UNL A   1      27.149  29.773  23.646  1.00  0.00    -0.372 OA
ATOM     86  C   UNL A   1      28.833  31.501  23.647  1.00  0.00     0.066 C 
ATOM     87  C   UNL A   1      28.275  30.446  21.570  1.00  0.00     0.195 C 
ATOM     88  C   UNL A   1      28.920  32.440  22.460  1.00  0.00     0.163 C 
ATOM     89  O   UNL A   1      29.040  31.623  21.299  1.00  0.00    -0.378 OA
ENDBRANCH  79  80
ENDBRANCH  77  79
ENDBRANCH  72  74
ENDBRANCH  71  72
ENDBRANCH  70  71
ENDBRANCH   1  70
TORSDOF 16
ENDMDL
