MODEL 1
REMARK VINA RESULT:     -10.8      0.000      0.000
REMARK SMILES O=C1CC[C@H](CNC(=O)N[C@@H]2C=C[C@@H](C(=O)OCCOC(=O)c3ccc(-c4c5nc(c(-c6cccc(S(=O)(=O)[O-])c6F)c6ccc([nH]6)c(-c6cccc(S(=O)(=O)[O-])c6F)c6nc(c(-c7cccc(S(=O)(=O)[O-])c7F)c7ccc4[nH]7)C=C6)C=C5)cc3)C2)N1
REMARK SMILES IDX 18 1 17 2 15 3 16 4 14 5 11 6 12 7 86 8 13 9 10 10 7 11 8 12
REMARK SMILES IDX 9 14 6 16 5 17 1 18 2 19 3 20 87 21 4 22 19 24 20 25 21 26
REMARK SMILES IDX 22 27 23 28 24 29 85 30 25 31 84 32 26 33 27 34 28 35 78 36
REMARK SMILES IDX 29 37 83 38 77 39 79 40 30 41 82 42 76 43 75 44 31 46 63 47
REMARK SMILES IDX 43 48 62 49 44 50 47 51 61 52 80 53 45 54 46 55 60 57 81 58
REMARK SMILES IDX 48 59 32 60 33 61 41 62 34 63 36 64 42 65 35 66 37 67 38 68
REMARK SMILES IDX 39 69 40 70 64 71 65 72 73 73 66 74 68 75 74 76 67 77 69 78
REMARK SMILES IDX 70 79 71 80 72 81 49 82 50 83 58 84 51 85 53 86 59 87 52 88
REMARK SMILES IDX 54 89 55 90 56 91 57 92
REMARK H PARENT 7 13 10 15 87 23 79 45 47 56
REMARK Flexibility Score: inf
ROOT
ATOM      1  C   UNL A   1      33.712  34.062  28.000  1.00  0.00     0.274 C 
ENDROOT
BRANCH   1   2
ATOM      2  O   UNL A   1      34.041  35.096  28.944  1.00  0.00    -0.462 OA
BRANCH   2   3
ATOM      3  C   UNL A   1      33.033  35.721  29.604  1.00  0.00     0.312 C 
ATOM      4  O   UNL A   1      32.192  36.434  29.070  1.00  0.00    -0.252 OA
BRANCH   3   5
ATOM      5  C   UNL A   1      33.024  35.375  31.099  1.00  0.00     0.124 C 
ATOM      6  C   UNL A   1      34.761  35.598  32.866  1.00  0.00     0.107 C 
ATOM      7  C   UNL A   1      33.687  36.630  32.979  1.00  0.00    -0.006 C 
ATOM      8  C   UNL A   1      34.329  34.787  31.649  1.00  0.00     0.048 C 
ATOM      9  C   UNL A   1      32.778  36.543  32.000  1.00  0.00    -0.014 C 
BRANCH   6  10
ATOM     10  N   UNL A   1      34.838  34.798  34.067  1.00  0.00    -0.332 N 
ATOM     11  N   UNL A   1      37.147  34.287  34.321  1.00  0.00    -0.336 N 
ATOM     12  C   UNL A   1      35.869  34.260  34.743  1.00  0.00     0.315 C 
ATOM     13  H   UNL A   1      37.800  34.000  35.000  1.00  0.00     0.165 HD
ATOM     14  O   UNL A   1      35.632  33.705  35.817  1.00  0.00    -0.249 OA
ATOM     15  H   UNL A   1      33.960  34.610  34.471  1.00  0.00     0.165 HD
BRANCH  11  16
ATOM     16  C   UNL A   1      37.740  34.659  33.052  1.00  0.00     0.142 C 
BRANCH  16  17
ATOM     17  C   UNL A   1      38.375  33.515  32.245  1.00  0.00     0.101 C 
ATOM     18  O   UNL A   1      39.397  34.738  29.112  1.00  0.00    -0.275 OA
ATOM     19  C   UNL A   1      38.827  34.189  30.029  1.00  0.00     0.220 C 
ATOM     20  C   UNL A   1      37.455  33.557  30.004  1.00  0.00     0.102 C 
ATOM     21  N   UNL A   1      39.335  34.047  31.305  1.00  0.00    -0.352 N 
ATOM     22  C   UNL A   1      37.400  32.786  31.326  1.00  0.00     0.036 C 
ATOM     23  H   UNL A   1      40.258  34.285  31.550  1.00  0.00     0.163 HD
ENDBRANCH  16  17
ENDBRANCH  11  16
ENDBRANCH   6  10
ENDBRANCH   3   5
ENDBRANCH   2   3
ENDBRANCH   1   2
BRANCH   1  24
ATOM     24  C   UNL A   1      34.172  32.715  28.569  1.00  0.00     0.275 C 
BRANCH  24  25
ATOM     25  O   UNL A   1      34.836  31.931  27.553  1.00  0.00    -0.458 OA
BRANCH  25  26
ATOM     26  C   UNL A   1      34.838  30.596  27.773  1.00  0.00     0.338 C 
ATOM     27  O   UNL A   1      33.963  29.798  27.480  1.00  0.00    -0.246 OA
BRANCH  26  28
ATOM     28  C   UNL A   1      36.131  30.161  28.318  1.00  0.00     0.060 A 
ATOM     29  C   UNL A   1      37.252  30.244  27.487  1.00  0.00     0.016 A 
ATOM     30  C   UNL A   1      36.232  29.580  29.580  1.00  0.00     0.016 A 
ATOM     31  C   UNL A   1      38.475  29.734  27.901  1.00  0.00     0.010 A 
ATOM     32  C   UNL A   1      37.472  29.089  30.008  1.00  0.00     0.010 A 
ATOM     33  C   UNL A   1      38.599  29.157  29.168  1.00  0.00    -0.014 A 
BRANCH  33  34
ATOM     34  C   UNL A   1      39.921  28.658  29.613  1.00  0.00     0.031 A 
ATOM     35  C   UNL A   1      40.670  29.356  30.710  1.00  0.00     0.074 A 
ATOM     36  C   UNL A   1      40.446  27.575  29.009  1.00  0.00     0.049 A 
ATOM     37  N   UNL A   1      41.861  29.096  31.184  1.00  0.00    -0.248 NA
ATOM     38  C   UNL A   1      40.001  30.495  31.357  1.00  0.00     0.031 C 
ATOM     39  C   UNL A   1      39.806  26.822  27.928  1.00  0.00     0.029 A 
ATOM     40  N   UNL A   1      41.645  26.936  29.197  1.00  0.00    -0.354 N 
ATOM     41  C   UNL A   1      42.104  30.061  32.153  1.00  0.00     0.074 A 
ATOM     42  C   UNL A   1      40.933  30.909  32.207  1.00  0.00     0.031 C 
ATOM     43  C   UNL A   1      40.630  25.840  27.531  1.00  0.00     0.029 A 
ATOM     44  C   UNL A   1      41.867  25.917  28.301  1.00  0.00     0.049 A 
ATOM     45  H   UNL A   1      42.283  27.183  29.905  1.00  0.00     0.167 HD
ATOM     46  C   UNL A   1      43.203  30.217  32.929  1.00  0.00     0.034 A 
ATOM     47  C   UNL A   1      42.958  25.153  28.099  1.00  0.00     0.034 A 
ATOM     48  C   UNL A   1      44.344  29.343  32.901  1.00  0.00     0.049 A 
ATOM     49  C   UNL A   1      44.158  25.347  28.985  1.00  0.00     0.074 A 
ATOM     50  C   UNL A   1      45.474  29.379  33.699  1.00  0.00     0.029 A 
ATOM     51  N   UNL A   1      44.508  28.279  32.027  1.00  0.00    -0.354 N 
ATOM     52  N   UNL A   1      44.318  26.182  29.983  1.00  0.00    -0.248 NA
ATOM     53  C   UNL A   1      45.315  24.475  28.739  1.00  0.00     0.031 C 
ATOM     54  C   UNL A   1      46.331  28.352  33.293  1.00  0.00     0.029 A 
ATOM     55  C   UNL A   1      45.726  27.662  32.255  1.00  0.00     0.049 A 
ATOM     56  H   UNL A   1      43.855  28.003  31.344  1.00  0.00     0.167 HD
ATOM     57  C   UNL A   1      45.581  25.919  30.500  1.00  0.00     0.074 A 
ATOM     58  C   UNL A   1      46.132  24.827  29.723  1.00  0.00     0.031 C 
ATOM     59  C   UNL A   1      46.235  26.539  31.512  1.00  0.00     0.034 A 
BRANCH  46  60
ATOM     60  C   UNL A   1      43.225  31.363  33.904  1.00  0.00     0.023 A 
ATOM     61  C   UNL A   1      43.816  32.585  33.531  1.00  0.00     0.012 A 
ATOM     62  C   UNL A   1      42.571  31.259  35.149  1.00  0.00     0.148 A 
ATOM     63  C   UNL A   1      43.771  33.684  34.388  1.00  0.00     0.002 A 
ATOM     64  C   UNL A   1      42.499  32.368  35.982  1.00  0.00     0.091 A 
ATOM     65  F   UNL A   1      42.033  30.080  35.491  1.00  0.00    -0.205 F 
ATOM     66  C   UNL A   1      43.103  33.580  35.605  1.00  0.00     0.022 A 
BRANCH  64  67
ATOM     67  S   UNL A   1      41.603  32.357  37.539  1.00  0.00     0.127 S 
ATOM     68  O   UNL A   1      41.660  33.767  37.922  1.00  0.00    -0.237 OA
ATOM     69  O   UNL A   1      40.278  31.890  37.129  1.00  0.00    -0.237 OA
ATOM     70  O   UNL A   1      42.327  31.444  38.413  1.00  0.00    -0.744 OA
ENDBRANCH  64  67
ENDBRANCH  46  60
BRANCH  47  71
ATOM     71  C   UNL A   1      42.957  24.123  27.023  1.00  0.00     0.023 A 
ATOM     72  C   UNL A   1      43.632  24.378  25.814  1.00  0.00     0.012 A 
ATOM     73  C   UNL A   1      42.308  22.886  27.198  1.00  0.00     0.148 A 
ATOM     74  C   UNL A   1      43.634  23.432  24.789  1.00  0.00     0.002 A 
ATOM     75  C   UNL A   1      42.363  21.925  26.196  1.00  0.00     0.091 A 
ATOM     76  F   UNL A   1      41.650  22.668  28.347  1.00  0.00    -0.205 F 
ATOM     77  C   UNL A   1      43.011  22.201  24.983  1.00  0.00     0.022 A 
BRANCH  75  78
ATOM     78  S   UNL A   1      41.704  20.271  26.434  1.00  0.00     0.127 S 
ATOM     79  O   UNL A   1      42.296  19.547  25.313  1.00  0.00    -0.237 OA
ATOM     80  O   UNL A   1      42.233  19.911  27.750  1.00  0.00    -0.237 OA
ATOM     81  O   UNL A   1      40.255  20.431  26.401  1.00  0.00    -0.744 OA
ENDBRANCH  75  78
ENDBRANCH  47  71
BRANCH  59  82
ATOM     82  C   UNL A   1      47.612  26.039  31.861  1.00  0.00     0.023 A 
ATOM     83  C   UNL A   1      48.731  26.540  31.167  1.00  0.00     0.012 A 
ATOM     84  C   UNL A   1      47.803  25.134  32.923  1.00  0.00     0.148 A 
ATOM     85  C   UNL A   1      50.017  26.126  31.505  1.00  0.00     0.002 A 
ATOM     86  C   UNL A   1      49.092  24.762  33.285  1.00  0.00     0.091 A 
ATOM     87  F   UNL A   1      46.724  24.654  33.558  1.00  0.00    -0.205 F 
ATOM     88  C   UNL A   1      50.200  25.248  32.572  1.00  0.00     0.022 A 
BRANCH  86  89
ATOM     89  S   UNL A   1      49.423  23.709  34.703  1.00  0.00     0.127 S 
ATOM     90  O   UNL A   1      50.882  23.749  34.771  1.00  0.00    -0.237 OA
ATOM     91  O   UNL A   1      48.741  24.419  35.787  1.00  0.00    -0.237 OA
ATOM     92  O   UNL A   1      48.844  22.412  34.378  1.00  0.00    -0.744 OA
ENDBRANCH  86  89
ENDBRANCH  59  82
ENDBRANCH  33  34
ENDBRANCH  26  28
ENDBRANCH  25  26
ENDBRANCH  24  25
ENDBRANCH   1  24
TORSDOF 17
ENDMDL
MODEL 2
REMARK VINA RESULT:     -10.8      4.670     10.459
REMARK SMILES O=C1CC[C@H](CNC(=O)N[C@@H]2C=C[C@@H](C(=O)OCCOC(=O)c3ccc(-c4c5nc(c(-c6cccc(S(=O)(=O)[O-])c6F)c6ccc([nH]6)c(-c6cccc(S(=O)(=O)[O-])c6F)c6nc(c(-c7cccc(S(=O)(=O)[O-])c7F)c7ccc4[nH]7)C=C6)C=C5)cc3)C2)N1
REMARK SMILES IDX 18 1 17 2 15 3 16 4 14 5 11 6 12 7 86 8 13 9 10 10 7 11 8 12
REMARK SMILES IDX 9 14 6 16 5 17 1 18 2 19 3 20 87 21 4 22 19 24 20 25 21 26
REMARK SMILES IDX 22 27 23 28 24 29 85 30 25 31 84 32 26 33 27 34 28 35 78 36
REMARK SMILES IDX 29 37 83 38 77 39 79 40 30 41 82 42 76 43 75 44 31 46 63 47
REMARK SMILES IDX 43 48 62 49 44 50 47 51 61 52 80 53 45 54 46 55 60 57 81 58
REMARK SMILES IDX 48 59 32 60 33 61 41 62 34 63 36 64 42 65 35 66 37 67 38 68
REMARK SMILES IDX 39 69 40 70 64 71 65 72 73 73 66 74 68 75 74 76 67 77 69 78
REMARK SMILES IDX 70 79 71 80 72 81 49 82 50 83 58 84 51 85 53 86 59 87 52 88
REMARK SMILES IDX 54 89 55 90 56 91 57 92
REMARK H PARENT 7 13 10 15 87 23 79 45 47 56
REMARK Flexibility Score: inf
ROOT
ATOM      1  C   UNL A   1      33.637  32.309  27.590  1.00  0.00     0.274 C 
ENDROOT
BRANCH   1   2
ATOM      2  O   UNL A   1      33.105  31.063  27.107  1.00  0.00    -0.462 OA
BRANCH   2   3
ATOM      3  C   UNL A   1      33.791  29.920  27.359  1.00  0.00     0.312 C 
ATOM      4  O   UNL A   1      34.871  29.872  27.934  1.00  0.00    -0.252 OA
BRANCH   3   5
ATOM      5  C   UNL A   1      33.022  28.674  26.897  1.00  0.00     0.124 C 
ATOM      6  C   UNL A   1      31.839  28.145  24.773  1.00  0.00     0.107 C 
ATOM      7  C   UNL A   1      33.147  27.434  24.899  1.00  0.00    -0.006 C 
ATOM      8  C   UNL A   1      31.761  28.946  26.069  1.00  0.00     0.048 C 
ATOM      9  C   UNL A   1      33.809  27.756  26.017  1.00  0.00    -0.014 C 
BRANCH   6  10
ATOM     10  N   UNL A   1      30.751  27.204  24.637  1.00  0.00    -0.332 N 
ATOM     11  N   UNL A   1      29.441  28.035  22.833  1.00  0.00    -0.336 N 
ATOM     12  C   UNL A   1      29.726  27.111  23.770  1.00  0.00     0.315 C 
ATOM     13  H   UNL A   1      28.768  27.745  22.175  1.00  0.00     0.165 HD
ATOM     14  O   UNL A   1      29.000  26.118  23.835  1.00  0.00    -0.249 OA
ATOM     15  H   UNL A   1      30.762  26.489  25.313  1.00  0.00     0.165 HD
BRANCH  11  16
ATOM     16  C   UNL A   1      29.940  29.378  22.615  1.00  0.00     0.142 C 
BRANCH  16  17
ATOM     17  C   UNL A   1      29.018  30.317  21.821  1.00  0.00     0.101 C 
ATOM     18  O   UNL A   1      29.172  33.541  23.216  1.00  0.00    -0.275 OA
ATOM     19  C   UNL A   1      28.849  32.425  22.868  1.00  0.00     0.220 C 
ATOM     20  C   UNL A   1      27.697  31.602  23.393  1.00  0.00     0.102 C 
ATOM     21  N   UNL A   1      29.502  31.676  21.909  1.00  0.00    -0.352 N 
ATOM     22  C   UNL A   1      27.611  30.442  22.397  1.00  0.00     0.036 C 
ATOM     23  H   UNL A   1      30.225  32.032  21.344  1.00  0.00     0.163 HD
ENDBRANCH  16  17
ENDBRANCH  11  16
ENDBRANCH   6  10
ENDBRANCH   3   5
ENDBRANCH   2   3
ENDBRANCH   1   2
BRANCH   1  24
ATOM     24  C   UNL A   1      32.564  33.393  27.439  1.00  0.00     0.275 C 
BRANCH  24  25
ATOM     25  O   UNL A   1      32.374  34.101  28.683  1.00  0.00    -0.458 OA
BRANCH  25  26
ATOM     26  C   UNL A   1      33.305  35.046  28.949  1.00  0.00     0.338 C 
ATOM     27  O   UNL A   1      33.232  36.242  28.716  1.00  0.00    -0.246 OA
BRANCH  26  28
ATOM     28  C   UNL A   1      34.425  34.473  29.708  1.00  0.00     0.060 A 
ATOM     29  C   UNL A   1      35.712  34.620  29.183  1.00  0.00     0.016 A 
ATOM     30  C   UNL A   1      34.215  33.711  30.855  1.00  0.00     0.016 A 
ATOM     31  C   UNL A   1      36.795  33.996  29.789  1.00  0.00     0.010 A 
ATOM     32  C   UNL A   1      35.310  33.102  31.480  1.00  0.00     0.010 A 
ATOM     33  C   UNL A   1      36.605  33.236  30.947  1.00  0.00    -0.014 A 
BRANCH  33  34
ATOM     34  C   UNL A   1      37.776  32.613  31.607  1.00  0.00     0.031 A 
ATOM     35  C   UNL A   1      38.497  31.467  30.959  1.00  0.00     0.074 A 
ATOM     36  C   UNL A   1      38.177  33.083  32.803  1.00  0.00     0.049 A 
ATOM     37  N   UNL A   1      39.499  30.764  31.418  1.00  0.00    -0.248 NA
ATOM     38  C   UNL A   1      38.032  31.052  29.626  1.00  0.00     0.031 C 
ATOM     39  C   UNL A   1      37.546  34.190  33.526  1.00  0.00     0.029 A 
ATOM     40  N   UNL A   1      39.190  32.676  33.634  1.00  0.00    -0.354 N 
ATOM     41  C   UNL A   1      39.759  29.797  30.456  1.00  0.00     0.074 A 
ATOM     42  C   UNL A   1      38.814  30.009  29.380  1.00  0.00     0.031 C 
ATOM     43  C   UNL A   1      38.169  34.356  34.703  1.00  0.00     0.029 A 
ATOM     44  C   UNL A   1      39.215  33.348  34.834  1.00  0.00     0.049 A 
ATOM     45  H   UNL A   1      39.835  31.973  33.394  1.00  0.00     0.167 HD
ATOM     46  C   UNL A   1      40.705  28.828  30.469  1.00  0.00     0.034 A 
ATOM     47  C   UNL A   1      39.973  33.150  35.930  1.00  0.00     0.034 A 
ATOM     48  C   UNL A   1      41.669  28.653  31.522  1.00  0.00     0.049 A 
ATOM     49  C   UNL A   1      41.020  32.070  35.907  1.00  0.00     0.074 A 
ATOM     50  C   UNL A   1      42.710  27.743  31.590  1.00  0.00     0.029 A 
ATOM     51  N   UNL A   1      41.709  29.393  32.693  1.00  0.00    -0.354 N 
ATOM     52  N   UNL A   1      41.336  31.250  34.935  1.00  0.00    -0.248 NA
ATOM     53  C   UNL A   1      41.835  31.908  37.119  1.00  0.00     0.031 C 
ATOM     54  C   UNL A   1      43.366  27.920  32.812  1.00  0.00     0.029 A 
ATOM     55  C   UNL A   1      42.746  28.952  33.496  1.00  0.00     0.049 A 
ATOM     56  H   UNL A   1      41.091  30.125  32.920  1.00  0.00     0.167 HD
ATOM     57  C   UNL A   1      42.402  30.493  35.407  1.00  0.00     0.074 A 
ATOM     58  C   UNL A   1      42.696  30.972  36.742  1.00  0.00     0.031 C 
ATOM     59  C   UNL A   1      43.064  29.479  34.798  1.00  0.00     0.034 A 
BRANCH  46  60
ATOM     60  C   UNL A   1      40.773  27.888  29.296  1.00  0.00     0.023 A 
ATOM     61  C   UNL A   1      39.914  26.773  29.246  1.00  0.00     0.012 A 
ATOM     62  C   UNL A   1      41.615  28.165  28.200  1.00  0.00     0.148 A 
ATOM     63  C   UNL A   1      39.902  25.938  28.129  1.00  0.00     0.002 A 
ATOM     64  C   UNL A   1      41.572  27.351  27.076  1.00  0.00     0.091 A 
ATOM     65  F   UNL A   1      42.438  29.221  28.280  1.00  0.00    -0.205 F 
ATOM     66  C   UNL A   1      40.720  26.234  27.041  1.00  0.00     0.022 A 
BRANCH  64  67
ATOM     67  S   UNL A   1      42.535  27.685  25.597  1.00  0.00     0.127 S 
ATOM     68  O   UNL A   1      43.894  27.730  26.135  1.00  0.00    -0.237 OA
ATOM     69  O   UNL A   1      42.246  26.513  24.770  1.00  0.00    -0.237 OA
ATOM     70  O   UNL A   1      42.033  28.944  25.065  1.00  0.00    -0.744 OA
ENDBRANCH  64  67
ENDBRANCH  46  60
BRANCH  47  71
ATOM     71  C   UNL A   1      39.778  34.006  37.133  1.00  0.00     0.023 A 
ATOM     72  C   UNL A   1      40.253  35.331  37.130  1.00  0.00     0.012 A 
ATOM     73  C   UNL A   1      39.107  33.520  38.272  1.00  0.00     0.148 A 
ATOM     74  C   UNL A   1      40.089  36.146  38.251  1.00  0.00     0.002 A 
ATOM     75  C   UNL A   1      38.896  34.355  39.363  1.00  0.00     0.091 A 
ATOM     76  F   UNL A   1      38.681  32.248  38.268  1.00  0.00    -0.205 F 
ATOM     77  C   UNL A   1      39.402  35.664  39.362  1.00  0.00     0.022 A 
BRANCH  75  78
ATOM     78  S   UNL A   1      37.900  33.845  40.767  1.00  0.00     0.127 S 
ATOM     79  O   UNL A   1      37.540  35.128  41.364  1.00  0.00    -0.237 OA
ATOM     80  O   UNL A   1      36.794  33.134  40.122  1.00  0.00    -0.237 OA
ATOM     81  O   UNL A   1      38.771  32.989  41.561  1.00  0.00    -0.744 OA
ENDBRANCH  75  78
ENDBRANCH  47  71
BRANCH  59  82
ATOM     82  C   UNL A   1      44.191  28.830  35.556  1.00  0.00     0.023 A 
ATOM     83  C   UNL A   1      45.498  29.340  35.430  1.00  0.00     0.012 A 
ATOM     84  C   UNL A   1      43.944  27.768  36.449  1.00  0.00     0.148 A 
ATOM     85  C   UNL A   1      46.548  28.785  36.159  1.00  0.00     0.002 A 
ATOM     86  C   UNL A   1      44.988  27.251  37.206  1.00  0.00     0.091 A 
ATOM     87  F   UNL A   1      42.697  27.284  36.538  1.00  0.00    -0.205 F 
ATOM     88  C   UNL A   1      46.292  27.750  37.056  1.00  0.00     0.022 A 
BRANCH  86  89
ATOM     89  S   UNL A   1      44.730  25.980  38.450  1.00  0.00     0.127 S 
ATOM     90  O   UNL A   1      46.093  25.737  38.916  1.00  0.00    -0.237 OA
ATOM     91  O   UNL A   1      43.867  26.660  39.418  1.00  0.00    -0.237 OA
ATOM     92  O   UNL A   1      44.094  24.868  37.757  1.00  0.00    -0.744 OA
ENDBRANCH  86  89
ENDBRANCH  59  82
ENDBRANCH  33  34
ENDBRANCH  26  28
ENDBRANCH  25  26
ENDBRANCH  24  25
ENDBRANCH   1  24
TORSDOF 17
ENDMDL
MODEL 3
REMARK VINA RESULT:     -10.7      5.771     11.154
REMARK SMILES O=C1CC[C@H](CNC(=O)N[C@@H]2C=C[C@@H](C(=O)OCCOC(=O)c3ccc(-c4c5nc(c(-c6cccc(S(=O)(=O)[O-])c6F)c6ccc([nH]6)c(-c6cccc(S(=O)(=O)[O-])c6F)c6nc(c(-c7cccc(S(=O)(=O)[O-])c7F)c7ccc4[nH]7)C=C6)C=C5)cc3)C2)N1
REMARK SMILES IDX 18 1 17 2 15 3 16 4 14 5 11 6 12 7 86 8 13 9 10 10 7 11 8 12
REMARK SMILES IDX 9 14 6 16 5 17 1 18 2 19 3 20 87 21 4 22 19 24 20 25 21 26
REMARK SMILES IDX 22 27 23 28 24 29 85 30 25 31 84 32 26 33 27 34 28 35 78 36
REMARK SMILES IDX 29 37 83 38 77 39 79 40 30 41 82 42 76 43 75 44 31 46 63 47
REMARK SMILES IDX 43 48 62 49 44 50 47 51 61 52 80 53 45 54 46 55 60 57 81 58
REMARK SMILES IDX 48 59 32 60 33 61 41 62 34 63 36 64 42 65 35 66 37 67 38 68
REMARK SMILES IDX 39 69 40 70 64 71 65 72 73 73 66 74 68 75 74 76 67 77 69 78
REMARK SMILES IDX 70 79 71 80 72 81 49 82 50 83 58 84 51 85 53 86 59 87 52 88
REMARK SMILES IDX 54 89 55 90 56 91 57 92
REMARK H PARENT 7 13 10 15 87 23 79 45 47 56
REMARK Flexibility Score: inf
ROOT
ATOM      1  C   UNL A   1      34.807  21.006  24.693  1.00  0.00     0.274 C 
ENDROOT
BRANCH   1   2
ATOM      2  O   UNL A   1      34.131  21.441  25.886  1.00  0.00    -0.462 OA
BRANCH   2   3
ATOM      3  C   UNL A   1      32.776  21.516  25.877  1.00  0.00     0.312 C 
ATOM      4  O   UNL A   1      32.041  20.719  25.306  1.00  0.00    -0.252 OA
BRANCH   3   5
ATOM      5  C   UNL A   1      32.259  22.684  26.728  1.00  0.00     0.124 C 
ATOM      6  C   UNL A   1      31.460  24.959  26.114  1.00  0.00     0.107 C 
ATOM      7  C   UNL A   1      30.346  24.038  26.493  1.00  0.00    -0.006 C 
ATOM      8  C   UNL A   1      32.697  24.079  26.268  1.00  0.00     0.048 C 
ATOM      9  C   UNL A   1      30.769  22.799  26.775  1.00  0.00    -0.014 C 
BRANCH   6  10
ATOM     10  N   UNL A   1      31.490  26.115  26.979  1.00  0.00    -0.332 N 
ATOM     11  N   UNL A   1      31.192  27.978  25.529  1.00  0.00    -0.336 N 
ATOM     12  C   UNL A   1      31.327  27.432  26.753  1.00  0.00     0.315 C 
ATOM     13  H   UNL A   1      30.917  28.923  25.541  1.00  0.00     0.165 HD
ATOM     14  O   UNL A   1      31.300  28.189  27.725  1.00  0.00    -0.249 OA
ATOM     15  H   UNL A   1      31.665  25.897  27.923  1.00  0.00     0.165 HD
BRANCH  11  16
ATOM     16  C   UNL A   1      31.376  27.432  24.200  1.00  0.00     0.142 C 
BRANCH  16  17
ATOM     17  C   UNL A   1      32.738  27.711  23.542  1.00  0.00     0.101 C 
ATOM     18  O   UNL A   1      33.050  25.737  20.650  1.00  0.00    -0.275 OA
ATOM     19  C   UNL A   1      33.139  26.219  21.758  1.00  0.00     0.220 C 
ATOM     20  C   UNL A   1      33.765  25.591  22.980  1.00  0.00     0.102 C 
ATOM     21  N   UNL A   1      32.659  27.462  22.121  1.00  0.00    -0.352 N 
ATOM     22  C   UNL A   1      33.845  26.755  23.972  1.00  0.00     0.036 C 
ATOM     23  H   UNL A   1      32.299  28.113  21.475  1.00  0.00     0.163 HD
ENDBRANCH  16  17
ENDBRANCH  11  16
ENDBRANCH   6  10
ENDBRANCH   3   5
ENDBRANCH   2   3
ENDBRANCH   1   2
BRANCH   1  24
ATOM     24  C   UNL A   1      36.184  20.459  25.081  1.00  0.00     0.275 C 
BRANCH  24  25
ATOM     25  O   UNL A   1      36.918  21.428  25.862  1.00  0.00    -0.458 OA
BRANCH  25  26
ATOM     26  C   UNL A   1      38.262  21.272  25.848  1.00  0.00     0.338 C 
ATOM     27  O   UNL A   1      38.891  20.319  25.417  1.00  0.00    -0.246 OA
BRANCH  26  28
ATOM     28  C   UNL A   1      38.932  22.493  26.316  1.00  0.00     0.060 A 
ATOM     29  C   UNL A   1      38.477  23.718  25.822  1.00  0.00     0.016 A 
ATOM     30  C   UNL A   1      40.055  22.439  27.139  1.00  0.00     0.016 A 
ATOM     31  C   UNL A   1      39.147  24.895  26.130  1.00  0.00     0.010 A 
ATOM     32  C   UNL A   1      40.716  23.628  27.471  1.00  0.00     0.010 A 
ATOM     33  C   UNL A   1      40.269  24.862  26.963  1.00  0.00    -0.014 A 
BRANCH  33  34
ATOM     34  C   UNL A   1      40.947  26.130  27.319  1.00  0.00     0.031 A 
ATOM     35  C   UNL A   1      42.372  26.374  26.917  1.00  0.00     0.074 A 
ATOM     36  C   UNL A   1      40.267  27.057  28.021  1.00  0.00     0.049 A 
ATOM     37  N   UNL A   1      43.139  27.396  27.194  1.00  0.00    -0.248 NA
ATOM     38  C   UNL A   1      43.023  25.336  26.102  1.00  0.00     0.031 C 
ATOM     39  C   UNL A   1      38.879  26.923  28.469  1.00  0.00     0.029 A 
ATOM     40  N   UNL A   1      40.656  28.281  28.503  1.00  0.00    -0.354 N 
ATOM     41  C   UNL A   1      44.375  27.109  26.628  1.00  0.00     0.074 A 
ATOM     42  C   UNL A   1      44.253  25.819  25.983  1.00  0.00     0.031 C 
ATOM     43  C   UNL A   1      38.542  28.008  29.182  1.00  0.00     0.029 A 
ATOM     44  C   UNL A   1      39.697  28.894  29.274  1.00  0.00     0.049 A 
ATOM     45  H   UNL A   1      41.536  28.680  28.316  1.00  0.00     0.167 HD
ATOM     46  C   UNL A   1      45.502  27.859  26.642  1.00  0.00     0.034 A 
ATOM     47  C   UNL A   1      39.753  30.028  30.001  1.00  0.00     0.034 A 
ATOM     48  C   UNL A   1      45.601  29.160  27.247  1.00  0.00     0.049 A 
ATOM     49  C   UNL A   1      41.018  30.841  29.987  1.00  0.00     0.074 A 
ATOM     50  C   UNL A   1      46.681  30.025  27.251  1.00  0.00     0.029 A 
ATOM     51  N   UNL A   1      44.589  29.781  27.963  1.00  0.00    -0.354 N 
ATOM     52  N   UNL A   1      42.135  30.615  29.339  1.00  0.00    -0.248 NA
ATOM     53  C   UNL A   1      41.022  32.079  30.779  1.00  0.00     0.031 C 
ATOM     54  C   UNL A   1      46.329  31.161  27.988  1.00  0.00     0.029 A 
ATOM     55  C   UNL A   1      45.023  31.011  28.425  1.00  0.00     0.049 A 
ATOM     56  H   UNL A   1      43.694  29.404  28.119  1.00  0.00     0.167 HD
ATOM     57  C   UNL A   1      42.964  31.694  29.622  1.00  0.00     0.074 A 
ATOM     58  C   UNL A   1      42.210  32.587  30.478  1.00  0.00     0.031 C 
ATOM     59  C   UNL A   1      44.241  31.916  29.227  1.00  0.00     0.034 A 
BRANCH  46  60
ATOM     60  C   UNL A   1      46.725  27.312  25.958  1.00  0.00     0.023 A 
ATOM     61  C   UNL A   1      47.474  26.293  26.579  1.00  0.00     0.012 A 
ATOM     62  C   UNL A   1      47.073  27.736  24.660  1.00  0.00     0.148 A 
ATOM     63  C   UNL A   1      48.561  25.714  25.924  1.00  0.00     0.002 A 
ATOM     64  C   UNL A   1      48.134  27.130  23.999  1.00  0.00     0.091 A 
ATOM     65  F   UNL A   1      46.357  28.721  24.097  1.00  0.00    -0.205 F 
ATOM     66  C   UNL A   1      48.882  26.123  24.632  1.00  0.00     0.022 A 
BRANCH  64  67
ATOM     67  S   UNL A   1      48.585  27.536  22.309  1.00  0.00     0.127 S 
ATOM     68  O   UNL A   1      49.826  28.285  22.507  1.00  0.00    -0.237 OA
ATOM     69  O   UNL A   1      48.761  26.213  21.710  1.00  0.00    -0.237 OA
ATOM     70  O   UNL A   1      47.473  28.305  21.769  1.00  0.00    -0.744 OA
ENDBRANCH  64  67
ENDBRANCH  46  60
BRANCH  47  71
ATOM     71  C   UNL A   1      38.567  30.465  30.789  1.00  0.00     0.023 A 
ATOM     72  C   UNL A   1      38.481  30.141  32.156  1.00  0.00     0.012 A 
ATOM     73  C   UNL A   1      37.536  31.219  30.196  1.00  0.00     0.148 A 
ATOM     74  C   UNL A   1      37.373  30.532  32.909  1.00  0.00     0.002 A 
ATOM     75  C   UNL A   1      36.464  31.655  30.965  1.00  0.00     0.091 A 
ATOM     76  F   UNL A   1      37.622  31.500  28.887  1.00  0.00    -0.205 F 
ATOM     77  C   UNL A   1      36.372  31.299  32.319  1.00  0.00     0.022 A 
BRANCH  75  78
ATOM     78  S   UNL A   1      35.212  32.760  30.304  1.00  0.00     0.127 S 
ATOM     79  O   UNL A   1      36.008  33.923  29.922  1.00  0.00    -0.237 OA
ATOM     80  O   UNL A   1      34.675  31.987  29.184  1.00  0.00    -0.237 OA
ATOM     81  O   UNL A   1      34.266  32.960  31.394  1.00  0.00    -0.744 OA
ENDBRANCH  75  78
ENDBRANCH  47  71
BRANCH  59  82
ATOM     82  C   UNL A   1      44.903  33.185  29.693  1.00  0.00     0.023 A 
ATOM     83  C   UNL A   1      45.673  33.176  30.874  1.00  0.00     0.012 A 
ATOM     84  C   UNL A   1      44.827  34.363  28.924  1.00  0.00     0.148 A 
ATOM     85  C   UNL A   1      46.332  34.328  31.297  1.00  0.00     0.002 A 
ATOM     86  C   UNL A   1      45.526  35.493  29.329  1.00  0.00     0.091 A 
ATOM     87  F   UNL A   1      44.073  34.356  27.815  1.00  0.00    -0.205 F 
ATOM     88  C   UNL A   1      46.270  35.482  30.520  1.00  0.00     0.022 A 
BRANCH  86  89
ATOM     89  S   UNL A   1      45.575  36.994  28.341  1.00  0.00     0.127 S 
ATOM     90  O   UNL A   1      46.115  36.501  27.076  1.00  0.00    -0.237 OA
ATOM     91  O   UNL A   1      44.165  37.384  28.293  1.00  0.00    -0.237 OA
ATOM     92  O   UNL A   1      46.430  37.921  29.069  1.00  0.00    -0.744 OA
ENDBRANCH  86  89
ENDBRANCH  59  82
ENDBRANCH  33  34
ENDBRANCH  26  28
ENDBRANCH  25  26
ENDBRANCH  24  25
ENDBRANCH   1  24
TORSDOF 17
ENDMDL
