MODEL 1
REMARK VINA RESULT:     -13.2      0.000      0.000
REMARK SMILES O=C(OCCOC(=O)[C@H](NC(=O)[C@H]1CC[C@@H](CNC(=O)[C@@H]2Cc3ccccc3C[NH2+]2)CC1)c1ccccc1)c1ccc(-c2c3nc(c(-c4cccc(S(=O)(=O)[O-])c4F)c4ccc([nH]4)c(-c4cccc(S(=O)(=O)[O-])c4F)c4nc(c(-c5cccc(S(=O)(=O)[O-])c5F)c5ccc2[nH]5)C=C4)C=C3)cc1
REMARK SMILES IDX 5 1 4 2 3 3 2 4 1 5 39 6 40 7 101 8 41 9 100 10 42 11 43 12
REMARK SMILES IDX 44 13 94 14 45 15 99 16 93 17 95 18 46 19 98 20 92 21 91 22
REMARK SMILES IDX 47 24 79 25 59 26 78 27 60 28 63 29 77 30 96 31 61 32 62 33
REMARK SMILES IDX 76 35 97 36 64 37 48 38 49 39 57 40 50 41 52 42 58 43 51 44
REMARK SMILES IDX 53 45 54 46 55 47 56 48 80 49 81 50 89 51 82 52 84 53 90 54
REMARK SMILES IDX 83 55 85 56 86 57 87 58 88 59 65 60 66 61 74 62 67 63 69 64
REMARK SMILES IDX 75 65 68 66 70 67 71 68 72 69 73 70 6 71 7 72 8 73 9 74
REMARK SMILES IDX 33 75 34 76 38 77 35 78 37 79 36 80 10 81 11 82 12 84 13 85
REMARK SMILES IDX 32 86 14 87 31 88 15 89 16 90 17 91 18 92 19 93 20 95 21 96
REMARK SMILES IDX 22 97 30 98 23 99 29 100 24 103 28 104 25 105 27 106 26 107
REMARK H PARENT 95 23 63 34 10 83 18 94 30 101 30 102
REMARK Flexibility Score: inf
ROOT
ATOM      1  C   UNL A   1      35.828  21.630  24.621  1.00  0.00     0.274 C 
ENDROOT
BRANCH   1   2
ATOM      2  C   UNL A   1      37.346  21.714  24.460  1.00  0.00     0.275 C 
BRANCH   2   3
ATOM      3  O   UNL A   1      38.075  21.053  25.510  1.00  0.00    -0.458 OA
BRANCH   3   4
ATOM      4  C   UNL A   1      39.289  21.294  26.053  1.00  0.00     0.338 C 
ATOM      5  O   UNL A   1      40.065  20.345  26.164  1.00  0.00    -0.246 OA
BRANCH   4   6
ATOM      6  C   UNL A   1      39.743  22.618  26.600  1.00  0.00     0.060 A 
ATOM      7  C   UNL A   1      39.263  23.880  26.236  1.00  0.00     0.016 A 
ATOM      8  C   UNL A   1      40.751  22.572  27.584  1.00  0.00     0.016 A 
ATOM      9  C   UNL A   1      39.725  25.045  26.857  1.00  0.00     0.010 A 
ATOM     10  C   UNL A   1      41.234  23.738  28.191  1.00  0.00     0.010 A 
ATOM     11  C   UNL A   1      40.720  24.985  27.832  1.00  0.00    -0.014 A 
BRANCH  11  12
ATOM     12  C   UNL A   1      41.333  26.248  28.303  1.00  0.00     0.031 A 
ATOM     13  C   UNL A   1      42.722  26.560  27.842  1.00  0.00     0.074 A 
ATOM     14  C   UNL A   1      40.641  27.133  29.043  1.00  0.00     0.049 A 
ATOM     15  N   UNL A   1      43.397  27.668  27.964  1.00  0.00    -0.248 NA
ATOM     16  C   UNL A   1      43.443  25.480  27.147  1.00  0.00     0.031 C 
ATOM     17  C   UNL A   1      39.301  26.904  29.570  1.00  0.00     0.029 A 
ATOM     18  N   UNL A   1      40.951  28.396  29.476  1.00  0.00    -0.354 N 
ATOM     19  C   UNL A   1      44.630  27.413  27.382  1.00  0.00     0.074 A 
ATOM     20  C   UNL A   1      44.618  26.043  26.926  1.00  0.00     0.031 C 
ATOM     21  C   UNL A   1      38.880  28.002  30.220  1.00  0.00     0.029 A 
ATOM     22  C   UNL A   1      39.936  29.008  30.182  1.00  0.00     0.049 A 
ATOM     23  H   UNL A   1      41.819  28.827  29.300  1.00  0.00     0.167 HD
ATOM     24  C   UNL A   1      45.678  28.252  27.231  1.00  0.00     0.034 A 
ATOM     25  C   UNL A   1      39.872  30.239  30.727  1.00  0.00     0.034 A 
ATOM     26  C   UNL A   1      45.688  29.601  27.713  1.00  0.00     0.049 A 
ATOM     27  C   UNL A   1      41.053  31.157  30.543  1.00  0.00     0.074 A 
ATOM     28  C   UNL A   1      46.695  30.542  27.623  1.00  0.00     0.029 A 
ATOM     29  N   UNL A   1      44.640  30.193  28.405  1.00  0.00    -0.354 N 
ATOM     30  N   UNL A   1      42.169  30.938  29.887  1.00  0.00    -0.248 NA
ATOM     31  C   UNL A   1      40.960  32.496  31.140  1.00  0.00     0.031 C 
ATOM     32  C   UNL A   1      46.268  31.695  28.293  1.00  0.00     0.029 A 
ATOM     33  C   UNL A   1      44.978  31.486  28.758  1.00  0.00     0.049 A 
ATOM     34  H   UNL A   1      43.784  29.757  28.614  1.00  0.00     0.167 HD
ATOM     35  C   UNL A   1      42.894  32.120  29.959  1.00  0.00     0.074 A 
ATOM     36  C   UNL A   1      42.079  33.060  30.706  1.00  0.00     0.031 C 
ATOM     37  C   UNL A   1      44.124  32.406  29.464  1.00  0.00     0.034 A 
BRANCH  24  38
ATOM     38  C   UNL A   1      46.892  27.693  26.546  1.00  0.00     0.023 A 
ATOM     39  C   UNL A   1      47.013  27.776  25.143  1.00  0.00     0.012 A 
ATOM     40  C   UNL A   1      47.889  27.037  27.291  1.00  0.00     0.148 A 
ATOM     41  C   UNL A   1      48.083  27.169  24.486  1.00  0.00     0.002 A 
ATOM     42  C   UNL A   1      48.976  26.477  26.635  1.00  0.00     0.091 A 
ATOM     43  F   UNL A   1      47.735  26.942  28.618  1.00  0.00    -0.205 F 
ATOM     44  C   UNL A   1      49.067  26.526  25.234  1.00  0.00     0.022 A 
BRANCH  42  45
ATOM     45  S   UNL A   1      50.326  25.679  27.509  1.00  0.00     0.127 S 
ATOM     46  O   UNL A   1      49.821  24.314  27.647  1.00  0.00    -0.237 OA
ATOM     47  O   UNL A   1      51.430  25.830  26.562  1.00  0.00    -0.237 OA
ATOM     48  O   UNL A   1      50.485  26.412  28.757  1.00  0.00    -0.744 OA
ENDBRANCH  42  45
ENDBRANCH  24  38
BRANCH  25  49
ATOM     49  C   UNL A   1      38.639  30.702  31.433  1.00  0.00     0.023 A 
ATOM     50  C   UNL A   1      38.521  30.522  32.827  1.00  0.00     0.012 A 
ATOM     51  C   UNL A   1      37.586  31.328  30.738  1.00  0.00     0.148 A 
ATOM     52  C   UNL A   1      37.369  30.923  33.507  1.00  0.00     0.002 A 
ATOM     53  C   UNL A   1      36.465  31.777  31.429  1.00  0.00     0.091 A 
ATOM     54  F   UNL A   1      37.704  31.479  29.412  1.00  0.00    -0.205 F 
ATOM     55  C   UNL A   1      36.346  31.560  32.810  1.00  0.00     0.022 A 
BRANCH  53  56
ATOM     56  S   UNL A   1      35.159  32.723  30.635  1.00  0.00     0.127 S 
ATOM     57  O   UNL A   1      34.789  31.851  29.524  1.00  0.00    -0.237 OA
ATOM     58  O   UNL A   1      34.166  32.816  31.706  1.00  0.00    -0.237 OA
ATOM     59  O   UNL A   1      35.766  33.993  30.263  1.00  0.00    -0.744 OA
ENDBRANCH  53  56
ENDBRANCH  25  49
BRANCH  37  60
ATOM     60  C   UNL A   1      44.643  33.802  29.668  1.00  0.00     0.023 A 
ATOM     61  C   UNL A   1      45.579  34.072  30.685  1.00  0.00     0.012 A 
ATOM     62  C   UNL A   1      44.256  34.833  28.790  1.00  0.00     0.148 A 
ATOM     63  C   UNL A   1      46.094  35.355  30.847  1.00  0.00     0.002 A 
ATOM     64  C   UNL A   1      44.816  36.095  28.921  1.00  0.00     0.091 A 
ATOM     65  F   UNL A   1      43.347  34.558  27.842  1.00  0.00    -0.205 F 
ATOM     66  C   UNL A   1      45.724  36.363  29.958  1.00  0.00     0.022 A 
BRANCH  64  67
ATOM     67  S   UNL A   1      44.475  37.417  27.754  1.00  0.00     0.127 S 
ATOM     68  O   UNL A   1      45.121  36.917  26.542  1.00  0.00    -0.237 OA
ATOM     69  O   UNL A   1      43.013  37.422  27.710  1.00  0.00    -0.237 OA
ATOM     70  O   UNL A   1      45.064  38.618  28.329  1.00  0.00    -0.744 OA
ENDBRANCH  64  67
ENDBRANCH  37  60
ENDBRANCH  11  12
ENDBRANCH   4   6
ENDBRANCH   3   4
ENDBRANCH   2   3
ENDBRANCH   1   2
BRANCH   1  71
ATOM     71  O   UNL A   1      35.440  20.729  25.668  1.00  0.00    -0.460 OA
BRANCH  71  72
ATOM     72  C   UNL A   1      34.231  20.961  26.269  1.00  0.00     0.333 C 
ATOM     73  O   UNL A   1      34.084  21.258  27.450  1.00  0.00    -0.249 OA
BRANCH  72  74
ATOM     74  C   UNL A   1      33.077  20.791  25.257  1.00  0.00     0.223 C 
BRANCH  74  75
ATOM     75  C   UNL A   1      32.922  19.337  24.870  1.00  0.00    -0.014 A 
ATOM     76  C   UNL A   1      32.892  18.907  23.538  1.00  0.00     0.006 A 
ATOM     77  C   UNL A   1      32.822  18.374  25.891  1.00  0.00     0.006 A 
ATOM     78  C   UNL A   1      32.871  17.543  23.241  1.00  0.00     0.000 A 
ATOM     79  C   UNL A   1      32.807  17.014  25.592  1.00  0.00     0.000 A 
ATOM     80  C   UNL A   1      32.853  16.599  24.267  1.00  0.00     0.000 A 
ENDBRANCH  74  75
BRANCH  74  81
ATOM     81  N   UNL A   1      31.865  21.409  25.801  1.00  0.00    -0.339 N 
ATOM     82  C   UNL A   1      31.412  22.693  25.780  1.00  0.00     0.224 C 
ATOM     83  H   UNL A   1      31.269  20.781  26.268  1.00  0.00     0.164 HD
ATOM     84  O   UNL A   1      30.378  22.927  26.411  1.00  0.00    -0.275 OA
BRANCH  82  85
ATOM     85  C   UNL A   1      32.138  23.793  24.996  1.00  0.00     0.078 C 
ATOM     86  C   UNL A   1      31.240  25.020  24.809  1.00  0.00     0.014 C 
ATOM     87  C   UNL A   1      33.447  24.174  25.721  1.00  0.00     0.014 C 
ATOM     88  C   UNL A   1      31.984  26.197  24.178  1.00  0.00     0.006 C 
ATOM     89  C   UNL A   1      34.153  25.389  25.114  1.00  0.00     0.006 C 
ATOM     90  C   UNL A   1      33.232  26.610  24.967  1.00  0.00     0.008 C 
BRANCH  90  91
ATOM     91  C   UNL A   1      32.839  27.257  26.307  1.00  0.00     0.119 C 
BRANCH  91  92
ATOM     92  N   UNL A   1      33.489  28.543  26.513  1.00  0.00    -0.351 N 
ATOM     93  C   UNL A   1      32.965  29.796  26.378  1.00  0.00     0.278 C 
ATOM     94  H   UNL A   1      34.434  28.503  26.787  1.00  0.00     0.163 HD
ATOM     95  O   UNL A   1      33.656  30.766  26.713  1.00  0.00    -0.268 OA
BRANCH  93  96
ATOM     96  C   UNL A   1      31.539  29.985  25.829  1.00  0.00     0.277 C 
ATOM     97  C   UNL A   1      31.507  29.583  24.341  1.00  0.00     0.111 C 
ATOM     98  N   UNL A   1      31.085  31.378  26.140  1.00  0.00    -0.332 N 
ATOM     99  C   UNL A   1      30.142  29.896  23.792  1.00  0.00    -0.033 A 
ATOM    100  C   UNL A   1      30.416  32.047  25.019  1.00  0.00     0.298 C 
ATOM    101  H   UNL A   1      31.901  31.930  26.403  1.00  0.00     0.347 HD
ATOM    102  H   UNL A   1      30.402  31.306  26.893  1.00  0.00     0.347 HD
ATOM    103  C   UNL A   1      29.443  29.021  22.960  1.00  0.00     0.004 A 
ATOM    104  C   UNL A   1      29.575  31.123  24.176  1.00  0.00     0.010 A 
ATOM    105  C   UNL A   1      28.165  29.365  22.522  1.00  0.00     0.000 A 
ATOM    106  C   UNL A   1      28.296  31.463  23.725  1.00  0.00     0.010 A 
ATOM    107  C   UNL A   1      27.591  30.580  22.906  1.00  0.00     0.001 A 
ENDBRANCH  93  96
ENDBRANCH  91  92
ENDBRANCH  90  91
ENDBRANCH  82  85
ENDBRANCH  74  81
ENDBRANCH  72  74
ENDBRANCH  71  72
ENDBRANCH   1  71
TORSDOF 20
ENDMDL
MODEL 2
REMARK VINA RESULT:     -12.8      2.218      3.028
REMARK SMILES O=C(OCCOC(=O)[C@H](NC(=O)[C@H]1CC[C@@H](CNC(=O)[C@@H]2Cc3ccccc3C[NH2+]2)CC1)c1ccccc1)c1ccc(-c2c3nc(c(-c4cccc(S(=O)(=O)[O-])c4F)c4ccc([nH]4)c(-c4cccc(S(=O)(=O)[O-])c4F)c4nc(c(-c5cccc(S(=O)(=O)[O-])c5F)c5ccc2[nH]5)C=C4)C=C3)cc1
REMARK SMILES IDX 5 1 4 2 3 3 2 4 1 5 39 6 40 7 101 8 41 9 100 10 42 11 43 12
REMARK SMILES IDX 44 13 94 14 45 15 99 16 93 17 95 18 46 19 98 20 92 21 91 22
REMARK SMILES IDX 47 24 79 25 59 26 78 27 60 28 63 29 77 30 96 31 61 32 62 33
REMARK SMILES IDX 76 35 97 36 64 37 48 38 49 39 57 40 50 41 52 42 58 43 51 44
REMARK SMILES IDX 53 45 54 46 55 47 56 48 80 49 81 50 89 51 82 52 84 53 90 54
REMARK SMILES IDX 83 55 85 56 86 57 87 58 88 59 65 60 66 61 74 62 67 63 69 64
REMARK SMILES IDX 75 65 68 66 70 67 71 68 72 69 73 70 6 71 7 72 8 73 9 74
REMARK SMILES IDX 33 75 34 76 38 77 35 78 37 79 36 80 10 81 11 82 12 84 13 85
REMARK SMILES IDX 32 86 14 87 31 88 15 89 16 90 17 91 18 92 19 93 20 95 21 96
REMARK SMILES IDX 22 97 30 98 23 99 29 100 24 103 28 104 25 105 27 106 26 107
REMARK H PARENT 95 23 63 34 10 83 18 94 30 101 30 102
REMARK Flexibility Score: inf
ROOT
ATOM      1  C   UNL A   1      35.899  21.727  24.626  1.00  0.00     0.274 C 
ENDROOT
BRANCH   1   2
ATOM      2  C   UNL A   1      37.423  21.753  24.514  1.00  0.00     0.275 C 
BRANCH   2   3
ATOM      3  O   UNL A   1      38.096  21.279  25.694  1.00  0.00    -0.458 OA
BRANCH   3   4
ATOM      4  C   UNL A   1      39.353  21.476  26.154  1.00  0.00     0.338 C 
ATOM      5  O   UNL A   1      40.087  20.493  26.246  1.00  0.00    -0.246 OA
BRANCH   4   6
ATOM      6  C   UNL A   1      39.902  22.790  26.630  1.00  0.00     0.060 A 
ATOM      7  C   UNL A   1      39.553  24.060  26.161  1.00  0.00     0.016 A 
ATOM      8  C   UNL A   1      40.864  22.726  27.659  1.00  0.00     0.016 A 
ATOM      9  C   UNL A   1      40.094  25.222  26.722  1.00  0.00     0.010 A 
ATOM     10  C   UNL A   1      41.427  23.885  28.207  1.00  0.00     0.010 A 
ATOM     11  C   UNL A   1      41.042  25.144  27.743  1.00  0.00    -0.014 A 
BRANCH  11  12
ATOM     12  C   UNL A   1      41.748  26.378  28.154  1.00  0.00     0.031 A 
ATOM     13  C   UNL A   1      43.107  26.626  27.578  1.00  0.00     0.074 A 
ATOM     14  C   UNL A   1      41.160  27.296  28.944  1.00  0.00     0.049 A 
ATOM     15  N   UNL A   1      43.839  27.702  27.638  1.00  0.00    -0.248 NA
ATOM     16  C   UNL A   1      43.718  25.514  26.832  1.00  0.00     0.031 C 
ATOM     17  C   UNL A   1      39.859  27.129  29.581  1.00  0.00     0.029 A 
ATOM     18  N   UNL A   1      41.562  28.544  29.343  1.00  0.00    -0.354 N 
ATOM     19  C   UNL A   1      45.007  27.390  26.958  1.00  0.00     0.074 A 
ATOM     20  C   UNL A   1      44.895  26.022  26.512  1.00  0.00     0.031 C 
ATOM     21  C   UNL A   1      39.543  28.246  30.257  1.00  0.00     0.029 A 
ATOM     22  C   UNL A   1      40.637  29.202  30.126  1.00  0.00     0.049 A 
ATOM     23  H   UNL A   1      42.430  28.935  29.093  1.00  0.00     0.167 HD
ATOM     24  C   UNL A   1      46.076  28.181  26.717  1.00  0.00     0.034 A 
ATOM     25  C   UNL A   1      40.674  30.437  30.667  1.00  0.00     0.034 A 
ATOM     26  C   UNL A   1      46.186  29.530  27.189  1.00  0.00     0.049 A 
ATOM     27  C   UNL A   1      41.876  31.299  30.382  1.00  0.00     0.074 A 
ATOM     28  C   UNL A   1      47.224  30.424  27.011  1.00  0.00     0.029 A 
ATOM     29  N   UNL A   1      45.227  30.170  27.962  1.00  0.00    -0.354 N 
ATOM     30  N   UNL A   1      42.923  31.029  29.638  1.00  0.00    -0.248 NA
ATOM     31  C   UNL A   1      41.893  32.642  30.977  1.00  0.00     0.031 C 
ATOM     32  C   UNL A   1      46.906  31.596  27.707  1.00  0.00     0.029 A 
ATOM     33  C   UNL A   1      45.651  31.447  28.277  1.00  0.00     0.049 A 
ATOM     34  H   UNL A   1      44.372  29.773  28.243  1.00  0.00     0.167 HD
ATOM     35  C   UNL A   1      43.703  32.177  29.643  1.00  0.00     0.074 A 
ATOM     36  C   UNL A   1      42.996  33.154  30.449  1.00  0.00     0.031 C 
ATOM     37  C   UNL A   1      44.900  32.406  29.047  1.00  0.00     0.034 A 
BRANCH  24  38
ATOM     38  C   UNL A   1      47.203  27.566  25.937  1.00  0.00     0.023 A 
ATOM     39  C   UNL A   1      48.173  26.782  26.595  1.00  0.00     0.012 A 
ATOM     40  C   UNL A   1      47.327  27.811  24.557  1.00  0.00     0.148 A 
ATOM     41  C   UNL A   1      49.279  26.293  25.901  1.00  0.00     0.002 A 
ATOM     42  C   UNL A   1      48.405  27.281  23.863  1.00  0.00     0.091 A 
ATOM     43  F   UNL A   1      46.411  28.587  23.962  1.00  0.00    -0.205 F 
ATOM     44  C   UNL A   1      49.391  26.539  24.534  1.00  0.00     0.022 A 
BRANCH  42  45
ATOM     45  S   UNL A   1      48.610  27.489  22.092  1.00  0.00     0.127 S 
ATOM     46  O   UNL A   1      47.337  28.104  21.718  1.00  0.00    -0.237 OA
ATOM     47  O   UNL A   1      49.764  28.384  22.025  1.00  0.00    -0.237 OA
ATOM     48  O   UNL A   1      48.838  26.156  21.554  1.00  0.00    -0.744 OA
ENDBRANCH  42  45
ENDBRANCH  24  38
BRANCH  25  49
ATOM     49  C   UNL A   1      39.525  30.957  31.470  1.00  0.00     0.023 A 
ATOM     50  C   UNL A   1      38.341  31.357  30.818  1.00  0.00     0.012 A 
ATOM     51  C   UNL A   1      39.593  31.050  32.874  1.00  0.00     0.148 A 
ATOM     52  C   UNL A   1      37.262  31.870  31.543  1.00  0.00     0.002 A 
ATOM     53  C   UNL A   1      38.495  31.508  33.596  1.00  0.00     0.091 A 
ATOM     54  F   UNL A   1      40.730  30.681  33.479  1.00  0.00    -0.205 F 
ATOM     55  C   UNL A   1      37.335  31.935  32.932  1.00  0.00     0.022 A 
BRANCH  53  56
ATOM     56  S   UNL A   1      38.453  31.503  35.392  1.00  0.00     0.127 S 
ATOM     57  O   UNL A   1      39.621  32.315  35.723  1.00  0.00    -0.237 OA
ATOM     58  O   UNL A   1      37.162  32.137  35.661  1.00  0.00    -0.237 OA
ATOM     59  O   UNL A   1      38.530  30.101  35.782  1.00  0.00    -0.744 OA
ENDBRANCH  53  56
ENDBRANCH  25  49
BRANCH  37  60
ATOM     60  C   UNL A   1      45.497  33.777  29.199  1.00  0.00     0.023 A 
ATOM     61  C   UNL A   1      46.281  34.090  30.326  1.00  0.00     0.012 A 
ATOM     62  C   UNL A   1      45.339  34.732  28.175  1.00  0.00     0.148 A 
ATOM     63  C   UNL A   1      46.871  35.346  30.447  1.00  0.00     0.002 A 
ATOM     64  C   UNL A   1      45.976  35.960  28.276  1.00  0.00     0.091 A 
ATOM     65  F   UNL A   1      44.570  34.419  27.122  1.00  0.00    -0.205 F 
ATOM     66  C   UNL A   1      46.730  36.276  29.418  1.00  0.00     0.022 A 
BRANCH  64  67
ATOM     67  S   UNL A   1      45.934  37.168  26.949  1.00  0.00     0.127 S 
ATOM     68  O   UNL A   1      44.514  37.512  26.905  1.00  0.00    -0.237 OA
ATOM     69  O   UNL A   1      46.804  38.226  27.464  1.00  0.00    -0.237 OA
ATOM     70  O   UNL A   1      46.451  36.484  25.771  1.00  0.00    -0.744 OA
ENDBRANCH  64  67
ENDBRANCH  37  60
ENDBRANCH  11  12
ENDBRANCH   4   6
ENDBRANCH   3   4
ENDBRANCH   2   3
ENDBRANCH   1   2
BRANCH   1  71
ATOM     71  O   UNL A   1      35.437  20.740  25.558  1.00  0.00    -0.460 OA
BRANCH  71  72
ATOM     72  C   UNL A   1      34.220  20.963  26.147  1.00  0.00     0.333 C 
ATOM     73  O   UNL A   1      34.062  21.326  27.308  1.00  0.00    -0.249 OA
BRANCH  72  74
ATOM     74  C   UNL A   1      33.074  20.690  25.149  1.00  0.00     0.223 C 
BRANCH  74  75
ATOM     75  C   UNL A   1      32.986  19.213  24.835  1.00  0.00    -0.014 A 
ATOM     76  C   UNL A   1      33.179  18.700  23.546  1.00  0.00     0.006 A 
ATOM     77  C   UNL A   1      32.719  18.315  25.883  1.00  0.00     0.006 A 
ATOM     78  C   UNL A   1      33.209  17.320  23.337  1.00  0.00     0.000 A 
ATOM     79  C   UNL A   1      32.754  16.939  25.674  1.00  0.00     0.000 A 
ATOM     80  C   UNL A   1      33.021  16.442  24.403  1.00  0.00     0.000 A 
ENDBRANCH  74  75
BRANCH  74  81
ATOM     81  N   UNL A   1      31.835  21.277  25.667  1.00  0.00    -0.339 N 
ATOM     82  C   UNL A   1      31.126  22.377  25.294  1.00  0.00     0.224 C 
ATOM     83  H   UNL A   1      31.444  20.785  26.424  1.00  0.00     0.164 HD
ATOM     84  O   UNL A   1      30.150  22.671  25.989  1.00  0.00    -0.275 OA
BRANCH  82  85
ATOM     85  C   UNL A   1      31.505  23.202  24.058  1.00  0.00     0.078 C 
ATOM     86  C   UNL A   1      30.458  24.283  23.774  1.00  0.00     0.014 C 
ATOM     87  C   UNL A   1      32.903  23.828  24.257  1.00  0.00     0.014 C 
ATOM     88  C   UNL A   1      30.885  25.230  22.652  1.00  0.00     0.006 C 
ATOM     89  C   UNL A   1      33.295  24.817  23.157  1.00  0.00     0.006 C 
ATOM     90  C   UNL A   1      32.236  25.904  22.918  1.00  0.00     0.008 C 
BRANCH  90  91
ATOM     91  C   UNL A   1      32.120  26.921  24.066  1.00  0.00     0.119 C 
BRANCH  91  92
ATOM     92  N   UNL A   1      30.989  27.822  23.896  1.00  0.00    -0.351 N 
ATOM     93  C   UNL A   1      30.884  29.137  24.247  1.00  0.00     0.278 C 
ATOM     94  H   UNL A   1      30.193  27.430  23.470  1.00  0.00     0.163 HD
ATOM     95  O   UNL A   1      29.871  29.761  23.911  1.00  0.00    -0.268 OA
BRANCH  93  96
ATOM     96  C   UNL A   1      32.016  29.820  25.037  1.00  0.00     0.277 C 
ATOM     97  C   UNL A   1      32.555  28.846  26.104  1.00  0.00     0.111 C 
ATOM     98  N   UNL A   1      31.518  31.137  25.547  1.00  0.00    -0.332 N 
ATOM     99  C   UNL A   1      33.566  29.574  26.946  1.00  0.00    -0.033 A 
ATOM    100  C   UNL A   1      31.879  31.407  26.943  1.00  0.00     0.298 C 
ATOM    101  H   UNL A   1      30.501  31.147  25.471  1.00  0.00     0.347 HD
ATOM    102  H   UNL A   1      31.960  31.861  24.981  1.00  0.00     0.347 HD
ATOM    103  C   UNL A   1      34.784  29.007  27.325  1.00  0.00     0.004 A 
ATOM    104  C   UNL A   1      33.240  30.887  27.329  1.00  0.00     0.010 A 
ATOM    105  C   UNL A   1      35.687  29.759  28.075  1.00  0.00     0.000 A 
ATOM    106  C   UNL A   1      34.148  31.630  28.088  1.00  0.00     0.010 A 
ATOM    107  C   UNL A   1      35.374  31.067  28.452  1.00  0.00     0.001 A 
ENDBRANCH  93  96
ENDBRANCH  91  92
ENDBRANCH  90  91
ENDBRANCH  82  85
ENDBRANCH  74  81
ENDBRANCH  72  74
ENDBRANCH  71  72
ENDBRANCH   1  71
TORSDOF 20
ENDMDL
MODEL 3
REMARK VINA RESULT:     -12.7      5.379     12.214
REMARK SMILES O=C(OCCOC(=O)[C@H](NC(=O)[C@H]1CC[C@@H](CNC(=O)[C@@H]2Cc3ccccc3C[NH2+]2)CC1)c1ccccc1)c1ccc(-c2c3nc(c(-c4cccc(S(=O)(=O)[O-])c4F)c4ccc([nH]4)c(-c4cccc(S(=O)(=O)[O-])c4F)c4nc(c(-c5cccc(S(=O)(=O)[O-])c5F)c5ccc2[nH]5)C=C4)C=C3)cc1
REMARK SMILES IDX 5 1 4 2 3 3 2 4 1 5 39 6 40 7 101 8 41 9 100 10 42 11 43 12
REMARK SMILES IDX 44 13 94 14 45 15 99 16 93 17 95 18 46 19 98 20 92 21 91 22
REMARK SMILES IDX 47 24 79 25 59 26 78 27 60 28 63 29 77 30 96 31 61 32 62 33
REMARK SMILES IDX 76 35 97 36 64 37 48 38 49 39 57 40 50 41 52 42 58 43 51 44
REMARK SMILES IDX 53 45 54 46 55 47 56 48 80 49 81 50 89 51 82 52 84 53 90 54
REMARK SMILES IDX 83 55 85 56 86 57 87 58 88 59 65 60 66 61 74 62 67 63 69 64
REMARK SMILES IDX 75 65 68 66 70 67 71 68 72 69 73 70 6 71 7 72 8 73 9 74
REMARK SMILES IDX 33 75 34 76 38 77 35 78 37 79 36 80 10 81 11 82 12 84 13 85
REMARK SMILES IDX 32 86 14 87 31 88 15 89 16 90 17 91 18 92 19 93 20 95 21 96
REMARK SMILES IDX 22 97 30 98 23 99 29 100 24 103 28 104 25 105 27 106 26 107
REMARK H PARENT 95 23 63 34 10 83 18 94 30 101 30 102
REMARK Flexibility Score: inf
ROOT
ATOM      1  C   UNL A   1      34.610  33.565  29.641  1.00  0.00     0.274 C 
ENDROOT
BRANCH   1   2
ATOM      2  C   UNL A   1      34.337  32.964  28.262  1.00  0.00     0.275 C 
BRANCH   2   3
ATOM      3  O   UNL A   1      33.874  31.603  28.308  1.00  0.00    -0.458 OA
BRANCH   3   4
ATOM      4  C   UNL A   1      34.442  30.444  27.903  1.00  0.00     0.338 C 
ATOM      5  O   UNL A   1      33.737  29.646  27.288  1.00  0.00    -0.246 OA
BRANCH   4   6
ATOM      6  C   UNL A   1      35.852  30.021  28.208  1.00  0.00     0.060 A 
ATOM      7  C   UNL A   1      36.317  29.469  29.406  1.00  0.00     0.016 A 
ATOM      8  C   UNL A   1      36.791  30.199  27.173  1.00  0.00     0.016 A 
ATOM      9  C   UNL A   1      37.646  29.061  29.555  1.00  0.00     0.010 A 
ATOM     10  C   UNL A   1      38.130  29.814  27.326  1.00  0.00     0.010 A 
ATOM     11  C   UNL A   1      38.565  29.239  28.521  1.00  0.00    -0.014 A 
BRANCH  11  12
ATOM     12  C   UNL A   1      40.000  28.999  28.795  1.00  0.00     0.031 A 
ATOM     13  C   UNL A   1      40.756  30.065  29.524  1.00  0.00     0.074 A 
ATOM     14  C   UNL A   1      40.590  27.829  28.486  1.00  0.00     0.049 A 
ATOM     15  N   UNL A   1      41.954  30.017  30.035  1.00  0.00    -0.248 NA
ATOM     16  C   UNL A   1      40.067  31.353  29.705  1.00  0.00     0.031 C 
ATOM     17  C   UNL A   1      39.950  26.748  27.746  1.00  0.00     0.029 A 
ATOM     18  N   UNL A   1      41.844  27.344  28.754  1.00  0.00    -0.354 N 
ATOM     19  C   UNL A   1      42.172  31.275  30.578  1.00  0.00     0.074 A 
ATOM     20  C   UNL A   1      40.994  32.068  30.318  1.00  0.00     0.031 C 
ATOM     21  C   UNL A   1      40.793  25.707  27.652  1.00  0.00     0.029 A 
ATOM     22  C   UNL A   1      42.051  26.057  28.302  1.00  0.00     0.049 A 
ATOM     23  H   UNL A   1      42.533  27.866  29.226  1.00  0.00     0.167 HD
ATOM     24  C   UNL A   1      43.256  31.726  31.245  1.00  0.00     0.034 A 
ATOM     25  C   UNL A   1      43.132  25.259  28.410  1.00  0.00     0.034 A 
ATOM     26  C   UNL A   1      44.431  30.937  31.474  1.00  0.00     0.049 A 
ATOM     27  C   UNL A   1      44.328  25.784  29.161  1.00  0.00     0.074 A 
ATOM     28  C   UNL A   1      45.593  31.289  32.132  1.00  0.00     0.029 A 
ATOM     29  N   UNL A   1      44.600  29.636  31.020  1.00  0.00    -0.354 N 
ATOM     30  N   UNL A   1      44.474  26.938  29.770  1.00  0.00    -0.248 NA
ATOM     31  C   UNL A   1      45.493  24.896  29.270  1.00  0.00     0.031 C 
ATOM     32  C   UNL A   1      46.480  30.211  32.046  1.00  0.00     0.029 A 
ATOM     33  C   UNL A   1      45.852  29.171  31.376  1.00  0.00     0.049 A 
ATOM     34  H   UNL A   1      43.928  29.120  30.519  1.00  0.00     0.167 HD
ATOM     35  C   UNL A   1      45.727  26.900  30.367  1.00  0.00     0.074 A 
ATOM     36  C   UNL A   1      46.292  25.599  30.062  1.00  0.00     0.031 C 
ATOM     37  C   UNL A   1      46.363  27.854  31.092  1.00  0.00     0.034 A 
BRANCH  24  38
ATOM     38  C   UNL A   1      43.203  33.147  31.731  1.00  0.00     0.023 A 
ATOM     39  C   UNL A   1      42.683  33.438  33.009  1.00  0.00     0.012 A 
ATOM     40  C   UNL A   1      43.621  34.198  30.895  1.00  0.00     0.148 A 
ATOM     41  C   UNL A   1      42.532  34.759  33.428  1.00  0.00     0.002 A 
ATOM     42  C   UNL A   1      43.512  35.508  31.338  1.00  0.00     0.091 A 
ATOM     43  F   UNL A   1      44.080  33.897  29.672  1.00  0.00    -0.205 F 
ATOM     44  C   UNL A   1      42.952  35.793  32.594  1.00  0.00     0.022 A 
BRANCH  42  45
ATOM     45  S   UNL A   1      44.079  36.907  30.365  1.00  0.00     0.127 S 
ATOM     46  O   UNL A   1      45.491  36.579  30.172  1.00  0.00    -0.237 OA
ATOM     47  O   UNL A   1      43.254  36.792  29.163  1.00  0.00    -0.237 OA
ATOM     48  O   UNL A   1      43.820  38.090  31.174  1.00  0.00    -0.744 OA
ENDBRANCH  42  45
ENDBRANCH  24  38
BRANCH  25  49
ATOM     49  C   UNL A   1      43.117  23.870  27.859  1.00  0.00     0.023 A 
ATOM     50  C   UNL A   1      42.342  22.875  28.490  1.00  0.00     0.012 A 
ATOM     51  C   UNL A   1      43.858  23.528  26.710  1.00  0.00     0.148 A 
ATOM     52  C   UNL A   1      42.330  21.563  28.009  1.00  0.00     0.002 A 
ATOM     53  C   UNL A   1      43.798  22.233  26.203  1.00  0.00     0.091 A 
ATOM     54  F   UNL A   1      44.602  24.479  26.130  1.00  0.00    -0.205 F 
ATOM     55  C   UNL A   1      43.049  21.245  26.860  1.00  0.00     0.022 A 
BRANCH  53  56
ATOM     56  S   UNL A   1      44.586  21.768  24.656  1.00  0.00     0.127 S 
ATOM     57  O   UNL A   1      44.218  20.359  24.543  1.00  0.00    -0.237 OA
ATOM     58  O   UNL A   1      43.922  22.659  23.704  1.00  0.00    -0.237 OA
ATOM     59  O   UNL A   1      46.006  22.035  24.844  1.00  0.00    -0.744 OA
ENDBRANCH  53  56
ENDBRANCH  25  49
BRANCH  37  60
ATOM     60  C   UNL A   1      47.716  27.511  31.650  1.00  0.00     0.023 A 
ATOM     61  C   UNL A   1      48.877  27.725  30.882  1.00  0.00     0.012 A 
ATOM     62  C   UNL A   1      47.835  27.047  32.974  1.00  0.00     0.148 A 
ATOM     63  C   UNL A   1      50.134  27.449  31.413  1.00  0.00     0.002 A 
ATOM     64  C   UNL A   1      49.093  26.827  33.516  1.00  0.00     0.091 A 
ATOM     65  F   UNL A   1      46.714  26.829  33.679  1.00  0.00    -0.205 F 
ATOM     66  C   UNL A   1      50.244  27.013  32.733  1.00  0.00     0.022 A 
BRANCH  64  67
ATOM     67  S   UNL A   1      49.324  26.371  35.237  1.00  0.00     0.127 S 
ATOM     68  O   UNL A   1      48.656  25.072  35.292  1.00  0.00    -0.237 OA
ATOM     69  O   UNL A   1      50.781  26.315  35.350  1.00  0.00    -0.237 OA
ATOM     70  O   UNL A   1      48.700  27.431  36.017  1.00  0.00    -0.744 OA
ENDBRANCH  64  67
ENDBRANCH  37  60
ENDBRANCH  11  12
ENDBRANCH   4   6
ENDBRANCH   3   4
ENDBRANCH   2   3
ENDBRANCH   1   2
BRANCH   1  71
ATOM     71  O   UNL A   1      35.743  32.963  30.284  1.00  0.00    -0.460 OA
BRANCH  71  72
ATOM     72  C   UNL A   1      35.532  32.405  31.517  1.00  0.00     0.333 C 
ATOM     73  O   UNL A   1      34.436  32.302  32.058  1.00  0.00    -0.249 OA
BRANCH  72  74
ATOM     74  C   UNL A   1      36.864  31.927  32.134  1.00  0.00     0.223 C 
BRANCH  74  75
ATOM     75  C   UNL A   1      37.375  32.938  33.136  1.00  0.00    -0.014 A 
ATOM     76  C   UNL A   1      36.873  33.031  34.441  1.00  0.00     0.006 A 
ATOM     77  C   UNL A   1      38.410  33.808  32.750  1.00  0.00     0.006 A 
ATOM     78  C   UNL A   1      37.466  33.898  35.361  1.00  0.00     0.000 A 
ATOM     79  C   UNL A   1      39.003  34.668  33.671  1.00  0.00     0.000 A 
ATOM     80  C   UNL A   1      38.544  34.696  34.983  1.00  0.00     0.000 A 
ENDBRANCH  74  75
BRANCH  74  81
ATOM     81  N   UNL A   1      36.689  30.574  32.669  1.00  0.00    -0.339 N 
ATOM     82  C   UNL A   1      37.584  29.597  32.980  1.00  0.00     0.224 C 
ATOM     83  H   UNL A   1      35.751  30.326  32.834  1.00  0.00     0.164 HD
ATOM     84  O   UNL A   1      37.120  28.512  33.337  1.00  0.00    -0.275 OA
BRANCH  82  85
ATOM     85  C   UNL A   1      39.097  29.836  32.909  1.00  0.00     0.078 C 
ATOM     86  C   UNL A   1      39.588  30.626  34.127  1.00  0.00     0.014 C 
ATOM     87  C   UNL A   1      39.835  28.484  32.798  1.00  0.00     0.014 C 
ATOM     88  C   UNL A   1      41.112  30.740  34.175  1.00  0.00     0.006 C 
ATOM     89  C   UNL A   1      41.358  28.605  32.904  1.00  0.00     0.006 C 
ATOM     90  C   UNL A   1      41.815  29.378  34.150  1.00  0.00     0.008 C 
BRANCH  90  91
ATOM     91  C   UNL A   1      41.584  28.622  35.470  1.00  0.00     0.119 C 
BRANCH  91  92
ATOM     92  N   UNL A   1      42.602  28.921  36.466  1.00  0.00    -0.351 N 
ATOM     93  C   UNL A   1      43.671  28.163  36.848  1.00  0.00     0.278 C 
ATOM     94  H   UNL A   1      42.506  29.786  36.926  1.00  0.00     0.163 HD
ATOM     95  O   UNL A   1      44.491  28.650  37.637  1.00  0.00    -0.268 OA
BRANCH  93  96
ATOM     96  C   UNL A   1      43.848  26.737  36.293  1.00  0.00     0.277 C 
ATOM     97  C   UNL A   1      43.696  26.764  34.760  1.00  0.00     0.111 C 
ATOM     98  N   UNL A   1      42.919  25.819  37.026  1.00  0.00    -0.332 N 
ATOM     99  C   UNL A   1      43.742  25.349  34.251  1.00  0.00    -0.033 A 
ATOM    100  C   UNL A   1      42.205  24.880  36.155  1.00  0.00     0.298 C 
ATOM    101  H   UNL A   1      42.231  26.386  37.521  1.00  0.00     0.347 HD
ATOM    102  H   UNL A   1      43.493  25.260  37.658  1.00  0.00     0.347 HD
ATOM    103  C   UNL A   1      44.470  24.974  33.122  1.00  0.00     0.004 A 
ATOM    104  C   UNL A   1      43.024  24.391  34.988  1.00  0.00     0.010 A 
ATOM    105  C   UNL A   1      44.496  23.635  32.735  1.00  0.00     0.000 A 
ATOM    106  C   UNL A   1      43.049  23.053  34.588  1.00  0.00     0.010 A 
ATOM    107  C   UNL A   1      43.792  22.676  33.467  1.00  0.00     0.001 A 
ENDBRANCH  93  96
ENDBRANCH  91  92
ENDBRANCH  90  91
ENDBRANCH  82  85
ENDBRANCH  74  81
ENDBRANCH  72  74
ENDBRANCH  71  72
ENDBRANCH   1  71
TORSDOF 20
ENDMDL
