MODEL 1
REMARK VINA RESULT:     -11.6      0.000      0.000
REMARK SMILES O=C(C[C@@H]1C(=O)NC(=S)N1c1ccccc1)OCCOC(=O)c1ccc(-c2c3nc(c(-c4cccc(S(=O)(=O)[O-])c4F)c4ccc([nH]4)c(-c4cccc(S(=O)(=O)[O-])c4F)c4nc(c(-c5cccc(S(=O)(=O)[O-])c5F)c5ccc2[nH]5)C=C4)C=C3)cc1
REMARK SMILES IDX 19 1 18 2 17 3 2 4 1 5 3 6 4 7 5 8 10 9 6 10 7 11 8 12 9 14
REMARK SMILES IDX 11 15 12 16 16 17 13 18 15 19 14 20 20 21 21 22 22 23 23 24
REMARK SMILES IDX 24 25 85 26 25 27 84 28 26 29 27 30 28 31 78 32 29 33 83 34
REMARK SMILES IDX 77 35 79 36 30 37 82 38 76 39 75 40 31 42 63 43 43 44 62 45
REMARK SMILES IDX 44 46 47 47 61 48 80 49 45 50 46 51 60 53 81 54 48 55 32 56
REMARK SMILES IDX 33 57 41 58 34 59 36 60 42 61 35 62 37 63 38 64 39 65 40 66
REMARK SMILES IDX 64 67 65 68 73 69 66 70 68 71 74 72 67 73 69 74 70 75 71 76
REMARK SMILES IDX 72 77 49 78 50 79 58 80 51 81 53 82 59 83 52 84 54 85 55 86
REMARK SMILES IDX 56 87 57 88
REMARK H PARENT 7 13 79 41 47 52
REMARK Flexibility Score: inf
ROOT
ATOM      1  C   UNL A   1      31.418  31.494  26.172  1.00  0.00     0.275 C 
ENDROOT
BRANCH   1   2
ATOM      2  C   UNL A   1      31.231  30.292  25.246  1.00  0.00     0.274 C 
BRANCH   2   3
ATOM      3  O   UNL A   1      32.166  29.232  25.524  1.00  0.00    -0.462 OA
BRANCH   3   4
ATOM      4  C   UNL A   1      33.198  28.874  24.735  1.00  0.00     0.308 C 
ATOM      5  O   UNL A   1      34.335  28.844  25.203  1.00  0.00    -0.252 OA
BRANCH   4   6
ATOM      6  C   UNL A   1      32.955  28.527  23.288  1.00  0.00     0.158 C 
BRANCH   6   7
ATOM      7  C   UNL A   1      32.290  27.191  22.970  1.00  0.00     0.190 C 
ATOM      8  C   UNL A   1      30.791  27.432  22.819  1.00  0.00     0.249 C 
ATOM      9  N   UNL A   1      32.292  26.114  23.959  1.00  0.00    -0.306 N 
ATOM     10  O   UNL A   1      30.253  28.241  22.077  1.00  0.00    -0.272 OA
ATOM     11  N   UNL A   1      30.132  26.683  23.734  1.00  0.00    -0.301 N 
ATOM     12  C   UNL A   1      30.990  25.914  24.459  1.00  0.00     0.180 C 
ATOM     13  H   UNL A   1      29.155  26.692  23.859  1.00  0.00     0.172 HD
ATOM     14  S   UNL A   1      30.417  25.012  25.732  1.00  0.00    -0.040 S 
BRANCH   9  15
ATOM     15  C   UNL A   1      33.428  25.268  24.133  1.00  0.00     0.044 A 
ATOM     16  C   UNL A   1      33.826  24.366  23.137  1.00  0.00     0.026 A 
ATOM     17  C   UNL A   1      34.228  25.340  25.280  1.00  0.00     0.026 A 
ATOM     18  C   UNL A   1      34.926  23.519  23.312  1.00  0.00     0.002 A 
ATOM     19  C   UNL A   1      35.308  24.472  25.476  1.00  0.00     0.002 A 
ATOM     20  C   UNL A   1      35.654  23.554  24.494  1.00  0.00     0.000 A 
ENDBRANCH   9  15
ENDBRANCH   6   7
ENDBRANCH   4   6
ENDBRANCH   3   4
ENDBRANCH   2   3
ENDBRANCH   1   2
BRANCH   1  21
ATOM     21  O   UNL A   1      32.477  31.227  27.108  1.00  0.00    -0.458 OA
BRANCH  21  22
ATOM     22  C   UNL A   1      33.218  32.296  27.492  1.00  0.00     0.338 C 
ATOM     23  O   UNL A   1      32.824  33.443  27.613  1.00  0.00    -0.246 OA
BRANCH  22  24
ATOM     24  C   UNL A   1      34.559  31.836  27.923  1.00  0.00     0.060 A 
ATOM     25  C   UNL A   1      34.712  30.482  28.246  1.00  0.00     0.016 A 
ATOM     26  C   UNL A   1      35.659  32.701  27.997  1.00  0.00     0.016 A 
ATOM     27  C   UNL A   1      35.944  30.004  28.695  1.00  0.00     0.010 A 
ATOM     28  C   UNL A   1      36.894  32.217  28.447  1.00  0.00     0.010 A 
ATOM     29  C   UNL A   1      37.034  30.875  28.835  1.00  0.00    -0.014 A 
BRANCH  29  30
ATOM     30  C   UNL A   1      38.255  30.402  29.532  1.00  0.00     0.031 A 
ATOM     31  C   UNL A   1      38.528  30.880  30.933  1.00  0.00     0.074 A 
ATOM     32  C   UNL A   1      39.101  29.531  28.949  1.00  0.00     0.049 A 
ATOM     33  N   UNL A   1      39.462  30.507  31.768  1.00  0.00    -0.248 NA
ATOM     34  C   UNL A   1      37.628  31.919  31.461  1.00  0.00     0.031 C 
ATOM     35  C   UNL A   1      38.984  29.019  27.586  1.00  0.00     0.029 A 
ATOM     36  N   UNL A   1      40.240  28.937  29.436  1.00  0.00    -0.354 N 
ATOM     37  C   UNL A   1      39.256  31.250  32.923  1.00  0.00     0.074 A 
ATOM     38  C   UNL A   1      38.137  32.131  32.666  1.00  0.00     0.031 C 
ATOM     39  C   UNL A   1      40.025  28.204  27.337  1.00  0.00     0.029 A 
ATOM     40  C   UNL A   1      40.875  28.129  28.524  1.00  0.00     0.049 A 
ATOM     41  H   UNL A   1      40.569  29.078  30.354  1.00  0.00     0.167 HD
ATOM     42  C   UNL A   1      39.912  31.185  34.107  1.00  0.00     0.034 A 
ATOM     43  C   UNL A   1      42.009  27.406  28.638  1.00  0.00     0.034 A 
ATOM     44  C   UNL A   1      41.027  30.317  34.371  1.00  0.00     0.049 A 
ATOM     45  C   UNL A   1      42.726  27.353  29.964  1.00  0.00     0.074 A 
ATOM     46  C   UNL A   1      41.735  30.160  35.550  1.00  0.00     0.029 A 
ATOM     47  N   UNL A   1      41.606  29.468  33.442  1.00  0.00    -0.354 N 
ATOM     48  N   UNL A   1      42.416  27.933  31.099  1.00  0.00    -0.248 NA
ATOM     49  C   UNL A   1      43.925  26.502  30.039  1.00  0.00     0.031 C 
ATOM     50  C   UNL A   1      42.752  29.224  35.329  1.00  0.00     0.029 A 
ATOM     51  C   UNL A   1      42.666  28.788  34.017  1.00  0.00     0.049 A 
ATOM     52  H   UNL A   1      41.307  29.364  32.509  1.00  0.00     0.167 HD
ATOM     53  C   UNL A   1      43.357  27.492  32.025  1.00  0.00     0.074 A 
ATOM     54  C   UNL A   1      44.231  26.573  31.327  1.00  0.00     0.031 C 
ATOM     55  C   UNL A   1      43.498  27.833  33.330  1.00  0.00     0.034 A 
BRANCH  42  56
ATOM     56  C   UNL A   1      39.392  32.039  35.230  1.00  0.00     0.023 A 
ATOM     57  C   UNL A   1      38.428  31.500  36.109  1.00  0.00     0.012 A 
ATOM     58  C   UNL A   1      39.879  33.340  35.451  1.00  0.00     0.148 A 
ATOM     59  C   UNL A   1      37.938  32.252  37.174  1.00  0.00     0.002 A 
ATOM     60  C   UNL A   1      39.412  34.072  36.537  1.00  0.00     0.091 A 
ATOM     61  F   UNL A   1      40.775  33.843  34.590  1.00  0.00    -0.205 F 
ATOM     62  C   UNL A   1      38.437  33.533  37.394  1.00  0.00     0.022 A 
BRANCH  60  63
ATOM     63  S   UNL A   1      40.038  35.705  36.947  1.00  0.00     0.127 S 
ATOM     64  O   UNL A   1      39.321  35.993  38.188  1.00  0.00    -0.237 OA
ATOM     65  O   UNL A   1      41.470  35.454  37.113  1.00  0.00    -0.237 OA
ATOM     66  O   UNL A   1      39.699  36.559  35.817  1.00  0.00    -0.744 OA
ENDBRANCH  60  63
ENDBRANCH  42  56
BRANCH  43  67
ATOM     67  C   UNL A   1      42.511  26.618  27.477  1.00  0.00     0.023 A 
ATOM     68  C   UNL A   1      43.327  27.239  26.512  1.00  0.00     0.012 A 
ATOM     69  C   UNL A   1      42.177  25.259  27.322  1.00  0.00     0.148 A 
ATOM     70  C   UNL A   1      43.772  26.530  25.395  1.00  0.00     0.002 A 
ATOM     71  C   UNL A   1      42.668  24.545  26.236  1.00  0.00     0.091 A 
ATOM     72  F   UNL A   1      41.381  24.691  28.240  1.00  0.00    -0.205 F 
ATOM     73  C   UNL A   1      43.450  25.181  25.261  1.00  0.00     0.022 A 
BRANCH  71  74
ATOM     74  S   UNL A   1      42.405  22.777  26.058  1.00  0.00     0.127 S 
ATOM     75  O   UNL A   1      40.949  22.682  26.116  1.00  0.00    -0.237 OA
ATOM     76  O   UNL A   1      42.989  22.512  24.743  1.00  0.00    -0.237 OA
ATOM     77  O   UNL A   1      43.129  22.165  27.164  1.00  0.00    -0.744 OA
ENDBRANCH  71  74
ENDBRANCH  43  67
BRANCH  55  78
ATOM     78  C   UNL A   1      44.626  27.197  34.104  1.00  0.00     0.023 A 
ATOM     79  C   UNL A   1      45.912  27.773  34.061  1.00  0.00     0.012 A 
ATOM     80  C   UNL A   1      44.403  26.069  34.919  1.00  0.00     0.148 A 
ATOM     81  C   UNL A   1      46.965  27.215  34.785  1.00  0.00     0.002 A 
ATOM     82  C   UNL A   1      45.448  25.546  35.675  1.00  0.00     0.091 A 
ATOM     83  F   UNL A   1      43.181  25.519  34.935  1.00  0.00    -0.205 F 
ATOM     84  C   UNL A   1      46.731  26.110  35.599  1.00  0.00     0.022 A 
BRANCH  82  85
ATOM     85  S   UNL A   1      45.209  24.180  36.818  1.00  0.00     0.127 S 
ATOM     86  O   UNL A   1      44.736  23.123  35.927  1.00  0.00    -0.237 OA
ATOM     87  O   UNL A   1      46.558  23.972  37.348  1.00  0.00    -0.237 OA
ATOM     88  O   UNL A   1      44.247  24.655  37.803  1.00  0.00    -0.744 OA
ENDBRANCH  82  85
ENDBRANCH  55  78
ENDBRANCH  29  30
ENDBRANCH  22  24
ENDBRANCH  21  22
ENDBRANCH   1  21
TORSDOF 16
ENDMDL
MODEL 2
REMARK VINA RESULT:     -11.6      4.937     10.218
REMARK SMILES O=C(C[C@@H]1C(=O)NC(=S)N1c1ccccc1)OCCOC(=O)c1ccc(-c2c3nc(c(-c4cccc(S(=O)(=O)[O-])c4F)c4ccc([nH]4)c(-c4cccc(S(=O)(=O)[O-])c4F)c4nc(c(-c5cccc(S(=O)(=O)[O-])c5F)c5ccc2[nH]5)C=C4)C=C3)cc1
REMARK SMILES IDX 19 1 18 2 17 3 2 4 1 5 3 6 4 7 5 8 10 9 6 10 7 11 8 12 9 14
REMARK SMILES IDX 11 15 12 16 16 17 13 18 15 19 14 20 20 21 21 22 22 23 23 24
REMARK SMILES IDX 24 25 85 26 25 27 84 28 26 29 27 30 28 31 78 32 29 33 83 34
REMARK SMILES IDX 77 35 79 36 30 37 82 38 76 39 75 40 31 42 63 43 43 44 62 45
REMARK SMILES IDX 44 46 47 47 61 48 80 49 45 50 46 51 60 53 81 54 48 55 32 56
REMARK SMILES IDX 33 57 41 58 34 59 36 60 42 61 35 62 37 63 38 64 39 65 40 66
REMARK SMILES IDX 64 67 65 68 73 69 66 70 68 71 74 72 67 73 69 74 70 75 71 76
REMARK SMILES IDX 72 77 49 78 50 79 58 80 51 81 53 82 59 83 52 84 54 85 55 86
REMARK SMILES IDX 56 87 57 88
REMARK H PARENT 7 13 79 41 47 52
REMARK Flexibility Score: inf
ROOT
ATOM      1  C   UNL A   1      37.227  20.129  24.919  1.00  0.00     0.275 C 
ENDROOT
BRANCH   1   2
ATOM      2  C   UNL A   1      35.764  20.564  24.980  1.00  0.00     0.274 C 
BRANCH   2   3
ATOM      3  O   UNL A   1      35.427  21.185  26.236  1.00  0.00    -0.462 OA
BRANCH   3   4
ATOM      4  C   UNL A   1      34.956  22.439  26.386  1.00  0.00     0.308 C 
ATOM      5  O   UNL A   1      35.616  23.387  25.963  1.00  0.00    -0.252 OA
BRANCH   4   6
ATOM      6  C   UNL A   1      33.637  22.671  27.079  1.00  0.00     0.158 C 
BRANCH   6   7
ATOM      7  C   UNL A   1      32.471  23.199  26.249  1.00  0.00     0.190 C 
ATOM      8  C   UNL A   1      32.077  22.120  25.245  1.00  0.00     0.249 C 
ATOM      9  N   UNL A   1      32.660  24.342  25.357  1.00  0.00    -0.306 N 
ATOM     10  O   UNL A   1      31.791  20.959  25.496  1.00  0.00    -0.272 OA
ATOM     11  N   UNL A   1      32.209  22.618  23.992  1.00  0.00    -0.301 N 
ATOM     12  C   UNL A   1      32.592  23.924  24.014  1.00  0.00     0.180 C 
ATOM     13  H   UNL A   1      32.049  22.100  23.170  1.00  0.00     0.172 HD
ATOM     14  S   UNL A   1      32.945  24.705  22.590  1.00  0.00    -0.040 S 
BRANCH   9  15
ATOM     15  C   UNL A   1      32.640  25.681  25.852  1.00  0.00     0.044 A 
ATOM     16  C   UNL A   1      31.473  26.245  26.385  1.00  0.00     0.026 A 
ATOM     17  C   UNL A   1      33.796  26.470  25.879  1.00  0.00     0.026 A 
ATOM     18  C   UNL A   1      31.442  27.564  26.851  1.00  0.00     0.002 A 
ATOM     19  C   UNL A   1      33.764  27.801  26.311  1.00  0.00     0.002 A 
ATOM     20  C   UNL A   1      32.584  28.353  26.790  1.00  0.00     0.000 A 
ENDBRANCH   9  15
ENDBRANCH   6   7
ENDBRANCH   4   6
ENDBRANCH   3   4
ENDBRANCH   2   3
ENDBRANCH   1   2
BRANCH   1  21
ATOM     21  O   UNL A   1      38.081  21.245  25.226  1.00  0.00    -0.458 OA
BRANCH  21  22
ATOM     22  C   UNL A   1      39.191  20.966  25.952  1.00  0.00     0.338 C 
ATOM     23  O   UNL A   1      39.792  19.905  25.976  1.00  0.00    -0.246 OA
BRANCH  22  24
ATOM     24  C   UNL A   1      39.686  22.207  26.593  1.00  0.00     0.060 A 
ATOM     25  C   UNL A   1      39.120  23.421  26.187  1.00  0.00     0.016 A 
ATOM     26  C   UNL A   1      40.675  22.194  27.585  1.00  0.00     0.016 A 
ATOM     27  C   UNL A   1      39.576  24.624  26.729  1.00  0.00     0.010 A 
ATOM     28  C   UNL A   1      41.130  23.403  28.128  1.00  0.00     0.010 A 
ATOM     29  C   UNL A   1      40.611  24.627  27.675  1.00  0.00    -0.014 A 
BRANCH  29  30
ATOM     30  C   UNL A   1      41.239  25.915  28.060  1.00  0.00     0.031 A 
ATOM     31  C   UNL A   1      42.672  26.171  27.677  1.00  0.00     0.074 A 
ATOM     32  C   UNL A   1      40.543  26.865  28.712  1.00  0.00     0.049 A 
ATOM     33  N   UNL A   1      43.379  27.263  27.802  1.00  0.00    -0.248 NA
ATOM     34  C   UNL A   1      43.404  25.046  27.073  1.00  0.00     0.031 C 
ATOM     35  C   UNL A   1      39.165  26.737  29.181  1.00  0.00     0.029 A 
ATOM     36  N   UNL A   1      40.916  28.128  29.104  1.00  0.00    -0.354 N 
ATOM     37  C   UNL A   1      44.632  26.965  27.282  1.00  0.00     0.074 A 
ATOM     38  C   UNL A   1      44.603  25.574  26.882  1.00  0.00     0.031 C 
ATOM     39  C   UNL A   1      38.816  27.868  29.820  1.00  0.00     0.029 A 
ATOM     40  C   UNL A   1      39.940  28.803  29.796  1.00  0.00     0.049 A 
ATOM     41  H   UNL A   1      41.801  28.513  28.907  1.00  0.00     0.167 HD
ATOM     42  C   UNL A   1      45.702  27.779  27.116  1.00  0.00     0.034 A 
ATOM     43  C   UNL A   1      39.951  30.037  30.341  1.00  0.00     0.034 A 
ATOM     44  C   UNL A   1      45.742  29.160  27.514  1.00  0.00     0.049 A 
ATOM     45  C   UNL A   1      41.156  30.925  30.149  1.00  0.00     0.074 A 
ATOM     46  C   UNL A   1      46.772  30.071  27.358  1.00  0.00     0.029 A 
ATOM     47  N   UNL A   1      44.713  29.827  28.158  1.00  0.00    -0.354 N 
ATOM     48  N   UNL A   1      42.270  30.680  29.503  1.00  0.00    -0.248 NA
ATOM     49  C   UNL A   1      41.083  32.279  30.720  1.00  0.00     0.031 C 
ATOM     50  C   UNL A   1      46.369  31.288  27.921  1.00  0.00     0.029 A 
ATOM     51  C   UNL A   1      45.083  31.137  28.413  1.00  0.00     0.049 A 
ATOM     52  H   UNL A   1      43.846  29.428  28.400  1.00  0.00     0.167 HD
ATOM     53  C   UNL A   1      43.013  31.856  29.560  1.00  0.00     0.074 A 
ATOM     54  C   UNL A   1      42.209  32.823  30.279  1.00  0.00     0.031 C 
ATOM     55  C   UNL A   1      44.256  32.109  29.080  1.00  0.00     0.034 A 
BRANCH  42  56
ATOM     56  C   UNL A   1      46.901  27.204  26.413  1.00  0.00     0.023 A 
ATOM     57  C   UNL A   1      47.011  27.357  25.015  1.00  0.00     0.012 A 
ATOM     58  C   UNL A   1      47.934  26.565  27.123  1.00  0.00     0.148 A 
ATOM     59  C   UNL A   1      48.118  26.858  24.330  1.00  0.00     0.002 A 
ATOM     60  C   UNL A   1      49.052  26.103  26.439  1.00  0.00     0.091 A 
ATOM     61  F   UNL A   1      47.798  26.408  28.447  1.00  0.00    -0.205 F 
ATOM     62  C   UNL A   1      49.141  26.240  25.043  1.00  0.00     0.022 A 
BRANCH  60  63
ATOM     63  S   UNL A   1      50.455  25.351  27.271  1.00  0.00     0.127 S 
ATOM     64  O   UNL A   1      49.837  24.181  27.893  1.00  0.00    -0.237 OA
ATOM     65  O   UNL A   1      51.350  25.046  26.155  1.00  0.00    -0.237 OA
ATOM     66  O   UNL A   1      50.959  26.357  28.195  1.00  0.00    -0.744 OA
ENDBRANCH  60  63
ENDBRANCH  42  56
BRANCH  43  67
ATOM     67  C   UNL A   1      38.754  30.539  31.075  1.00  0.00     0.023 A 
ATOM     68  C   UNL A   1      38.679  30.392  32.473  1.00  0.00     0.012 A 
ATOM     69  C   UNL A   1      37.688  31.155  30.390  1.00  0.00     0.148 A 
ATOM     70  C   UNL A   1      37.548  30.817  33.173  1.00  0.00     0.002 A 
ATOM     71  C   UNL A   1      36.589  31.623  31.100  1.00  0.00     0.091 A 
ATOM     72  F   UNL A   1      37.768  31.266  29.057  1.00  0.00    -0.205 F 
ATOM     73  C   UNL A   1      36.507  31.439  32.488  1.00  0.00     0.022 A 
BRANCH  71  74
ATOM     74  S   UNL A   1      35.267  32.549  30.311  1.00  0.00     0.127 S 
ATOM     75  O   UNL A   1      34.343  32.760  31.423  1.00  0.00    -0.237 OA
ATOM     76  O   UNL A   1      35.966  33.750  29.853  1.00  0.00    -0.237 OA
ATOM     77  O   UNL A   1      34.785  31.694  29.235  1.00  0.00    -0.744 OA
ENDBRANCH  71  74
ENDBRANCH  43  67
BRANCH  55  78
ATOM     78  C   UNL A   1      44.825  33.490  29.294  1.00  0.00     0.023 A 
ATOM     79  C   UNL A   1      45.557  33.767  30.466  1.00  0.00     0.012 A 
ATOM     80  C   UNL A   1      44.687  34.492  28.313  1.00  0.00     0.148 A 
ATOM     81  C   UNL A   1      46.110  35.030  30.675  1.00  0.00     0.002 A 
ATOM     82  C   UNL A   1      45.282  35.735  28.509  1.00  0.00     0.091 A 
ATOM     83  F   UNL A   1      43.972  34.221  27.213  1.00  0.00    -0.205 F 
ATOM     84  C   UNL A   1      45.982  36.010  29.693  1.00  0.00     0.022 A 
BRANCH  82  85
ATOM     85  S   UNL A   1      45.241  37.021  27.254  1.00  0.00     0.127 S 
ATOM     86  O   UNL A   1      45.814  38.158  27.970  1.00  0.00    -0.237 OA
ATOM     87  O   UNL A   1      46.099  36.466  26.205  1.00  0.00    -0.237 OA
ATOM     88  O   UNL A   1      43.841  37.154  26.872  1.00  0.00    -0.744 OA
ENDBRANCH  82  85
ENDBRANCH  55  78
ENDBRANCH  29  30
ENDBRANCH  22  24
ENDBRANCH  21  22
ENDBRANCH   1  21
TORSDOF 16
ENDMDL
MODEL 3
REMARK VINA RESULT:     -11.5      4.991     10.244
REMARK SMILES O=C(C[C@@H]1C(=O)NC(=S)N1c1ccccc1)OCCOC(=O)c1ccc(-c2c3nc(c(-c4cccc(S(=O)(=O)[O-])c4F)c4ccc([nH]4)c(-c4cccc(S(=O)(=O)[O-])c4F)c4nc(c(-c5cccc(S(=O)(=O)[O-])c5F)c5ccc2[nH]5)C=C4)C=C3)cc1
REMARK SMILES IDX 19 1 18 2 17 3 2 4 1 5 3 6 4 7 5 8 10 9 6 10 7 11 8 12 9 14
REMARK SMILES IDX 11 15 12 16 16 17 13 18 15 19 14 20 20 21 21 22 22 23 23 24
REMARK SMILES IDX 24 25 85 26 25 27 84 28 26 29 27 30 28 31 78 32 29 33 83 34
REMARK SMILES IDX 77 35 79 36 30 37 82 38 76 39 75 40 31 42 63 43 43 44 62 45
REMARK SMILES IDX 44 46 47 47 61 48 80 49 45 50 46 51 60 53 81 54 48 55 32 56
REMARK SMILES IDX 33 57 41 58 34 59 36 60 42 61 35 62 37 63 38 64 39 65 40 66
REMARK SMILES IDX 64 67 65 68 73 69 66 70 68 71 74 72 67 73 69 74 70 75 71 76
REMARK SMILES IDX 72 77 49 78 50 79 58 80 51 81 53 82 59 83 52 84 54 85 55 86
REMARK SMILES IDX 56 87 57 88
REMARK H PARENT 7 13 79 41 47 52
REMARK Flexibility Score: inf
ROOT
ATOM      1  C   UNL A   1      37.700  19.989  25.001  1.00  0.00     0.275 C 
ENDROOT
BRANCH   1   2
ATOM      2  C   UNL A   1      36.275  20.544  25.018  1.00  0.00     0.274 C 
BRANCH   2   3
ATOM      3  O   UNL A   1      36.199  21.846  25.630  1.00  0.00    -0.462 OA
BRANCH   3   4
ATOM      4  C   UNL A   1      35.663  22.945  25.063  1.00  0.00     0.308 C 
ATOM      5  O   UNL A   1      35.402  23.921  25.764  1.00  0.00    -0.252 OA
BRANCH   4   6
ATOM      6  C   UNL A   1      35.378  22.966  23.582  1.00  0.00     0.158 C 
BRANCH   6   7
ATOM      7  C   UNL A   1      33.924  22.887  23.128  1.00  0.00     0.190 C 
ATOM      8  C   UNL A   1      33.394  24.311  22.987  1.00  0.00     0.249 C 
ATOM      9  N   UNL A   1      32.909  22.307  24.006  1.00  0.00    -0.306 N 
ATOM     10  O   UNL A   1      33.887  25.212  22.325  1.00  0.00    -0.272 OA
ATOM     11  N   UNL A   1      32.336  24.469  23.818  1.00  0.00    -0.301 N 
ATOM     12  C   UNL A   1      32.040  23.313  24.472  1.00  0.00     0.180 C 
ATOM     13  H   UNL A   1      31.844  25.314  23.935  1.00  0.00     0.172 HD
ATOM     14  S   UNL A   1      30.861  23.304  25.644  1.00  0.00    -0.040 S 
BRANCH   9  15
ATOM     15  C   UNL A   1      32.734  20.894  24.106  1.00  0.00     0.044 A 
ATOM     16  C   UNL A   1      32.879  20.225  25.329  1.00  0.00     0.026 A 
ATOM     17  C   UNL A   1      32.355  20.121  23.001  1.00  0.00     0.026 A 
ATOM     18  C   UNL A   1      32.730  18.837  25.428  1.00  0.00     0.002 A 
ATOM     19  C   UNL A   1      32.238  18.729  23.086  1.00  0.00     0.002 A 
ATOM     20  C   UNL A   1      32.433  18.084  24.299  1.00  0.00     0.000 A 
ENDBRANCH   9  15
ENDBRANCH   6   7
ENDBRANCH   4   6
ENDBRANCH   3   4
ENDBRANCH   2   3
ENDBRANCH   1   2
BRANCH   1  21
ATOM     21  O   UNL A   1      38.641  21.059  25.200  1.00  0.00    -0.458 OA
BRANCH  21  22
ATOM     22  C   UNL A   1      39.632  20.824  26.094  1.00  0.00     0.338 C 
ATOM     23  O   UNL A   1      40.207  19.763  26.275  1.00  0.00    -0.246 OA
BRANCH  22  24
ATOM     24  C   UNL A   1      40.051  22.104  26.714  1.00  0.00     0.060 A 
ATOM     25  C   UNL A   1      39.530  23.288  26.179  1.00  0.00     0.016 A 
ATOM     26  C   UNL A   1      40.923  22.155  27.809  1.00  0.00     0.016 A 
ATOM     27  C   UNL A   1      39.922  24.523  26.699  1.00  0.00     0.010 A 
ATOM     28  C   UNL A   1      41.314  23.396  28.328  1.00  0.00     0.010 A 
ATOM     29  C   UNL A   1      40.845  24.588  27.752  1.00  0.00    -0.014 A 
BRANCH  29  30
ATOM     30  C   UNL A   1      41.424  25.901  28.129  1.00  0.00     0.031 A 
ATOM     31  C   UNL A   1      42.848  26.207  27.749  1.00  0.00     0.074 A 
ATOM     32  C   UNL A   1      40.692  26.830  28.773  1.00  0.00     0.049 A 
ATOM     33  N   UNL A   1      43.514  27.325  27.868  1.00  0.00    -0.248 NA
ATOM     34  C   UNL A   1      43.623  25.105  27.155  1.00  0.00     0.031 C 
ATOM     35  C   UNL A   1      39.318  26.654  29.239  1.00  0.00     0.029 A 
ATOM     36  N   UNL A   1      41.017  28.107  29.157  1.00  0.00    -0.354 N 
ATOM     37  C   UNL A   1      44.779  27.069  27.354  1.00  0.00     0.074 A 
ATOM     38  C   UNL A   1      44.803  25.676  26.963  1.00  0.00     0.031 C 
ATOM     39  C   UNL A   1      38.926  27.776  29.869  1.00  0.00     0.029 A 
ATOM     40  C   UNL A   1      40.015  28.751  29.842  1.00  0.00     0.049 A 
ATOM     41  H   UNL A   1      41.888  28.523  28.960  1.00  0.00     0.167 HD
ATOM     42  C   UNL A   1      45.819  27.921  27.185  1.00  0.00     0.034 A 
ATOM     43  C   UNL A   1      39.979  29.988  30.378  1.00  0.00     0.034 A 
ATOM     44  C   UNL A   1      45.806  29.305  27.574  1.00  0.00     0.049 A 
ATOM     45  C   UNL A   1      41.150  30.918  30.183  1.00  0.00     0.074 A 
ATOM     46  C   UNL A   1      46.803  30.253  27.414  1.00  0.00     0.029 A 
ATOM     47  N   UNL A   1      44.752  29.938  28.211  1.00  0.00    -0.354 N 
ATOM     48  N   UNL A   1      42.275  30.711  29.542  1.00  0.00    -0.248 NA
ATOM     49  C   UNL A   1      41.026  32.273  30.745  1.00  0.00     0.031 C 
ATOM     50  C   UNL A   1      46.354  31.457  27.968  1.00  0.00     0.029 A 
ATOM     51  C   UNL A   1      45.073  31.263  28.457  1.00  0.00     0.049 A 
ATOM     52  H   UNL A   1      43.899  29.510  28.452  1.00  0.00     0.167 HD
ATOM     53  C   UNL A   1      42.974  31.914  29.594  1.00  0.00     0.074 A 
ATOM     54  C   UNL A   1      42.133  32.854  30.303  1.00  0.00     0.031 C 
ATOM     55  C   UNL A   1      44.208  32.208  29.115  1.00  0.00     0.034 A 
BRANCH  42  56
ATOM     56  C   UNL A   1      47.040  27.386  26.490  1.00  0.00     0.023 A 
ATOM     57  C   UNL A   1      47.193  27.615  25.106  1.00  0.00     0.012 A 
ATOM     58  C   UNL A   1      48.052  26.710  27.196  1.00  0.00     0.148 A 
ATOM     59  C   UNL A   1      48.322  27.155  24.430  1.00  0.00     0.002 A 
ATOM     60  C   UNL A   1      49.192  26.285  26.522  1.00  0.00     0.091 A 
ATOM     61  F   UNL A   1      47.875  26.481  28.504  1.00  0.00    -0.205 F 
ATOM     62  C   UNL A   1      49.324  26.499  25.140  1.00  0.00     0.022 A 
BRANCH  60  63
ATOM     63  S   UNL A   1      50.570  25.490  27.356  1.00  0.00     0.127 S 
ATOM     64  O   UNL A   1      49.964  24.233  27.792  1.00  0.00    -0.237 OA
ATOM     65  O   UNL A   1      51.547  25.353  26.275  1.00  0.00    -0.237 OA
ATOM     66  O   UNL A   1      50.969  26.395  28.424  1.00  0.00    -0.744 OA
ENDBRANCH  60  63
ENDBRANCH  42  56
BRANCH  43  67
ATOM     67  C   UNL A   1      38.762  30.451  31.105  1.00  0.00     0.023 A 
ATOM     68  C   UNL A   1      38.643  30.218  32.489  1.00  0.00     0.012 A 
ATOM     69  C   UNL A   1      37.720  31.114  30.428  1.00  0.00     0.148 A 
ATOM     70  C   UNL A   1      37.493  30.605  33.179  1.00  0.00     0.002 A 
ATOM     71  C   UNL A   1      36.601  31.545  31.132  1.00  0.00     0.091 A 
ATOM     72  F   UNL A   1      37.841  31.308  29.107  1.00  0.00    -0.205 F 
ATOM     73  C   UNL A   1      36.476  31.275  32.503  1.00  0.00     0.022 A 
BRANCH  71  74
ATOM     74  S   UNL A   1      35.308  32.526  30.363  1.00  0.00     0.127 S 
ATOM     75  O   UNL A   1      34.887  31.660  29.265  1.00  0.00    -0.237 OA
ATOM     76  O   UNL A   1      34.338  32.660  31.450  1.00  0.00    -0.237 OA
ATOM     77  O   UNL A   1      35.949  33.777  29.980  1.00  0.00    -0.744 OA
ENDBRANCH  71  74
ENDBRANCH  43  67
BRANCH  55  78
ATOM     78  C   UNL A   1      44.725  33.611  29.321  1.00  0.00     0.023 A 
ATOM     79  C   UNL A   1      45.405  33.934  30.513  1.00  0.00     0.012 A 
ATOM     80  C   UNL A   1      44.593  34.589  28.316  1.00  0.00     0.148 A 
ATOM     81  C   UNL A   1      45.910  35.218  30.716  1.00  0.00     0.002 A 
ATOM     82  C   UNL A   1      45.140  35.854  28.507  1.00  0.00     0.091 A 
ATOM     83  F   UNL A   1      43.927  34.274  27.196  1.00  0.00    -0.205 F 
ATOM     84  C   UNL A   1      45.788  36.173  29.710  1.00  0.00     0.022 A 
BRANCH  82  85
ATOM     85  S   UNL A   1      45.106  37.113  27.225  1.00  0.00     0.127 S 
ATOM     86  O   UNL A   1      45.692  38.260  27.915  1.00  0.00    -0.237 OA
ATOM     87  O   UNL A   1      45.954  36.528  26.185  1.00  0.00    -0.237 OA
ATOM     88  O   UNL A   1      43.705  37.251  26.846  1.00  0.00    -0.744 OA
ENDBRANCH  82  85
ENDBRANCH  55  78
ENDBRANCH  29  30
ENDBRANCH  22  24
ENDBRANCH  21  22
ENDBRANCH   1  21
TORSDOF 16
ENDMDL
