MODEL 1
REMARK VINA RESULT:     -10.5      0.000      0.000
REMARK SMILES Cc1nsc(N[C@@H](C)C2CCCC2)c1C(=O)OCCOC(=O)c1ccc(-c2c3nc(c(-c4cccc(S(=O)(=O)[O-])c4F)c4ccc([nH]4)c(-c4cccc(S(=O)(=O)[O-])c4F)c4nc(c(-c5cccc(S(=O)(=O)[O-])c5F)c5ccc2[nH]5)C=C4)C=C3)cc1
REMARK SMILES IDX 18 1 17 2 15 3 16 4 14 5 1 6 2 7 3 8 4 9 5 10 6 11 7 13 8 14
REMARK SMILES IDX 9 15 10 16 13 17 11 18 12 19 19 20 20 21 21 22 22 23 23 24
REMARK SMILES IDX 24 25 85 26 25 27 84 28 26 29 27 30 28 31 78 32 29 33 83 34
REMARK SMILES IDX 77 35 79 36 30 37 82 38 76 39 75 40 31 42 63 43 43 44 62 45
REMARK SMILES IDX 44 46 47 47 61 48 80 49 45 50 46 51 60 53 81 54 48 55 32 56
REMARK SMILES IDX 33 57 41 58 34 59 36 60 42 61 35 62 37 63 38 64 39 65 40 66
REMARK SMILES IDX 64 67 65 68 73 69 66 70 68 71 74 72 67 73 69 74 70 75 71 76
REMARK SMILES IDX 72 77 49 78 50 79 58 80 51 81 53 82 59 83 52 84 54 85 55 86
REMARK SMILES IDX 56 87 57 88
REMARK H PARENT 6 12 79 41 47 52
REMARK Flexibility Score: inf
ROOT
ATOM      1  C   UNL A   1      33.602  28.568  27.258  1.00  0.00     0.275 C 
ENDROOT
BRANCH   1   2
ATOM      2  O   UNL A   1      32.746  28.134  26.180  1.00  0.00    -0.458 OA
BRANCH   2   3
ATOM      3  C   UNL A   1      31.687  27.311  26.458  1.00  0.00     0.343 C 
ATOM      4  O   UNL A   1      31.144  27.252  27.561  1.00  0.00    -0.246 OA
BRANCH   3   5
ATOM      5  C   UNL A   1      31.292  26.485  25.315  1.00  0.00     0.117 A 
ATOM      6  C   UNL A   1      30.434  28.406  23.724  1.00  0.00     0.069 C 
ATOM      7  C   UNL A   1      30.756  26.987  24.061  1.00  0.00     0.068 A 
ATOM      8  N   UNL A   1      30.545  26.086  23.104  1.00  0.00    -0.195 NA
ATOM      9  S   UNL A   1      30.882  24.591  23.696  1.00  0.00    -0.018 S 
ATOM     10  C   UNL A   1      31.390  25.087  25.268  1.00  0.00     0.124 A 
BRANCH  10  11
ATOM     11  N   UNL A   1      31.772  24.222  26.262  1.00  0.00    -0.372 N 
ATOM     12  H   UNL A   1      31.064  23.780  26.784  1.00  0.00     0.161 HD
BRANCH  11  13
ATOM     13  C   UNL A   1      33.168  23.912  26.601  1.00  0.00     0.080 C 
ATOM     14  C   UNL A   1      33.139  22.617  27.424  1.00  0.00     0.031 C 
BRANCH  13  15
ATOM     15  C   UNL A   1      34.152  23.874  25.387  1.00  0.00     0.011 C 
ATOM     16  C   UNL A   1      35.645  24.012  25.718  1.00  0.00     0.006 C 
ATOM     17  C   UNL A   1      34.128  22.657  24.464  1.00  0.00     0.006 C 
ATOM     18  C   UNL A   1      36.382  23.628  24.444  1.00  0.00     0.000 C 
ATOM     19  C   UNL A   1      35.452  22.684  23.693  1.00  0.00     0.000 C 
ENDBRANCH  13  15
ENDBRANCH  11  13
ENDBRANCH  10  11
ENDBRANCH   3   5
ENDBRANCH   2   3
ENDBRANCH   1   2
BRANCH   1  20
ATOM     20  C   UNL A   1      34.207  29.948  26.997  1.00  0.00     0.275 C 
BRANCH  20  21
ATOM     21  O   UNL A   1      35.610  29.952  27.265  1.00  0.00    -0.458 OA
BRANCH  21  22
ATOM     22  C   UNL A   1      35.984  30.977  28.052  1.00  0.00     0.338 C 
ATOM     23  O   UNL A   1      35.749  32.164  27.882  1.00  0.00    -0.246 OA
BRANCH  22  24
ATOM     24  C   UNL A   1      36.822  30.509  29.146  1.00  0.00     0.060 A 
ATOM     25  C   UNL A   1      37.774  31.411  29.597  1.00  0.00     0.016 A 
ATOM     26  C   UNL A   1      36.937  29.141  29.378  1.00  0.00     0.016 A 
ATOM     27  C   UNL A   1      38.995  30.915  29.987  1.00  0.00     0.010 A 
ATOM     28  C   UNL A   1      38.135  28.659  29.874  1.00  0.00     0.010 A 
ATOM     29  C   UNL A   1      39.218  29.536  29.990  1.00  0.00    -0.014 A 
BRANCH  29  30
ATOM     30  C   UNL A   1      40.618  29.080  30.016  1.00  0.00     0.031 A 
ATOM     31  C   UNL A   1      41.228  28.890  31.374  1.00  0.00     0.074 A 
ATOM     32  C   UNL A   1      41.285  28.827  28.864  1.00  0.00     0.049 A 
ATOM     33  N   UNL A   1      42.396  29.264  31.804  1.00  0.00    -0.248 NA
ATOM     34  C   UNL A   1      40.359  28.335  32.431  1.00  0.00     0.031 C 
ATOM     35  C   UNL A   1      40.761  28.887  27.492  1.00  0.00     0.029 A 
ATOM     36  N   UNL A   1      42.515  28.256  28.681  1.00  0.00    -0.354 N 
ATOM     37  C   UNL A   1      42.468  28.815  33.124  1.00  0.00     0.074 A 
ATOM     38  C   UNL A   1      41.135  28.432  33.505  1.00  0.00     0.031 C 
ATOM     39  C   UNL A   1      41.462  28.038  26.717  1.00  0.00     0.029 A 
ATOM     40  C   UNL A   1      42.560  27.511  27.500  1.00  0.00     0.049 A 
ATOM     41  H   UNL A   1      43.271  28.358  29.303  1.00  0.00     0.167 HD
ATOM     42  C   UNL A   1      43.642  28.540  33.755  1.00  0.00     0.034 A 
ATOM     43  C   UNL A   1      43.331  26.425  27.249  1.00  0.00     0.034 A 
ATOM     44  C   UNL A   1      44.756  29.241  33.193  1.00  0.00     0.049 A 
ATOM     45  C   UNL A   1      44.452  26.438  28.210  1.00  0.00     0.074 A 
ATOM     46  C   UNL A   1      45.109  30.568  33.051  1.00  0.00     0.029 A 
ATOM     47  N   UNL A   1      45.610  28.540  32.380  1.00  0.00    -0.354 N 
ATOM     48  N   UNL A   1      45.396  27.336  28.201  1.00  0.00    -0.248 NA
ATOM     49  C   UNL A   1      44.282  25.709  29.455  1.00  0.00     0.031 C 
ATOM     50  C   UNL A   1      45.811  30.632  31.812  1.00  0.00     0.029 A 
ATOM     51  C   UNL A   1      45.871  29.337  31.299  1.00  0.00     0.049 A 
ATOM     52  H   UNL A   1      45.965  27.636  32.543  1.00  0.00     0.167 HD
ATOM     53  C   UNL A   1      45.625  27.602  29.544  1.00  0.00     0.074 A 
ATOM     54  C   UNL A   1      44.983  26.505  30.266  1.00  0.00     0.031 C 
ATOM     55  C   UNL A   1      46.056  28.828  29.960  1.00  0.00     0.034 A 
BRANCH  42  56
ATOM     56  C   UNL A   1      43.804  27.368  34.694  1.00  0.00     0.023 A 
ATOM     57  C   UNL A   1      44.058  27.619  36.059  1.00  0.00     0.012 A 
ATOM     58  C   UNL A   1      43.954  26.031  34.255  1.00  0.00     0.148 A 
ATOM     59  C   UNL A   1      44.441  26.591  36.932  1.00  0.00     0.002 A 
ATOM     60  C   UNL A   1      44.227  25.000  35.143  1.00  0.00     0.091 A 
ATOM     61  F   UNL A   1      43.979  25.753  32.947  1.00  0.00    -0.205 F 
ATOM     62  C   UNL A   1      44.501  25.276  36.480  1.00  0.00     0.022 A 
BRANCH  60  63
ATOM     63  S   UNL A   1      44.208  23.291  34.591  1.00  0.00     0.127 S 
ATOM     64  O   UNL A   1      44.562  22.579  35.814  1.00  0.00    -0.237 OA
ATOM     65  O   UNL A   1      42.820  23.126  34.156  1.00  0.00    -0.237 OA
ATOM     66  O   UNL A   1      45.177  23.235  33.502  1.00  0.00    -0.744 OA
ENDBRANCH  60  63
ENDBRANCH  42  56
BRANCH  43  67
ATOM     67  C   UNL A   1      42.948  25.205  26.496  1.00  0.00     0.023 A 
ATOM     68  C   UNL A   1      43.753  24.764  25.428  1.00  0.00     0.012 A 
ATOM     69  C   UNL A   1      41.942  24.332  26.974  1.00  0.00     0.148 A 
ATOM     70  C   UNL A   1      43.569  23.495  24.864  1.00  0.00     0.002 A 
ATOM     71  C   UNL A   1      41.747  23.082  26.395  1.00  0.00     0.091 A 
ATOM     72  F   UNL A   1      41.239  24.682  28.060  1.00  0.00    -0.205 F 
ATOM     73  C   UNL A   1      42.568  22.655  25.345  1.00  0.00     0.022 A 
BRANCH  71  74
ATOM     74  S   UNL A   1      40.471  21.954  26.973  1.00  0.00     0.127 S 
ATOM     75  O   UNL A   1      39.252  22.732  26.745  1.00  0.00    -0.237 OA
ATOM     76  O   UNL A   1      40.647  20.813  26.079  1.00  0.00    -0.237 OA
ATOM     77  O   UNL A   1      40.766  21.709  28.380  1.00  0.00    -0.744 OA
ENDBRANCH  71  74
ENDBRANCH  43  67
BRANCH  55  78
ATOM     78  C   UNL A   1      46.491  29.824  28.916  1.00  0.00     0.023 A 
ATOM     79  C   UNL A   1      47.807  29.852  28.406  1.00  0.00     0.012 A 
ATOM     80  C   UNL A   1      45.512  30.629  28.312  1.00  0.00     0.148 A 
ATOM     81  C   UNL A   1      48.143  30.684  27.335  1.00  0.00     0.002 A 
ATOM     82  C   UNL A   1      45.839  31.423  27.219  1.00  0.00     0.091 A 
ATOM     83  F   UNL A   1      44.263  30.583  28.802  1.00  0.00    -0.205 F 
ATOM     84  C   UNL A   1      47.155  31.461  26.733  1.00  0.00     0.022 A 
BRANCH  82  85
ATOM     85  S   UNL A   1      44.588  32.349  26.327  1.00  0.00     0.127 S 
ATOM     86  O   UNL A   1      43.611  31.310  26.005  1.00  0.00    -0.237 OA
ATOM     87  O   UNL A   1      44.141  33.320  27.327  1.00  0.00    -0.237 OA
ATOM     88  O   UNL A   1      45.270  32.945  25.184  1.00  0.00    -0.744 OA
ENDBRANCH  82  85
ENDBRANCH  55  78
ENDBRANCH  29  30
ENDBRANCH  22  24
ENDBRANCH  21  22
ENDBRANCH  20  21
ENDBRANCH   1  20
TORSDOF 17
ENDMDL
MODEL 2
REMARK VINA RESULT:     -10.2      1.011      2.977
REMARK SMILES Cc1nsc(N[C@@H](C)C2CCCC2)c1C(=O)OCCOC(=O)c1ccc(-c2c3nc(c(-c4cccc(S(=O)(=O)[O-])c4F)c4ccc([nH]4)c(-c4cccc(S(=O)(=O)[O-])c4F)c4nc(c(-c5cccc(S(=O)(=O)[O-])c5F)c5ccc2[nH]5)C=C4)C=C3)cc1
REMARK SMILES IDX 18 1 17 2 15 3 16 4 14 5 1 6 2 7 3 8 4 9 5 10 6 11 7 13 8 14
REMARK SMILES IDX 9 15 10 16 13 17 11 18 12 19 19 20 20 21 21 22 22 23 23 24
REMARK SMILES IDX 24 25 85 26 25 27 84 28 26 29 27 30 28 31 78 32 29 33 83 34
REMARK SMILES IDX 77 35 79 36 30 37 82 38 76 39 75 40 31 42 63 43 43 44 62 45
REMARK SMILES IDX 44 46 47 47 61 48 80 49 45 50 46 51 60 53 81 54 48 55 32 56
REMARK SMILES IDX 33 57 41 58 34 59 36 60 42 61 35 62 37 63 38 64 39 65 40 66
REMARK SMILES IDX 64 67 65 68 73 69 66 70 68 71 74 72 67 73 69 74 70 75 71 76
REMARK SMILES IDX 72 77 49 78 50 79 58 80 51 81 53 82 59 83 52 84 54 85 55 86
REMARK SMILES IDX 56 87 57 88
REMARK H PARENT 6 12 79 41 47 52
REMARK Flexibility Score: inf
ROOT
ATOM      1  C   UNL A   1      33.547  29.363  25.951  1.00  0.00     0.275 C 
ENDROOT
BRANCH   1   2
ATOM      2  O   UNL A   1      33.845  27.971  25.714  1.00  0.00    -0.458 OA
BRANCH   2   3
ATOM      3  C   UNL A   1      32.858  27.036  25.891  1.00  0.00     0.343 C 
ATOM      4  O   UNL A   1      32.327  26.807  26.977  1.00  0.00    -0.246 OA
BRANCH   3   5
ATOM      5  C   UNL A   1      32.530  26.315  24.659  1.00  0.00     0.117 A 
ATOM      6  C   UNL A   1      34.634  24.726  24.564  1.00  0.00     0.069 C 
ATOM      7  C   UNL A   1      33.320  25.242  24.077  1.00  0.00     0.068 A 
ATOM      8  N   UNL A   1      32.806  24.645  23.004  1.00  0.00    -0.195 NA
ATOM      9  S   UNL A   1      31.411  25.405  22.586  1.00  0.00    -0.018 S 
ATOM     10  C   UNL A   1      31.392  26.553  23.874  1.00  0.00     0.124 A 
BRANCH  10  11
ATOM     11  N   UNL A   1      30.435  27.523  24.027  1.00  0.00    -0.372 N 
ATOM     12  H   UNL A   1      29.557  27.250  24.379  1.00  0.00     0.161 HD
BRANCH  11  13
ATOM     13  C   UNL A   1      30.631  28.942  23.700  1.00  0.00     0.080 C 
ATOM     14  C   UNL A   1      31.761  28.998  22.663  1.00  0.00     0.031 C 
BRANCH  13  15
ATOM     15  C   UNL A   1      29.338  29.711  23.277  1.00  0.00     0.011 C 
ATOM     16  C   UNL A   1      29.177  31.130  23.838  1.00  0.00     0.006 C 
ATOM     17  C   UNL A   1      29.060  29.909  21.788  1.00  0.00     0.006 C 
ATOM     18  C   UNL A   1      28.043  31.757  23.042  1.00  0.00     0.000 C 
ATOM     19  C   UNL A   1      28.034  31.044  21.697  1.00  0.00     0.000 C 
ENDBRANCH  13  15
ENDBRANCH  11  13
ENDBRANCH  10  11
ENDBRANCH   3   5
ENDBRANCH   2   3
ENDBRANCH   1   2
BRANCH   1  20
ATOM     20  C   UNL A   1      33.980  29.818  27.344  1.00  0.00     0.275 C 
BRANCH  20  21
ATOM     21  O   UNL A   1      35.399  29.742  27.491  1.00  0.00    -0.458 OA
BRANCH  21  22
ATOM     22  C   UNL A   1      35.921  30.844  28.059  1.00  0.00     0.338 C 
ATOM     23  O   UNL A   1      35.781  32.001  27.693  1.00  0.00    -0.246 OA
BRANCH  22  24
ATOM     24  C   UNL A   1      36.794  30.489  29.168  1.00  0.00     0.060 A 
ATOM     25  C   UNL A   1      37.760  31.429  29.493  1.00  0.00     0.016 A 
ATOM     26  C   UNL A   1      36.915  29.152  29.537  1.00  0.00     0.016 A 
ATOM     27  C   UNL A   1      38.993  30.973  29.893  1.00  0.00     0.010 A 
ATOM     28  C   UNL A   1      38.128  28.720  30.042  1.00  0.00     0.010 A 
ATOM     29  C   UNL A   1      39.215  29.601  30.033  1.00  0.00    -0.014 A 
BRANCH  29  30
ATOM     30  C   UNL A   1      40.615  29.144  30.061  1.00  0.00     0.031 A 
ATOM     31  C   UNL A   1      41.216  28.936  31.421  1.00  0.00     0.074 A 
ATOM     32  C   UNL A   1      41.290  28.908  28.910  1.00  0.00     0.049 A 
ATOM     33  N   UNL A   1      42.381  29.305  31.862  1.00  0.00    -0.248 NA
ATOM     34  C   UNL A   1      40.341  28.367  32.464  1.00  0.00     0.031 C 
ATOM     35  C   UNL A   1      40.775  28.985  27.536  1.00  0.00     0.029 A 
ATOM     36  N   UNL A   1      42.521  28.339  28.727  1.00  0.00    -0.354 N 
ATOM     37  C   UNL A   1      42.445  28.838  33.177  1.00  0.00     0.074 A 
ATOM     38  C   UNL A   1      41.110  28.450  33.544  1.00  0.00     0.031 C 
ATOM     39  C   UNL A   1      41.480  28.147  26.754  1.00  0.00     0.029 A 
ATOM     40  C   UNL A   1      42.574  27.610  27.537  1.00  0.00     0.049 A 
ATOM     41  H   UNL A   1      43.273  28.433  29.355  1.00  0.00     0.167 HD
ATOM     42  C   UNL A   1      43.615  28.556  33.812  1.00  0.00     0.034 A 
ATOM     43  C   UNL A   1      43.346  26.528  27.276  1.00  0.00     0.034 A 
ATOM     44  C   UNL A   1      44.733  29.264  33.266  1.00  0.00     0.049 A 
ATOM     45  C   UNL A   1      44.462  26.529  28.244  1.00  0.00     0.074 A 
ATOM     46  C   UNL A   1      45.086  30.593  33.144  1.00  0.00     0.029 A 
ATOM     47  N   UNL A   1      45.592  28.574  32.450  1.00  0.00    -0.354 N 
ATOM     48  N   UNL A   1      45.405  27.426  28.253  1.00  0.00    -0.248 NA
ATOM     49  C   UNL A   1      44.284  25.783  29.479  1.00  0.00     0.031 C 
ATOM     50  C   UNL A   1      45.795  30.674  31.911  1.00  0.00     0.029 A 
ATOM     51  C   UNL A   1      45.860  29.386  31.381  1.00  0.00     0.049 A 
ATOM     52  H   UNL A   1      45.946  27.669  32.602  1.00  0.00     0.167 HD
ATOM     53  C   UNL A   1      45.626  27.674  29.602  1.00  0.00     0.074 A 
ATOM     54  C   UNL A   1      44.980  26.567  30.304  1.00  0.00     0.031 C 
ATOM     55  C   UNL A   1      46.053  28.895  30.037  1.00  0.00     0.034 A 
BRANCH  42  56
ATOM     56  C   UNL A   1      43.771  27.371  34.736  1.00  0.00     0.023 A 
ATOM     57  C   UNL A   1      43.989  27.603  36.110  1.00  0.00     0.012 A 
ATOM     58  C   UNL A   1      43.951  26.043  34.280  1.00  0.00     0.148 A 
ATOM     59  C   UNL A   1      44.366  26.567  36.976  1.00  0.00     0.002 A 
ATOM     60  C   UNL A   1      44.218  25.003  35.158  1.00  0.00     0.091 A 
ATOM     61  F   UNL A   1      44.012  25.786  32.968  1.00  0.00    -0.205 F 
ATOM     62  C   UNL A   1      44.456  25.261  36.505  1.00  0.00     0.022 A 
BRANCH  60  63
ATOM     63  S   UNL A   1      44.237  23.302  34.579  1.00  0.00     0.127 S 
ATOM     64  O   UNL A   1      42.893  23.160  34.029  1.00  0.00    -0.237 OA
ATOM     65  O   UNL A   1      45.314  23.330  33.587  1.00  0.00    -0.237 OA
ATOM     66  O   UNL A   1      44.544  22.504  35.760  1.00  0.00    -0.744 OA
ENDBRANCH  60  63
ENDBRANCH  42  56
BRANCH  43  67
ATOM     67  C   UNL A   1      42.969  25.318  26.504  1.00  0.00     0.023 A 
ATOM     68  C   UNL A   1      43.790  24.883  25.446  1.00  0.00     0.012 A 
ATOM     69  C   UNL A   1      41.949  24.447  26.956  1.00  0.00     0.148 A 
ATOM     70  C   UNL A   1      43.607  23.620  24.867  1.00  0.00     0.002 A 
ATOM     71  C   UNL A   1      41.756  23.204  26.361  1.00  0.00     0.091 A 
ATOM     72  F   UNL A   1      41.230  24.790  28.033  1.00  0.00    -0.205 F 
ATOM     73  C   UNL A   1      42.593  22.782  25.322  1.00  0.00     0.022 A 
BRANCH  71  74
ATOM     74  S   UNL A   1      40.464  22.078  26.906  1.00  0.00     0.127 S 
ATOM     75  O   UNL A   1      40.834  21.845  28.303  1.00  0.00    -0.237 OA
ATOM     76  O   UNL A   1      39.261  22.883  26.717  1.00  0.00    -0.237 OA
ATOM     77  O   UNL A   1      40.580  20.899  26.056  1.00  0.00    -0.744 OA
ENDBRANCH  71  74
ENDBRANCH  43  67
BRANCH  55  78
ATOM     78  C   UNL A   1      46.495  29.905  29.009  1.00  0.00     0.023 A 
ATOM     79  C   UNL A   1      47.814  29.939  28.507  1.00  0.00     0.012 A 
ATOM     80  C   UNL A   1      45.519  30.718  28.411  1.00  0.00     0.148 A 
ATOM     81  C   UNL A   1      48.156  30.786  27.449  1.00  0.00     0.002 A 
ATOM     82  C   UNL A   1      45.853  31.527  27.331  1.00  0.00     0.091 A 
ATOM     83  F   UNL A   1      44.268  30.666  28.893  1.00  0.00    -0.205 F 
ATOM     84  C   UNL A   1      47.172  31.571  26.852  1.00  0.00     0.022 A 
BRANCH  82  85
ATOM     85  S   UNL A   1      44.608  32.466  26.445  1.00  0.00     0.127 S 
ATOM     86  O   UNL A   1      44.148  33.404  27.467  1.00  0.00    -0.237 OA
ATOM     87  O   UNL A   1      45.382  33.074  25.362  1.00  0.00    -0.237 OA
ATOM     88  O   UNL A   1      43.618  31.494  25.994  1.00  0.00    -0.744 OA
ENDBRANCH  82  85
ENDBRANCH  55  78
ENDBRANCH  29  30
ENDBRANCH  22  24
ENDBRANCH  21  22
ENDBRANCH  20  21
ENDBRANCH   1  20
TORSDOF 17
ENDMDL
MODEL 3
REMARK VINA RESULT:     -10.1      4.102      5.760
REMARK SMILES Cc1nsc(N[C@@H](C)C2CCCC2)c1C(=O)OCCOC(=O)c1ccc(-c2c3nc(c(-c4cccc(S(=O)(=O)[O-])c4F)c4ccc([nH]4)c(-c4cccc(S(=O)(=O)[O-])c4F)c4nc(c(-c5cccc(S(=O)(=O)[O-])c5F)c5ccc2[nH]5)C=C4)C=C3)cc1
REMARK SMILES IDX 18 1 17 2 15 3 16 4 14 5 1 6 2 7 3 8 4 9 5 10 6 11 7 13 8 14
REMARK SMILES IDX 9 15 10 16 13 17 11 18 12 19 19 20 20 21 21 22 22 23 23 24
REMARK SMILES IDX 24 25 85 26 25 27 84 28 26 29 27 30 28 31 78 32 29 33 83 34
REMARK SMILES IDX 77 35 79 36 30 37 82 38 76 39 75 40 31 42 63 43 43 44 62 45
REMARK SMILES IDX 44 46 47 47 61 48 80 49 45 50 46 51 60 53 81 54 48 55 32 56
REMARK SMILES IDX 33 57 41 58 34 59 36 60 42 61 35 62 37 63 38 64 39 65 40 66
REMARK SMILES IDX 64 67 65 68 73 69 66 70 68 71 74 72 67 73 69 74 70 75 71 76
REMARK SMILES IDX 72 77 49 78 50 79 58 80 51 81 53 82 59 83 52 84 54 85 55 86
REMARK SMILES IDX 56 87 57 88
REMARK H PARENT 6 12 79 41 47 52
REMARK Flexibility Score: inf
ROOT
ATOM      1  C   UNL A   1      34.652  32.260  27.806  1.00  0.00     0.275 C 
ENDROOT
BRANCH   1   2
ATOM      2  O   UNL A   1      34.475  33.497  28.528  1.00  0.00    -0.458 OA
BRANCH   2   3
ATOM      3  C   UNL A   1      35.376  33.839  29.501  1.00  0.00     0.343 C 
ATOM      4  O   UNL A   1      36.573  34.025  29.283  1.00  0.00    -0.246 OA
BRANCH   3   5
ATOM      5  C   UNL A   1      34.771  33.926  30.833  1.00  0.00     0.117 A 
ATOM      6  C   UNL A   1      33.209  36.010  30.417  1.00  0.00     0.069 C 
ATOM      7  C   UNL A   1      33.762  34.890  31.236  1.00  0.00     0.068 A 
ATOM      8  N   UNL A   1      33.265  34.748  32.463  1.00  0.00    -0.195 NA
ATOM      9  S   UNL A   1      34.054  33.522  33.220  1.00  0.00    -0.018 S 
ATOM     10  C   UNL A   1      35.077  33.074  31.904  1.00  0.00     0.124 A 
BRANCH  10  11
ATOM     11  N   UNL A   1      36.023  32.084  31.968  1.00  0.00    -0.372 N 
ATOM     12  H   UNL A   1      35.820  31.225  31.533  1.00  0.00     0.161 HD
BRANCH  11  13
ATOM     13  C   UNL A   1      37.321  32.219  32.644  1.00  0.00     0.080 C 
ATOM     14  C   UNL A   1      37.542  30.917  33.426  1.00  0.00     0.031 C 
BRANCH  13  15
ATOM     15  C   UNL A   1      38.514  32.616  31.715  1.00  0.00     0.011 C 
ATOM     16  C   UNL A   1      39.334  33.839  32.149  1.00  0.00     0.006 C 
ATOM     17  C   UNL A   1      39.595  31.576  31.429  1.00  0.00     0.006 C 
ATOM     18  C   UNL A   1      40.587  33.816  31.286  1.00  0.00     0.000 C 
ATOM     19  C   UNL A   1      40.807  32.357  30.910  1.00  0.00     0.000 C 
ENDBRANCH  13  15
ENDBRANCH  11  13
ENDBRANCH  10  11
ENDBRANCH   3   5
ENDBRANCH   2   3
ENDBRANCH   1   2
BRANCH   1  20
ATOM     20  C   UNL A   1      34.811  31.062  28.741  1.00  0.00     0.275 C 
BRANCH  20  21
ATOM     21  O   UNL A   1      35.666  30.072  28.166  1.00  0.00    -0.458 OA
BRANCH  21  22
ATOM     22  C   UNL A   1      36.659  29.700  28.995  1.00  0.00     0.338 C 
ATOM     23  O   UNL A   1      36.643  29.707  30.217  1.00  0.00    -0.246 OA
BRANCH  22  24
ATOM     24  C   UNL A   1      37.855  29.351  28.244  1.00  0.00     0.060 A 
ATOM     25  C   UNL A   1      38.008  28.004  27.955  1.00  0.00     0.016 A 
ATOM     26  C   UNL A   1      38.934  30.233  28.236  1.00  0.00     0.016 A 
ATOM     27  C   UNL A   1      39.278  27.480  27.982  1.00  0.00     0.010 A 
ATOM     28  C   UNL A   1      40.210  29.704  28.155  1.00  0.00     0.010 A 
ATOM     29  C   UNL A   1      40.371  28.317  28.223  1.00  0.00    -0.014 A 
BRANCH  29  30
ATOM     30  C   UNL A   1      41.630  27.677  28.642  1.00  0.00     0.031 A 
ATOM     31  C   UNL A   1      42.111  28.006  30.025  1.00  0.00     0.074 A 
ATOM     32  C   UNL A   1      42.281  26.823  27.817  1.00  0.00     0.049 A 
ATOM     33  N   UNL A   1      43.310  28.317  30.419  1.00  0.00    -0.248 NA
ATOM     34  C   UNL A   1      41.087  28.147  31.079  1.00  0.00     0.031 C 
ATOM     35  C   UNL A   1      41.854  26.357  26.490  1.00  0.00     0.029 A 
ATOM     36  N   UNL A   1      43.358  26.020  28.073  1.00  0.00    -0.354 N 
ATOM     37  C   UNL A   1      43.212  28.499  31.800  1.00  0.00     0.074 A 
ATOM     38  C   UNL A   1      41.811  28.572  32.110  1.00  0.00     0.031 C 
ATOM     39  C   UNL A   1      42.384  25.142  26.259  1.00  0.00     0.029 A 
ATOM     40  C   UNL A   1      43.295  24.832  27.341  1.00  0.00     0.049 A 
ATOM     41  H   UNL A   1      44.086  26.251  28.695  1.00  0.00     0.167 HD
ATOM     42  C   UNL A   1      44.261  28.329  32.650  1.00  0.00     0.034 A 
ATOM     43  C   UNL A   1      43.814  23.629  27.689  1.00  0.00     0.034 A 
ATOM     44  C   UNL A   1      45.532  28.494  32.011  1.00  0.00     0.049 A 
ATOM     45  C   UNL A   1      44.860  23.869  28.704  1.00  0.00     0.074 A 
ATOM     46  C   UNL A   1      46.180  29.531  31.371  1.00  0.00     0.029 A 
ATOM     47  N   UNL A   1      46.246  27.364  31.706  1.00  0.00    -0.354 N 
ATOM     48  N   UNL A   1      45.980  24.483  28.451  1.00  0.00    -0.248 NA
ATOM     49  C   UNL A   1      44.468  23.815  30.102  1.00  0.00     0.031 C 
ATOM     50  C   UNL A   1      46.940  28.910  30.339  1.00  0.00     0.029 A 
ATOM     51  C   UNL A   1      46.734  27.534  30.439  1.00  0.00     0.049 A 
ATOM     52  H   UNL A   1      46.381  26.580  32.286  1.00  0.00     0.167 HD
ATOM     53  C   UNL A   1      46.195  25.274  29.572  1.00  0.00     0.074 A 
ATOM     54  C   UNL A   1      45.287  24.749  30.590  1.00  0.00     0.031 C 
ATOM     55  C   UNL A   1      46.868  26.458  29.485  1.00  0.00     0.034 A 
BRANCH  42  56
ATOM     56  C   UNL A   1      44.108  27.691  34.011  1.00  0.00     0.023 A 
ATOM     57  C   UNL A   1      44.129  28.514  35.155  1.00  0.00     0.012 A 
ATOM     58  C   UNL A   1      44.184  26.295  34.231  1.00  0.00     0.148 A 
ATOM     59  C   UNL A   1      44.221  27.971  36.445  1.00  0.00     0.002 A 
ATOM     60  C   UNL A   1      44.164  25.758  35.510  1.00  0.00     0.091 A 
ATOM     61  F   UNL A   1      44.422  25.466  33.208  1.00  0.00    -0.205 F 
ATOM     62  C   UNL A   1      44.213  26.592  36.624  1.00  0.00     0.022 A 
BRANCH  60  63
ATOM     63  S   UNL A   1      44.053  23.982  35.753  1.00  0.00     0.127 S 
ATOM     64  O   UNL A   1      45.135  23.497  34.904  1.00  0.00    -0.237 OA
ATOM     65  O   UNL A   1      44.290  23.856  37.192  1.00  0.00    -0.237 OA
ATOM     66  O   UNL A   1      42.698  23.629  35.345  1.00  0.00    -0.744 OA
ENDBRANCH  60  63
ENDBRANCH  42  56
BRANCH  43  67
ATOM     67  C   UNL A   1      43.206  22.292  27.479  1.00  0.00     0.023 A 
ATOM     68  C   UNL A   1      41.890  22.050  27.916  1.00  0.00     0.012 A 
ATOM     69  C   UNL A   1      43.812  21.334  26.632  1.00  0.00     0.148 A 
ATOM     70  C   UNL A   1      41.199  20.898  27.516  1.00  0.00     0.002 A 
ATOM     71  C   UNL A   1      43.131  20.180  26.257  1.00  0.00     0.091 A 
ATOM     72  F   UNL A   1      45.020  21.596  26.113  1.00  0.00    -0.205 F 
ATOM     73  C   UNL A   1      41.818  19.965  26.688  1.00  0.00     0.022 A 
BRANCH  71  74
ATOM     74  S   UNL A   1      43.878  18.939  25.190  1.00  0.00     0.127 S 
ATOM     75  O   UNL A   1      42.889  17.861  25.243  1.00  0.00    -0.237 OA
ATOM     76  O   UNL A   1      43.951  19.642  23.913  1.00  0.00    -0.237 OA
ATOM     77  O   UNL A   1      45.156  18.604  25.806  1.00  0.00    -0.744 OA
ENDBRANCH  71  74
ENDBRANCH  43  67
BRANCH  55  78
ATOM     78  C   UNL A   1      47.568  26.788  28.192  1.00  0.00     0.023 A 
ATOM     79  C   UNL A   1      48.889  26.369  27.924  1.00  0.00     0.012 A 
ATOM     80  C   UNL A   1      46.821  27.380  27.161  1.00  0.00     0.148 A 
ATOM     81  C   UNL A   1      49.458  26.559  26.662  1.00  0.00     0.002 A 
ATOM     82  C   UNL A   1      47.375  27.528  25.895  1.00  0.00     0.091 A 
ATOM     83  F   UNL A   1      45.563  27.764  27.429  1.00  0.00    -0.205 F 
ATOM     84  C   UNL A   1      48.697  27.128  25.643  1.00  0.00     0.022 A 
BRANCH  82  85
ATOM     85  S   UNL A   1      46.407  28.139  24.515  1.00  0.00     0.127 S 
ATOM     86  O   UNL A   1      47.083  27.528  23.372  1.00  0.00    -0.237 OA
ATOM     87  O   UNL A   1      45.076  27.599  24.798  1.00  0.00    -0.237 OA
ATOM     88  O   UNL A   1      46.484  29.594  24.584  1.00  0.00    -0.744 OA
ENDBRANCH  82  85
ENDBRANCH  55  78
ENDBRANCH  29  30
ENDBRANCH  22  24
ENDBRANCH  21  22
ENDBRANCH  20  21
ENDBRANCH   1  20
TORSDOF 17
ENDMDL
