MODEL 1
REMARK VINA RESULT:     -11.1      0.000      0.000
REMARK SMILES CC[C@](C)(Nc1cccc(Br)c1)C(=O)OCCOC(=O)c1ccc(-c2c3nc(c(-c4cccc(S(=O)(=O)[O-])c4F)c4ccc([nH]4)c(-c4cccc(S(=O)(=O)[O-])c4F)c4nc(c(-c5cccc(S(=O)(=O)[O-])c5F)c5ccc2[nH]5)C=C4)C=C3)cc1
REMARK SMILES IDX 17 1 16 2 15 3 13 4 14 5 3 6 4 7 2 8 1 9 5 10 6 12 7 13
REMARK SMILES IDX 12 14 8 15 10 16 9 17 11 18 18 19 19 20 20 21 21 22 22 23
REMARK SMILES IDX 83 24 23 25 82 26 24 27 25 28 26 29 76 30 27 31 81 32 75 33
REMARK SMILES IDX 77 34 28 35 80 36 74 37 73 38 29 40 61 41 41 42 60 43 42 44
REMARK SMILES IDX 45 45 59 46 78 47 43 48 44 49 58 51 79 52 46 53 30 54 31 55
REMARK SMILES IDX 39 56 32 57 34 58 40 59 33 60 35 61 36 62 37 63 38 64 62 65
REMARK SMILES IDX 63 66 71 67 64 68 66 69 72 70 65 71 67 72 68 73 69 74 70 75
REMARK SMILES IDX 47 76 48 77 56 78 49 79 51 80 57 81 50 82 52 83 53 84 54 85
REMARK SMILES IDX 55 86
REMARK H PARENT 5 11 77 39 45 50
REMARK Flexibility Score: inf
ROOT
ATOM      1  C   UNL A   1      37.647  20.082  24.969  1.00  0.00     0.275 C 
ENDROOT
BRANCH   1   2
ATOM      2  C   UNL A   1      36.128  20.229  25.037  1.00  0.00     0.274 C 
BRANCH   2   3
ATOM      3  O   UNL A   1      35.763  21.569  25.419  1.00  0.00    -0.460 OA
BRANCH   3   4
ATOM      4  C   UNL A   1      34.633  21.710  26.161  1.00  0.00     0.331 C 
ATOM      5  O   UNL A   1      34.587  21.453  27.361  1.00  0.00    -0.249 OA
BRANCH   4   6
ATOM      6  C   UNL A   1      33.379  22.150  25.350  1.00  0.00     0.132 C 
ATOM      7  C   UNL A   1      33.812  22.607  23.946  1.00  0.00     0.047 C 
BRANCH   6   8
ATOM      8  C   UNL A   1      32.728  23.324  26.141  1.00  0.00     0.037 C 
ATOM      9  C   UNL A   1      31.286  23.121  26.599  1.00  0.00     0.007 C 
ENDBRANCH   6   8
BRANCH   6  10
ATOM     10  N   UNL A   1      32.296  21.134  25.191  1.00  0.00    -0.370 N 
ATOM     11  H   UNL A   1      31.412  21.346  25.572  1.00  0.00     0.161 HD
BRANCH  10  12
ATOM     12  C   UNL A   1      32.442  19.916  24.548  1.00  0.00     0.036 A 
ATOM     13  C   UNL A   1      32.246  19.854  23.163  1.00  0.00     0.026 A 
ATOM     14  C   UNL A   1      32.907  18.774  25.203  1.00  0.00     0.041 A 
ATOM     15  C   UNL A   1      32.428  18.665  22.454  1.00  0.00     0.003 A 
ATOM     16  C   UNL A   1      33.104  17.586  24.492  1.00  0.00     0.020 A 
ATOM     17  C   UNL A   1      32.855  17.524  23.123  1.00  0.00     0.016 A 
ATOM     18  Br  UNL A   1      33.747  16.051  25.392  1.00  0.00    -0.051 Br
ENDBRANCH  10  12
ENDBRANCH   6  10
ENDBRANCH   4   6
ENDBRANCH   3   4
ENDBRANCH   2   3
ENDBRANCH   1   2
BRANCH   1  19
ATOM     19  O   UNL A   1      38.257  21.311  25.394  1.00  0.00    -0.458 OA
BRANCH  19  20
ATOM     20  C   UNL A   1      39.375  21.187  26.144  1.00  0.00     0.338 C 
ATOM     21  O   UNL A   1      39.992  20.164  26.379  1.00  0.00    -0.246 OA
BRANCH  20  22
ATOM     22  C   UNL A   1      39.746  22.511  26.686  1.00  0.00     0.060 A 
ATOM     23  C   UNL A   1      39.072  23.663  26.279  1.00  0.00     0.016 A 
ATOM     24  C   UNL A   1      40.835  22.610  27.551  1.00  0.00     0.016 A 
ATOM     25  C   UNL A   1      39.534  24.921  26.662  1.00  0.00     0.010 A 
ATOM     26  C   UNL A   1      41.247  23.869  28.002  1.00  0.00     0.010 A 
ATOM     27  C   UNL A   1      40.631  25.040  27.525  1.00  0.00    -0.014 A 
BRANCH  27  28
ATOM     28  C   UNL A   1      41.181  26.378  27.872  1.00  0.00     0.031 A 
ATOM     29  C   UNL A   1      42.585  26.737  27.458  1.00  0.00     0.074 A 
ATOM     30  C   UNL A   1      40.438  27.271  28.555  1.00  0.00     0.049 A 
ATOM     31  N   UNL A   1      43.299  27.786  27.778  1.00  0.00    -0.248 NA
ATOM     32  C   UNL A   1      43.287  25.780  26.586  1.00  0.00     0.031 C 
ATOM     33  C   UNL A   1      39.062  27.058  29.006  1.00  0.00     0.029 A 
ATOM     34  N   UNL A   1      40.737  28.538  28.993  1.00  0.00    -0.354 N 
ATOM     35  C   UNL A   1      44.554  27.574  27.220  1.00  0.00     0.074 A 
ATOM     36  C   UNL A   1      44.503  26.306  26.527  1.00  0.00     0.031 C 
ATOM     37  C   UNL A   1      38.627  28.163  29.631  1.00  0.00     0.029 A 
ATOM     38  C   UNL A   1      39.709  29.142  29.679  1.00  0.00     0.049 A 
ATOM     39  H   UNL A   1      41.605  28.972  28.831  1.00  0.00     0.167 HD
ATOM     40  C   UNL A   1      45.650  28.369  27.270  1.00  0.00     0.034 A 
ATOM     41  C   UNL A   1      39.649  30.342  30.291  1.00  0.00     0.034 A 
ATOM     42  C   UNL A   1      45.673  29.675  27.871  1.00  0.00     0.049 A 
ATOM     43  C   UNL A   1      40.860  31.233  30.276  1.00  0.00     0.074 A 
ATOM     44  C   UNL A   1      46.721  30.577  27.931  1.00  0.00     0.029 A 
ATOM     45  N   UNL A   1      44.591  30.275  28.496  1.00  0.00    -0.354 N 
ATOM     46  N   UNL A   1      42.023  31.036  29.701  1.00  0.00    -0.248 NA
ATOM     47  C   UNL A   1      40.750  32.516  30.986  1.00  0.00     0.031 C 
ATOM     48  C   UNL A   1      46.267  31.728  28.586  1.00  0.00     0.029 A 
ATOM     49  C   UNL A   1      44.940  31.540  28.935  1.00  0.00     0.049 A 
ATOM     50  H   UNL A   1      43.705  29.863  28.610  1.00  0.00     0.167 HD
ATOM     51  C   UNL A   1      42.776  32.174  29.965  1.00  0.00     0.074 A 
ATOM     52  C   UNL A   1      41.927  33.070  30.724  1.00  0.00     0.031 C 
ATOM     53  C   UNL A   1      44.063  32.442  29.634  1.00  0.00     0.034 A 
BRANCH  40  54
ATOM     54  C   UNL A   1      46.909  27.862  26.623  1.00  0.00     0.023 A 
ATOM     55  C   UNL A   1      47.890  27.226  27.409  1.00  0.00     0.012 A 
ATOM     56  C   UNL A   1      47.102  27.974  25.232  1.00  0.00     0.148 A 
ATOM     57  C   UNL A   1      49.055  26.730  26.823  1.00  0.00     0.002 A 
ATOM     58  C   UNL A   1      48.250  27.447  24.650  1.00  0.00     0.091 A 
ATOM     59  F   UNL A   1      46.173  28.611  24.504  1.00  0.00    -0.205 F 
ATOM     60  C   UNL A   1      49.230  26.831  25.445  1.00  0.00     0.022 A 
BRANCH  58  61
ATOM     61  S   UNL A   1      48.515  27.475  22.874  1.00  0.00     0.127 S 
ATOM     62  O   UNL A   1      48.460  26.053  22.541  1.00  0.00    -0.237 OA
ATOM     63  O   UNL A   1      47.374  28.256  22.395  1.00  0.00    -0.237 OA
ATOM     64  O   UNL A   1      49.805  28.123  22.683  1.00  0.00    -0.744 OA
ENDBRANCH  58  61
ENDBRANCH  40  54
BRANCH  41  65
ATOM     65  C   UNL A   1      38.372  30.790  30.918  1.00  0.00     0.023 A 
ATOM     66  C   UNL A   1      38.183  30.595  32.299  1.00  0.00     0.012 A 
ATOM     67  C   UNL A   1      37.375  31.451  30.176  1.00  0.00     0.148 A 
ATOM     68  C   UNL A   1      37.019  31.040  32.928  1.00  0.00     0.002 A 
ATOM     69  C   UNL A   1      36.243  31.943  30.820  1.00  0.00     0.091 A 
ATOM     70  F   UNL A   1      37.553  31.601  28.855  1.00  0.00    -0.205 F 
ATOM     71  C   UNL A   1      36.058  31.727  32.193  1.00  0.00     0.022 A 
BRANCH  69  72
ATOM     72  S   UNL A   1      35.044  32.969  29.960  1.00  0.00     0.127 S 
ATOM     73  O   UNL A   1      34.461  32.023  29.015  1.00  0.00    -0.237 OA
ATOM     74  O   UNL A   1      34.153  33.384  31.045  1.00  0.00    -0.237 OA
ATOM     75  O   UNL A   1      35.822  34.059  29.385  1.00  0.00    -0.744 OA
ENDBRANCH  69  72
ENDBRANCH  41  65
BRANCH  53  76
ATOM     76  C   UNL A   1      44.632  33.761  30.078  1.00  0.00     0.023 A 
ATOM     77  C   UNL A   1      45.342  33.830  31.293  1.00  0.00     0.012 A 
ATOM     78  C   UNL A   1      44.527  34.908  29.271  1.00  0.00     0.148 A 
ATOM     79  C   UNL A   1      45.920  35.028  31.708  1.00  0.00     0.002 A 
ATOM     80  C   UNL A   1      45.136  36.091  29.674  1.00  0.00     0.091 A 
ATOM     81  F   UNL A   1      43.825  34.831  28.129  1.00  0.00    -0.205 F 
ATOM     82  C   UNL A   1      45.828  36.155  30.895  1.00  0.00     0.022 A 
BRANCH  80  83
ATOM     83  S   UNL A   1      45.119  37.556  28.635  1.00  0.00     0.127 S 
ATOM     84  O   UNL A   1      45.773  37.074  27.421  1.00  0.00    -0.237 OA
ATOM     85  O   UNL A   1      43.689  37.832  28.487  1.00  0.00    -0.237 OA
ATOM     86  O   UNL A   1      45.845  38.571  29.389  1.00  0.00    -0.744 OA
ENDBRANCH  80  83
ENDBRANCH  53  76
ENDBRANCH  27  28
ENDBRANCH  20  22
ENDBRANCH  19  20
ENDBRANCH   1  19
TORSDOF 17
ENDMDL
MODEL 2
REMARK VINA RESULT:     -10.9      5.490      7.666
REMARK SMILES CC[C@](C)(Nc1cccc(Br)c1)C(=O)OCCOC(=O)c1ccc(-c2c3nc(c(-c4cccc(S(=O)(=O)[O-])c4F)c4ccc([nH]4)c(-c4cccc(S(=O)(=O)[O-])c4F)c4nc(c(-c5cccc(S(=O)(=O)[O-])c5F)c5ccc2[nH]5)C=C4)C=C3)cc1
REMARK SMILES IDX 17 1 16 2 15 3 13 4 14 5 3 6 4 7 2 8 1 9 5 10 6 12 7 13
REMARK SMILES IDX 12 14 8 15 10 16 9 17 11 18 18 19 19 20 20 21 21 22 22 23
REMARK SMILES IDX 83 24 23 25 82 26 24 27 25 28 26 29 76 30 27 31 81 32 75 33
REMARK SMILES IDX 77 34 28 35 80 36 74 37 73 38 29 40 61 41 41 42 60 43 42 44
REMARK SMILES IDX 45 45 59 46 78 47 43 48 44 49 58 51 79 52 46 53 30 54 31 55
REMARK SMILES IDX 39 56 32 57 34 58 40 59 33 60 35 61 36 62 37 63 38 64 62 65
REMARK SMILES IDX 63 66 71 67 64 68 66 69 72 70 65 71 67 72 68 73 69 74 70 75
REMARK SMILES IDX 47 76 48 77 56 78 49 79 51 80 57 81 50 82 52 83 53 84 54 85
REMARK SMILES IDX 55 86
REMARK H PARENT 5 11 77 39 45 50
REMARK Flexibility Score: inf
ROOT
ATOM      1  C   UNL A   1      31.375  30.303  25.780  1.00  0.00     0.275 C 
ENDROOT
BRANCH   1   2
ATOM      2  C   UNL A   1      31.182  29.594  24.441  1.00  0.00     0.274 C 
BRANCH   2   3
ATOM      3  O   UNL A   1      31.057  28.171  24.631  1.00  0.00    -0.460 OA
BRANCH   3   4
ATOM      4  C   UNL A   1      31.789  27.375  23.808  1.00  0.00     0.331 C 
ATOM      5  O   UNL A   1      32.318  27.787  22.779  1.00  0.00    -0.249 OA
BRANCH   4   6
ATOM      6  C   UNL A   1      31.839  25.878  24.234  1.00  0.00     0.132 C 
ATOM      7  C   UNL A   1      30.407  25.322  24.318  1.00  0.00     0.047 C 
BRANCH   6   8
ATOM      8  C   UNL A   1      32.535  25.836  25.628  1.00  0.00     0.037 C 
ATOM      9  C   UNL A   1      33.787  26.694  25.791  1.00  0.00     0.007 C 
ENDBRANCH   6   8
BRANCH   6  10
ATOM     10  N   UNL A   1      32.639  24.963  23.367  1.00  0.00    -0.370 N 
ATOM     11  H   UNL A   1      32.783  25.232  22.429  1.00  0.00     0.161 HD
BRANCH  10  12
ATOM     12  C   UNL A   1      33.194  23.764  23.783  1.00  0.00     0.036 A 
ATOM     13  C   UNL A   1      32.354  22.661  23.978  1.00  0.00     0.026 A 
ATOM     14  C   UNL A   1      34.574  23.573  23.888  1.00  0.00     0.041 A 
ATOM     15  C   UNL A   1      32.861  21.415  24.350  1.00  0.00     0.003 A 
ATOM     16  C   UNL A   1      35.085  22.322  24.245  1.00  0.00     0.020 A 
ATOM     17  C   UNL A   1      34.234  21.245  24.488  1.00  0.00     0.016 A 
ATOM     18  Br  UNL A   1      36.956  22.074  24.370  1.00  0.00    -0.051 Br
ENDBRANCH  10  12
ENDBRANCH   6  10
ENDBRANCH   4   6
ENDBRANCH   3   4
ENDBRANCH   2   3
ENDBRANCH   1   2
BRANCH   1  19
ATOM     19  O   UNL A   1      32.780  30.386  26.068  1.00  0.00    -0.458 OA
BRANCH  19  20
ATOM     20  C   UNL A   1      33.149  31.361  26.929  1.00  0.00     0.338 C 
ATOM     21  O   UNL A   1      32.533  32.376  27.197  1.00  0.00    -0.246 OA
BRANCH  20  22
ATOM     22  C   UNL A   1      34.470  31.028  27.503  1.00  0.00     0.060 A 
ATOM     23  C   UNL A   1      34.835  29.700  27.730  1.00  0.00     0.016 A 
ATOM     24  C   UNL A   1      35.321  32.060  27.894  1.00  0.00     0.016 A 
ATOM     25  C   UNL A   1      36.005  29.401  28.425  1.00  0.00     0.010 A 
ATOM     26  C   UNL A   1      36.536  31.756  28.516  1.00  0.00     0.010 A 
ATOM     27  C   UNL A   1      36.869  30.426  28.831  1.00  0.00    -0.014 A 
BRANCH  27  28
ATOM     28  C   UNL A   1      38.078  30.122  29.644  1.00  0.00     0.031 A 
ATOM     29  C   UNL A   1      39.168  29.259  29.063  1.00  0.00     0.074 A 
ATOM     30  C   UNL A   1      38.207  30.609  30.893  1.00  0.00     0.049 A 
ATOM     31  N   UNL A   1      40.229  28.763  29.646  1.00  0.00    -0.248 NA
ATOM     32  C   UNL A   1      39.038  28.887  27.643  1.00  0.00     0.031 C 
ATOM     33  C   UNL A   1      37.234  31.466  31.573  1.00  0.00     0.029 A 
ATOM     34  N   UNL A   1      39.210  30.449  31.819  1.00  0.00    -0.354 N 
ATOM     35  C   UNL A   1      40.842  27.956  28.694  1.00  0.00     0.074 A 
ATOM     36  C   UNL A   1      40.046  28.040  27.490  1.00  0.00     0.031 C 
ATOM     37  C   UNL A   1      37.698  31.778  32.792  1.00  0.00     0.029 A 
ATOM     38  C   UNL A   1      38.972  31.099  33.008  1.00  0.00     0.049 A 
ATOM     39  H   UNL A   1      40.021  29.919  31.647  1.00  0.00     0.167 HD
ATOM     40  C   UNL A   1      41.973  27.219  28.808  1.00  0.00     0.034 A 
ATOM     41  C   UNL A   1      39.691  31.131  34.149  1.00  0.00     0.034 A 
ATOM     42  C   UNL A   1      42.819  27.213  29.970  1.00  0.00     0.049 A 
ATOM     43  C   UNL A   1      40.976  30.354  34.226  1.00  0.00     0.074 A 
ATOM     44  C   UNL A   1      44.011  26.537  30.165  1.00  0.00     0.029 A 
ATOM     45  N   UNL A   1      42.576  27.939  31.126  1.00  0.00    -0.354 N 
ATOM     46  N   UNL A   1      41.564  29.636  33.299  1.00  0.00    -0.248 NA
ATOM     47  C   UNL A   1      41.704  30.399  35.503  1.00  0.00     0.031 C 
ATOM     48  C   UNL A   1      44.493  26.861  31.438  1.00  0.00     0.029 A 
ATOM     49  C   UNL A   1      43.600  27.736  32.036  1.00  0.00     0.049 A 
ATOM     50  H   UNL A   1      41.791  28.512  31.279  1.00  0.00     0.167 HD
ATOM     51  C   UNL A   1      42.736  29.158  33.873  1.00  0.00     0.074 A 
ATOM     52  C   UNL A   1      42.790  29.693  35.219  1.00  0.00     0.031 C 
ATOM     53  C   UNL A   1      43.668  28.327  33.346  1.00  0.00     0.034 A 
BRANCH  40  54
ATOM     54  C   UNL A   1      42.381  26.382  27.627  1.00  0.00     0.023 A 
ATOM     55  C   UNL A   1      43.211  26.936  26.632  1.00  0.00     0.012 A 
ATOM     56  C   UNL A   1      41.982  25.035  27.525  1.00  0.00     0.148 A 
ATOM     57  C   UNL A   1      43.616  26.168  25.540  1.00  0.00     0.002 A 
ATOM     58  C   UNL A   1      42.419  24.266  26.452  1.00  0.00     0.091 A 
ATOM     59  F   UNL A   1      41.166  24.533  28.464  1.00  0.00    -0.205 F 
ATOM     60  C   UNL A   1      43.230  24.832  25.455  1.00  0.00     0.022 A 
BRANCH  58  61
ATOM     61  S   UNL A   1      42.021  22.520  26.309  1.00  0.00     0.127 S 
ATOM     62  O   UNL A   1      42.713  22.155  25.074  1.00  0.00    -0.237 OA
ATOM     63  O   UNL A   1      42.611  21.959  27.525  1.00  0.00    -0.237 OA
ATOM     64  O   UNL A   1      40.566  22.454  26.266  1.00  0.00    -0.744 OA
ENDBRANCH  58  61
ENDBRANCH  40  54
BRANCH  41  65
ATOM     65  C   UNL A   1      39.233  31.978  35.287  1.00  0.00     0.023 A 
ATOM     66  C   UNL A   1      38.383  31.418  36.259  1.00  0.00     0.012 A 
ATOM     67  C   UNL A   1      39.673  33.306  35.446  1.00  0.00     0.148 A 
ATOM     68  C   UNL A   1      37.969  32.167  37.361  1.00  0.00     0.002 A 
ATOM     69  C   UNL A   1      39.305  34.028  36.576  1.00  0.00     0.091 A 
ATOM     70  F   UNL A   1      40.457  33.839  34.496  1.00  0.00    -0.205 F 
ATOM     71  C   UNL A   1      38.442  33.465  37.528  1.00  0.00     0.022 A 
BRANCH  69  72
ATOM     72  S   UNL A   1      40.002  35.647  36.927  1.00  0.00     0.127 S 
ATOM     73  O   UNL A   1      39.387  35.968  38.211  1.00  0.00    -0.237 OA
ATOM     74  O   UNL A   1      41.437  35.364  36.986  1.00  0.00    -0.237 OA
ATOM     75  O   UNL A   1      39.609  36.480  35.798  1.00  0.00    -0.744 OA
ENDBRANCH  69  72
ENDBRANCH  41  65
BRANCH  53  76
ATOM     76  C   UNL A   1      44.835  27.953  34.218  1.00  0.00     0.023 A 
ATOM     77  C   UNL A   1      45.990  28.759  34.205  1.00  0.00     0.012 A 
ATOM     78  C   UNL A   1      44.765  26.855  35.094  1.00  0.00     0.148 A 
ATOM     79  C   UNL A   1      47.068  28.463  35.036  1.00  0.00     0.002 A 
ATOM     80  C   UNL A   1      45.831  26.586  35.946  1.00  0.00     0.091 A 
ATOM     81  F   UNL A   1      43.668  26.083  35.075  1.00  0.00    -0.205 F 
ATOM     82  C   UNL A   1      46.986  27.385  35.914  1.00  0.00     0.022 A 
BRANCH  80  83
ATOM     83  S   UNL A   1      45.754  25.259  37.154  1.00  0.00     0.127 S 
ATOM     84  O   UNL A   1      47.023  25.418  37.860  1.00  0.00    -0.237 OA
ATOM     85  O   UNL A   1      44.571  25.608  37.943  1.00  0.00    -0.237 OA
ATOM     86  O   UNL A   1      45.608  24.037  36.374  1.00  0.00    -0.744 OA
ENDBRANCH  80  83
ENDBRANCH  53  76
ENDBRANCH  27  28
ENDBRANCH  20  22
ENDBRANCH  19  20
ENDBRANCH   1  19
TORSDOF 17
ENDMDL
MODEL 3
REMARK VINA RESULT:     -10.8      1.916      2.764
REMARK SMILES CC[C@](C)(Nc1cccc(Br)c1)C(=O)OCCOC(=O)c1ccc(-c2c3nc(c(-c4cccc(S(=O)(=O)[O-])c4F)c4ccc([nH]4)c(-c4cccc(S(=O)(=O)[O-])c4F)c4nc(c(-c5cccc(S(=O)(=O)[O-])c5F)c5ccc2[nH]5)C=C4)C=C3)cc1
REMARK SMILES IDX 17 1 16 2 15 3 13 4 14 5 3 6 4 7 2 8 1 9 5 10 6 12 7 13
REMARK SMILES IDX 12 14 8 15 10 16 9 17 11 18 18 19 19 20 20 21 21 22 22 23
REMARK SMILES IDX 83 24 23 25 82 26 24 27 25 28 26 29 76 30 27 31 81 32 75 33
REMARK SMILES IDX 77 34 28 35 80 36 74 37 73 38 29 40 61 41 41 42 60 43 42 44
REMARK SMILES IDX 45 45 59 46 78 47 43 48 44 49 58 51 79 52 46 53 30 54 31 55
REMARK SMILES IDX 39 56 32 57 34 58 40 59 33 60 35 61 36 62 37 63 38 64 62 65
REMARK SMILES IDX 63 66 71 67 64 68 66 69 72 70 65 71 67 72 68 73 69 74 70 75
REMARK SMILES IDX 47 76 48 77 56 78 49 79 51 80 57 81 50 82 52 83 53 84 54 85
REMARK SMILES IDX 55 86
REMARK H PARENT 5 11 77 39 45 50
REMARK Flexibility Score: inf
ROOT
ATOM      1  C   UNL A   1      37.314  19.966  25.070  1.00  0.00     0.275 C 
ENDROOT
BRANCH   1   2
ATOM      2  C   UNL A   1      35.856  20.390  24.900  1.00  0.00     0.274 C 
BRANCH   2   3
ATOM      3  O   UNL A   1      35.767  21.793  24.582  1.00  0.00    -0.460 OA
BRANCH   3   4
ATOM      4  C   UNL A   1      34.519  22.322  24.483  1.00  0.00     0.331 C 
ATOM      5  O   UNL A   1      33.709  21.966  23.631  1.00  0.00    -0.249 OA
BRANCH   4   6
ATOM      6  C   UNL A   1      34.224  23.473  25.489  1.00  0.00     0.132 C 
ATOM      7  C   UNL A   1      34.985  24.738  25.057  1.00  0.00     0.047 C 
BRANCH   6   8
ATOM      8  C   UNL A   1      34.712  22.979  26.885  1.00  0.00     0.037 C 
ATOM      9  C   UNL A   1      33.687  22.245  27.744  1.00  0.00     0.007 C 
ENDBRANCH   6   8
BRANCH   6  10
ATOM     10  N   UNL A   1      32.789  23.840  25.682  1.00  0.00    -0.370 N 
ATOM     11  H   UNL A   1      32.185  23.149  26.039  1.00  0.00     0.161 HD
BRANCH  10  12
ATOM     12  C   UNL A   1      32.246  25.081  25.393  1.00  0.00     0.036 A 
ATOM     13  C   UNL A   1      31.461  25.226  24.243  1.00  0.00     0.026 A 
ATOM     14  C   UNL A   1      32.338  26.163  26.273  1.00  0.00     0.041 A 
ATOM     15  C   UNL A   1      30.848  26.439  23.927  1.00  0.00     0.003 A 
ATOM     16  C   UNL A   1      31.712  27.374  25.965  1.00  0.00     0.020 A 
ATOM     17  C   UNL A   1      30.977  27.521  24.791  1.00  0.00     0.016 A 
ATOM     18  Br  UNL A   1      31.835  28.825  27.173  1.00  0.00    -0.051 Br
ENDBRANCH  10  12
ENDBRANCH   6  10
ENDBRANCH   4   6
ENDBRANCH   3   4
ENDBRANCH   2   3
ENDBRANCH   1   2
BRANCH   1  19
ATOM     19  O   UNL A   1      38.124  21.138  25.258  1.00  0.00    -0.458 OA
BRANCH  19  20
ATOM     20  C   UNL A   1      39.229  20.975  26.018  1.00  0.00     0.338 C 
ATOM     21  O   UNL A   1      39.805  19.930  26.263  1.00  0.00    -0.246 OA
BRANCH  20  22
ATOM     22  C   UNL A   1      39.644  22.286  26.559  1.00  0.00     0.060 A 
ATOM     23  C   UNL A   1      38.981  23.455  26.185  1.00  0.00     0.016 A 
ATOM     24  C   UNL A   1      40.764  22.356  27.388  1.00  0.00     0.016 A 
ATOM     25  C   UNL A   1      39.480  24.700  26.562  1.00  0.00     0.010 A 
ATOM     26  C   UNL A   1      41.215  23.602  27.835  1.00  0.00     0.010 A 
ATOM     27  C   UNL A   1      40.608  24.790  27.389  1.00  0.00    -0.014 A 
BRANCH  27  28
ATOM     28  C   UNL A   1      41.195  26.114  27.729  1.00  0.00     0.031 A 
ATOM     29  C   UNL A   1      42.586  26.455  27.258  1.00  0.00     0.074 A 
ATOM     30  C   UNL A   1      40.499  27.009  28.456  1.00  0.00     0.049 A 
ATOM     31  N   UNL A   1      43.331  27.487  27.559  1.00  0.00    -0.248 NA
ATOM     32  C   UNL A   1      43.232  25.499  26.342  1.00  0.00     0.031 C 
ATOM     33  C   UNL A   1      39.141  26.813  28.966  1.00  0.00     0.029 A 
ATOM     34  N   UNL A   1      40.839  28.265  28.897  1.00  0.00    -0.354 N 
ATOM     35  C   UNL A   1      44.557  27.263  26.942  1.00  0.00     0.074 A 
ATOM     36  C   UNL A   1      44.452  26.005  26.236  1.00  0.00     0.031 C 
ATOM     37  C   UNL A   1      38.754  27.916  29.624  1.00  0.00     0.029 A 
ATOM     38  C   UNL A   1      39.853  28.876  29.636  1.00  0.00     0.049 A 
ATOM     39  H   UNL A   1      41.707  28.687  28.702  1.00  0.00     0.167 HD
ATOM     40  C   UNL A   1      45.667  28.038  26.953  1.00  0.00     0.034 A 
ATOM     41  C   UNL A   1      39.841  30.069  30.266  1.00  0.00     0.034 A 
ATOM     42  C   UNL A   1      45.739  29.335  27.571  1.00  0.00     0.049 A 
ATOM     43  C   UNL A   1      41.066  30.939  30.209  1.00  0.00     0.074 A 
ATOM     44  C   UNL A   1      46.804  30.218  27.596  1.00  0.00     0.029 A 
ATOM     45  N   UNL A   1      44.696  29.944  28.251  1.00  0.00    -0.354 N 
ATOM     46  N   UNL A   1      42.198  30.731  29.580  1.00  0.00    -0.248 NA
ATOM     47  C   UNL A   1      41.010  32.214  30.939  1.00  0.00     0.031 C 
ATOM     48  C   UNL A   1      46.400  31.368  28.284  1.00  0.00     0.029 A 
ATOM     49  C   UNL A   1      45.087  31.197  28.691  1.00  0.00     0.049 A 
ATOM     50  H   UNL A   1      43.809  29.545  28.399  1.00  0.00     0.167 HD
ATOM     51  C   UNL A   1      42.981  31.853  29.824  1.00  0.00     0.074 A 
ATOM     52  C   UNL A   1      42.183  32.752  30.633  1.00  0.00     0.031 C 
ATOM     53  C   UNL A   1      44.257  32.103  29.439  1.00  0.00     0.034 A 
BRANCH  40  54
ATOM     54  C   UNL A   1      46.887  27.519  26.244  1.00  0.00     0.023 A 
ATOM     55  C   UNL A   1      47.775  26.660  26.922  1.00  0.00     0.012 A 
ATOM     56  C   UNL A   1      47.131  27.844  24.895  1.00  0.00     0.148 A 
ATOM     57  C   UNL A   1      48.901  26.152  26.273  1.00  0.00     0.002 A 
ATOM     58  C   UNL A   1      48.237  27.306  24.246  1.00  0.00     0.091 A 
ATOM     59  F   UNL A   1      46.293  28.689  24.277  1.00  0.00    -0.205 F 
ATOM     60  C   UNL A   1      49.126  26.466  24.935  1.00  0.00     0.022 A 
BRANCH  58  61
ATOM     61  S   UNL A   1      48.556  27.607  22.504  1.00  0.00     0.127 S 
ATOM     62  O   UNL A   1      48.684  26.247  21.984  1.00  0.00    -0.237 OA
ATOM     63  O   UNL A   1      47.346  28.310  22.076  1.00  0.00    -0.237 OA
ATOM     64  O   UNL A   1      49.765  28.420  22.464  1.00  0.00    -0.744 OA
ENDBRANCH  58  61
ENDBRANCH  40  54
BRANCH  41  65
ATOM     65  C   UNL A   1      38.602  30.529  30.955  1.00  0.00     0.023 A 
ATOM     66  C   UNL A   1      38.486  30.352  32.347  1.00  0.00     0.012 A 
ATOM     67  C   UNL A   1      37.568  31.184  30.260  1.00  0.00     0.148 A 
ATOM     68  C   UNL A   1      37.360  30.808  33.033  1.00  0.00     0.002 A 
ATOM     69  C   UNL A   1      36.474  31.689  30.958  1.00  0.00     0.091 A 
ATOM     70  F   UNL A   1      37.674  31.317  28.930  1.00  0.00    -0.205 F 
ATOM     71  C   UNL A   1      36.362  31.490  32.341  1.00  0.00     0.022 A 
BRANCH  69  72
ATOM     72  S   UNL A   1      35.233  32.708  30.152  1.00  0.00     0.127 S 
ATOM     73  O   UNL A   1      34.686  31.788  29.159  1.00  0.00    -0.237 OA
ATOM     74  O   UNL A   1      34.329  33.032  31.255  1.00  0.00    -0.237 OA
ATOM     75  O   UNL A   1      35.966  33.856  29.632  1.00  0.00    -0.744 OA
ENDBRANCH  69  72
ENDBRANCH  41  65
BRANCH  53  76
ATOM     76  C   UNL A   1      44.868  33.406  29.876  1.00  0.00     0.023 A 
ATOM     77  C   UNL A   1      45.651  33.442  31.046  1.00  0.00     0.012 A 
ATOM     78  C   UNL A   1      44.728  34.571  29.099  1.00  0.00     0.148 A 
ATOM     79  C   UNL A   1      46.268  34.624  31.449  1.00  0.00     0.002 A 
ATOM     80  C   UNL A   1      45.375  35.739  29.489  1.00  0.00     0.091 A 
ATOM     81  F   UNL A   1      43.958  34.526  28.002  1.00  0.00    -0.205 F 
ATOM     82  C   UNL A   1      46.140  35.770  30.667  1.00  0.00     0.022 A 
BRANCH  80  83
ATOM     83  S   UNL A   1      45.313  37.226  28.483  1.00  0.00     0.127 S 
ATOM     84  O   UNL A   1      46.050  38.181  29.307  1.00  0.00    -0.237 OA
ATOM     85  O   UNL A   1      46.006  36.817  27.259  1.00  0.00    -0.237 OA
ATOM     86  O   UNL A   1      43.895  37.506  28.297  1.00  0.00    -0.744 OA
ENDBRANCH  80  83
ENDBRANCH  53  76
ENDBRANCH  27  28
ENDBRANCH  20  22
ENDBRANCH  19  20
ENDBRANCH   1  19
TORSDOF 17
ENDMDL
