MODEL 1
REMARK VINA RESULT:     -12.3      0.000      0.000
REMARK SMILES CC(C)[C@@H](NC(=O)/C(=C\c1ccccc1F)NC(=O)c1ccccc1)C(=O)OCCOC(=O)c1ccc(-c2c3nc(c(-c4cccc(S(=O)(=O)[O-])c4F)c4ccc([nH]4)c(-c4cccc(S(=O)(=O)[O-])c4F)c4nc(c(-c5cccc(S(=O)(=O)[O-])c5F)c5ccc2[nH]5)C=C4)C=C3)cc1
REMARK SMILES IDX 29 1 28 2 26 3 27 4 4 5 2 6 1 7 3 8 5 9 6 10 7 12 8 13 9 14
REMARK SMILES IDX 17 15 18 16 19 18 20 19 21 20 25 21 22 22 24 23 23 24 10 25
REMARK SMILES IDX 11 26 15 27 12 28 14 29 16 30 13 31 30 32 31 33 32 34 33 35
REMARK SMILES IDX 34 36 35 37 96 38 36 39 95 40 37 41 38 42 39 43 89 44 40 45
REMARK SMILES IDX 94 46 88 47 90 48 41 49 93 50 87 51 86 52 42 54 74 55 54 56
REMARK SMILES IDX 73 57 55 58 58 59 72 60 91 61 56 62 57 63 71 65 92 66 59 67
REMARK SMILES IDX 43 68 44 69 52 70 45 71 47 72 53 73 46 74 48 75 49 76 50 77
REMARK SMILES IDX 51 78 75 79 76 80 84 81 77 82 79 83 85 84 78 85 80 86 81 87
REMARK SMILES IDX 82 88 83 89 60 90 61 91 69 92 62 93 64 94 70 95 63 96 65 97
REMARK SMILES IDX 66 98 67 99 68 100
REMARK H PARENT 5 11 17 17 90 53 58 64
REMARK Flexibility Score: inf
ROOT
ATOM      1  C   UNL A   1      35.084  21.831  25.803  1.00  0.00     0.274 C 
ENDROOT
BRANCH   1   2
ATOM      2  O   UNL A   1      34.421  22.731  24.891  1.00  0.00    -0.461 OA
BRANCH   2   3
ATOM      3  C   UNL A   1      34.220  24.019  25.319  1.00  0.00     0.329 C 
ATOM      4  O   UNL A   1      35.095  24.759  25.745  1.00  0.00    -0.250 OA
BRANCH   3   5
ATOM      5  C   UNL A   1      32.738  24.412  25.097  1.00  0.00     0.195 C 
BRANCH   5   6
ATOM      6  C   UNL A   1      31.749  23.231  25.018  1.00  0.00     0.017 C 
ATOM      7  C   UNL A   1      30.834  23.205  26.260  1.00  0.00     0.010 C 
ATOM      8  C   UNL A   1      30.847  23.360  23.782  1.00  0.00     0.010 C 
ENDBRANCH   5   6
BRANCH   5   9
ATOM      9  N   UNL A   1      32.273  25.475  25.993  1.00  0.00    -0.337 N 
ATOM     10  C   UNL A   1      31.815  26.715  25.629  1.00  0.00     0.268 C 
ATOM     11  H   UNL A   1      32.292  25.279  26.957  1.00  0.00     0.164 HD
ATOM     12  O   UNL A   1      31.032  27.322  26.352  1.00  0.00    -0.268 OA
BRANCH  10  13
ATOM     13  C   UNL A   1      32.383  27.337  24.396  1.00  0.00     0.107 C 
ATOM     14  C   UNL A   1      33.194  28.411  24.498  1.00  0.00     0.043 C 
BRANCH  13  15
ATOM     15  N   UNL A   1      32.029  26.867  23.138  1.00  0.00    -0.317 N 
ATOM     16  C   UNL A   1      31.057  27.231  22.226  1.00  0.00     0.255 C 
ATOM     17  H   UNL A   1      32.587  26.116  22.833  1.00  0.00     0.170 HD
ATOM     18  O   UNL A   1      31.021  26.684  21.123  1.00  0.00    -0.269 OA
BRANCH  16  19
ATOM     19  C   UNL A   1      29.992  28.189  22.555  1.00  0.00     0.040 A 
ATOM     20  C   UNL A   1      30.218  29.546  22.299  1.00  0.00     0.014 A 
ATOM     21  C   UNL A   1      28.790  27.763  23.125  1.00  0.00     0.014 A 
ATOM     22  C   UNL A   1      29.196  30.468  22.525  1.00  0.00     0.001 A 
ATOM     23  C   UNL A   1      27.761  28.686  23.321  1.00  0.00     0.001 A 
ATOM     24  C   UNL A   1      27.961  30.033  23.008  1.00  0.00     0.000 A 
ENDBRANCH  16  19
ENDBRANCH  13  15
BRANCH  14  25
ATOM     25  C   UNL A   1      33.586  29.130  25.729  1.00  0.00     0.012 A 
ATOM     26  C   UNL A   1      34.708  28.677  26.449  1.00  0.00     0.011 A 
ATOM     27  C   UNL A   1      32.918  30.248  26.218  1.00  0.00     0.130 A 
ATOM     28  C   UNL A   1      35.175  29.333  27.587  1.00  0.00     0.001 A 
ATOM     29  C   UNL A   1      33.366  30.906  27.366  1.00  0.00     0.040 A 
ATOM     30  F   UNL A   1      31.822  30.704  25.597  1.00  0.00    -0.206 F 
ATOM     31  C   UNL A   1      34.500  30.454  28.047  1.00  0.00     0.003 A 
ENDBRANCH  14  25
ENDBRANCH  10  13
ENDBRANCH   5   9
ENDBRANCH   3   5
ENDBRANCH   2   3
ENDBRANCH   1   2
BRANCH   1  32
ATOM     32  C   UNL A   1      35.986  20.845  25.030  1.00  0.00     0.275 C 
BRANCH  32  33
ATOM     33  O   UNL A   1      37.248  21.440  24.636  1.00  0.00    -0.458 OA
BRANCH  33  34
ATOM     34  C   UNL A   1      38.312  21.068  25.417  1.00  0.00     0.338 C 
ATOM     35  O   UNL A   1      38.841  19.967  25.387  1.00  0.00    -0.246 OA
BRANCH  34  36
ATOM     36  C   UNL A   1      38.881  22.223  26.187  1.00  0.00     0.060 A 
ATOM     37  C   UNL A   1      38.421  23.523  26.019  1.00  0.00     0.016 A 
ATOM     38  C   UNL A   1      39.985  22.030  27.023  1.00  0.00     0.016 A 
ATOM     39  C   UNL A   1      39.174  24.618  26.478  1.00  0.00     0.010 A 
ATOM     40  C   UNL A   1      40.658  23.130  27.597  1.00  0.00     0.010 A 
ATOM     41  C   UNL A   1      40.312  24.456  27.280  1.00  0.00    -0.014 A 
BRANCH  41  42
ATOM     42  C   UNL A   1      41.145  25.623  27.765  1.00  0.00     0.031 A 
ATOM     43  C   UNL A   1      40.536  26.691  28.661  1.00  0.00     0.074 A 
ATOM     44  C   UNL A   1      42.443  25.789  27.417  1.00  0.00     0.049 A 
ATOM     45  N   UNL A   1      40.958  27.908  28.912  1.00  0.00    -0.248 NA
ATOM     46  C   UNL A   1      39.282  26.352  29.354  1.00  0.00     0.031 C 
ATOM     47  C   UNL A   1      43.242  24.861  26.620  1.00  0.00     0.029 A 
ATOM     48  N   UNL A   1      43.322  26.824  27.680  1.00  0.00    -0.354 N 
ATOM     49  C   UNL A   1      39.971  28.511  29.687  1.00  0.00     0.074 A 
ATOM     50  C   UNL A   1      38.943  27.514  29.898  1.00  0.00     0.031 C 
ATOM     51  C   UNL A   1      44.487  25.340  26.488  1.00  0.00     0.029 A 
ATOM     52  C   UNL A   1      44.549  26.675  27.069  1.00  0.00     0.049 A 
ATOM     53  H   UNL A   1      43.093  27.594  28.249  1.00  0.00     0.167 HD
ATOM     54  C   UNL A   1      39.920  29.774  30.181  1.00  0.00     0.034 A 
ATOM     55  C   UNL A   1      45.589  27.521  26.909  1.00  0.00     0.034 A 
ATOM     56  C   UNL A   1      40.991  30.734  30.094  1.00  0.00     0.049 A 
ATOM     57  C   UNL A   1      45.516  28.920  27.450  1.00  0.00     0.074 A 
ATOM     58  C   UNL A   1      41.036  32.016  30.619  1.00  0.00     0.029 A 
ATOM     59  N   UNL A   1      42.210  30.517  29.474  1.00  0.00    -0.354 N 
ATOM     60  N   UNL A   1      44.563  29.480  28.151  1.00  0.00    -0.248 NA
ATOM     61  C   UNL A   1      46.655  29.809  27.172  1.00  0.00     0.031 C 
ATOM     62  C   UNL A   1      42.275  32.579  30.304  1.00  0.00     0.029 A 
ATOM     63  C   UNL A   1      43.010  31.641  29.601  1.00  0.00     0.049 A 
ATOM     64  H   UNL A   1      42.469  29.688  29.011  1.00  0.00     0.167 HD
ATOM     65  C   UNL A   1      44.990  30.780  28.407  1.00  0.00     0.074 A 
ATOM     66  C   UNL A   1      46.300  30.919  27.809  1.00  0.00     0.031 C 
ATOM     67  C   UNL A   1      44.336  31.771  29.058  1.00  0.00     0.034 A 
BRANCH  54  68
ATOM     68  C   UNL A   1      38.670  30.221  30.900  1.00  0.00     0.023 A 
ATOM     69  C   UNL A   1      38.411  29.772  32.209  1.00  0.00     0.012 A 
ATOM     70  C   UNL A   1      37.830  31.199  30.325  1.00  0.00     0.148 A 
ATOM     71  C   UNL A   1      37.325  30.275  32.927  1.00  0.00     0.002 A 
ATOM     72  C   UNL A   1      36.777  31.726  31.063  1.00  0.00     0.091 A 
ATOM     73  F   UNL A   1      38.088  31.607  29.074  1.00  0.00    -0.205 F 
ATOM     74  C   UNL A   1      36.517  31.260  32.361  1.00  0.00     0.022 A 
BRANCH  72  75
ATOM     75  S   UNL A   1      35.740  33.065  30.457  1.00  0.00     0.127 S 
ATOM     76  O   UNL A   1      34.401  32.524  30.682  1.00  0.00    -0.237 OA
ATOM     77  O   UNL A   1      36.109  34.168  31.346  1.00  0.00    -0.237 OA
ATOM     78  O   UNL A   1      36.110  33.260  29.062  1.00  0.00    -0.744 OA
ENDBRANCH  72  75
ENDBRANCH  54  68
BRANCH  55  79
ATOM     79  C   UNL A   1      46.798  27.054  26.165  1.00  0.00     0.023 A 
ATOM     80  C   UNL A   1      46.931  27.362  24.798  1.00  0.00     0.012 A 
ATOM     81  C   UNL A   1      47.852  26.391  26.824  1.00  0.00     0.148 A 
ATOM     82  C   UNL A   1      48.095  27.024  24.105  1.00  0.00     0.002 A 
ATOM     83  C   UNL A   1      49.038  26.127  26.149  1.00  0.00     0.091 A 
ATOM     84  F   UNL A   1      47.691  26.071  28.117  1.00  0.00    -0.205 F 
ATOM     85  C   UNL A   1      49.156  26.429  24.785  1.00  0.00     0.022 A 
BRANCH  83  86
ATOM     86  S   UNL A   1      50.509  25.540  26.996  1.00  0.00     0.127 S 
ATOM     87  O   UNL A   1      50.025  24.313  27.623  1.00  0.00    -0.237 OA
ATOM     88  O   UNL A   1      51.438  25.340  25.883  1.00  0.00    -0.237 OA
ATOM     89  O   UNL A   1      50.891  26.612  27.906  1.00  0.00    -0.744 OA
ENDBRANCH  83  86
ENDBRANCH  55  79
BRANCH  67  90
ATOM     90  C   UNL A   1      45.013  33.109  29.194  1.00  0.00     0.023 A 
ATOM     91  C   UNL A   1      45.961  33.304  30.217  1.00  0.00     0.012 A 
ATOM     92  C   UNL A   1      44.810  34.122  28.235  1.00  0.00     0.148 A 
ATOM     93  C   UNL A   1      46.690  34.491  30.291  1.00  0.00     0.002 A 
ATOM     94  C   UNL A   1      45.569  35.286  28.292  1.00  0.00     0.091 A 
ATOM     95  F   UNL A   1      43.895  33.919  27.277  1.00  0.00    -0.205 F 
ATOM     96  C   UNL A   1      46.504  35.475  29.322  1.00  0.00     0.022 A 
BRANCH  94  97
ATOM     97  S   UNL A   1      45.468  36.573  27.041  1.00  0.00     0.127 S 
ATOM     98  O   UNL A   1      46.133  37.691  27.709  1.00  0.00    -0.237 OA
ATOM     99  O   UNL A   1      46.224  35.987  25.934  1.00  0.00    -0.237 OA
ATOM    100  O   UNL A   1      44.049  36.767  26.773  1.00  0.00    -0.744 OA
ENDBRANCH  94  97
ENDBRANCH  67  90
ENDBRANCH  41  42
ENDBRANCH  34  36
ENDBRANCH  33  34
ENDBRANCH  32  33
ENDBRANCH   1  32
TORSDOF 20
ENDMDL
MODEL 2
REMARK VINA RESULT:     -12.0      4.608     10.000
REMARK SMILES CC(C)[C@@H](NC(=O)/C(=C\c1ccccc1F)NC(=O)c1ccccc1)C(=O)OCCOC(=O)c1ccc(-c2c3nc(c(-c4cccc(S(=O)(=O)[O-])c4F)c4ccc([nH]4)c(-c4cccc(S(=O)(=O)[O-])c4F)c4nc(c(-c5cccc(S(=O)(=O)[O-])c5F)c5ccc2[nH]5)C=C4)C=C3)cc1
REMARK SMILES IDX 29 1 28 2 26 3 27 4 4 5 2 6 1 7 3 8 5 9 6 10 7 12 8 13 9 14
REMARK SMILES IDX 17 15 18 16 19 18 20 19 21 20 25 21 22 22 24 23 23 24 10 25
REMARK SMILES IDX 11 26 15 27 12 28 14 29 16 30 13 31 30 32 31 33 32 34 33 35
REMARK SMILES IDX 34 36 35 37 96 38 36 39 95 40 37 41 38 42 39 43 89 44 40 45
REMARK SMILES IDX 94 46 88 47 90 48 41 49 93 50 87 51 86 52 42 54 74 55 54 56
REMARK SMILES IDX 73 57 55 58 58 59 72 60 91 61 56 62 57 63 71 65 92 66 59 67
REMARK SMILES IDX 43 68 44 69 52 70 45 71 47 72 53 73 46 74 48 75 49 76 50 77
REMARK SMILES IDX 51 78 75 79 76 80 84 81 77 82 79 83 85 84 78 85 80 86 81 87
REMARK SMILES IDX 82 88 83 89 60 90 61 91 69 92 62 93 64 94 70 95 63 96 65 97
REMARK SMILES IDX 66 98 67 99 68 100
REMARK H PARENT 5 11 17 17 90 53 58 64
REMARK Flexibility Score: inf
ROOT
ATOM      1  C   UNL A   1      31.417  28.602  24.305  1.00  0.00     0.274 C 
ENDROOT
BRANCH   1   2
ATOM      2  O   UNL A   1      32.369  27.612  24.748  1.00  0.00    -0.461 OA
BRANCH   2   3
ATOM      3  C   UNL A   1      33.212  27.089  23.801  1.00  0.00     0.329 C 
ATOM      4  O   UNL A   1      34.051  27.728  23.181  1.00  0.00    -0.250 OA
BRANCH   3   5
ATOM      5  C   UNL A   1      32.995  25.557  23.704  1.00  0.00     0.195 C 
BRANCH   5   6
ATOM      6  C   UNL A   1      31.791  25.117  22.846  1.00  0.00     0.017 C 
ATOM      7  C   UNL A   1      30.497  25.115  23.688  1.00  0.00     0.010 C 
ATOM      8  C   UNL A   1      31.577  26.085  21.674  1.00  0.00     0.010 C 
ENDBRANCH   5   6
BRANCH   5   9
ATOM      9  N   UNL A   1      34.216  24.811  23.385  1.00  0.00    -0.337 N 
ATOM     10  C   UNL A   1      34.523  23.533  23.776  1.00  0.00     0.268 C 
ATOM     11  H   UNL A   1      34.885  25.276  22.833  1.00  0.00     0.164 HD
ATOM     12  O   UNL A   1      35.285  22.847  23.102  1.00  0.00    -0.268 OA
BRANCH  10  13
ATOM     13  C   UNL A   1      33.994  23.056  25.088  1.00  0.00     0.107 C 
ATOM     14  C   UNL A   1      34.849  22.772  26.092  1.00  0.00     0.043 C 
BRANCH  13  15
ATOM     15  N   UNL A   1      32.636  22.831  25.264  1.00  0.00    -0.317 N 
ATOM     16  C   UNL A   1      31.835  21.710  25.150  1.00  0.00     0.255 C 
ATOM     17  H   UNL A   1      32.139  23.639  25.524  1.00  0.00     0.170 HD
ATOM     18  O   UNL A   1      30.644  21.780  25.455  1.00  0.00    -0.269 OA
BRANCH  16  19
ATOM     19  C   UNL A   1      32.329  20.447  24.585  1.00  0.00     0.040 A 
ATOM     20  C   UNL A   1      33.001  19.559  25.431  1.00  0.00     0.014 A 
ATOM     21  C   UNL A   1      32.150  20.145  23.233  1.00  0.00     0.014 A 
ATOM     22  C   UNL A   1      33.409  18.318  24.942  1.00  0.00     0.001 A 
ATOM     23  C   UNL A   1      32.535  18.889  22.757  1.00  0.00     0.001 A 
ATOM     24  C   UNL A   1      33.150  17.974  23.615  1.00  0.00     0.000 A 
ENDBRANCH  16  19
ENDBRANCH  13  15
BRANCH  14  25
ATOM     25  C   UNL A   1      36.326  22.827  26.061  1.00  0.00     0.012 A 
ATOM     26  C   UNL A   1      36.967  24.029  26.418  1.00  0.00     0.011 A 
ATOM     27  C   UNL A   1      37.133  21.748  25.712  1.00  0.00     0.130 A 
ATOM     28  C   UNL A   1      38.355  24.144  26.468  1.00  0.00     0.001 A 
ATOM     29  C   UNL A   1      38.526  21.855  25.744  1.00  0.00     0.040 A 
ATOM     30  F   UNL A   1      36.582  20.589  25.329  1.00  0.00    -0.206 F 
ATOM     31  C   UNL A   1      39.138  23.051  26.129  1.00  0.00     0.003 A 
ENDBRANCH  14  25
ENDBRANCH  10  13
ENDBRANCH   5   9
ENDBRANCH   3   5
ENDBRANCH   2   3
ENDBRANCH   1   2
BRANCH   1  32
ATOM     32  C   UNL A   1      31.393  29.800  25.278  1.00  0.00     0.275 C 
BRANCH  32  33
ATOM     33  O   UNL A   1      32.299  29.626  26.396  1.00  0.00    -0.458 OA
BRANCH  33  34
ATOM     34  C   UNL A   1      32.873  30.790  26.840  1.00  0.00     0.338 C 
ATOM     35  O   UNL A   1      32.268  31.839  27.010  1.00  0.00    -0.246 OA
BRANCH  34  36
ATOM     36  C   UNL A   1      34.294  30.591  27.276  1.00  0.00     0.060 A 
ATOM     37  C   UNL A   1      34.845  29.328  27.451  1.00  0.00     0.016 A 
ATOM     38  C   UNL A   1      35.077  31.693  27.632  1.00  0.00     0.016 A 
ATOM     39  C   UNL A   1      36.039  29.156  28.173  1.00  0.00     0.010 A 
ATOM     40  C   UNL A   1      36.343  31.517  28.233  1.00  0.00     0.010 A 
ATOM     41  C   UNL A   1      36.824  30.243  28.584  1.00  0.00    -0.014 A 
BRANCH  41  42
ATOM     42  C   UNL A   1      38.101  30.076  29.379  1.00  0.00     0.031 A 
ATOM     43  C   UNL A   1      39.260  29.264  28.823  1.00  0.00     0.074 A 
ATOM     44  C   UNL A   1      38.269  30.610  30.612  1.00  0.00     0.049 A 
ATOM     45  N   UNL A   1      40.282  28.733  29.451  1.00  0.00    -0.248 NA
ATOM     46  C   UNL A   1      39.264  29.003  27.374  1.00  0.00     0.031 C 
ATOM     47  C   UNL A   1      37.317  31.471  31.311  1.00  0.00     0.029 A 
ATOM     48  N   UNL A   1      39.310  30.487  31.514  1.00  0.00    -0.354 N 
ATOM     49  C   UNL A   1      40.977  27.984  28.503  1.00  0.00     0.074 A 
ATOM     50  C   UNL A   1      40.281  28.159  27.246  1.00  0.00     0.031 C 
ATOM     51  C   UNL A   1      37.821  31.825  32.500  1.00  0.00     0.029 A 
ATOM     52  C   UNL A   1      39.073  31.111  32.720  1.00  0.00     0.049 A 
ATOM     53  H   UNL A   1      40.142  30.000  31.314  1.00  0.00     0.167 HD
ATOM     54  C   UNL A   1      42.089  27.223  28.658  1.00  0.00     0.034 A 
ATOM     55  C   UNL A   1      39.721  31.070  33.904  1.00  0.00     0.034 A 
ATOM     56  C   UNL A   1      42.868  27.144  29.867  1.00  0.00     0.049 A 
ATOM     57  C   UNL A   1      40.945  30.214  34.066  1.00  0.00     0.074 A 
ATOM     58  C   UNL A   1      44.041  26.438  30.085  1.00  0.00     0.029 A 
ATOM     59  N   UNL A   1      42.582  27.808  31.048  1.00  0.00    -0.354 N 
ATOM     60  N   UNL A   1      41.566  29.491  33.169  1.00  0.00    -0.248 NA
ATOM     61  C   UNL A   1      41.554  30.159  35.405  1.00  0.00     0.031 C 
ATOM     62  C   UNL A   1      44.455  26.663  31.400  1.00  0.00     0.029 A 
ATOM     63  C   UNL A   1      43.552  27.526  31.996  1.00  0.00     0.049 A 
ATOM     64  H   UNL A   1      41.804  28.394  31.192  1.00  0.00     0.167 HD
ATOM     65  C   UNL A   1      42.642  28.905  33.829  1.00  0.00     0.074 A 
ATOM     66  C   UNL A   1      42.606  29.377  35.196  1.00  0.00     0.031 C 
ATOM     67  C   UNL A   1      43.557  28.034  33.343  1.00  0.00     0.034 A 
BRANCH  54  68
ATOM     68  C   UNL A   1      42.580  26.410  27.485  1.00  0.00     0.023 A 
ATOM     69  C   UNL A   1      43.324  27.026  26.462  1.00  0.00     0.012 A 
ATOM     70  C   UNL A   1      42.422  25.006  27.477  1.00  0.00     0.148 A 
ATOM     71  C   UNL A   1      43.887  26.263  25.438  1.00  0.00     0.002 A 
ATOM     72  C   UNL A   1      43.022  24.250  26.477  1.00  0.00     0.091 A 
ATOM     73  F   UNL A   1      41.702  24.439  28.455  1.00  0.00    -0.205 F 
ATOM     74  C   UNL A   1      43.748  24.876  25.452  1.00  0.00     0.022 A 
BRANCH  72  75
ATOM     75  S   UNL A   1      42.981  22.452  26.463  1.00  0.00     0.127 S 
ATOM     76  O   UNL A   1      42.204  22.167  27.669  1.00  0.00    -0.237 OA
ATOM     77  O   UNL A   1      42.284  22.168  25.208  1.00  0.00    -0.237 OA
ATOM     78  O   UNL A   1      44.370  22.018  26.498  1.00  0.00    -0.744 OA
ENDBRANCH  72  75
ENDBRANCH  54  68
BRANCH  55  79
ATOM     79  C   UNL A   1      39.189  31.864  35.053  1.00  0.00     0.023 A 
ATOM     80  C   UNL A   1      38.309  31.254  35.966  1.00  0.00     0.012 A 
ATOM     81  C   UNL A   1      39.622  33.183  35.293  1.00  0.00     0.148 A 
ATOM     82  C   UNL A   1      37.876  31.943  37.101  1.00  0.00     0.002 A 
ATOM     83  C   UNL A   1      39.250  33.834  36.463  1.00  0.00     0.091 A 
ATOM     84  F   UNL A   1      40.429  33.761  34.391  1.00  0.00    -0.205 F 
ATOM     85  C   UNL A   1      38.364  33.222  37.362  1.00  0.00     0.022 A 
BRANCH  83  86
ATOM     86  S   UNL A   1      39.981  35.397  36.960  1.00  0.00     0.127 S 
ATOM     87  O   UNL A   1      39.576  36.279  35.870  1.00  0.00    -0.237 OA
ATOM     88  O   UNL A   1      39.316  35.650  38.238  1.00  0.00    -0.237 OA
ATOM     89  O   UNL A   1      41.412  35.142  37.073  1.00  0.00    -0.744 OA
ENDBRANCH  83  86
ENDBRANCH  55  79
BRANCH  67  90
ATOM     90  C   UNL A   1      44.629  27.527  34.270  1.00  0.00     0.023 A 
ATOM     91  C   UNL A   1      45.799  28.288  34.458  1.00  0.00     0.012 A 
ATOM     92  C   UNL A   1      44.422  26.372  35.052  1.00  0.00     0.148 A 
ATOM     93  C   UNL A   1      46.752  27.904  35.400  1.00  0.00     0.002 A 
ATOM     94  C   UNL A   1      45.357  26.017  36.018  1.00  0.00     0.091 A 
ATOM     95  F   UNL A   1      43.307  25.656  34.848  1.00  0.00    -0.205 F 
ATOM     96  C   UNL A   1      46.525  26.778  36.189  1.00  0.00     0.022 A 
BRANCH  94  97
ATOM     97  S   UNL A   1      45.114  24.637  37.144  1.00  0.00     0.127 S 
ATOM     98  O   UNL A   1      45.116  23.499  36.225  1.00  0.00    -0.237 OA
ATOM     99  O   UNL A   1      46.293  24.729  38.004  1.00  0.00    -0.237 OA
ATOM    100  O   UNL A   1      43.847  24.884  37.819  1.00  0.00    -0.744 OA
ENDBRANCH  94  97
ENDBRANCH  67  90
ENDBRANCH  41  42
ENDBRANCH  34  36
ENDBRANCH  33  34
ENDBRANCH  32  33
ENDBRANCH   1  32
TORSDOF 20
ENDMDL
MODEL 3
REMARK VINA RESULT:     -11.5      1.504      7.373
REMARK SMILES CC(C)[C@@H](NC(=O)/C(=C\c1ccccc1F)NC(=O)c1ccccc1)C(=O)OCCOC(=O)c1ccc(-c2c3nc(c(-c4cccc(S(=O)(=O)[O-])c4F)c4ccc([nH]4)c(-c4cccc(S(=O)(=O)[O-])c4F)c4nc(c(-c5cccc(S(=O)(=O)[O-])c5F)c5ccc2[nH]5)C=C4)C=C3)cc1
REMARK SMILES IDX 29 1 28 2 26 3 27 4 4 5 2 6 1 7 3 8 5 9 6 10 7 12 8 13 9 14
REMARK SMILES IDX 17 15 18 16 19 18 20 19 21 20 25 21 22 22 24 23 23 24 10 25
REMARK SMILES IDX 11 26 15 27 12 28 14 29 16 30 13 31 30 32 31 33 32 34 33 35
REMARK SMILES IDX 34 36 35 37 96 38 36 39 95 40 37 41 38 42 39 43 89 44 40 45
REMARK SMILES IDX 94 46 88 47 90 48 41 49 93 50 87 51 86 52 42 54 74 55 54 56
REMARK SMILES IDX 73 57 55 58 58 59 72 60 91 61 56 62 57 63 71 65 92 66 59 67
REMARK SMILES IDX 43 68 44 69 52 70 45 71 47 72 53 73 46 74 48 75 49 76 50 77
REMARK SMILES IDX 51 78 75 79 76 80 84 81 77 82 79 83 85 84 78 85 80 86 81 87
REMARK SMILES IDX 82 88 83 89 60 90 61 91 69 92 62 93 64 94 70 95 63 96 65 97
REMARK SMILES IDX 66 98 67 99 68 100
REMARK H PARENT 5 11 17 17 90 53 58 64
REMARK Flexibility Score: inf
ROOT
ATOM      1  C   UNL A   1      35.348  21.483  25.955  1.00  0.00     0.274 C 
ENDROOT
BRANCH   1   2
ATOM      2  O   UNL A   1      34.430  22.278  25.176  1.00  0.00    -0.461 OA
BRANCH   2   3
ATOM      3  C   UNL A   1      34.392  23.625  25.438  1.00  0.00     0.329 C 
ATOM      4  O   UNL A   1      35.350  24.295  25.798  1.00  0.00    -0.250 OA
BRANCH   3   5
ATOM      5  C   UNL A   1      32.977  24.172  25.126  1.00  0.00     0.195 C 
BRANCH   5   6
ATOM      6  C   UNL A   1      31.889  23.099  24.915  1.00  0.00     0.017 C 
ATOM      7  C   UNL A   1      30.849  23.151  26.054  1.00  0.00     0.010 C 
ATOM      8  C   UNL A   1      31.141  23.337  23.595  1.00  0.00     0.010 C 
ENDBRANCH   5   6
BRANCH   5   9
ATOM      9  N   UNL A   1      32.547  25.238  26.037  1.00  0.00    -0.337 N 
ATOM     10  C   UNL A   1      32.107  26.489  25.687  1.00  0.00     0.268 C 
ATOM     11  H   UNL A   1      32.577  25.035  26.999  1.00  0.00     0.164 HD
ATOM     12  O   UNL A   1      31.347  27.105  26.427  1.00  0.00    -0.268 OA
BRANCH  10  13
ATOM     13  C   UNL A   1      32.667  27.108  24.450  1.00  0.00     0.107 C 
ATOM     14  C   UNL A   1      33.424  28.221  24.540  1.00  0.00     0.043 C 
BRANCH  13  15
ATOM     15  N   UNL A   1      32.358  26.593  23.198  1.00  0.00    -0.317 N 
ATOM     16  C   UNL A   1      31.393  26.897  22.257  1.00  0.00     0.255 C 
ATOM     17  H   UNL A   1      32.950  25.856  22.924  1.00  0.00     0.170 HD
ATOM     18  O   UNL A   1      31.402  26.320  21.168  1.00  0.00    -0.269 OA
BRANCH  16  19
ATOM     19  C   UNL A   1      30.287  27.822  22.538  1.00  0.00     0.040 A 
ATOM     20  C   UNL A   1      30.426  29.159  22.152  1.00  0.00     0.014 A 
ATOM     21  C   UNL A   1      29.131  27.385  23.190  1.00  0.00     0.014 A 
ATOM     22  C   UNL A   1      29.361  30.041  22.332  1.00  0.00     0.001 A 
ATOM     23  C   UNL A   1      28.057  28.266  23.340  1.00  0.00     0.001 A 
ATOM     24  C   UNL A   1      28.169  29.587  22.899  1.00  0.00     0.000 A 
ENDBRANCH  16  19
ENDBRANCH  13  15
BRANCH  14  25
ATOM     25  C   UNL A   1      33.761  28.986  25.759  1.00  0.00     0.012 A 
ATOM     26  C   UNL A   1      34.899  28.614  26.500  1.00  0.00     0.011 A 
ATOM     27  C   UNL A   1      33.023  30.073  26.219  1.00  0.00     0.130 A 
ATOM     28  C   UNL A   1      35.313  29.319  27.629  1.00  0.00     0.001 A 
ATOM     29  C   UNL A   1      33.419  30.779  27.357  1.00  0.00     0.040 A 
ATOM     30  F   UNL A   1      31.910  30.452  25.578  1.00  0.00    -0.206 F 
ATOM     31  C   UNL A   1      34.569  30.408  28.059  1.00  0.00     0.003 A 
ENDBRANCH  14  25
ENDBRANCH  10  13
ENDBRANCH   5   9
ENDBRANCH   3   5
ENDBRANCH   2   3
ENDBRANCH   1   2
BRANCH   1  32
ATOM     32  C   UNL A   1      36.215  20.600  25.033  1.00  0.00     0.275 C 
BRANCH  32  33
ATOM     33  O   UNL A   1      37.441  21.258  24.627  1.00  0.00    -0.458 OA
BRANCH  33  34
ATOM     34  C   UNL A   1      38.501  21.040  25.470  1.00  0.00     0.338 C 
ATOM     35  O   UNL A   1      39.094  19.976  25.575  1.00  0.00    -0.246 OA
BRANCH  34  36
ATOM     36  C   UNL A   1      38.979  22.305  26.120  1.00  0.00     0.060 A 
ATOM     37  C   UNL A   1      38.251  23.487  26.063  1.00  0.00     0.016 A 
ATOM     38  C   UNL A   1      40.246  22.352  26.710  1.00  0.00     0.016 A 
ATOM     39  C   UNL A   1      38.854  24.719  26.370  1.00  0.00     0.010 A 
ATOM     40  C   UNL A   1      40.794  23.578  27.146  1.00  0.00     0.010 A 
ATOM     41  C   UNL A   1      40.140  24.803  26.921  1.00  0.00    -0.014 A 
BRANCH  41  42
ATOM     42  C   UNL A   1      40.811  26.122  27.237  1.00  0.00     0.031 A 
ATOM     43  C   UNL A   1      42.236  26.397  26.782  1.00  0.00     0.074 A 
ATOM     44  C   UNL A   1      40.200  27.100  27.947  1.00  0.00     0.049 A 
ATOM     45  N   UNL A   1      43.090  27.294  27.213  1.00  0.00    -0.248 NA
ATOM     46  C   UNL A   1      42.776  25.543  25.710  1.00  0.00     0.031 C 
ATOM     47  C   UNL A   1      38.821  27.076  28.430  1.00  0.00     0.029 A 
ATOM     48  N   UNL A   1      40.679  28.313  28.408  1.00  0.00    -0.354 N 
ATOM     49  C   UNL A   1      44.292  27.036  26.558  1.00  0.00     0.074 A 
ATOM     50  C   UNL A   1      44.047  25.921  25.668  1.00  0.00     0.031 C 
ATOM     51  C   UNL A   1      38.553  28.217  29.079  1.00  0.00     0.029 A 
ATOM     52  C   UNL A   1      39.774  29.005  29.186  1.00  0.00     0.049 A 
ATOM     53  H   UNL A   1      41.580  28.651  28.200  1.00  0.00     0.167 HD
ATOM     54  C   UNL A   1      45.488  27.666  26.679  1.00  0.00     0.034 A 
ATOM     55  C   UNL A   1      39.903  30.098  29.968  1.00  0.00     0.034 A 
ATOM     56  C   UNL A   1      45.713  28.857  27.457  1.00  0.00     0.049 A 
ATOM     57  C   UNL A   1      41.235  30.779  30.103  1.00  0.00     0.074 A 
ATOM     58  C   UNL A   1      46.885  29.587  27.584  1.00  0.00     0.029 A 
ATOM     59  N   UNL A   1      44.756  29.513  28.210  1.00  0.00    -0.354 N 
ATOM     60  N   UNL A   1      42.363  30.502  29.500  1.00  0.00    -0.248 NA
ATOM     61  C   UNL A   1      41.317  31.918  31.031  1.00  0.00     0.031 C 
ATOM     62  C   UNL A   1      46.640  30.674  28.426  1.00  0.00     0.029 A 
ATOM     63  C   UNL A   1      45.310  30.634  28.807  1.00  0.00     0.049 A 
ATOM     64  H   UNL A   1      43.819  29.226  28.308  1.00  0.00     0.167 HD
ATOM     65  C   UNL A   1      43.285  31.434  29.967  1.00  0.00     0.074 A 
ATOM     66  C   UNL A   1      42.578  32.303  30.882  1.00  0.00     0.031 C 
ATOM     67  C   UNL A   1      44.603  31.537  29.676  1.00  0.00     0.034 A 
BRANCH  54  68
ATOM     68  C   UNL A   1      46.677  27.111  25.934  1.00  0.00     0.023 A 
ATOM     69  C   UNL A   1      47.351  25.978  26.425  1.00  0.00     0.012 A 
ATOM     70  C   UNL A   1      47.032  27.633  24.670  1.00  0.00     0.148 A 
ATOM     71  C   UNL A   1      48.373  25.383  25.682  1.00  0.00     0.002 A 
ATOM     72  C   UNL A   1      48.020  27.009  23.917  1.00  0.00     0.091 A 
ATOM     73  F   UNL A   1      46.384  28.719  24.223  1.00  0.00    -0.205 F 
ATOM     74  C   UNL A   1      48.697  25.889  24.425  1.00  0.00     0.022 A 
BRANCH  72  75
ATOM     75  S   UNL A   1      48.442  27.528  22.248  1.00  0.00     0.127 S 
ATOM     76  O   UNL A   1      49.660  28.303  22.481  1.00  0.00    -0.237 OA
ATOM     77  O   UNL A   1      48.654  26.248  21.571  1.00  0.00    -0.237 OA
ATOM     78  O   UNL A   1      47.300  28.289  21.763  1.00  0.00    -0.744 OA
ENDBRANCH  72  75
ENDBRANCH  54  68
BRANCH  55  79
ATOM     79  C   UNL A   1      38.710  30.601  30.716  1.00  0.00     0.023 A 
ATOM     80  C   UNL A   1      38.548  30.258  32.070  1.00  0.00     0.012 A 
ATOM     81  C   UNL A   1      37.793  31.487  30.117  1.00  0.00     0.148 A 
ATOM     82  C   UNL A   1      37.498  30.795  32.817  1.00  0.00     0.002 A 
ATOM     83  C   UNL A   1      36.797  32.079  30.884  1.00  0.00     0.091 A 
ATOM     84  F   UNL A   1      37.941  31.772  28.815  1.00  0.00    -0.205 F 
ATOM     85  C   UNL A   1      36.637  31.723  32.232  1.00  0.00     0.022 A 
BRANCH  83  86
ATOM     86  S   UNL A   1      35.775  33.416  30.257  1.00  0.00     0.127 S 
ATOM     87  O   UNL A   1      36.238  34.548  31.055  1.00  0.00    -0.237 OA
ATOM     88  O   UNL A   1      36.160  33.456  28.846  1.00  0.00    -0.237 OA
ATOM     89  O   UNL A   1      34.398  32.997  30.487  1.00  0.00    -0.744 OA
ENDBRANCH  83  86
ENDBRANCH  55  79
BRANCH  67  90
ATOM     90  C   UNL A   1      45.398  32.638  30.326  1.00  0.00     0.023 A 
ATOM     91  C   UNL A   1      46.094  32.376  31.522  1.00  0.00     0.012 A 
ATOM     92  C   UNL A   1      45.563  33.885  29.689  1.00  0.00     0.148 A 
ATOM     93  C   UNL A   1      46.934  33.339  32.080  1.00  0.00     0.002 A 
ATOM     94  C   UNL A   1      46.433  34.825  30.229  1.00  0.00     0.091 A 
ATOM     95  F   UNL A   1      44.881  34.117  28.557  1.00  0.00    -0.205 F 
ATOM     96  C   UNL A   1      47.113  34.557  31.427  1.00  0.00     0.022 A 
BRANCH  94  97
ATOM     97  S   UNL A   1      46.800  36.386  29.417  1.00  0.00     0.127 S 
ATOM     98  O   UNL A   1      45.540  37.110  29.578  1.00  0.00    -0.237 OA
ATOM     99  O   UNL A   1      47.906  36.901  30.224  1.00  0.00    -0.237 OA
ATOM    100  O   UNL A   1      47.152  36.055  28.042  1.00  0.00    -0.744 OA
ENDBRANCH  94  97
ENDBRANCH  67  90
ENDBRANCH  41  42
ENDBRANCH  34  36
ENDBRANCH  33  34
ENDBRANCH  32  33
ENDBRANCH   1  32
TORSDOF 20
ENDMDL
