MODEL 1
REMARK VINA RESULT:     -12.5      0.000      0.000
REMARK SMILES O=C(OCCOC(=O)c1ccc2nc(-c3c[nH]nc3-c3ccc(F)cc3F)[nH]c2c1)c1ccc(-c2c3nc(c(-c4cccc(S(=O)(=O)[O-])c4F)c4ccc([nH]4)c(-c4cccc(S(=O)(=O)[O-])c4F)c4nc(c(-c5cccc(S(=O)(=O)[O-])c5F)c5ccc2[nH]5)C=C4)C=C3)cc1
REMARK SMILES IDX 4 1 3 2 2 3 1 4 31 5 32 6 93 7 33 8 92 9 34 10 35 11 36 12
REMARK SMILES IDX 86 13 37 14 91 15 85 16 87 17 38 18 90 19 84 20 83 21 39 23
REMARK SMILES IDX 71 24 51 25 70 26 52 27 55 28 69 29 88 30 53 31 54 32 68 34
REMARK SMILES IDX 89 35 56 36 40 37 41 38 49 39 42 40 44 41 50 42 43 43 45 44
REMARK SMILES IDX 46 45 47 46 48 47 72 48 73 49 81 50 74 51 76 52 82 53 75 54
REMARK SMILES IDX 77 55 78 56 79 57 80 58 57 59 58 60 66 61 59 62 61 63 67 64
REMARK SMILES IDX 60 65 62 66 63 67 64 68 65 69 5 70 6 71 7 72 8 73 9 74 10 75
REMARK SMILES IDX 30 76 11 77 29 78 12 79 28 80 13 81 14 82 15 84 16 85 19 86
REMARK SMILES IDX 17 87 18 88 20 90 21 91 26 92 22 93 25 94 27 95 23 96 24 97
REMARK H PARENT 87 22 55 33 28 83 17 89
REMARK Flexibility Score: inf
ROOT
ATOM      1  C   UNL A   1      36.257  21.318  24.775  1.00  0.00     0.275 C 
ENDROOT
BRANCH   1   2
ATOM      2  O   UNL A   1      37.131  21.438  25.911  1.00  0.00    -0.458 OA
BRANCH   2   3
ATOM      3  C   UNL A   1      38.481  21.516  25.969  1.00  0.00     0.338 C 
ATOM      4  O   UNL A   1      39.141  20.503  25.736  1.00  0.00    -0.246 OA
BRANCH   3   5
ATOM      5  C   UNL A   1      39.223  22.727  26.441  1.00  0.00     0.060 A 
ATOM      6  C   UNL A   1      40.209  22.756  27.428  1.00  0.00     0.016 A 
ATOM      7  C   UNL A   1      38.867  23.945  25.832  1.00  0.00     0.016 A 
ATOM      8  C   UNL A   1      40.881  23.942  27.739  1.00  0.00     0.010 A 
ATOM      9  C   UNL A   1      39.547  25.129  26.122  1.00  0.00     0.010 A 
ATOM     10  C   UNL A   1      40.559  25.133  27.085  1.00  0.00    -0.014 A 
BRANCH  10  11
ATOM     11  C   UNL A   1      41.174  26.402  27.523  1.00  0.00     0.031 A 
ATOM     12  C   UNL A   1      42.611  26.655  27.175  1.00  0.00     0.074 A 
ATOM     13  C   UNL A   1      40.454  27.317  28.199  1.00  0.00     0.049 A 
ATOM     14  N   UNL A   1      43.336  27.717  27.393  1.00  0.00    -0.248 NA
ATOM     15  C   UNL A   1      43.319  25.575  26.465  1.00  0.00     0.031 C 
ATOM     16  C   UNL A   1      39.046  27.179  28.566  1.00  0.00     0.029 A 
ATOM     17  N   UNL A   1      40.815  28.532  28.722  1.00  0.00    -0.354 N 
ATOM     18  C   UNL A   1      44.574  27.446  26.830  1.00  0.00     0.074 A 
ATOM     19  C   UNL A   1      44.525  26.098  26.310  1.00  0.00     0.031 C 
ATOM     20  C   UNL A   1      38.679  28.234  29.314  1.00  0.00     0.029 A 
ATOM     21  C   UNL A   1      39.822  29.127  29.465  1.00  0.00     0.049 A 
ATOM     22  H   UNL A   1      41.700  28.938  28.579  1.00  0.00     0.167 HD
ATOM     23  C   UNL A   1      45.642  28.267  26.712  1.00  0.00     0.034 A 
ATOM     24  C   UNL A   1      39.844  30.265  30.186  1.00  0.00     0.034 A 
ATOM     25  C   UNL A   1      45.682  29.596  27.247  1.00  0.00     0.049 A 
ATOM     26  C   UNL A   1      41.083  31.121  30.126  1.00  0.00     0.074 A 
ATOM     27  C   UNL A   1      46.702  30.527  27.175  1.00  0.00     0.029 A 
ATOM     28  N   UNL A   1      44.655  30.179  27.976  1.00  0.00    -0.354 N 
ATOM     29  N   UNL A   1      42.193  30.917  29.457  1.00  0.00    -0.248 NA
ATOM     30  C   UNL A   1      41.051  32.392  30.863  1.00  0.00     0.031 C 
ATOM     31  C   UNL A   1      46.299  31.665  27.881  1.00  0.00     0.029 A 
ATOM     32  C   UNL A   1      45.019  31.453  28.372  1.00  0.00     0.049 A 
ATOM     33  H   UNL A   1      43.794  29.749  28.181  1.00  0.00     0.167 HD
ATOM     34  C   UNL A   1      42.967  32.057  29.641  1.00  0.00     0.074 A 
ATOM     35  C   UNL A   1      42.195  32.948  30.485  1.00  0.00     0.031 C 
ATOM     36  C   UNL A   1      44.202  32.343  29.159  1.00  0.00     0.034 A 
BRANCH  23  37
ATOM     37  C   UNL A   1      46.819  27.741  25.939  1.00  0.00     0.023 A 
ATOM     38  C   UNL A   1      46.841  27.889  24.536  1.00  0.00     0.012 A 
ATOM     39  C   UNL A   1      47.886  27.091  26.584  1.00  0.00     0.148 A 
ATOM     40  C   UNL A   1      47.889  27.363  23.782  1.00  0.00     0.002 A 
ATOM     41  C   UNL A   1      48.945  26.599  25.830  1.00  0.00     0.091 A 
ATOM     42  F   UNL A   1      47.830  26.935  27.915  1.00  0.00    -0.205 F 
ATOM     43  C   UNL A   1      48.943  26.723  24.429  1.00  0.00     0.022 A 
BRANCH  41  44
ATOM     44  S   UNL A   1      50.370  25.795  26.568  1.00  0.00     0.127 S 
ATOM     45  O   UNL A   1      51.197  25.525  25.394  1.00  0.00    -0.237 OA
ATOM     46  O   UNL A   1      50.887  26.841  27.452  1.00  0.00    -0.237 OA
ATOM     47  O   UNL A   1      49.857  24.617  27.253  1.00  0.00    -0.744 OA
ENDBRANCH  41  44
ENDBRANCH  23  37
BRANCH  24  48
ATOM     48  C   UNL A   1      38.642  30.697  30.957  1.00  0.00     0.023 A 
ATOM     49  C   UNL A   1      38.561  30.415  32.334  1.00  0.00     0.012 A 
ATOM     50  C   UNL A   1      37.581  31.387  30.335  1.00  0.00     0.148 A 
ATOM     51  C   UNL A   1      37.431  30.777  33.070  1.00  0.00     0.002 A 
ATOM     52  C   UNL A   1      36.476  31.780  31.083  1.00  0.00     0.091 A 
ATOM     53  F   UNL A   1      37.672  31.642  29.023  1.00  0.00    -0.205 F 
ATOM     54  C   UNL A   1      36.393  31.462  32.447  1.00  0.00     0.022 A 
BRANCH  52  55
ATOM     55  S   UNL A   1      35.130  32.753  30.394  1.00  0.00     0.127 S 
ATOM     56  O   UNL A   1      34.227  32.865  31.537  1.00  0.00    -0.237 OA
ATOM     57  O   UNL A   1      35.816  33.994  30.028  1.00  0.00    -0.237 OA
ATOM     58  O   UNL A   1      34.630  31.987  29.263  1.00  0.00    -0.744 OA
ENDBRANCH  52  55
ENDBRANCH  24  48
BRANCH  36  59
ATOM     59  C   UNL A   1      44.778  33.694  29.480  1.00  0.00     0.023 A 
ATOM     60  C   UNL A   1      45.538  33.873  30.652  1.00  0.00     0.012 A 
ATOM     61  C   UNL A   1      44.643  34.760  28.568  1.00  0.00     0.148 A 
ATOM     62  C   UNL A   1      46.133  35.104  30.924  1.00  0.00     0.002 A 
ATOM     63  C   UNL A   1      45.283  35.966  28.822  1.00  0.00     0.091 A 
ATOM     64  F   UNL A   1      43.897  34.573  27.470  1.00  0.00    -0.205 F 
ATOM     65  C   UNL A   1      46.018  36.144  30.004  1.00  0.00     0.022 A 
BRANCH  63  66
ATOM     66  S   UNL A   1      45.278  37.319  27.640  1.00  0.00     0.127 S 
ATOM     67  O   UNL A   1      45.965  38.371  28.387  1.00  0.00    -0.237 OA
ATOM     68  O   UNL A   1      46.044  36.762  26.525  1.00  0.00    -0.237 OA
ATOM     69  O   UNL A   1      43.876  37.578  27.336  1.00  0.00    -0.744 OA
ENDBRANCH  63  66
ENDBRANCH  36  59
ENDBRANCH  10  11
ENDBRANCH   3   5
ENDBRANCH   2   3
ENDBRANCH   1   2
BRANCH   1  70
ATOM     70  C   UNL A   1      34.955  20.553  25.029  1.00  0.00     0.275 C 
BRANCH  70  71
ATOM     71  O   UNL A   1      33.875  20.948  24.176  1.00  0.00    -0.458 OA
BRANCH  71  72
ATOM     72  C   UNL A   1      32.637  20.717  24.686  1.00  0.00     0.338 C 
ATOM     73  O   UNL A   1      32.159  19.636  24.989  1.00  0.00    -0.246 OA
BRANCH  72  74
ATOM     74  C   UNL A   1      31.975  22.004  24.962  1.00  0.00     0.062 A 
ATOM     75  C   UNL A   1      31.238  22.193  26.137  1.00  0.00     0.018 A 
ATOM     76  C   UNL A   1      32.105  23.015  23.994  1.00  0.00     0.044 A 
ATOM     77  C   UNL A   1      30.624  23.427  26.389  1.00  0.00     0.031 A 
ATOM     78  C   UNL A   1      31.393  24.192  24.230  1.00  0.00     0.067 A 
ATOM     79  C   UNL A   1      30.706  24.432  25.415  1.00  0.00     0.089 A 
ATOM     80  N   UNL A   1      31.148  25.308  23.468  1.00  0.00    -0.338 N 
ATOM     81  N   UNL A   1      30.217  25.704  25.430  1.00  0.00    -0.228 NA
ATOM     82  C   UNL A   1      30.480  26.213  24.248  1.00  0.00     0.142 A 
ATOM     83  H   UNL A   1      31.407  25.435  22.525  1.00  0.00     0.168 HD
BRANCH  82  84
ATOM     84  C   UNL A   1      30.170  27.610  23.875  1.00  0.00     0.063 A 
ATOM     85  C   UNL A   1      29.251  28.041  22.951  1.00  0.00     0.117 A 
ATOM     86  C   UNL A   1      30.786  28.784  24.396  1.00  0.00     0.106 A 
ATOM     87  N   UNL A   1      29.279  29.404  23.039  1.00  0.00    -0.284 N 
ATOM     88  N   UNL A   1      30.267  29.880  23.814  1.00  0.00    -0.175 NA
ATOM     89  H   UNL A   1      28.633  29.984  22.576  1.00  0.00     0.189 HD
BRANCH  86  90
ATOM     90  C   UNL A   1      31.945  28.844  25.279  1.00  0.00     0.039 A 
ATOM     91  C   UNL A   1      31.786  29.355  26.581  1.00  0.00     0.016 A 
ATOM     92  C   UNL A   1      33.216  28.448  24.858  1.00  0.00     0.135 A 
ATOM     93  C   UNL A   1      32.883  29.475  27.432  1.00  0.00     0.040 A 
ATOM     94  C   UNL A   1      34.316  28.568  25.706  1.00  0.00     0.079 A 
ATOM     95  F   UNL A   1      33.407  27.944  23.630  1.00  0.00    -0.206 F 
ATOM     96  C   UNL A   1      34.138  29.079  26.986  1.00  0.00     0.126 A 
ATOM     97  F   UNL A   1      35.181  29.169  27.821  1.00  0.00    -0.207 F 
ENDBRANCH  86  90
ENDBRANCH  82  84
ENDBRANCH  72  74
ENDBRANCH  71  72
ENDBRANCH  70  71
ENDBRANCH   1  70
TORSDOF 16
ENDMDL
MODEL 2
REMARK VINA RESULT:     -12.3      4.981     10.258
REMARK SMILES O=C(OCCOC(=O)c1ccc2nc(-c3c[nH]nc3-c3ccc(F)cc3F)[nH]c2c1)c1ccc(-c2c3nc(c(-c4cccc(S(=O)(=O)[O-])c4F)c4ccc([nH]4)c(-c4cccc(S(=O)(=O)[O-])c4F)c4nc(c(-c5cccc(S(=O)(=O)[O-])c5F)c5ccc2[nH]5)C=C4)C=C3)cc1
REMARK SMILES IDX 4 1 3 2 2 3 1 4 31 5 32 6 93 7 33 8 92 9 34 10 35 11 36 12
REMARK SMILES IDX 86 13 37 14 91 15 85 16 87 17 38 18 90 19 84 20 83 21 39 23
REMARK SMILES IDX 71 24 51 25 70 26 52 27 55 28 69 29 88 30 53 31 54 32 68 34
REMARK SMILES IDX 89 35 56 36 40 37 41 38 49 39 42 40 44 41 50 42 43 43 45 44
REMARK SMILES IDX 46 45 47 46 48 47 72 48 73 49 81 50 74 51 76 52 82 53 75 54
REMARK SMILES IDX 77 55 78 56 79 57 80 58 57 59 58 60 66 61 59 62 61 63 67 64
REMARK SMILES IDX 60 65 62 66 63 67 64 68 65 69 5 70 6 71 7 72 8 73 9 74 10 75
REMARK SMILES IDX 30 76 11 77 29 78 12 79 28 80 13 81 14 82 15 84 16 85 19 86
REMARK SMILES IDX 17 87 18 88 20 90 21 91 26 92 22 93 25 94 27 95 23 96 24 97
REMARK H PARENT 87 22 55 33 28 83 17 89
REMARK Flexibility Score: inf
ROOT
ATOM      1  C   UNL A   1      31.403  30.261  25.697  1.00  0.00     0.275 C 
ENDROOT
BRANCH   1   2
ATOM      2  O   UNL A   1      32.774  30.536  26.029  1.00  0.00    -0.458 OA
BRANCH   2   3
ATOM      3  C   UNL A   1      33.296  31.329  26.994  1.00  0.00     0.338 C 
ATOM      4  O   UNL A   1      32.766  32.418  27.213  1.00  0.00    -0.246 OA
BRANCH   3   5
ATOM      5  C   UNL A   1      34.570  31.026  27.719  1.00  0.00     0.060 A 
ATOM      6  C   UNL A   1      35.621  31.917  27.944  1.00  0.00     0.016 A 
ATOM      7  C   UNL A   1      34.711  29.710  28.195  1.00  0.00     0.016 A 
ATOM      8  C   UNL A   1      36.738  31.536  28.694  1.00  0.00     0.010 A 
ATOM      9  C   UNL A   1      35.814  29.328  28.963  1.00  0.00     0.010 A 
ATOM     10  C   UNL A   1      36.839  30.244  29.212  1.00  0.00    -0.014 A 
BRANCH  10  11
ATOM     11  C   UNL A   1      38.085  29.813  29.877  1.00  0.00     0.031 A 
ATOM     12  C   UNL A   1      38.406  30.384  31.227  1.00  0.00     0.074 A 
ATOM     13  C   UNL A   1      38.900  28.914  29.294  1.00  0.00     0.049 A 
ATOM     14  N   UNL A   1      39.401  30.104  32.023  1.00  0.00    -0.248 NA
ATOM     15  C   UNL A   1      37.468  31.388  31.760  1.00  0.00     0.031 C 
ATOM     16  C   UNL A   1      38.667  28.281  27.998  1.00  0.00     0.029 A 
ATOM     17  N   UNL A   1      40.101  28.397  29.705  1.00  0.00    -0.354 N 
ATOM     18  C   UNL A   1      39.198  30.876  33.158  1.00  0.00     0.074 A 
ATOM     19  C   UNL A   1      38.019  31.681  32.928  1.00  0.00     0.031 C 
ATOM     20  C   UNL A   1      39.725  27.513  27.685  1.00  0.00     0.029 A 
ATOM     21  C   UNL A   1      40.701  27.589  28.766  1.00  0.00     0.049 A 
ATOM     22  H   UNL A   1      40.496  28.586  30.587  1.00  0.00     0.167 HD
ATOM     23  C   UNL A   1      39.905  30.878  34.311  1.00  0.00     0.034 A 
ATOM     24  C   UNL A   1      41.905  26.986  28.786  1.00  0.00     0.034 A 
ATOM     25  C   UNL A   1      41.081  30.086  34.520  1.00  0.00     0.049 A 
ATOM     26  C   UNL A   1      42.728  27.081  30.045  1.00  0.00     0.074 A 
ATOM     27  C   UNL A   1      41.870  29.992  35.651  1.00  0.00     0.029 A 
ATOM     28  N   UNL A   1      41.653  29.263  33.560  1.00  0.00    -0.354 N 
ATOM     29  N   UNL A   1      42.444  27.694  31.170  1.00  0.00    -0.248 NA
ATOM     30  C   UNL A   1      44.004  26.353  30.064  1.00  0.00     0.031 C 
ATOM     31  C   UNL A   1      42.933  29.128  35.366  1.00  0.00     0.029 A 
ATOM     32  C   UNL A   1      42.792  28.665  34.065  1.00  0.00     0.049 A 
ATOM     33  H   UNL A   1      41.299  29.125  32.652  1.00  0.00     0.167 HD
ATOM     34  C   UNL A   1      43.472  27.376  32.050  1.00  0.00     0.074 A 
ATOM     35  C   UNL A   1      44.385  26.514  31.324  1.00  0.00     0.031 C 
ATOM     36  C   UNL A   1      43.647  27.760  33.339  1.00  0.00     0.034 A 
BRANCH  23  37
ATOM     37  C   UNL A   1      39.378  31.735  35.427  1.00  0.00     0.023 A 
ATOM     38  C   UNL A   1      38.359  31.228  36.262  1.00  0.00     0.012 A 
ATOM     39  C   UNL A   1      39.868  33.036  35.644  1.00  0.00     0.148 A 
ATOM     40  C   UNL A   1      37.809  32.017  37.270  1.00  0.00     0.002 A 
ATOM     41  C   UNL A   1      39.338  33.804  36.673  1.00  0.00     0.091 A 
ATOM     42  F   UNL A   1      40.815  33.507  34.820  1.00  0.00    -0.205 F 
ATOM     43  C   UNL A   1      38.301  33.302  37.480  1.00  0.00     0.022 A 
BRANCH  41  44
ATOM     44  S   UNL A   1      39.930  35.456  37.053  1.00  0.00     0.127 S 
ATOM     45  O   UNL A   1      39.140  35.786  38.238  1.00  0.00    -0.237 OA
ATOM     46  O   UNL A   1      41.351  35.220  37.312  1.00  0.00    -0.237 OA
ATOM     47  O   UNL A   1      39.652  36.264  35.874  1.00  0.00    -0.744 OA
ENDBRANCH  41  44
ENDBRANCH  23  37
BRANCH  24  48
ATOM     48  C   UNL A   1      42.369  26.181  27.618  1.00  0.00     0.023 A 
ATOM     49  C   UNL A   1      43.124  26.800  26.603  1.00  0.00     0.012 A 
ATOM     50  C   UNL A   1      42.068  24.808  27.508  1.00  0.00     0.148 A 
ATOM     51  C   UNL A   1      43.539  26.077  25.482  1.00  0.00     0.002 A 
ATOM     52  C   UNL A   1      42.519  24.084  26.408  1.00  0.00     0.091 A 
ATOM     53  F   UNL A   1      41.343  24.236  28.479  1.00  0.00    -0.205 F 
ATOM     54  C   UNL A   1      43.241  24.722  25.388  1.00  0.00     0.022 A 
BRANCH  52  55
ATOM     55  S   UNL A   1      42.271  22.312  26.240  1.00  0.00     0.127 S 
ATOM     56  O   UNL A   1      40.818  22.223  26.129  1.00  0.00    -0.237 OA
ATOM     57  O   UNL A   1      43.003  22.024  25.005  1.00  0.00    -0.237 OA
ATOM     58  O   UNL A   1      42.854  21.719  27.434  1.00  0.00    -0.744 OA
ENDBRANCH  52  55
ENDBRANCH  24  48
BRANCH  36  59
ATOM     59  C   UNL A   1      44.839  27.210  34.072  1.00  0.00     0.023 A 
ATOM     60  C   UNL A   1      46.048  27.931  34.090  1.00  0.00     0.012 A 
ATOM     61  C   UNL A   1      44.727  26.021  34.821  1.00  0.00     0.148 A 
ATOM     62  C   UNL A   1      47.137  27.463  34.823  1.00  0.00     0.002 A 
ATOM     63  C   UNL A   1      45.799  25.590  35.591  1.00  0.00     0.091 A 
ATOM     64  F   UNL A   1      43.573  25.339  34.772  1.00  0.00    -0.205 F 
ATOM     65  C   UNL A   1      47.009  26.303  35.583  1.00  0.00     0.022 A 
BRANCH  63  66
ATOM     66  S   UNL A   1      45.683  24.169  36.683  1.00  0.00     0.127 S 
ATOM     67  O   UNL A   1      45.029  23.185  35.823  1.00  0.00    -0.237 OA
ATOM     68  O   UNL A   1      47.088  23.885  36.975  1.00  0.00    -0.237 OA
ATOM     69  O   UNL A   1      44.907  24.612  37.834  1.00  0.00    -0.744 OA
ENDBRANCH  63  66
ENDBRANCH  36  59
ENDBRANCH  10  11
ENDBRANCH   3   5
ENDBRANCH   2   3
ENDBRANCH   1   2
BRANCH   1  70
ATOM     70  C   UNL A   1      31.166  29.737  24.278  1.00  0.00     0.275 C 
BRANCH  70  71
ATOM     71  O   UNL A   1      30.726  28.375  24.228  1.00  0.00    -0.458 OA
BRANCH  71  72
ATOM     72  C   UNL A   1      30.749  27.816  22.990  1.00  0.00     0.338 C 
ATOM     73  O   UNL A   1      30.124  28.183  22.009  1.00  0.00    -0.246 OA
BRANCH  72  74
ATOM     74  C   UNL A   1      31.772  26.755  22.952  1.00  0.00     0.062 A 
ATOM     75  C   UNL A   1      31.922  25.946  21.820  1.00  0.00     0.018 A 
ATOM     76  C   UNL A   1      32.567  26.587  24.099  1.00  0.00     0.044 A 
ATOM     77  C   UNL A   1      32.906  24.948  21.797  1.00  0.00     0.031 A 
ATOM     78  C   UNL A   1      33.462  25.517  24.078  1.00  0.00     0.067 A 
ATOM     79  C   UNL A   1      33.679  24.738  22.947  1.00  0.00     0.089 A 
ATOM     80  N   UNL A   1      34.270  24.952  25.035  1.00  0.00    -0.338 N 
ATOM     81  N   UNL A   1      34.696  23.856  23.166  1.00  0.00    -0.228 NA
ATOM     82  C   UNL A   1      35.031  23.989  24.429  1.00  0.00     0.142 A 
ATOM     83  H   UNL A   1      34.296  25.196  25.989  1.00  0.00     0.168 HD
BRANCH  82  84
ATOM     84  C   UNL A   1      36.149  23.252  25.056  1.00  0.00     0.063 A 
ATOM     85  C   UNL A   1      37.428  23.701  25.270  1.00  0.00     0.117 A 
ATOM     86  C   UNL A   1      36.114  21.914  25.545  1.00  0.00     0.106 A 
ATOM     87  N   UNL A   1      38.045  22.692  25.952  1.00  0.00    -0.284 N 
ATOM     88  N   UNL A   1      37.318  21.565  26.032  1.00  0.00    -0.175 NA
ATOM     89  H   UNL A   1      38.941  22.782  26.349  1.00  0.00     0.189 HD
BRANCH  86  90
ATOM     90  C   UNL A   1      35.028  20.954  25.388  1.00  0.00     0.039 A 
ATOM     91  C   UNL A   1      35.247  19.792  24.624  1.00  0.00     0.016 A 
ATOM     92  C   UNL A   1      33.764  21.173  25.939  1.00  0.00     0.135 A 
ATOM     93  C   UNL A   1      34.214  18.882  24.411  1.00  0.00     0.040 A 
ATOM     94  C   UNL A   1      32.727  20.265  25.727  1.00  0.00     0.079 A 
ATOM     95  F   UNL A   1      33.518  22.262  26.684  1.00  0.00    -0.206 F 
ATOM     96  C   UNL A   1      32.964  19.127  24.966  1.00  0.00     0.126 A 
ATOM     97  F   UNL A   1      31.985  18.231  24.781  1.00  0.00    -0.207 F 
ENDBRANCH  86  90
ENDBRANCH  82  84
ENDBRANCH  72  74
ENDBRANCH  71  72
ENDBRANCH  70  71
ENDBRANCH   1  70
TORSDOF 16
ENDMDL
MODEL 3
REMARK VINA RESULT:     -12.2      1.702      2.484
REMARK SMILES O=C(OCCOC(=O)c1ccc2nc(-c3c[nH]nc3-c3ccc(F)cc3F)[nH]c2c1)c1ccc(-c2c3nc(c(-c4cccc(S(=O)(=O)[O-])c4F)c4ccc([nH]4)c(-c4cccc(S(=O)(=O)[O-])c4F)c4nc(c(-c5cccc(S(=O)(=O)[O-])c5F)c5ccc2[nH]5)C=C4)C=C3)cc1
REMARK SMILES IDX 4 1 3 2 2 3 1 4 31 5 32 6 93 7 33 8 92 9 34 10 35 11 36 12
REMARK SMILES IDX 86 13 37 14 91 15 85 16 87 17 38 18 90 19 84 20 83 21 39 23
REMARK SMILES IDX 71 24 51 25 70 26 52 27 55 28 69 29 88 30 53 31 54 32 68 34
REMARK SMILES IDX 89 35 56 36 40 37 41 38 49 39 42 40 44 41 50 42 43 43 45 44
REMARK SMILES IDX 46 45 47 46 48 47 72 48 73 49 81 50 74 51 76 52 82 53 75 54
REMARK SMILES IDX 77 55 78 56 79 57 80 58 57 59 58 60 66 61 59 62 61 63 67 64
REMARK SMILES IDX 60 65 62 66 63 67 64 68 65 69 5 70 6 71 7 72 8 73 9 74 10 75
REMARK SMILES IDX 30 76 11 77 29 78 12 79 28 80 13 81 14 82 15 84 16 85 19 86
REMARK SMILES IDX 17 87 18 88 20 90 21 91 26 92 22 93 25 94 27 95 23 96 24 97
REMARK H PARENT 87 22 55 33 28 83 17 89
REMARK Flexibility Score: inf
ROOT
ATOM      1  C   UNL A   1      36.280  21.040  24.735  1.00  0.00     0.275 C 
ENDROOT
BRANCH   1   2
ATOM      2  O   UNL A   1      37.135  21.148  25.886  1.00  0.00    -0.458 OA
BRANCH   2   3
ATOM      3  C   UNL A   1      38.486  21.195  25.968  1.00  0.00     0.338 C 
ATOM      4  O   UNL A   1      39.124  20.160  25.778  1.00  0.00    -0.246 OA
BRANCH   3   5
ATOM      5  C   UNL A   1      39.248  22.401  26.421  1.00  0.00     0.060 A 
ATOM      6  C   UNL A   1      40.319  22.410  27.316  1.00  0.00     0.016 A 
ATOM      7  C   UNL A   1      38.819  23.634  25.897  1.00  0.00     0.016 A 
ATOM      8  C   UNL A   1      40.997  23.596  27.614  1.00  0.00     0.010 A 
ATOM      9  C   UNL A   1      39.505  24.820  26.173  1.00  0.00     0.010 A 
ATOM     10  C   UNL A   1      40.599  24.805  27.040  1.00  0.00    -0.014 A 
BRANCH  10  11
ATOM     11  C   UNL A   1      41.231  26.068  27.473  1.00  0.00     0.031 A 
ATOM     12  C   UNL A   1      42.669  26.303  27.118  1.00  0.00     0.074 A 
ATOM     13  C   UNL A   1      40.525  26.992  28.151  1.00  0.00     0.049 A 
ATOM     14  N   UNL A   1      43.408  27.357  27.331  1.00  0.00    -0.248 NA
ATOM     15  C   UNL A   1      43.361  25.213  26.408  1.00  0.00     0.031 C 
ATOM     16  C   UNL A   1      39.117  26.872  28.524  1.00  0.00     0.029 A 
ATOM     17  N   UNL A   1      40.903  28.204  28.669  1.00  0.00    -0.354 N 
ATOM     18  C   UNL A   1      44.640  27.069  26.763  1.00  0.00     0.074 A 
ATOM     19  C   UNL A   1      44.573  25.720  26.246  1.00  0.00     0.031 C 
ATOM     20  C   UNL A   1      38.766  27.933  29.271  1.00  0.00     0.029 A 
ATOM     21  C   UNL A   1      39.921  28.813  29.416  1.00  0.00     0.049 A 
ATOM     22  H   UNL A   1      41.792  28.599  28.521  1.00  0.00     0.167 HD
ATOM     23  C   UNL A   1      45.718  27.877  26.639  1.00  0.00     0.034 A 
ATOM     24  C   UNL A   1      39.959  29.951  30.133  1.00  0.00     0.034 A 
ATOM     25  C   UNL A   1      45.776  29.207  27.170  1.00  0.00     0.049 A 
ATOM     26  C   UNL A   1      41.208  30.793  30.067  1.00  0.00     0.074 A 
ATOM     27  C   UNL A   1      46.807  30.125  27.092  1.00  0.00     0.029 A 
ATOM     28  N   UNL A   1      44.759  29.803  27.903  1.00  0.00    -0.354 N 
ATOM     29  N   UNL A   1      42.313  30.574  29.393  1.00  0.00    -0.248 NA
ATOM     30  C   UNL A   1      41.195  32.065  30.801  1.00  0.00     0.031 C 
ATOM     31  C   UNL A   1      46.421  31.269  27.798  1.00  0.00     0.029 A 
ATOM     32  C   UNL A   1      45.140  31.073  28.294  1.00  0.00     0.049 A 
ATOM     33  H   UNL A   1      43.894  29.384  28.112  1.00  0.00     0.167 HD
ATOM     34  C   UNL A   1      43.101  31.705  29.572  1.00  0.00     0.074 A 
ATOM     35  C   UNL A   1      42.343  32.607  30.417  1.00  0.00     0.031 C 
ATOM     36  C   UNL A   1      44.338  31.975  29.083  1.00  0.00     0.034 A 
BRANCH  23  37
ATOM     37  C   UNL A   1      46.885  27.335  25.862  1.00  0.00     0.023 A 
ATOM     38  C   UNL A   1      47.805  26.483  26.508  1.00  0.00     0.012 A 
ATOM     39  C   UNL A   1      47.085  27.676  24.512  1.00  0.00     0.148 A 
ATOM     40  C   UNL A   1      48.929  26.008  25.834  1.00  0.00     0.002 A 
ATOM     41  C   UNL A   1      48.190  27.171  23.836  1.00  0.00     0.091 A 
ATOM     42  F   UNL A   1      46.215  28.511  23.927  1.00  0.00    -0.205 F 
ATOM     43  C   UNL A   1      49.118  26.348  24.497  1.00  0.00     0.022 A 
BRANCH  41  44
ATOM     44  S   UNL A   1      48.505  27.514  22.102  1.00  0.00     0.127 S 
ATOM     45  O   UNL A   1      47.240  28.120  21.689  1.00  0.00    -0.237 OA
ATOM     46  O   UNL A   1      49.633  28.444  22.174  1.00  0.00    -0.237 OA
ATOM     47  O   UNL A   1      48.811  26.231  21.487  1.00  0.00    -0.744 OA
ENDBRANCH  41  44
ENDBRANCH  23  37
BRANCH  24  48
ATOM     48  C   UNL A   1      38.766  30.400  30.909  1.00  0.00     0.023 A 
ATOM     49  C   UNL A   1      38.669  30.087  32.278  1.00  0.00     0.012 A 
ATOM     50  C   UNL A   1      37.729  31.135  30.298  1.00  0.00     0.148 A 
ATOM     51  C   UNL A   1      37.545  30.463  33.018  1.00  0.00     0.002 A 
ATOM     52  C   UNL A   1      36.631  31.542  31.050  1.00  0.00     0.091 A 
ATOM     53  F   UNL A   1      37.834  31.418  28.993  1.00  0.00    -0.205 F 
ATOM     54  C   UNL A   1      36.531  31.194  32.406  1.00  0.00     0.022 A 
BRANCH  52  55
ATOM     55  S   UNL A   1      35.318  32.570  30.379  1.00  0.00     0.127 S 
ATOM     56  O   UNL A   1      36.036  33.800  30.058  1.00  0.00    -0.237 OA
ATOM     57  O   UNL A   1      34.890  31.786  29.219  1.00  0.00    -0.237 OA
ATOM     58  O   UNL A   1      34.321  32.673  31.434  1.00  0.00    -0.744 OA
ENDBRANCH  52  55
ENDBRANCH  24  48
BRANCH  36  59
ATOM     59  C   UNL A   1      44.931  33.319  29.399  1.00  0.00     0.023 A 
ATOM     60  C   UNL A   1      45.713  33.488  30.558  1.00  0.00     0.012 A 
ATOM     61  C   UNL A   1      44.789  34.390  28.494  1.00  0.00     0.148 A 
ATOM     62  C   UNL A   1      46.324  34.712  30.824  1.00  0.00     0.002 A 
ATOM     63  C   UNL A   1      45.444  35.590  28.740  1.00  0.00     0.091 A 
ATOM     64  F   UNL A   1      44.021  34.214  27.408  1.00  0.00    -0.205 F 
ATOM     65  C   UNL A   1      46.202  35.756  29.910  1.00  0.00     0.022 A 
BRANCH  63  66
ATOM     66  S   UNL A   1      45.429  36.947  27.564  1.00  0.00     0.127 S 
ATOM     67  O   UNL A   1      46.232  37.952  28.257  1.00  0.00    -0.237 OA
ATOM     68  O   UNL A   1      46.074  36.352  26.393  1.00  0.00    -0.237 OA
ATOM     69  O   UNL A   1      44.026  37.291  27.369  1.00  0.00    -0.744 OA
ENDBRANCH  63  66
ENDBRANCH  36  59
ENDBRANCH  10  11
ENDBRANCH   3   5
ENDBRANCH   2   3
ENDBRANCH   1   2
BRANCH   1  70
ATOM     70  C   UNL A   1      34.911  20.406  24.994  1.00  0.00     0.275 C 
BRANCH  70  71
ATOM     71  O   UNL A   1      33.831  21.060  24.317  1.00  0.00    -0.458 OA
BRANCH  71  72
ATOM     72  C   UNL A   1      32.640  21.010  24.968  1.00  0.00     0.338 C 
ATOM     73  O   UNL A   1      31.999  20.010  25.247  1.00  0.00    -0.246 OA
BRANCH  72  74
ATOM     74  C   UNL A   1      32.279  22.362  25.430  1.00  0.00     0.062 A 
ATOM     75  C   UNL A   1      31.017  22.619  25.977  1.00  0.00     0.018 A 
ATOM     76  C   UNL A   1      33.247  23.371  25.283  1.00  0.00     0.044 A 
ATOM     77  C   UNL A   1      30.694  23.908  26.421  1.00  0.00     0.031 A 
ATOM     78  C   UNL A   1      32.851  24.661  25.638  1.00  0.00     0.067 A 
ATOM     79  C   UNL A   1      31.630  24.936  26.243  1.00  0.00     0.089 A 
ATOM     80  N   UNL A   1      33.439  25.894  25.494  1.00  0.00    -0.338 N 
ATOM     81  N   UNL A   1      31.562  26.249  26.601  1.00  0.00    -0.228 NA
ATOM     82  C   UNL A   1      32.651  26.814  26.133  1.00  0.00     0.142 A 
ATOM     83  H   UNL A   1      34.279  26.084  25.014  1.00  0.00     0.168 HD
BRANCH  82  84
ATOM     84  C   UNL A   1      32.997  28.233  26.364  1.00  0.00     0.063 A 
ATOM     85  C   UNL A   1      33.848  28.739  27.315  1.00  0.00     0.117 A 
ATOM     86  C   UNL A   1      32.490  29.357  25.650  1.00  0.00     0.106 A 
ATOM     87  N   UNL A   1      33.898  30.080  27.062  1.00  0.00    -0.284 N 
ATOM     88  N   UNL A   1      33.009  30.495  26.145  1.00  0.00    -0.175 NA
ATOM     89  H   UNL A   1      34.528  30.688  27.513  1.00  0.00     0.189 HD
BRANCH  86  90
ATOM     90  C   UNL A   1      31.422  29.353  24.658  1.00  0.00     0.039 A 
ATOM     91  C   UNL A   1      31.347  28.290  23.738  1.00  0.00     0.016 A 
ATOM     92  C   UNL A   1      30.493  30.392  24.568  1.00  0.00     0.135 A 
ATOM     93  C   UNL A   1      30.371  28.283  22.744  1.00  0.00     0.040 A 
ATOM     94  C   UNL A   1      29.516  30.389  23.574  1.00  0.00     0.079 A 
ATOM     95  F   UNL A   1      30.522  31.416  25.434  1.00  0.00    -0.206 F 
ATOM     96  C   UNL A   1      29.463  29.333  22.673  1.00  0.00     0.126 A 
ATOM     97  F   UNL A   1      28.508  29.302  21.734  1.00  0.00    -0.207 F 
ENDBRANCH  86  90
ENDBRANCH  82  84
ENDBRANCH  72  74
ENDBRANCH  71  72
ENDBRANCH  70  71
ENDBRANCH   1  70
TORSDOF 16
ENDMDL
