MODEL 1
REMARK VINA RESULT:      -9.9      0.000      0.000
REMARK SMILES O=C(CCc1nc2ccccc2[nH]1)NCCC(=O)OCCOC(=O)c1ccc(-c2c3nc(c(-c4cccc(S(=O)(=O)[O-])c4F)c4ccc([nH]4)c(-c4cccc(S(=O)(=O)[O-])c4F)c4nc(c(-c5cccc(S(=O)(=O)[O-])c5F)c5ccc2[nH]5)C=C4)C=C3)cc1
REMARK SMILES IDX 20 1 19 2 17 3 18 4 16 5 15 6 14 7 1 8 2 9 3 11 4 12 5 13
REMARK SMILES IDX 6 14 13 15 7 16 12 17 8 19 11 20 9 21 10 22 21 23 22 24
REMARK SMILES IDX 23 25 24 26 25 27 26 28 87 29 27 30 86 31 28 32 29 33 30 34
REMARK SMILES IDX 80 35 31 36 85 37 79 38 81 39 32 40 84 41 78 42 77 43 33 45
REMARK SMILES IDX 65 46 45 47 64 48 46 49 49 50 63 51 82 52 47 53 48 54 62 56
REMARK SMILES IDX 83 57 50 58 34 59 35 60 43 61 36 62 38 63 44 64 37 65 39 66
REMARK SMILES IDX 40 67 41 68 42 69 66 70 67 71 75 72 68 73 70 74 76 75 69 76
REMARK SMILES IDX 71 77 72 78 73 79 74 80 51 81 52 82 60 83 53 84 55 85 61 86
REMARK SMILES IDX 54 87 56 88 57 89 58 90 59 91
REMARK H PARENT 14 10 13 18 81 44 49 55
REMARK Flexibility Score: inf
ROOT
ATOM      1  C   UNL A   1      33.284  34.318  28.628  1.00  0.00     0.274 C 
ENDROOT
BRANCH   1   2
ATOM      2  O   UNL A   1      32.622  35.030  29.696  1.00  0.00    -0.462 OA
BRANCH   2   3
ATOM      3  C   UNL A   1      32.903  36.362  29.742  1.00  0.00     0.307 C 
ATOM      4  O   UNL A   1      32.992  37.083  28.754  1.00  0.00    -0.252 OA
BRANCH   3   5
ATOM      5  C   UNL A   1      33.215  36.873  31.126  1.00  0.00     0.144 C 
BRANCH   5   6
ATOM      6  C   UNL A   1      32.461  36.204  32.269  1.00  0.00     0.127 C 
BRANCH   6   7
ATOM      7  N   UNL A   1      32.884  34.833  32.510  1.00  0.00    -0.356 N 
ATOM      8  O   UNL A   1      34.655  35.424  33.821  1.00  0.00    -0.275 OA
ATOM      9  C   UNL A   1      34.010  34.547  33.248  1.00  0.00     0.220 C 
ATOM     10  H   UNL A   1      32.353  34.093  32.137  1.00  0.00     0.163 HD
BRANCH   9  11
ATOM     11  C   UNL A   1      34.550  33.128  33.169  1.00  0.00     0.108 C 
BRANCH  11  12
ATOM     12  C   UNL A   1      35.958  32.875  33.683  1.00  0.00     0.085 C 
BRANCH  12  13
ATOM     13  C   UNL A   1      37.072  33.516  32.920  1.00  0.00     0.107 A 
ATOM     14  N   UNL A   1      38.189  33.972  33.454  1.00  0.00    -0.233 NA
ATOM     15  N   UNL A   1      37.116  33.638  31.551  1.00  0.00    -0.342 N 
ATOM     16  C   UNL A   1      39.053  34.163  32.404  1.00  0.00     0.089 A 
ATOM     17  C   UNL A   1      38.413  33.902  31.203  1.00  0.00     0.065 A 
ATOM     18  H   UNL A   1      36.354  33.551  30.933  1.00  0.00     0.168 HD
ATOM     19  C   UNL A   1      40.414  34.496  32.392  1.00  0.00     0.030 A 
ATOM     20  C   UNL A   1      39.065  33.892  29.974  1.00  0.00     0.028 A 
ATOM     21  C   UNL A   1      41.102  34.463  31.170  1.00  0.00     0.002 A 
ATOM     22  C   UNL A   1      40.438  34.144  29.984  1.00  0.00     0.002 A 
ENDBRANCH  12  13
ENDBRANCH  11  12
ENDBRANCH   9  11
ENDBRANCH   6   7
ENDBRANCH   5   6
ENDBRANCH   3   5
ENDBRANCH   2   3
ENDBRANCH   1   2
BRANCH   1  23
ATOM     23  C   UNL A   1      34.581  33.608  29.036  1.00  0.00     0.275 C 
BRANCH  23  24
ATOM     24  O   UNL A   1      34.399  32.226  29.340  1.00  0.00    -0.458 OA
BRANCH  24  25
ATOM     25  C   UNL A   1      34.763  31.378  28.349  1.00  0.00     0.338 C 
ATOM     26  O   UNL A   1      34.206  31.181  27.286  1.00  0.00    -0.246 OA
BRANCH  25  27
ATOM     27  C   UNL A   1      36.003  30.723  28.760  1.00  0.00     0.060 A 
ATOM     28  C   UNL A   1      37.206  31.100  28.162  1.00  0.00     0.016 A 
ATOM     29  C   UNL A   1      35.952  29.741  29.748  1.00  0.00     0.016 A 
ATOM     30  C   UNL A   1      38.384  30.485  28.563  1.00  0.00     0.010 A 
ATOM     31  C   UNL A   1      37.139  29.160  30.180  1.00  0.00     0.010 A 
ATOM     32  C   UNL A   1      38.359  29.528  29.589  1.00  0.00    -0.014 A 
BRANCH  32  33
ATOM     33  C   UNL A   1      39.625  28.947  30.081  1.00  0.00     0.031 A 
ATOM     34  C   UNL A   1      40.281  29.499  31.311  1.00  0.00     0.074 A 
ATOM     35  C   UNL A   1      40.192  27.951  29.374  1.00  0.00     0.049 A 
ATOM     36  N   UNL A   1      41.395  29.130  31.882  1.00  0.00    -0.248 NA
ATOM     37  C   UNL A   1      39.604  30.623  31.977  1.00  0.00     0.031 C 
ATOM     38  C   UNL A   1      39.649  27.383  28.136  1.00  0.00     0.029 A 
ATOM     39  N   UNL A   1      41.350  27.250  29.581  1.00  0.00    -0.354 N 
ATOM     40  C   UNL A   1      41.579  30.002  32.949  1.00  0.00     0.074 A 
ATOM     41  C   UNL A   1      40.463  30.923  32.941  1.00  0.00     0.031 C 
ATOM     42  C   UNL A   1      40.470  26.415  27.700  1.00  0.00     0.029 A 
ATOM     43  C   UNL A   1      41.608  26.316  28.606  1.00  0.00     0.049 A 
ATOM     44  H   UNL A   1      41.942  27.401  30.354  1.00  0.00     0.167 HD
ATOM     45  C   UNL A   1      42.582  30.017  33.858  1.00  0.00     0.034 A 
ATOM     46  C   UNL A   1      42.651  25.478  28.461  1.00  0.00     0.034 A 
ATOM     47  C   UNL A   1      43.665  29.071  33.863  1.00  0.00     0.049 A 
ATOM     48  C   UNL A   1      43.724  25.487  29.513  1.00  0.00     0.074 A 
ATOM     49  C   UNL A   1      44.700  28.949  34.772  1.00  0.00     0.029 A 
ATOM     50  N   UNL A   1      43.857  28.087  32.903  1.00  0.00    -0.354 N 
ATOM     51  N   UNL A   1      43.813  26.226  30.594  1.00  0.00    -0.248 NA
ATOM     52  C   UNL A   1      44.823  24.526  29.348  1.00  0.00     0.031 C 
ATOM     53  C   UNL A   1      45.530  27.905  34.349  1.00  0.00     0.029 A 
ATOM     54  C   UNL A   1      44.997  27.357  33.192  1.00  0.00     0.049 A 
ATOM     55  H   UNL A   1      43.268  27.930  32.129  1.00  0.00     0.167 HD
ATOM     56  C   UNL A   1      44.953  25.794  31.258  1.00  0.00     0.074 A 
ATOM     57  C   UNL A   1      45.512  24.716  30.465  1.00  0.00     0.031 C 
ATOM     58  C   UNL A   1      45.499  26.255  32.411  1.00  0.00     0.034 A 
BRANCH  45  59
ATOM     59  C   UNL A   1      42.539  31.075  34.930  1.00  0.00     0.023 A 
ATOM     60  C   UNL A   1      41.974  30.777  36.186  1.00  0.00     0.012 A 
ATOM     61  C   UNL A   1      43.087  32.354  34.706  1.00  0.00     0.148 A 
ATOM     62  C   UNL A   1      41.923  31.744  37.191  1.00  0.00     0.002 A 
ATOM     63  C   UNL A   1      43.072  33.298  35.726  1.00  0.00     0.091 A 
ATOM     64  F   UNL A   1      43.598  32.628  33.497  1.00  0.00    -0.205 F 
ATOM     65  C   UNL A   1      42.479  32.999  36.964  1.00  0.00     0.022 A 
BRANCH  63  66
ATOM     66  S   UNL A   1      43.827  34.919  35.557  1.00  0.00     0.127 S 
ATOM     67  O   UNL A   1      45.208  34.568  35.227  1.00  0.00    -0.237 OA
ATOM     68  O   UNL A   1      43.066  35.501  34.452  1.00  0.00    -0.237 OA
ATOM     69  O   UNL A   1      43.641  35.585  36.839  1.00  0.00    -0.744 OA
ENDBRANCH  63  66
ENDBRANCH  45  59
BRANCH  46  70
ATOM     70  C   UNL A   1      42.682  24.513  27.325  1.00  0.00     0.023 A 
ATOM     71  C   UNL A   1      43.331  24.878  26.129  1.00  0.00     0.012 A 
ATOM     72  C   UNL A   1      42.115  23.228  27.432  1.00  0.00     0.148 A 
ATOM     73  C   UNL A   1      43.391  23.993  25.052  1.00  0.00     0.002 A 
ATOM     74  C   UNL A   1      42.225  22.331  26.376  1.00  0.00     0.091 A 
ATOM     75  F   UNL A   1      41.492  22.902  28.574  1.00  0.00    -0.205 F 
ATOM     76  C   UNL A   1      42.848  22.718  25.179  1.00  0.00     0.022 A 
BRANCH  74  77
ATOM     77  S   UNL A   1      41.670  20.627  26.498  1.00  0.00     0.127 S 
ATOM     78  O   UNL A   1      42.349  20.008  25.363  1.00  0.00    -0.237 OA
ATOM     79  O   UNL A   1      42.183  20.234  27.812  1.00  0.00    -0.237 OA
ATOM     80  O   UNL A   1      40.216  20.682  26.416  1.00  0.00    -0.744 OA
ENDBRANCH  74  77
ENDBRANCH  46  70
BRANCH  58  81
ATOM     81  C   UNL A   1      46.743  25.566  32.907  1.00  0.00     0.023 A 
ATOM     82  C   UNL A   1      48.010  26.028  32.502  1.00  0.00     0.012 A 
ATOM     83  C   UNL A   1      46.652  24.502  33.825  1.00  0.00     0.148 A 
ATOM     84  C   UNL A   1      49.170  25.416  32.976  1.00  0.00     0.002 A 
ATOM     85  C   UNL A   1      47.812  23.932  34.333  1.00  0.00     0.091 A 
ATOM     86  F   UNL A   1      45.435  24.062  34.180  1.00  0.00    -0.205 F 
ATOM     87  C   UNL A   1      49.071  24.378  33.901  1.00  0.00     0.022 A 
BRANCH  85  88
ATOM     88  S   UNL A   1      47.774  22.662  35.602  1.00  0.00     0.127 S 
ATOM     89  O   UNL A   1      47.031  23.328  36.670  1.00  0.00    -0.237 OA
ATOM     90  O   UNL A   1      47.049  21.577  34.938  1.00  0.00    -0.237 OA
ATOM     91  O   UNL A   1      49.168  22.357  35.900  1.00  0.00    -0.744 OA
ENDBRANCH  85  88
ENDBRANCH  58  81
ENDBRANCH  32  33
ENDBRANCH  25  27
ENDBRANCH  24  25
ENDBRANCH  23  24
ENDBRANCH   1  23
TORSDOF 19
ENDMDL
MODEL 2
REMARK VINA RESULT:      -9.7      4.189     12.415
REMARK SMILES O=C(CCc1nc2ccccc2[nH]1)NCCC(=O)OCCOC(=O)c1ccc(-c2c3nc(c(-c4cccc(S(=O)(=O)[O-])c4F)c4ccc([nH]4)c(-c4cccc(S(=O)(=O)[O-])c4F)c4nc(c(-c5cccc(S(=O)(=O)[O-])c5F)c5ccc2[nH]5)C=C4)C=C3)cc1
REMARK SMILES IDX 20 1 19 2 17 3 18 4 16 5 15 6 14 7 1 8 2 9 3 11 4 12 5 13
REMARK SMILES IDX 6 14 13 15 7 16 12 17 8 19 11 20 9 21 10 22 21 23 22 24
REMARK SMILES IDX 23 25 24 26 25 27 26 28 87 29 27 30 86 31 28 32 29 33 30 34
REMARK SMILES IDX 80 35 31 36 85 37 79 38 81 39 32 40 84 41 78 42 77 43 33 45
REMARK SMILES IDX 65 46 45 47 64 48 46 49 49 50 63 51 82 52 47 53 48 54 62 56
REMARK SMILES IDX 83 57 50 58 34 59 35 60 43 61 36 62 38 63 44 64 37 65 39 66
REMARK SMILES IDX 40 67 41 68 42 69 66 70 67 71 75 72 68 73 70 74 76 75 69 76
REMARK SMILES IDX 71 77 72 78 73 79 74 80 51 81 52 82 60 83 53 84 55 85 61 86
REMARK SMILES IDX 54 87 56 88 57 89 58 90 59 91
REMARK H PARENT 14 10 13 18 81 44 49 55
REMARK Flexibility Score: inf
ROOT
ATOM      1  C   UNL A   1      41.092  19.925  26.098  1.00  0.00     0.274 C 
ENDROOT
BRANCH   1   2
ATOM      2  O   UNL A   1      42.165  19.288  26.827  1.00  0.00    -0.462 OA
BRANCH   2   3
ATOM      3  C   UNL A   1      42.918  18.432  26.082  1.00  0.00     0.307 C 
ATOM      4  O   UNL A   1      42.594  17.278  25.818  1.00  0.00    -0.252 OA
BRANCH   3   5
ATOM      5  C   UNL A   1      44.265  18.986  25.688  1.00  0.00     0.144 C 
BRANCH   5   6
ATOM      6  C   UNL A   1      44.497  19.172  24.193  1.00  0.00     0.127 C 
BRANCH   6   7
ATOM      7  N   UNL A   1      44.685  20.563  23.811  1.00  0.00    -0.356 N 
ATOM      8  O   UNL A   1      46.817  20.679  24.613  1.00  0.00    -0.275 OA
ATOM      9  C   UNL A   1      45.847  21.239  24.105  1.00  0.00     0.220 C 
ATOM     10  H   UNL A   1      43.965  21.032  23.332  1.00  0.00     0.163 HD
BRANCH   9  11
ATOM     11  C   UNL A   1      45.824  22.753  23.967  1.00  0.00     0.108 C 
BRANCH  11  12
ATOM     12  C   UNL A   1      46.517  23.574  25.041  1.00  0.00     0.085 C 
BRANCH  12  13
ATOM     13  C   UNL A   1      45.893  23.560  26.399  1.00  0.00     0.107 A 
ATOM     14  N   UNL A   1      46.437  24.073  27.487  1.00  0.00    -0.233 NA
ATOM     15  N   UNL A   1      44.631  23.087  26.677  1.00  0.00    -0.342 N 
ATOM     16  C   UNL A   1      45.422  24.147  28.410  1.00  0.00     0.089 A 
ATOM     17  C   UNL A   1      44.264  23.584  27.898  1.00  0.00     0.065 A 
ATOM     18  H   UNL A   1      44.091  22.498  26.102  1.00  0.00     0.168 HD
ATOM     19  C   UNL A   1      45.390  24.734  29.682  1.00  0.00     0.030 A 
ATOM     20  C   UNL A   1      43.039  23.622  28.555  1.00  0.00     0.028 A 
ATOM     21  C   UNL A   1      44.160  24.812  30.353  1.00  0.00     0.002 A 
ATOM     22  C   UNL A   1      43.000  24.283  29.784  1.00  0.00     0.002 A 
ENDBRANCH  12  13
ENDBRANCH  11  12
ENDBRANCH   9  11
ENDBRANCH   6   7
ENDBRANCH   5   6
ENDBRANCH   3   5
ENDBRANCH   2   3
ENDBRANCH   1   2
BRANCH   1  23
ATOM     23  C   UNL A   1      41.072  21.456  26.193  1.00  0.00     0.275 C 
BRANCH  23  24
ATOM     24  O   UNL A   1      40.083  21.954  27.094  1.00  0.00    -0.458 OA
BRANCH  24  25
ATOM     25  C   UNL A   1      39.193  22.809  26.536  1.00  0.00     0.338 C 
ATOM     26  O   UNL A   1      38.247  22.545  25.819  1.00  0.00    -0.246 OA
BRANCH  25  27
ATOM     27  C   UNL A   1      39.543  24.159  26.971  1.00  0.00     0.060 A 
ATOM     28  C   UNL A   1      39.342  24.522  28.303  1.00  0.00     0.016 A 
ATOM     29  C   UNL A   1      40.080  25.049  26.042  1.00  0.00     0.016 A 
ATOM     30  C   UNL A   1      39.687  25.801  28.716  1.00  0.00     0.010 A 
ATOM     31  C   UNL A   1      40.467  26.314  26.469  1.00  0.00     0.010 A 
ATOM     32  C   UNL A   1      40.271  26.696  27.807  1.00  0.00    -0.014 A 
BRANCH  32  33
ATOM     33  C   UNL A   1      40.727  28.023  28.272  1.00  0.00     0.031 A 
ATOM     34  C   UNL A   1      42.187  28.361  28.271  1.00  0.00     0.074 A 
ATOM     35  C   UNL A   1      39.809  28.891  28.736  1.00  0.00     0.049 A 
ATOM     36  N   UNL A   1      42.775  29.462  28.655  1.00  0.00    -0.248 NA
ATOM     37  C   UNL A   1      43.111  27.319  27.793  1.00  0.00     0.031 C 
ATOM     38  C   UNL A   1      38.369  28.628  28.820  1.00  0.00     0.029 A 
ATOM     39  N   UNL A   1      39.945  30.158  29.238  1.00  0.00    -0.354 N 
ATOM     40  C   UNL A   1      44.137  29.235  28.505  1.00  0.00     0.074 A 
ATOM     41  C   UNL A   1      44.290  27.887  28.003  1.00  0.00     0.031 C 
ATOM     42  C   UNL A   1      37.754  29.705  29.334  1.00  0.00     0.029 A 
ATOM     43  C   UNL A   1      38.756  30.718  29.643  1.00  0.00     0.049 A 
ATOM     44  H   UNL A   1      40.810  30.623  29.302  1.00  0.00     0.167 HD
ATOM     45  C   UNL A   1      45.162  30.083  28.753  1.00  0.00     0.034 A 
ATOM     46  C   UNL A   1      38.509  31.915  30.206  1.00  0.00     0.034 A 
ATOM     47  C   UNL A   1      44.983  31.431  29.224  1.00  0.00     0.049 A 
ATOM     48  C   UNL A   1      39.663  32.852  30.425  1.00  0.00     0.074 A 
ATOM     49  C   UNL A   1      45.943  32.402  29.446  1.00  0.00     0.029 A 
ATOM     50  N   UNL A   1      43.759  31.995  29.554  1.00  0.00    -0.354 N 
ATOM     51  N   UNL A   1      40.934  32.674  30.150  1.00  0.00    -0.248 NA
ATOM     52  C   UNL A   1      39.350  34.169  30.997  1.00  0.00     0.031 C 
ATOM     53  C   UNL A   1      45.300  33.545  29.933  1.00  0.00     0.029 A 
ATOM     54  C   UNL A   1      43.936  33.298  29.986  1.00  0.00     0.049 A 
ATOM     55  H   UNL A   1      42.890  31.535  29.490  1.00  0.00     0.167 HD
ATOM     56  C   UNL A   1      41.566  33.866  30.478  1.00  0.00     0.074 A 
ATOM     57  C   UNL A   1      40.534  34.765  30.955  1.00  0.00     0.031 C 
ATOM     58  C   UNL A   1      42.882  34.186  30.405  1.00  0.00     0.034 A 
BRANCH  45  59
ATOM     59  C   UNL A   1      46.561  29.585  28.499  1.00  0.00     0.023 A 
ATOM     60  C   UNL A   1      47.212  29.910  27.292  1.00  0.00     0.012 A 
ATOM     61  C   UNL A   1      47.245  28.823  29.467  1.00  0.00     0.148 A 
ATOM     62  C   UNL A   1      48.506  29.456  27.036  1.00  0.00     0.002 A 
ATOM     63  C   UNL A   1      48.550  28.411  29.224  1.00  0.00     0.091 A 
ATOM     64  F   UNL A   1      46.602  28.502  30.598  1.00  0.00    -0.205 F 
ATOM     65  C   UNL A   1      49.177  28.715  28.004  1.00  0.00     0.022 A 
BRANCH  63  66
ATOM     66  S   UNL A   1      49.524  27.514  30.438  1.00  0.00     0.127 S 
ATOM     67  O   UNL A   1      50.792  27.340  29.729  1.00  0.00    -0.237 OA
ATOM     68  O   UNL A   1      49.575  28.460  31.552  1.00  0.00    -0.237 OA
ATOM     69  O   UNL A   1      48.790  26.287  30.715  1.00  0.00    -0.744 OA
ENDBRANCH  63  66
ENDBRANCH  45  59
BRANCH  46  70
ATOM     70  C   UNL A   1      37.108  32.317  30.521  1.00  0.00     0.023 A 
ATOM     71  C   UNL A   1      36.623  32.152  31.833  1.00  0.00     0.012 A 
ATOM     72  C   UNL A   1      36.271  32.899  29.549  1.00  0.00     0.148 A 
ATOM     73  C   UNL A   1      35.322  32.531  32.165  1.00  0.00     0.002 A 
ATOM     74  C   UNL A   1      34.995  33.325  29.898  1.00  0.00     0.091 A 
ATOM     75  F   UNL A   1      36.746  33.039  28.303  1.00  0.00    -0.205 F 
ATOM     76  C   UNL A   1      34.512  33.126  31.201  1.00  0.00     0.022 A 
BRANCH  74  77
ATOM     77  S   UNL A   1      33.933  34.218  28.758  1.00  0.00     0.127 S 
ATOM     78  O   UNL A   1      33.569  33.172  27.805  1.00  0.00    -0.237 OA
ATOM     79  O   UNL A   1      32.845  34.656  29.635  1.00  0.00    -0.237 OA
ATOM     80  O   UNL A   1      34.749  35.303  28.230  1.00  0.00    -0.744 OA
ENDBRANCH  74  77
ENDBRANCH  46  70
BRANCH  58  81
ATOM     81  C   UNL A   1      43.274  35.581  30.814  1.00  0.00     0.023 A 
ATOM     82  C   UNL A   1      43.616  35.851  32.152  1.00  0.00     0.012 A 
ATOM     83  C   UNL A   1      43.365  36.607  29.853  1.00  0.00     0.148 A 
ATOM     84  C   UNL A   1      44.008  37.132  32.537  1.00  0.00     0.002 A 
ATOM     85  C   UNL A   1      43.807  37.867  30.234  1.00  0.00     0.091 A 
ATOM     86  F   UNL A   1      43.012  36.335  28.588  1.00  0.00    -0.205 F 
ATOM     87  C   UNL A   1      44.116  38.136  31.577  1.00  0.00     0.022 A 
BRANCH  85  88
ATOM     88  S   UNL A   1      44.070  39.186  29.043  1.00  0.00     0.127 S 
ATOM     89  O   UNL A   1      42.712  39.432  28.564  1.00  0.00    -0.237 OA
ATOM     90  O   UNL A   1      44.628  40.253  29.876  1.00  0.00    -0.237 OA
ATOM     91  O   UNL A   1      44.999  38.649  28.056  1.00  0.00    -0.744 OA
ENDBRANCH  85  88
ENDBRANCH  58  81
ENDBRANCH  32  33
ENDBRANCH  25  27
ENDBRANCH  24  25
ENDBRANCH  23  24
ENDBRANCH   1  23
TORSDOF 19
ENDMDL
MODEL 3
REMARK VINA RESULT:      -9.4      4.488      7.332
REMARK SMILES O=C(CCc1nc2ccccc2[nH]1)NCCC(=O)OCCOC(=O)c1ccc(-c2c3nc(c(-c4cccc(S(=O)(=O)[O-])c4F)c4ccc([nH]4)c(-c4cccc(S(=O)(=O)[O-])c4F)c4nc(c(-c5cccc(S(=O)(=O)[O-])c5F)c5ccc2[nH]5)C=C4)C=C3)cc1
REMARK SMILES IDX 20 1 19 2 17 3 18 4 16 5 15 6 14 7 1 8 2 9 3 11 4 12 5 13
REMARK SMILES IDX 6 14 13 15 7 16 12 17 8 19 11 20 9 21 10 22 21 23 22 24
REMARK SMILES IDX 23 25 24 26 25 27 26 28 87 29 27 30 86 31 28 32 29 33 30 34
REMARK SMILES IDX 80 35 31 36 85 37 79 38 81 39 32 40 84 41 78 42 77 43 33 45
REMARK SMILES IDX 65 46 45 47 64 48 46 49 49 50 63 51 82 52 47 53 48 54 62 56
REMARK SMILES IDX 83 57 50 58 34 59 35 60 43 61 36 62 38 63 44 64 37 65 39 66
REMARK SMILES IDX 40 67 41 68 42 69 66 70 67 71 75 72 68 73 70 74 76 75 69 76
REMARK SMILES IDX 71 77 72 78 73 79 74 80 51 81 52 82 60 83 53 84 55 85 61 86
REMARK SMILES IDX 54 87 56 88 57 89 58 90 59 91
REMARK H PARENT 14 10 13 18 81 44 49 55
REMARK Flexibility Score: inf
ROOT
ATOM      1  C   UNL A   1      31.453  29.275  25.385  1.00  0.00     0.274 C 
ENDROOT
BRANCH   1   2
ATOM      2  O   UNL A   1      31.008  29.461  24.023  1.00  0.00    -0.462 OA
BRANCH   2   3
ATOM      3  C   UNL A   1      31.757  28.805  23.093  1.00  0.00     0.307 C 
ATOM      4  O   UNL A   1      32.934  29.056  22.854  1.00  0.00    -0.252 OA
BRANCH   3   5
ATOM      5  C   UNL A   1      30.980  27.798  22.282  1.00  0.00     0.144 C 
BRANCH   5   6
ATOM      6  C   UNL A   1      31.424  26.347  22.421  1.00  0.00     0.127 C 
BRANCH   6   7
ATOM      7  N   UNL A   1      32.321  26.127  23.545  1.00  0.00    -0.356 N 
ATOM      8  O   UNL A   1      33.957  25.165  22.279  1.00  0.00    -0.275 OA
ATOM      9  C   UNL A   1      33.530  25.490  23.386  1.00  0.00     0.220 C 
ATOM     10  H   UNL A   1      32.057  26.440  24.440  1.00  0.00     0.163 HD
BRANCH   9  11
ATOM     11  C   UNL A   1      34.237  25.016  24.647  1.00  0.00     0.108 C 
BRANCH  11  12
ATOM     12  C   UNL A   1      35.243  23.886  24.514  1.00  0.00     0.085 C 
BRANCH  12  13
ATOM     13  C   UNL A   1      34.732  22.504  24.765  1.00  0.00     0.107 A 
ATOM     14  N   UNL A   1      33.465  22.141  24.685  1.00  0.00    -0.233 NA
ATOM     15  N   UNL A   1      35.524  21.410  25.026  1.00  0.00    -0.342 N 
ATOM     16  C   UNL A   1      33.474  20.768  24.655  1.00  0.00     0.089 A 
ATOM     17  C   UNL A   1      34.765  20.291  24.810  1.00  0.00     0.065 A 
ATOM     18  H   UNL A   1      36.465  21.428  25.315  1.00  0.00     0.168 HD
ATOM     19  C   UNL A   1      32.433  19.855  24.437  1.00  0.00     0.030 A 
ATOM     20  C   UNL A   1      35.105  18.947  24.700  1.00  0.00     0.028 A 
ATOM     21  C   UNL A   1      32.752  18.496  24.291  1.00  0.00     0.002 A 
ATOM     22  C   UNL A   1      34.072  18.056  24.400  1.00  0.00     0.002 A 
ENDBRANCH  12  13
ENDBRANCH  11  12
ENDBRANCH   9  11
ENDBRANCH   6   7
ENDBRANCH   5   6
ENDBRANCH   3   5
ENDBRANCH   2   3
ENDBRANCH   1   2
BRANCH   1  23
ATOM     23  C   UNL A   1      31.894  30.560  26.097  1.00  0.00     0.275 C 
BRANCH  23  24
ATOM     24  O   UNL A   1      33.272  30.557  26.469  1.00  0.00    -0.458 OA
BRANCH  24  25
ATOM     25  C   UNL A   1      33.646  31.592  27.257  1.00  0.00     0.338 C 
ATOM     26  O   UNL A   1      33.110  32.677  27.376  1.00  0.00    -0.246 OA
BRANCH  25  27
ATOM     27  C   UNL A   1      34.834  31.177  28.000  1.00  0.00     0.060 A 
ATOM     28  C   UNL A   1      34.898  29.884  28.518  1.00  0.00     0.016 A 
ATOM     29  C   UNL A   1      35.879  32.085  28.163  1.00  0.00     0.016 A 
ATOM     30  C   UNL A   1      36.034  29.488  29.212  1.00  0.00     0.010 A 
ATOM     31  C   UNL A   1      37.033  31.671  28.819  1.00  0.00     0.010 A 
ATOM     32  C   UNL A   1      37.115  30.372  29.347  1.00  0.00    -0.014 A 
BRANCH  32  33
ATOM     33  C   UNL A   1      38.359  29.916  30.000  1.00  0.00     0.031 A 
ATOM     34  C   UNL A   1      38.726  30.426  31.361  1.00  0.00     0.074 A 
ATOM     35  C   UNL A   1      39.169  29.077  29.327  1.00  0.00     0.049 A 
ATOM     36  N   UNL A   1      39.779  30.153  32.084  1.00  0.00    -0.248 NA
ATOM     37  C   UNL A   1      37.797  31.381  31.986  1.00  0.00     0.031 C 
ATOM     38  C   UNL A   1      38.915  28.566  27.976  1.00  0.00     0.029 A 
ATOM     39  N   UNL A   1      40.370  28.517  29.674  1.00  0.00    -0.354 N 
ATOM     40  C   UNL A   1      39.664  30.932  33.228  1.00  0.00     0.074 A 
ATOM     41  C   UNL A   1      38.441  31.695  33.100  1.00  0.00     0.031 C 
ATOM     42  C   UNL A   1      39.927  27.762  27.613  1.00  0.00     0.029 A 
ATOM     43  C   UNL A   1      40.910  27.725  28.689  1.00  0.00     0.049 A 
ATOM     44  H   UNL A   1      40.804  28.668  30.544  1.00  0.00     0.167 HD
ATOM     45  C   UNL A   1      40.498  30.990  34.292  1.00  0.00     0.034 A 
ATOM     46  C   UNL A   1      42.074  27.049  28.660  1.00  0.00     0.034 A 
ATOM     47  C   UNL A   1      41.694  30.198  34.410  1.00  0.00     0.049 A 
ATOM     48  C   UNL A   1      42.956  27.096  29.876  1.00  0.00     0.074 A 
ATOM     49  C   UNL A   1      42.579  30.125  35.469  1.00  0.00     0.029 A 
ATOM     50  N   UNL A   1      42.175  29.347  33.425  1.00  0.00    -0.354 N 
ATOM     51  N   UNL A   1      42.765  27.731  31.009  1.00  0.00    -0.248 NA
ATOM     52  C   UNL A   1      44.195  26.308  29.828  1.00  0.00     0.031 C 
ATOM     53  C   UNL A   1      43.609  29.245  35.115  1.00  0.00     0.029 A 
ATOM     54  C   UNL A   1      43.349  28.748  33.847  1.00  0.00     0.049 A 
ATOM     55  H   UNL A   1      41.744  29.190  32.553  1.00  0.00     0.167 HD
ATOM     56  C   UNL A   1      43.838  27.390  31.822  1.00  0.00     0.074 A 
ATOM     57  C   UNL A   1      44.664  26.477  31.057  1.00  0.00     0.031 C 
ATOM     58  C   UNL A   1      44.123  27.803  33.082  1.00  0.00     0.034 A 
BRANCH  45  59
ATOM     59  C   UNL A   1      40.134  31.924  35.418  1.00  0.00     0.023 A 
ATOM     60  C   UNL A   1      40.790  33.165  35.539  1.00  0.00     0.012 A 
ATOM     61  C   UNL A   1      39.119  31.588  36.336  1.00  0.00     0.148 A 
ATOM     62  C   UNL A   1      40.469  34.042  36.575  1.00  0.00     0.002 A 
ATOM     63  C   UNL A   1      38.775  32.485  37.340  1.00  0.00     0.091 A 
ATOM     64  F   UNL A   1      38.524  30.393  36.220  1.00  0.00    -0.205 F 
ATOM     65  C   UNL A   1      39.457  33.706  37.469  1.00  0.00     0.022 A 
BRANCH  63  66
ATOM     66  S   UNL A   1      37.435  32.175  38.496  1.00  0.00     0.127 S 
ATOM     67  O   UNL A   1      38.002  32.679  39.747  1.00  0.00    -0.237 OA
ATOM     68  O   UNL A   1      36.355  32.993  37.944  1.00  0.00    -0.237 OA
ATOM     69  O   UNL A   1      37.192  30.740  38.454  1.00  0.00    -0.744 OA
ENDBRANCH  63  66
ENDBRANCH  45  59
BRANCH  46  70
ATOM     70  C   UNL A   1      42.423  26.213  27.476  1.00  0.00     0.023 A 
ATOM     71  C   UNL A   1      43.166  26.784  26.425  1.00  0.00     0.012 A 
ATOM     72  C   UNL A   1      42.065  24.852  27.403  1.00  0.00     0.148 A 
ATOM     73  C   UNL A   1      43.521  26.024  25.310  1.00  0.00     0.002 A 
ATOM     74  C   UNL A   1      42.469  24.087  26.315  1.00  0.00     0.091 A 
ATOM     75  F   UNL A   1      41.349  24.328  28.409  1.00  0.00    -0.205 F 
ATOM     76  C   UNL A   1      43.182  24.675  25.259  1.00  0.00     0.022 A 
BRANCH  74  77
ATOM     77  S   UNL A   1      42.189  22.315  26.228  1.00  0.00     0.127 S 
ATOM     78  O   UNL A   1      40.733  22.244  26.140  1.00  0.00    -0.237 OA
ATOM     79  O   UNL A   1      42.899  21.954  24.999  1.00  0.00    -0.237 OA
ATOM     80  O   UNL A   1      42.779  21.765  27.442  1.00  0.00    -0.744 OA
ENDBRANCH  74  77
ENDBRANCH  46  70
BRANCH  58  81
ATOM     81  C   UNL A   1      45.360  27.238  33.728  1.00  0.00     0.023 A 
ATOM     82  C   UNL A   1      46.598  27.887  33.561  1.00  0.00     0.012 A 
ATOM     83  C   UNL A   1      45.279  26.099  34.552  1.00  0.00     0.148 A 
ATOM     84  C   UNL A   1      47.746  27.390  34.177  1.00  0.00     0.002 A 
ATOM     85  C   UNL A   1      46.416  25.640  35.204  1.00  0.00     0.091 A 
ATOM     86  F   UNL A   1      44.094  25.481  34.679  1.00  0.00    -0.205 F 
ATOM     87  C   UNL A   1      47.652  26.276  35.008  1.00  0.00     0.022 A 
BRANCH  85  88
ATOM     88  S   UNL A   1      46.361  24.275  36.370  1.00  0.00     0.127 S 
ATOM     89  O   UNL A   1      45.929  23.170  35.516  1.00  0.00    -0.237 OA
ATOM     90  O   UNL A   1      47.752  24.191  36.820  1.00  0.00    -0.237 OA
ATOM     91  O   UNL A   1      45.419  24.675  37.407  1.00  0.00    -0.744 OA
ENDBRANCH  85  88
ENDBRANCH  58  81
ENDBRANCH  32  33
ENDBRANCH  25  27
ENDBRANCH  24  25
ENDBRANCH  23  24
ENDBRANCH   1  23
TORSDOF 19
ENDMDL
