MODEL 1
REMARK VINA RESULT:     -12.3      0.000      0.000
REMARK SMILES NC(=O)C[C@@H](C(=O)OCCOC(=O)c1ccc(-c2c3nc(c(-c4cccc(S(=O)(=O)[O-])c4F)c4ccc([nH]4)c(-c4cccc(S(=O)(=O)[O-])c4F)c4nc(c(-c5cccc(S(=O)(=O)[O-])c5F)c5ccc2[nH]5)C=C4)C=C3)cc1)N1C(=O)/C(=C/c2ccccc2)SC1=S
REMARK SMILES IDX 10 1 9 2 8 3 6 4 7 5 5 6 4 7 2 8 1 9 3 12 77 13 78 14 89 15
REMARK SMILES IDX 79 16 80 17 88 18 90 19 81 20 82 21 83 22 87 23 84 24 86 25
REMARK SMILES IDX 85 26 11 27 12 28 13 29 14 30 15 31 76 32 16 33 75 34 17 35
REMARK SMILES IDX 18 36 19 37 69 38 20 39 74 40 68 41 70 42 21 43 73 44 67 45
REMARK SMILES IDX 66 46 22 48 54 49 34 50 53 51 35 52 38 53 52 54 71 55 36 56
REMARK SMILES IDX 37 57 51 59 72 60 39 61 23 62 24 63 32 64 25 65 27 66 33 67
REMARK SMILES IDX 26 68 28 69 29 70 30 71 31 72 55 73 56 74 64 75 57 76 59 77
REMARK SMILES IDX 65 78 58 79 60 80 61 81 62 82 63 83 40 84 41 85 49 86 42 87
REMARK SMILES IDX 44 88 50 89 43 90 45 91 46 92 47 93 48 94
REMARK H PARENT 1 10 1 11 70 47 38 58
REMARK Flexibility Score: inf
ROOT
ATOM      1  C   UNL A   1      36.270  20.995  24.909  1.00  0.00     0.275 C 
ENDROOT
BRANCH   1   2
ATOM      2  C   UNL A   1      35.116  21.980  25.069  1.00  0.00     0.274 C 
BRANCH   2   3
ATOM      3  O   UNL A   1      35.094  22.916  23.970  1.00  0.00    -0.461 OA
BRANCH   3   4
ATOM      4  C   UNL A   1      34.174  23.918  24.011  1.00  0.00     0.329 C 
ATOM      5  O   UNL A   1      34.433  25.071  24.338  1.00  0.00    -0.250 OA
BRANCH   4   6
ATOM      6  C   UNL A   1      32.743  23.422  23.718  1.00  0.00     0.211 C 
BRANCH   6   7
ATOM      7  C   UNL A   1      32.608  22.763  22.339  1.00  0.00     0.137 C 
BRANCH   7   8
ATOM      8  C   UNL A   1      32.125  21.342  22.494  1.00  0.00     0.220 C 
ATOM      9  N   UNL A   1      31.640  20.760  21.362  1.00  0.00    -0.370 N 
ATOM     10  H   UNL A   1      31.309  19.834  21.388  1.00  0.00     0.159 HD
ATOM     11  H   UNL A   1      31.624  21.266  20.517  1.00  0.00     0.159 HD
ATOM     12  O   UNL A   1      32.168  20.729  23.554  1.00  0.00    -0.275 OA
ENDBRANCH   7   8
ENDBRANCH   6   7
BRANCH   6  13
ATOM     13  N   UNL A   1      31.801  24.562  23.931  1.00  0.00    -0.278 N 
ATOM     14  C   UNL A   1      31.564  25.479  22.921  1.00  0.00     0.267 C 
ATOM     15  C   UNL A   1      31.206  24.847  25.147  1.00  0.00     0.149 C 
ATOM     16  O   UNL A   1      32.034  25.429  21.793  1.00  0.00    -0.268 OA
ATOM     17  C   UNL A   1      30.674  26.582  23.388  1.00  0.00     0.081 C 
ATOM     18  S   UNL A   1      30.226  26.303  25.016  1.00  0.00    -0.054 SA
ATOM     19  S   UNL A   1      31.303  23.990  26.577  1.00  0.00    -0.052 S 
ATOM     20  C   UNL A   1      30.354  27.605  22.580  1.00  0.00     0.029 C 
BRANCH  20  21
ATOM     21  C   UNL A   1      29.569  28.826  22.852  1.00  0.00    -0.024 A 
ATOM     22  C   UNL A   1      30.167  29.851  23.604  1.00  0.00     0.008 A 
ATOM     23  C   UNL A   1      28.216  28.957  22.516  1.00  0.00     0.008 A 
ATOM     24  C   UNL A   1      29.440  30.985  23.979  1.00  0.00     0.001 A 
ATOM     25  C   UNL A   1      27.494  30.099  22.879  1.00  0.00     0.001 A 
ATOM     26  C   UNL A   1      28.105  31.112  23.611  1.00  0.00     0.000 A 
ENDBRANCH  20  21
ENDBRANCH   6  13
ENDBRANCH   4   6
ENDBRANCH   3   4
ENDBRANCH   2   3
ENDBRANCH   1   2
BRANCH   1  27
ATOM     27  O   UNL A   1      37.504  21.725  24.842  1.00  0.00    -0.458 OA
BRANCH  27  28
ATOM     28  C   UNL A   1      38.518  21.255  25.603  1.00  0.00     0.338 C 
ATOM     29  O   UNL A   1      38.930  20.106  25.654  1.00  0.00    -0.246 OA
BRANCH  28  30
ATOM     30  C   UNL A   1      39.103  22.384  26.345  1.00  0.00     0.060 A 
ATOM     31  C   UNL A   1      38.547  23.649  26.185  1.00  0.00     0.016 A 
ATOM     32  C   UNL A   1      40.247  22.217  27.124  1.00  0.00     0.016 A 
ATOM     33  C   UNL A   1      39.197  24.763  26.707  1.00  0.00     0.010 A 
ATOM     34  C   UNL A   1      40.842  23.335  27.729  1.00  0.00     0.010 A 
ATOM     35  C   UNL A   1      40.362  24.633  27.480  1.00  0.00    -0.014 A 
BRANCH  35  36
ATOM     36  C   UNL A   1      41.074  25.868  27.940  1.00  0.00     0.031 A 
ATOM     37  C   UNL A   1      42.444  26.225  27.407  1.00  0.00     0.074 A 
ATOM     38  C   UNL A   1      40.451  26.741  28.761  1.00  0.00     0.049 A 
ATOM     39  N   UNL A   1      43.191  27.266  27.684  1.00  0.00    -0.248 NA
ATOM     40  C   UNL A   1      43.071  25.287  26.461  1.00  0.00     0.031 C 
ATOM     41  C   UNL A   1      39.128  26.543  29.353  1.00  0.00     0.029 A 
ATOM     42  N   UNL A   1      40.814  27.998  29.186  1.00  0.00    -0.354 N 
ATOM     43  C   UNL A   1      44.389  27.074  27.006  1.00  0.00     0.074 A 
ATOM     44  C   UNL A   1      44.282  25.809  26.314  1.00  0.00     0.031 C 
ATOM     45  C   UNL A   1      38.733  27.680  29.942  1.00  0.00     0.029 A 
ATOM     46  C   UNL A   1      39.806  28.665  29.847  1.00  0.00     0.049 A 
ATOM     47  H   UNL A   1      41.706  28.383  29.032  1.00  0.00     0.167 HD
ATOM     48  C   UNL A   1      45.470  27.887  26.933  1.00  0.00     0.034 A 
ATOM     49  C   UNL A   1      39.737  29.933  30.304  1.00  0.00     0.034 A 
ATOM     50  C   UNL A   1      45.538  29.211  27.492  1.00  0.00     0.049 A 
ATOM     51  C   UNL A   1      40.931  30.836  30.161  1.00  0.00     0.074 A 
ATOM     52  C   UNL A   1      46.580  30.120  27.423  1.00  0.00     0.029 A 
ATOM     53  N   UNL A   1      44.513  29.832  28.186  1.00  0.00    -0.354 N 
ATOM     54  N   UNL A   1      42.051  30.631  29.515  1.00  0.00    -0.248 NA
ATOM     55  C   UNL A   1      40.843  32.152  30.813  1.00  0.00     0.031 C 
ATOM     56  C   UNL A   1      46.182  31.296  28.071  1.00  0.00     0.029 A 
ATOM     57  C   UNL A   1      44.892  31.119  28.541  1.00  0.00     0.049 A 
ATOM     58  H   UNL A   1      43.643  29.422  28.397  1.00  0.00     0.167 HD
ATOM     59  C   UNL A   1      42.803  31.787  29.684  1.00  0.00     0.074 A 
ATOM     60  C   UNL A   1      41.988  32.711  30.445  1.00  0.00     0.031 C 
ATOM     61  C   UNL A   1      44.069  32.046  29.272  1.00  0.00     0.034 A 
BRANCH  48  62
ATOM     62  C   UNL A   1      46.671  27.390  26.173  1.00  0.00     0.023 A 
ATOM     63  C   UNL A   1      46.773  27.630  24.788  1.00  0.00     0.012 A 
ATOM     64  C   UNL A   1      47.731  26.748  26.844  1.00  0.00     0.148 A 
ATOM     65  C   UNL A   1      47.902  27.219  24.080  1.00  0.00     0.002 A 
ATOM     66  C   UNL A   1      48.869  26.375  26.138  1.00  0.00     0.091 A 
ATOM     67  F   UNL A   1      47.604  26.502  28.156  1.00  0.00    -0.205 F 
ATOM     68  C   UNL A   1      48.953  26.603  24.755  1.00  0.00     0.022 A 
BRANCH  66  69
ATOM     69  S   UNL A   1      50.297  25.649  26.952  1.00  0.00     0.127 S 
ATOM     70  O   UNL A   1      51.229  25.498  25.837  1.00  0.00    -0.237 OA
ATOM     71  O   UNL A   1      50.668  26.682  27.921  1.00  0.00    -0.237 OA
ATOM     72  O   UNL A   1      49.815  24.411  27.551  1.00  0.00    -0.744 OA
ENDBRANCH  66  69
ENDBRANCH  48  62
BRANCH  49  73
ATOM     73  C   UNL A   1      38.454  30.458  30.854  1.00  0.00     0.023 A 
ATOM     74  C   UNL A   1      38.227  30.382  32.243  1.00  0.00     0.012 A 
ATOM     75  C   UNL A   1      37.487  31.075  30.040  1.00  0.00     0.148 A 
ATOM     76  C   UNL A   1      37.061  30.903  32.807  1.00  0.00     0.002 A 
ATOM     77  C   UNL A   1      36.364  31.659  30.616  1.00  0.00     0.091 A 
ATOM     78  F   UNL A   1      37.688  31.103  28.714  1.00  0.00    -0.205 F 
ATOM     79  C   UNL A   1      36.139  31.561  31.997  1.00  0.00     0.022 A 
BRANCH  77  80
ATOM     80  S   UNL A   1      35.248  32.675  29.643  1.00  0.00     0.127 S 
ATOM     81  O   UNL A   1      34.299  33.138  30.651  1.00  0.00    -0.237 OA
ATOM     82  O   UNL A   1      36.139  33.708  29.114  1.00  0.00    -0.237 OA
ATOM     83  O   UNL A   1      34.722  31.772  28.625  1.00  0.00    -0.744 OA
ENDBRANCH  77  80
ENDBRANCH  49  73
BRANCH  61  84
ATOM     84  C   UNL A   1      44.662  33.375  29.660  1.00  0.00     0.023 A 
ATOM     85  C   UNL A   1      45.393  33.478  30.861  1.00  0.00     0.012 A 
ATOM     86  C   UNL A   1      44.540  34.506  28.830  1.00  0.00     0.148 A 
ATOM     87  C   UNL A   1      45.957  34.692  31.251  1.00  0.00     0.002 A 
ATOM     88  C   UNL A   1      45.141  35.704  29.205  1.00  0.00     0.091 A 
ATOM     89  F   UNL A   1      43.824  34.401  27.701  1.00  0.00    -0.205 F 
ATOM     90  C   UNL A   1      45.840  35.802  30.419  1.00  0.00     0.022 A 
BRANCH  88  91
ATOM     91  S   UNL A   1      45.106  37.153  28.143  1.00  0.00     0.127 S 
ATOM     92  O   UNL A   1      45.592  38.197  29.043  1.00  0.00    -0.237 OA
ATOM     93  O   UNL A   1      46.036  36.789  27.073  1.00  0.00    -0.237 OA
ATOM     94  O   UNL A   1      43.720  37.281  27.710  1.00  0.00    -0.744 OA
ENDBRANCH  88  91
ENDBRANCH  61  84
ENDBRANCH  35  36
ENDBRANCH  28  30
ENDBRANCH  27  28
ENDBRANCH   1  27
TORSDOF 18
ENDMDL
MODEL 2
REMARK VINA RESULT:     -12.3      4.804     10.132
REMARK SMILES NC(=O)C[C@@H](C(=O)OCCOC(=O)c1ccc(-c2c3nc(c(-c4cccc(S(=O)(=O)[O-])c4F)c4ccc([nH]4)c(-c4cccc(S(=O)(=O)[O-])c4F)c4nc(c(-c5cccc(S(=O)(=O)[O-])c5F)c5ccc2[nH]5)C=C4)C=C3)cc1)N1C(=O)/C(=C/c2ccccc2)SC1=S
REMARK SMILES IDX 10 1 9 2 8 3 6 4 7 5 5 6 4 7 2 8 1 9 3 12 77 13 78 14 89 15
REMARK SMILES IDX 79 16 80 17 88 18 90 19 81 20 82 21 83 22 87 23 84 24 86 25
REMARK SMILES IDX 85 26 11 27 12 28 13 29 14 30 15 31 76 32 16 33 75 34 17 35
REMARK SMILES IDX 18 36 19 37 69 38 20 39 74 40 68 41 70 42 21 43 73 44 67 45
REMARK SMILES IDX 66 46 22 48 54 49 34 50 53 51 35 52 38 53 52 54 71 55 36 56
REMARK SMILES IDX 37 57 51 59 72 60 39 61 23 62 24 63 32 64 25 65 27 66 33 67
REMARK SMILES IDX 26 68 28 69 29 70 30 71 31 72 55 73 56 74 64 75 57 76 59 77
REMARK SMILES IDX 65 78 58 79 60 80 61 81 62 82 63 83 40 84 41 85 49 86 42 87
REMARK SMILES IDX 44 88 50 89 43 90 45 91 46 92 47 93 48 94
REMARK H PARENT 1 10 1 11 70 47 38 58
REMARK Flexibility Score: inf
ROOT
ATOM      1  C   UNL A   1      31.977  29.501  27.108  1.00  0.00     0.275 C 
ENDROOT
BRANCH   1   2
ATOM      2  C   UNL A   1      31.393  28.518  26.098  1.00  0.00     0.274 C 
BRANCH   2   3
ATOM      3  O   UNL A   1      31.426  27.173  26.624  1.00  0.00    -0.461 OA
BRANCH   3   4
ATOM      4  C   UNL A   1      32.014  26.211  25.861  1.00  0.00     0.329 C 
ATOM      5  O   UNL A   1      33.153  25.797  26.042  1.00  0.00    -0.250 OA
BRANCH   4   6
ATOM      6  C   UNL A   1      31.136  25.780  24.669  1.00  0.00     0.211 C 
BRANCH   6   7
ATOM      7  C   UNL A   1      29.645  25.691  25.022  1.00  0.00     0.137 C 
BRANCH   7   8
ATOM      8  C   UNL A   1      28.840  26.539  24.069  1.00  0.00     0.220 C 
ATOM      9  N   UNL A   1      27.493  26.335  24.097  1.00  0.00    -0.370 N 
ATOM     10  H   UNL A   1      26.905  26.853  23.503  1.00  0.00     0.159 HD
ATOM     11  H   UNL A   1      27.109  25.670  24.714  1.00  0.00     0.159 HD
ATOM     12  O   UNL A   1      29.340  27.370  23.321  1.00  0.00    -0.275 OA
ENDBRANCH   7   8
ENDBRANCH   6   7
BRANCH   6  13
ATOM     13  N   UNL A   1      31.695  24.512  24.112  1.00  0.00    -0.278 N 
ATOM     14  C   UNL A   1      31.474  23.303  24.750  1.00  0.00     0.267 C 
ATOM     15  C   UNL A   1      32.545  24.462  23.021  1.00  0.00     0.149 C 
ATOM     16  O   UNL A   1      30.793  23.145  25.754  1.00  0.00    -0.268 OA
ATOM     17  C   UNL A   1      32.207  22.191  24.077  1.00  0.00     0.081 C 
ATOM     18  S   UNL A   1      33.045  22.803  22.716  1.00  0.00    -0.054 SA
ATOM     19  S   UNL A   1      33.058  25.718  22.047  1.00  0.00    -0.052 S 
ATOM     20  C   UNL A   1      32.169  20.940  24.562  1.00  0.00     0.029 C 
BRANCH  20  21
ATOM     21  C   UNL A   1      32.871  19.721  24.113  1.00  0.00    -0.024 A 
ATOM     22  C   UNL A   1      32.254  18.915  23.143  1.00  0.00     0.008 A 
ATOM     23  C   UNL A   1      34.053  19.257  24.703  1.00  0.00     0.008 A 
ATOM     24  C   UNL A   1      32.821  17.697  22.753  1.00  0.00     0.001 A 
ATOM     25  C   UNL A   1      34.627  18.046  24.301  1.00  0.00     0.001 A 
ATOM     26  C   UNL A   1      34.011  17.266  23.328  1.00  0.00     0.000 A 
ENDBRANCH  20  21
ENDBRANCH   6  13
ENDBRANCH   4   6
ENDBRANCH   3   4
ENDBRANCH   2   3
ENDBRANCH   1   2
BRANCH   1  27
ATOM     27  O   UNL A   1      32.762  30.479  26.410  1.00  0.00    -0.458 OA
BRANCH  27  28
ATOM     28  C   UNL A   1      33.181  31.538  27.139  1.00  0.00     0.338 C 
ATOM     29  O   UNL A   1      32.540  32.541  27.419  1.00  0.00    -0.246 OA
BRANCH  28  30
ATOM     30  C   UNL A   1      34.552  31.270  27.602  1.00  0.00     0.060 A 
ATOM     31  C   UNL A   1      34.976  29.949  27.707  1.00  0.00     0.016 A 
ATOM     32  C   UNL A   1      35.387  32.307  28.017  1.00  0.00     0.016 A 
ATOM     33  C   UNL A   1      36.184  29.657  28.331  1.00  0.00     0.010 A 
ATOM     34  C   UNL A   1      36.648  32.007  28.556  1.00  0.00     0.010 A 
ATOM     35  C   UNL A   1      37.041  30.676  28.779  1.00  0.00    -0.014 A 
BRANCH  35  36
ATOM     36  C   UNL A   1      38.285  30.307  29.527  1.00  0.00     0.031 A 
ATOM     37  C   UNL A   1      38.453  30.661  30.988  1.00  0.00     0.074 A 
ATOM     38  C   UNL A   1      39.235  29.554  28.929  1.00  0.00     0.049 A 
ATOM     39  N   UNL A   1      39.457  30.399  31.789  1.00  0.00    -0.248 NA
ATOM     40  C   UNL A   1      37.372  31.425  31.631  1.00  0.00     0.031 C 
ATOM     41  C   UNL A   1      39.214  29.127  27.530  1.00  0.00     0.029 A 
ATOM     42  N   UNL A   1      40.364  28.956  29.436  1.00  0.00    -0.354 N 
ATOM     43  C   UNL A   1      39.160  31.019  32.997  1.00  0.00     0.074 A 
ATOM     44  C   UNL A   1      37.888  31.685  32.824  1.00  0.00     0.031 C 
ATOM     45  C   UNL A   1      40.192  28.233  27.327  1.00  0.00     0.029 A 
ATOM     46  C   UNL A   1      40.966  28.083  28.555  1.00  0.00     0.049 A 
ATOM     47  H   UNL A   1      40.709  29.133  30.341  1.00  0.00     0.167 HD
ATOM     48  C   UNL A   1      39.857  31.010  34.158  1.00  0.00     0.034 A 
ATOM     49  C   UNL A   1      42.004  27.237  28.719  1.00  0.00     0.034 A 
ATOM     50  C   UNL A   1      41.046  30.233  34.392  1.00  0.00     0.049 A 
ATOM     51  C   UNL A   1      42.729  27.204  30.036  1.00  0.00     0.074 A 
ATOM     52  C   UNL A   1      41.789  30.131  35.556  1.00  0.00     0.029 A 
ATOM     53  N   UNL A   1      41.643  29.396  33.463  1.00  0.00    -0.354 N 
ATOM     54  N   UNL A   1      42.427  27.798  31.162  1.00  0.00    -0.248 NA
ATOM     55  C   UNL A   1      43.942  26.373  30.099  1.00  0.00     0.031 C 
ATOM     56  C   UNL A   1      42.833  29.226  35.333  1.00  0.00     0.029 A 
ATOM     57  C   UNL A   1      42.738  28.763  34.032  1.00  0.00     0.049 A 
ATOM     58  H   UNL A   1      41.335  29.269  32.537  1.00  0.00     0.167 HD
ATOM     59  C   UNL A   1      43.411  27.419  32.067  1.00  0.00     0.074 A 
ATOM     60  C   UNL A   1      44.287  26.498  31.373  1.00  0.00     0.031 C 
ATOM     61  C   UNL A   1      43.591  27.825  33.349  1.00  0.00     0.034 A 
BRANCH  48  62
ATOM     62  C   UNL A   1      39.328  31.834  35.301  1.00  0.00     0.023 A 
ATOM     63  C   UNL A   1      38.418  31.265  36.214  1.00  0.00     0.012 A 
ATOM     64  C   UNL A   1      39.787  33.149  35.511  1.00  0.00     0.148 A 
ATOM     65  C   UNL A   1      37.956  32.000  37.305  1.00  0.00     0.002 A 
ATOM     66  C   UNL A   1      39.351  33.863  36.623  1.00  0.00     0.091 A 
ATOM     67  F   UNL A   1      40.631  33.685  34.618  1.00  0.00    -0.205 F 
ATOM     68  C   UNL A   1      38.431  33.292  37.516  1.00  0.00     0.022 A 
BRANCH  66  69
ATOM     69  S   UNL A   1      39.979  35.503  37.005  1.00  0.00     0.127 S 
ATOM     70  O   UNL A   1      39.272  35.809  38.246  1.00  0.00    -0.237 OA
ATOM     71  O   UNL A   1      41.414  35.264  37.165  1.00  0.00    -0.237 OA
ATOM     72  O   UNL A   1      39.634  36.329  35.855  1.00  0.00    -0.744 OA
ENDBRANCH  66  69
ENDBRANCH  48  62
BRANCH  49  73
ATOM     73  C   UNL A   1      42.361  26.277  27.635  1.00  0.00     0.023 A 
ATOM     74  C   UNL A   1      43.368  26.633  26.715  1.00  0.00     0.012 A 
ATOM     75  C   UNL A   1      41.765  25.007  27.533  1.00  0.00     0.148 A 
ATOM     76  C   UNL A   1      43.768  25.747  25.713  1.00  0.00     0.002 A 
ATOM     77  C   UNL A   1      42.219  24.102  26.580  1.00  0.00     0.091 A 
ATOM     78  F   UNL A   1      40.775  24.694  28.381  1.00  0.00    -0.205 F 
ATOM     79  C   UNL A   1      43.208  24.473  25.659  1.00  0.00     0.022 A 
BRANCH  77  80
ATOM     80  S   UNL A   1      41.664  22.393  26.591  1.00  0.00     0.127 S 
ATOM     81  O   UNL A   1      42.293  21.861  25.386  1.00  0.00    -0.237 OA
ATOM     82  O   UNL A   1      42.215  21.888  27.849  1.00  0.00    -0.237 OA
ATOM     83  O   UNL A   1      40.209  22.479  26.577  1.00  0.00    -0.744 OA
ENDBRANCH  77  80
ENDBRANCH  49  73
BRANCH  61  84
ATOM     84  C   UNL A   1      44.796  27.294  34.078  1.00  0.00     0.023 A 
ATOM     85  C   UNL A   1      46.018  27.991  33.985  1.00  0.00     0.012 A 
ATOM     86  C   UNL A   1      44.721  26.142  34.883  1.00  0.00     0.148 A 
ATOM     87  C   UNL A   1      47.155  27.530  34.649  1.00  0.00     0.002 A 
ATOM     88  C   UNL A   1      45.849  25.710  35.576  1.00  0.00     0.091 A 
ATOM     89  F   UNL A   1      43.559  25.475  34.945  1.00  0.00    -0.205 F 
ATOM     90  C   UNL A   1      47.068  26.395  35.451  1.00  0.00     0.022 A 
BRANCH  88  91
ATOM     91  S   UNL A   1      45.791  24.306  36.697  1.00  0.00     0.127 S 
ATOM     92  O   UNL A   1      44.742  24.711  37.631  1.00  0.00    -0.237 OA
ATOM     93  O   UNL A   1      45.423  23.203  35.809  1.00  0.00    -0.237 OA
ATOM     94  O   UNL A   1      47.133  24.202  37.254  1.00  0.00    -0.744 OA
ENDBRANCH  88  91
ENDBRANCH  61  84
ENDBRANCH  35  36
ENDBRANCH  28  30
ENDBRANCH  27  28
ENDBRANCH   1  27
TORSDOF 18
ENDMDL
MODEL 3
REMARK VINA RESULT:     -12.1      4.701     10.070
REMARK SMILES NC(=O)C[C@@H](C(=O)OCCOC(=O)c1ccc(-c2c3nc(c(-c4cccc(S(=O)(=O)[O-])c4F)c4ccc([nH]4)c(-c4cccc(S(=O)(=O)[O-])c4F)c4nc(c(-c5cccc(S(=O)(=O)[O-])c5F)c5ccc2[nH]5)C=C4)C=C3)cc1)N1C(=O)/C(=C/c2ccccc2)SC1=S
REMARK SMILES IDX 10 1 9 2 8 3 6 4 7 5 5 6 4 7 2 8 1 9 3 12 77 13 78 14 89 15
REMARK SMILES IDX 79 16 80 17 88 18 90 19 81 20 82 21 83 22 87 23 84 24 86 25
REMARK SMILES IDX 85 26 11 27 12 28 13 29 14 30 15 31 76 32 16 33 75 34 17 35
REMARK SMILES IDX 18 36 19 37 69 38 20 39 74 40 68 41 70 42 21 43 73 44 67 45
REMARK SMILES IDX 66 46 22 48 54 49 34 50 53 51 35 52 38 53 52 54 71 55 36 56
REMARK SMILES IDX 37 57 51 59 72 60 39 61 23 62 24 63 32 64 25 65 27 66 33 67
REMARK SMILES IDX 26 68 28 69 29 70 30 71 31 72 55 73 56 74 64 75 57 76 59 77
REMARK SMILES IDX 65 78 58 79 60 80 61 81 62 82 63 83 40 84 41 85 49 86 42 87
REMARK SMILES IDX 44 88 50 89 43 90 45 91 46 92 47 93 48 94
REMARK H PARENT 1 10 1 11 70 47 38 58
REMARK Flexibility Score: inf
ROOT
ATOM      1  C   UNL A   1      31.688  30.634  25.858  1.00  0.00     0.275 C 
ENDROOT
BRANCH   1   2
ATOM      2  C   UNL A   1      32.485  29.649  25.009  1.00  0.00     0.274 C 
BRANCH   2   3
ATOM      3  O   UNL A   1      31.894  28.333  25.072  1.00  0.00    -0.461 OA
BRANCH   3   4
ATOM      4  C   UNL A   1      32.729  27.272  25.249  1.00  0.00     0.329 C 
ATOM      5  O   UNL A   1      33.403  27.095  26.257  1.00  0.00    -0.250 OA
BRANCH   4   6
ATOM      6  C   UNL A   1      32.825  26.378  23.996  1.00  0.00     0.211 C 
BRANCH   6   7
ATOM      7  C   UNL A   1      31.930  26.858  22.846  1.00  0.00     0.137 C 
BRANCH   7   8
ATOM      8  C   UNL A   1      32.461  26.341  21.532  1.00  0.00     0.220 C 
ATOM      9  N   UNL A   1      31.518  25.944  20.633  1.00  0.00    -0.370 N 
ATOM     10  H   UNL A   1      31.791  25.596  19.754  1.00  0.00     0.159 HD
ATOM     11  H   UNL A   1      30.562  26.007  20.863  1.00  0.00     0.159 HD
ATOM     12  O   UNL A   1      33.656  26.285  21.265  1.00  0.00    -0.275 OA
ENDBRANCH   7   8
ENDBRANCH   6   7
BRANCH   6  13
ATOM     13  N   UNL A   1      32.562  24.967  24.410  1.00  0.00    -0.278 N 
ATOM     14  C   UNL A   1      33.463  23.962  24.101  1.00  0.00     0.267 C 
ATOM     15  C   UNL A   1      31.386  24.549  25.008  1.00  0.00     0.149 C 
ATOM     16  O   UNL A   1      34.535  24.120  23.534  1.00  0.00    -0.268 OA
ATOM     17  C   UNL A   1      32.951  22.625  24.521  1.00  0.00     0.081 C 
ATOM     18  S   UNL A   1      31.426  22.810  25.276  1.00  0.00    -0.054 SA
ATOM     19  S   UNL A   1      30.077  25.472  25.479  1.00  0.00    -0.052 S 
ATOM     20  C   UNL A   1      33.647  21.505  24.273  1.00  0.00     0.029 C 
BRANCH  20  21
ATOM     21  C   UNL A   1      33.301  20.091  24.521  1.00  0.00    -0.024 A 
ATOM     22  C   UNL A   1      32.796  19.330  23.454  1.00  0.00     0.008 A 
ATOM     23  C   UNL A   1      33.321  19.510  25.795  1.00  0.00     0.008 A 
ATOM     24  C   UNL A   1      32.355  18.017  23.651  1.00  0.00     0.001 A 
ATOM     25  C   UNL A   1      32.894  18.191  25.988  1.00  0.00     0.001 A 
ATOM     26  C   UNL A   1      32.411  17.446  24.918  1.00  0.00     0.000 A 
ENDBRANCH  20  21
ENDBRANCH   6  13
ENDBRANCH   4   6
ENDBRANCH   3   4
ENDBRANCH   2   3
ENDBRANCH   1   2
BRANCH   1  27
ATOM     27  O   UNL A   1      32.325  30.773  27.137  1.00  0.00    -0.458 OA
BRANCH  27  28
ATOM     28  C   UNL A   1      33.010  31.920  27.342  1.00  0.00     0.338 C 
ATOM     29  O   UNL A   1      32.582  33.061  27.251  1.00  0.00    -0.246 OA
BRANCH  28  30
ATOM     30  C   UNL A   1      34.380  31.576  27.755  1.00  0.00     0.060 A 
ATOM     31  C   UNL A   1      34.694  30.240  27.982  1.00  0.00     0.016 A 
ATOM     32  C   UNL A   1      35.327  32.568  28.007  1.00  0.00     0.016 A 
ATOM     33  C   UNL A   1      35.911  29.903  28.568  1.00  0.00     0.010 A 
ATOM     34  C   UNL A   1      36.589  32.211  28.505  1.00  0.00     0.010 A 
ATOM     35  C   UNL A   1      36.879  30.880  28.852  1.00  0.00    -0.014 A 
BRANCH  35  36
ATOM     36  C   UNL A   1      38.133  30.477  29.566  1.00  0.00     0.031 A 
ATOM     37  C   UNL A   1      38.338  30.803  31.029  1.00  0.00     0.074 A 
ATOM     38  C   UNL A   1      39.056  29.719  28.935  1.00  0.00     0.049 A 
ATOM     39  N   UNL A   1      39.354  30.511  31.804  1.00  0.00    -0.248 NA
ATOM     40  C   UNL A   1      37.284  31.573  31.708  1.00  0.00     0.031 C 
ATOM     41  C   UNL A   1      38.998  29.316  27.530  1.00  0.00     0.029 A 
ATOM     42  N   UNL A   1      40.186  29.093  29.408  1.00  0.00    -0.354 N 
ATOM     43  C   UNL A   1      39.093  31.114  33.028  1.00  0.00     0.074 A 
ATOM     44  C   UNL A   1      37.830  31.804  32.895  1.00  0.00     0.031 C 
ATOM     45  C   UNL A   1      39.956  28.410  27.291  1.00  0.00     0.029 A 
ATOM     46  C   UNL A   1      40.754  28.226  28.500  1.00  0.00     0.049 A 
ATOM     47  H   UNL A   1      40.554  29.249  30.308  1.00  0.00     0.167 HD
ATOM     48  C   UNL A   1      39.815  31.074  34.174  1.00  0.00     0.034 A 
ATOM     49  C   UNL A   1      41.781  27.360  28.626  1.00  0.00     0.034 A 
ATOM     50  C   UNL A   1      40.996  30.273  34.369  1.00  0.00     0.049 A 
ATOM     51  C   UNL A   1      42.533  27.292  29.926  1.00  0.00     0.074 A 
ATOM     52  C   UNL A   1      41.762  30.139  35.514  1.00  0.00     0.029 A 
ATOM     53  N   UNL A   1      41.558  29.443  33.413  1.00  0.00    -0.354 N 
ATOM     54  N   UNL A   1      42.265  27.872  31.069  1.00  0.00    -0.248 NA
ATOM     55  C   UNL A   1      43.733  26.440  29.949  1.00  0.00     0.031 C 
ATOM     56  C   UNL A   1      42.785  29.220  35.253  1.00  0.00     0.029 A 
ATOM     57  C   UNL A   1      42.654  28.782  33.947  1.00  0.00     0.049 A 
ATOM     58  H   UNL A   1      41.228  29.337  32.491  1.00  0.00     0.167 HD
ATOM     59  C   UNL A   1      43.262  27.461  31.946  1.00  0.00     0.074 A 
ATOM     60  C   UNL A   1      44.107  26.537  31.218  1.00  0.00     0.031 C 
ATOM     61  C   UNL A   1      43.476  27.841  33.230  1.00  0.00     0.034 A 
BRANCH  48  62
ATOM     62  C   UNL A   1      39.325  31.887  35.342  1.00  0.00     0.023 A 
ATOM     63  C   UNL A   1      38.461  31.302  36.289  1.00  0.00     0.012 A 
ATOM     64  C   UNL A   1      39.776  33.207  35.538  1.00  0.00     0.148 A 
ATOM     65  C   UNL A   1      38.037  32.028  37.402  1.00  0.00     0.002 A 
ATOM     66  C   UNL A   1      39.379  33.910  36.670  1.00  0.00     0.091 A 
ATOM     67  F   UNL A   1      40.574  33.757  34.612  1.00  0.00    -0.205 F 
ATOM     68  C   UNL A   1      38.504  33.325  37.599  1.00  0.00     0.022 A 
BRANCH  66  69
ATOM     69  S   UNL A   1      40.001  35.556  37.033  1.00  0.00     0.127 S 
ATOM     70  O   UNL A   1      39.295  35.874  38.271  1.00  0.00    -0.237 OA
ATOM     71  O   UNL A   1      41.438  35.324  37.193  1.00  0.00    -0.237 OA
ATOM     72  O   UNL A   1      39.652  36.368  35.874  1.00  0.00    -0.744 OA
ENDBRANCH  66  69
ENDBRANCH  48  62
BRANCH  49  73
ATOM     73  C   UNL A   1      42.098  26.413  27.518  1.00  0.00     0.023 A 
ATOM     74  C   UNL A   1      42.993  26.821  26.509  1.00  0.00     0.012 A 
ATOM     75  C   UNL A   1      41.576  25.108  27.477  1.00  0.00     0.148 A 
ATOM     76  C   UNL A   1      43.356  25.952  25.479  1.00  0.00     0.002 A 
ATOM     77  C   UNL A   1      41.999  24.222  26.491  1.00  0.00     0.091 A 
ATOM     78  F   UNL A   1      40.689  24.742  28.414  1.00  0.00    -0.205 F 
ATOM     79  C   UNL A   1      42.875  24.645  25.482  1.00  0.00     0.022 A 
BRANCH  77  80
ATOM     80  S   UNL A   1      41.556  22.483  26.560  1.00  0.00     0.127 S 
ATOM     81  O   UNL A   1      40.100  22.535  26.481  1.00  0.00    -0.237 OA
ATOM     82  O   UNL A   1      42.220  21.938  25.375  1.00  0.00    -0.237 OA
ATOM     83  O   UNL A   1      42.119  22.010  27.820  1.00  0.00    -0.744 OA
ENDBRANCH  77  80
ENDBRANCH  49  73
BRANCH  61  84
ATOM     84  C   UNL A   1      44.688  27.278  33.924  1.00  0.00     0.023 A 
ATOM     85  C   UNL A   1      45.916  27.964  33.830  1.00  0.00     0.012 A 
ATOM     86  C   UNL A   1      44.613  26.104  34.698  1.00  0.00     0.148 A 
ATOM     87  C   UNL A   1      47.058  27.473  34.460  1.00  0.00     0.002 A 
ATOM     88  C   UNL A   1      45.747  25.642  35.360  1.00  0.00     0.091 A 
ATOM     89  F   UNL A   1      43.446  25.448  34.761  1.00  0.00    -0.205 F 
ATOM     90  C   UNL A   1      46.972  26.317  35.233  1.00  0.00     0.022 A 
BRANCH  88  91
ATOM     91  S   UNL A   1      45.693  24.209  36.442  1.00  0.00     0.127 S 
ATOM     92  O   UNL A   1      44.805  24.670  37.507  1.00  0.00    -0.237 OA
ATOM     93  O   UNL A   1      45.122  23.176  35.577  1.00  0.00    -0.237 OA
ATOM     94  O   UNL A   1      47.076  23.964  36.829  1.00  0.00    -0.744 OA
ENDBRANCH  88  91
ENDBRANCH  61  84
ENDBRANCH  35  36
ENDBRANCH  28  30
ENDBRANCH  27  28
ENDBRANCH   1  27
TORSDOF 18
ENDMDL
