MODEL 1
REMARK VINA RESULT:     -14.1      0.000      0.000
REMARK SMILES O=C(NC1(C(=O)OCCOC(=O)c2ccc(-c3c4nc(c(-c5cccc(S(=O)(=O)[O-])c5F)c5ccc([nH]5)c(-c5cccc(S(=O)(=O)[O-])c5F)c5nc(c(-c6cccc(S(=O)(=O)[O-])c6F)c6ccc3[nH]6)C=C5)C=C4)cc2)CC[NH2+]CC1)OCC1c2ccccc2-c2ccccc21
REMARK SMILES IDX 8 1 7 2 5 3 6 4 4 5 76 6 80 7 77 8 79 9 78 10 3 13 1 14 2 15
REMARK SMILES IDX 81 17 82 18 83 19 84 20 95 21 85 22 89 23 90 24 94 25 86 26
REMARK SMILES IDX 88 27 91 28 93 29 87 30 92 31 9 32 10 33 11 34 12 35 13 36
REMARK SMILES IDX 14 37 75 38 15 39 74 40 16 41 17 42 18 43 68 44 19 45 73 46
REMARK SMILES IDX 67 47 69 48 20 49 72 50 66 51 65 52 21 54 53 55 33 56 52 57
REMARK SMILES IDX 34 58 37 59 51 60 70 61 35 62 36 63 50 65 71 66 38 67 22 68
REMARK SMILES IDX 23 69 31 70 24 71 26 72 32 73 25 74 27 75 28 76 29 77 30 78
REMARK SMILES IDX 54 79 55 80 63 81 56 82 58 83 64 84 57 85 59 86 60 87 61 88
REMARK SMILES IDX 62 89 39 90 40 91 48 92 41 93 43 94 49 95 42 96 44 97 45 98
REMARK SMILES IDX 46 99 47 100
REMARK H PARENT 78 11 78 12 3 16 69 53 37 64
REMARK Flexibility Score: inf
ROOT
ATOM      1  C   UNL A   1      35.695  20.967  25.074  1.00  0.00     0.274 C 
ENDROOT
BRANCH   1   2
ATOM      2  O   UNL A   1      35.473  21.760  26.261  1.00  0.00    -0.460 OA
BRANCH   2   3
ATOM      3  C   UNL A   1      34.233  21.740  26.832  1.00  0.00     0.332 C 
ATOM      4  O   UNL A   1      34.004  21.355  27.976  1.00  0.00    -0.249 OA
BRANCH   3   5
ATOM      5  C   UNL A   1      33.111  22.306  25.873  1.00  0.00     0.151 C 
ATOM      6  C   UNL A   1      33.760  24.002  25.166  1.00  0.00     0.102 C 
ATOM      7  C   UNL A   1      32.147  21.098  24.665  1.00  0.00     0.102 C 
ATOM      8  C   UNL A   1      33.455  24.369  23.321  1.00  0.00     0.263 C 
ATOM      9  C   UNL A   1      32.080  21.524  22.768  1.00  0.00     0.263 C 
ATOM     10  N   UNL A   1      32.686  23.129  22.156  1.00  0.00    -0.346 N 
ATOM     11  H   UNL A   1      33.388  22.922  21.445  1.00  0.00     0.346 HD
ATOM     12  H   UNL A   1      31.829  23.598  21.861  1.00  0.00     0.346 HD
BRANCH   5  13
ATOM     13  N   UNL A   1      32.081  22.614  26.858  1.00  0.00    -0.305 N 
ATOM     14  O   UNL A   1      30.039  23.576  27.083  1.00  0.00    -0.225 OA
ATOM     15  C   UNL A   1      30.958  23.178  26.398  1.00  0.00     0.408 C 
ATOM     16  H   UNL A   1      32.205  22.416  27.813  1.00  0.00     0.168 HD
BRANCH  15  17
ATOM     17  O   UNL A   1      31.052  23.331  25.069  1.00  0.00    -0.449 OA
BRANCH  17  18
ATOM     18  C   UNL A   1      30.462  24.553  24.354  1.00  0.00     0.248 C 
BRANCH  18  19
ATOM     19  C   UNL A   1      30.637  26.673  24.580  1.00  0.00     0.088 C 
ATOM     20  C   UNL A   1      29.857  28.069  23.757  1.00  0.00    -0.029 A 
ATOM     21  C   UNL A   1      31.974  27.767  25.147  1.00  0.00    -0.029 A 
ATOM     22  C   UNL A   1      28.751  28.195  22.881  1.00  0.00     0.005 A 
ATOM     23  C   UNL A   1      30.408  29.281  24.209  1.00  0.00    -0.014 A 
ATOM     24  C   UNL A   1      31.570  29.110  25.026  1.00  0.00    -0.014 A 
ATOM     25  C   UNL A   1      33.177  27.595  25.890  1.00  0.00     0.005 A 
ATOM     26  C   UNL A   1      28.215  29.439  22.518  1.00  0.00     0.000 A 
ATOM     27  C   UNL A   1      29.874  30.529  23.838  1.00  0.00     0.009 A 
ATOM     28  C   UNL A   1      32.249  30.168  25.671  1.00  0.00     0.009 A 
ATOM     29  C   UNL A   1      33.869  28.652  26.508  1.00  0.00     0.000 A 
ATOM     30  C   UNL A   1      28.770  30.608  23.004  1.00  0.00     0.001 A 
ATOM     31  C   UNL A   1      33.388  29.939  26.426  1.00  0.00     0.001 A 
ENDBRANCH  18  19
ENDBRANCH  17  18
ENDBRANCH  15  17
ENDBRANCH   5  13
ENDBRANCH   3   5
ENDBRANCH   2   3
ENDBRANCH   1   2
BRANCH   1  32
ATOM     32  C   UNL A   1      37.057  21.259  24.447  1.00  0.00     0.275 C 
BRANCH  32  33
ATOM     33  O   UNL A   1      37.753  22.201  25.273  1.00  0.00    -0.458 OA
BRANCH  33  34
ATOM     34  C   UNL A   1      38.845  21.715  25.904  1.00  0.00     0.338 C 
ATOM     35  O   UNL A   1      39.401  20.646  25.729  1.00  0.00    -0.246 OA
BRANCH  34  36
ATOM     36  C   UNL A   1      39.428  22.814  26.677  1.00  0.00     0.060 A 
ATOM     37  C   UNL A   1      39.037  24.095  26.300  1.00  0.00     0.016 A 
ATOM     38  C   UNL A   1      40.415  22.631  27.633  1.00  0.00     0.016 A 
ATOM     39  C   UNL A   1      39.655  25.215  26.815  1.00  0.00     0.010 A 
ATOM     40  C   UNL A   1      41.009  23.762  28.202  1.00  0.00     0.010 A 
ATOM     41  C   UNL A   1      40.655  25.059  27.768  1.00  0.00    -0.014 A 
BRANCH  41  42
ATOM     42  C   UNL A   1      41.442  26.243  28.171  1.00  0.00     0.031 A 
ATOM     43  C   UNL A   1      40.767  27.274  29.023  1.00  0.00     0.074 A 
ATOM     44  C   UNL A   1      42.736  26.369  27.826  1.00  0.00     0.049 A 
ATOM     45  N   UNL A   1      41.106  28.511  29.246  1.00  0.00    -0.248 NA
ATOM     46  C   UNL A   1      39.517  26.860  29.688  1.00  0.00     0.031 C 
ATOM     47  C   UNL A   1      43.529  25.368  27.108  1.00  0.00     0.029 A 
ATOM     48  N   UNL A   1      43.611  27.405  28.025  1.00  0.00    -0.354 N 
ATOM     49  C   UNL A   1      40.054  29.058  29.970  1.00  0.00     0.074 A 
ATOM     50  C   UNL A   1      39.084  28.008  30.185  1.00  0.00     0.031 C 
ATOM     51  C   UNL A   1      44.773  25.838  26.928  1.00  0.00     0.029 A 
ATOM     52  C   UNL A   1      44.830  27.209  27.418  1.00  0.00     0.049 A 
ATOM     53  H   UNL A   1      43.390  28.208  28.550  1.00  0.00     0.167 HD
ATOM     54  C   UNL A   1      39.918  30.334  30.396  1.00  0.00     0.034 A 
ATOM     55  C   UNL A   1      45.845  28.069  27.216  1.00  0.00     0.034 A 
ATOM     56  C   UNL A   1      40.953  31.319  30.245  1.00  0.00     0.049 A 
ATOM     57  C   UNL A   1      45.676  29.482  27.704  1.00  0.00     0.074 A 
ATOM     58  C   UNL A   1      40.955  32.641  30.648  1.00  0.00     0.029 A 
ATOM     59  N   UNL A   1      42.189  31.073  29.659  1.00  0.00    -0.354 N 
ATOM     60  N   UNL A   1      44.665  30.018  28.347  1.00  0.00    -0.248 NA
ATOM     61  C   UNL A   1      46.780  30.412  27.436  1.00  0.00     0.031 C 
ATOM     62  C   UNL A   1      42.187  33.199  30.290  1.00  0.00     0.029 A 
ATOM     63  C   UNL A   1      42.964  32.217  29.690  1.00  0.00     0.049 A 
ATOM     64  H   UNL A   1      42.470  30.211  29.278  1.00  0.00     0.167 HD
ATOM     65  C   UNL A   1      45.018  31.340  28.584  1.00  0.00     0.074 A 
ATOM     66  C   UNL A   1      46.350  31.514  28.034  1.00  0.00     0.031 C 
ATOM     67  C   UNL A   1      44.306  32.328  29.179  1.00  0.00     0.034 A 
BRANCH  54  68
ATOM     68  C   UNL A   1      38.611  30.730  31.026  1.00  0.00     0.023 A 
ATOM     69  C   UNL A   1      38.360  30.468  32.388  1.00  0.00     0.012 A 
ATOM     70  C   UNL A   1      37.627  31.386  30.258  1.00  0.00     0.148 A 
ATOM     71  C   UNL A   1      37.139  30.821  32.965  1.00  0.00     0.002 A 
ATOM     72  C   UNL A   1      36.432  31.776  30.851  1.00  0.00     0.091 A 
ATOM     73  F   UNL A   1      37.870  31.599  28.957  1.00  0.00    -0.205 F 
ATOM     74  C   UNL A   1      36.181  31.482  32.200  1.00  0.00     0.022 A 
BRANCH  72  75
ATOM     75  S   UNL A   1      35.169  32.699  29.969  1.00  0.00     0.127 S 
ATOM     76  O   UNL A   1      34.723  31.720  28.979  1.00  0.00    -0.237 OA
ATOM     77  O   UNL A   1      34.199  32.979  31.027  1.00  0.00    -0.237 OA
ATOM     78  O   UNL A   1      35.832  33.876  29.426  1.00  0.00    -0.744 OA
ENDBRANCH  72  75
ENDBRANCH  54  68
BRANCH  55  79
ATOM     79  C   UNL A   1      47.079  27.625  26.504  1.00  0.00     0.023 A 
ATOM     80  C   UNL A   1      48.069  26.915  27.210  1.00  0.00     0.012 A 
ATOM     81  C   UNL A   1      47.260  27.861  25.125  1.00  0.00     0.148 A 
ATOM     82  C   UNL A   1      49.222  26.467  26.563  1.00  0.00     0.002 A 
ATOM     83  C   UNL A   1      48.379  27.357  24.474  1.00  0.00     0.091 A 
ATOM     84  F   UNL A   1      46.322  28.562  24.471  1.00  0.00    -0.205 F 
ATOM     85  C   UNL A   1      49.371  26.675  25.194  1.00  0.00     0.022 A 
BRANCH  83  86
ATOM     86  S   UNL A   1      48.575  27.450  22.689  1.00  0.00     0.127 S 
ATOM     87  O   UNL A   1      47.379  28.188  22.294  1.00  0.00    -0.237 OA
ATOM     88  O   UNL A   1      49.828  28.195  22.560  1.00  0.00    -0.237 OA
ATOM     89  O   UNL A   1      48.652  26.070  22.231  1.00  0.00    -0.744 OA
ENDBRANCH  83  86
ENDBRANCH  55  79
BRANCH  67  90
ATOM     90  C   UNL A   1      44.974  33.668  29.308  1.00  0.00     0.023 A 
ATOM     91  C   UNL A   1      45.750  33.958  30.447  1.00  0.00     0.012 A 
ATOM     92  C   UNL A   1      44.893  34.606  28.261  1.00  0.00     0.148 A 
ATOM     93  C   UNL A   1      46.412  35.179  30.555  1.00  0.00     0.002 A 
ATOM     94  C   UNL A   1      45.596  35.798  28.353  1.00  0.00     0.091 A 
ATOM     95  F   UNL A   1      44.132  34.312  27.196  1.00  0.00    -0.205 F 
ATOM     96  C   UNL A   1      46.345  36.092  29.505  1.00  0.00     0.022 A 
BRANCH  94  97
ATOM     97  S   UNL A   1      45.650  36.984  27.007  1.00  0.00     0.127 S 
ATOM     98  O   UNL A   1      46.195  36.175  25.919  1.00  0.00    -0.237 OA
ATOM     99  O   UNL A   1      44.241  37.344  26.853  1.00  0.00    -0.237 OA
ATOM    100  O   UNL A   1      46.504  38.072  27.465  1.00  0.00    -0.744 OA
ENDBRANCH  94  97
ENDBRANCH  67  90
ENDBRANCH  41  42
ENDBRANCH  34  36
ENDBRANCH  33  34
ENDBRANCH  32  33
ENDBRANCH   1  32
TORSDOF 18
ENDMDL
MODEL 2
REMARK VINA RESULT:     -14.0      0.746      7.522
REMARK SMILES O=C(NC1(C(=O)OCCOC(=O)c2ccc(-c3c4nc(c(-c5cccc(S(=O)(=O)[O-])c5F)c5ccc([nH]5)c(-c5cccc(S(=O)(=O)[O-])c5F)c5nc(c(-c6cccc(S(=O)(=O)[O-])c6F)c6ccc3[nH]6)C=C5)C=C4)cc2)CC[NH2+]CC1)OCC1c2ccccc2-c2ccccc21
REMARK SMILES IDX 8 1 7 2 5 3 6 4 4 5 76 6 80 7 77 8 79 9 78 10 3 13 1 14 2 15
REMARK SMILES IDX 81 17 82 18 83 19 84 20 95 21 85 22 89 23 90 24 94 25 86 26
REMARK SMILES IDX 88 27 91 28 93 29 87 30 92 31 9 32 10 33 11 34 12 35 13 36
REMARK SMILES IDX 14 37 75 38 15 39 74 40 16 41 17 42 18 43 68 44 19 45 73 46
REMARK SMILES IDX 67 47 69 48 20 49 72 50 66 51 65 52 21 54 53 55 33 56 52 57
REMARK SMILES IDX 34 58 37 59 51 60 70 61 35 62 36 63 50 65 71 66 38 67 22 68
REMARK SMILES IDX 23 69 31 70 24 71 26 72 32 73 25 74 27 75 28 76 29 77 30 78
REMARK SMILES IDX 54 79 55 80 63 81 56 82 58 83 64 84 57 85 59 86 60 87 61 88
REMARK SMILES IDX 62 89 39 90 40 91 48 92 41 93 43 94 49 95 42 96 44 97 45 98
REMARK SMILES IDX 46 99 47 100
REMARK H PARENT 78 11 78 12 3 16 69 53 37 64
REMARK Flexibility Score: inf
ROOT
ATOM      1  C   UNL A   1      36.383  19.907  24.981  1.00  0.00     0.274 C 
ENDROOT
BRANCH   1   2
ATOM      2  O   UNL A   1      35.972  21.290  25.051  1.00  0.00    -0.460 OA
BRANCH   2   3
ATOM      3  C   UNL A   1      34.997  21.633  25.941  1.00  0.00     0.332 C 
ATOM      4  O   UNL A   1      35.108  21.538  27.161  1.00  0.00    -0.249 OA
BRANCH   3   5
ATOM      5  C   UNL A   1      33.703  22.209  25.236  1.00  0.00     0.151 C 
ATOM      6  C   UNL A   1      34.168  23.963  24.527  1.00  0.00     0.102 C 
ATOM      7  C   UNL A   1      32.567  21.034  24.152  1.00  0.00     0.102 C 
ATOM      8  C   UNL A   1      33.521  24.419  22.794  1.00  0.00     0.263 C 
ATOM      9  C   UNL A   1      32.143  21.560  22.327  1.00  0.00     0.263 C 
ATOM     10  N   UNL A   1      32.586  23.217  21.714  1.00  0.00    -0.346 N 
ATOM     11  H   UNL A   1      33.151  23.075  20.877  1.00  0.00     0.346 HD
ATOM     12  H   UNL A   1      31.677  23.669  21.608  1.00  0.00     0.346 HD
BRANCH   5  13
ATOM     13  N   UNL A   1      32.863  22.425  26.408  1.00  0.00    -0.305 N 
ATOM     14  O   UNL A   1      30.883  23.320  27.061  1.00  0.00    -0.225 OA
ATOM     15  C   UNL A   1      31.670  22.992  26.196  1.00  0.00     0.408 C 
ATOM     16  H   UNL A   1      33.159  22.166  27.310  1.00  0.00     0.168 HD
BRANCH  15  17
ATOM     17  O   UNL A   1      31.523  23.237  24.886  1.00  0.00    -0.449 OA
BRANCH  17  18
ATOM     18  C   UNL A   1      30.667  24.402  24.374  1.00  0.00     0.248 C 
BRANCH  18  19
ATOM     19  C   UNL A   1      30.847  26.535  24.387  1.00  0.00     0.088 C 
ATOM     20  C   UNL A   1      31.814  27.684  25.375  1.00  0.00    -0.029 A 
ATOM     21  C   UNL A   1      29.725  27.889  23.927  1.00  0.00    -0.029 A 
ATOM     22  C   UNL A   1      32.895  27.529  26.277  1.00  0.00     0.005 A 
ATOM     23  C   UNL A   1      31.482  29.013  25.055  1.00  0.00    -0.014 A 
ATOM     24  C   UNL A   1      30.337  29.126  24.206  1.00  0.00    -0.014 A 
ATOM     25  C   UNL A   1      28.536  28.001  23.151  1.00  0.00     0.005 A 
ATOM     26  C   UNL A   1      33.613  28.621  26.787  1.00  0.00     0.000 A 
ATOM     27  C   UNL A   1      32.199  30.107  25.574  1.00  0.00     0.009 A 
ATOM     28  C   UNL A   1      29.861  30.346  23.675  1.00  0.00     0.009 A 
ATOM     29  C   UNL A   1      28.046  29.218  22.646  1.00  0.00     0.000 A 
ATOM     30  C   UNL A   1      33.273  29.912  26.428  1.00  0.00     0.001 A 
ATOM     31  C   UNL A   1      28.726  30.391  22.881  1.00  0.00     0.001 A 
ENDBRANCH  18  19
ENDBRANCH  17  18
ENDBRANCH  15  17
ENDBRANCH   5  13
ENDBRANCH   3   5
ENDBRANCH   2   3
ENDBRANCH   1   2
BRANCH   1  32
ATOM     32  C   UNL A   1      37.904  19.772  24.924  1.00  0.00     0.275 C 
BRANCH  32  33
ATOM     33  O   UNL A   1      38.493  20.970  25.445  1.00  0.00    -0.458 OA
BRANCH  33  34
ATOM     34  C   UNL A   1      39.586  20.785  26.218  1.00  0.00     0.338 C 
ATOM     35  O   UNL A   1      40.300  19.801  26.288  1.00  0.00    -0.246 OA
BRANCH  34  36
ATOM     36  C   UNL A   1      39.941  22.085  26.792  1.00  0.00     0.060 A 
ATOM     37  C   UNL A   1      39.212  23.173  26.326  1.00  0.00     0.016 A 
ATOM     38  C   UNL A   1      41.022  22.271  27.639  1.00  0.00     0.016 A 
ATOM     39  C   UNL A   1      39.573  24.467  26.638  1.00  0.00     0.010 A 
ATOM     40  C   UNL A   1      41.362  23.577  28.007  1.00  0.00     0.010 A 
ATOM     41  C   UNL A   1      40.659  24.682  27.478  1.00  0.00    -0.014 A 
BRANCH  41  42
ATOM     42  C   UNL A   1      41.158  26.062  27.653  1.00  0.00     0.031 A 
ATOM     43  C   UNL A   1      42.494  26.402  27.068  1.00  0.00     0.074 A 
ATOM     44  C   UNL A   1      40.417  26.996  28.277  1.00  0.00     0.049 A 
ATOM     45  N   UNL A   1      43.283  27.404  27.336  1.00  0.00    -0.248 NA
ATOM     46  C   UNL A   1      43.029  25.464  26.065  1.00  0.00     0.031 C 
ATOM     47  C   UNL A   1      39.051  26.809  28.773  1.00  0.00     0.029 A 
ATOM     48  N   UNL A   1      40.717  28.290  28.611  1.00  0.00    -0.354 N 
ATOM     49  C   UNL A   1      44.453  27.151  26.633  1.00  0.00     0.074 A 
ATOM     50  C   UNL A   1      44.259  25.925  25.893  1.00  0.00     0.031 C 
ATOM     51  C   UNL A   1      38.632  27.948  29.347  1.00  0.00     0.029 A 
ATOM     52  C   UNL A   1      39.734  28.901  29.355  1.00  0.00     0.049 A 
ATOM     53  H   UNL A   1      41.552  28.739  28.345  1.00  0.00     0.167 HD
ATOM     54  C   UNL A   1      45.591  27.882  26.631  1.00  0.00     0.034 A 
ATOM     55  C   UNL A   1      39.755  30.065  30.030  1.00  0.00     0.034 A 
ATOM     56  C   UNL A   1      45.704  29.147  27.304  1.00  0.00     0.049 A 
ATOM     57  C   UNL A   1      41.028  30.866  30.008  1.00  0.00     0.074 A 
ATOM     58  C   UNL A   1      46.790  29.999  27.365  1.00  0.00     0.029 A 
ATOM     59  N   UNL A   1      44.675  29.751  28.015  1.00  0.00    -0.354 N 
ATOM     60  N   UNL A   1      42.154  30.609  29.384  1.00  0.00    -0.248 NA
ATOM     61  C   UNL A   1      41.040  32.112  30.784  1.00  0.00     0.031 C 
ATOM     62  C   UNL A   1      46.421  31.112  28.129  1.00  0.00     0.029 A 
ATOM     63  C   UNL A   1      45.097  30.966  28.520  1.00  0.00     0.049 A 
ATOM     64  H   UNL A   1      43.777  29.368  28.142  1.00  0.00     0.167 HD
ATOM     65  C   UNL A   1      43.002  31.672  29.671  1.00  0.00     0.074 A 
ATOM     66  C   UNL A   1      42.246  32.587  30.506  1.00  0.00     0.031 C 
ATOM     67  C   UNL A   1      44.291  31.869  29.300  1.00  0.00     0.034 A 
BRANCH  54  68
ATOM     68  C   UNL A   1      46.788  27.320  25.913  1.00  0.00     0.023 A 
ATOM     69  C   UNL A   1      47.640  26.397  26.551  1.00  0.00     0.012 A 
ATOM     70  C   UNL A   1      47.057  27.703  24.584  1.00  0.00     0.148 A 
ATOM     71  C   UNL A   1      48.760  25.891  25.889  1.00  0.00     0.002 A 
ATOM     72  C   UNL A   1      48.148  27.159  23.914  1.00  0.00     0.091 A 
ATOM     73  F   UNL A   1      46.253  28.605  24.003  1.00  0.00    -0.205 F 
ATOM     74  C   UNL A   1      49.008  26.264  24.570  1.00  0.00     0.022 A 
BRANCH  72  75
ATOM     75  S   UNL A   1      48.506  27.519  22.192  1.00  0.00     0.127 S 
ATOM     76  O   UNL A   1      49.679  28.385  22.307  1.00  0.00    -0.237 OA
ATOM     77  O   UNL A   1      48.782  26.188  21.652  1.00  0.00    -0.237 OA
ATOM     78  O   UNL A   1      47.312  28.156  21.654  1.00  0.00    -0.744 OA
ENDBRANCH  72  75
ENDBRANCH  54  68
BRANCH  55  79
ATOM     79  C   UNL A   1      38.555  30.516  30.792  1.00  0.00     0.023 A 
ATOM     80  C   UNL A   1      38.480  30.267  32.176  1.00  0.00     0.012 A 
ATOM     81  C   UNL A   1      37.509  31.227  30.168  1.00  0.00     0.148 A 
ATOM     82  C   UNL A   1      37.379  30.699  32.919  1.00  0.00     0.002 A 
ATOM     83  C   UNL A   1      36.447  31.709  30.925  1.00  0.00     0.091 A 
ATOM     84  F   UNL A   1      37.580  31.433  28.845  1.00  0.00    -0.205 F 
ATOM     85  C   UNL A   1      36.371  31.431  32.297  1.00  0.00     0.022 A 
BRANCH  83  86
ATOM     86  S   UNL A   1      35.185  32.786  30.232  1.00  0.00     0.127 S 
ATOM     87  O   UNL A   1      34.615  31.945  29.183  1.00  0.00    -0.237 OA
ATOM     88  O   UNL A   1      34.311  33.011  31.384  1.00  0.00    -0.237 OA
ATOM     89  O   UNL A   1      35.893  33.976  29.779  1.00  0.00    -0.744 OA
ENDBRANCH  83  86
ENDBRANCH  55  79
BRANCH  67  90
ATOM     90  C   UNL A   1      44.945  33.143  29.756  1.00  0.00     0.023 A 
ATOM     91  C   UNL A   1      45.691  33.160  30.950  1.00  0.00     0.012 A 
ATOM     92  C   UNL A   1      44.881  34.300  28.956  1.00  0.00     0.148 A 
ATOM     93  C   UNL A   1      46.341  34.322  31.358  1.00  0.00     0.002 A 
ATOM     94  C   UNL A   1      45.572  35.439  29.343  1.00  0.00     0.091 A 
ATOM     95  F   UNL A   1      44.148  34.263  27.834  1.00  0.00    -0.205 F 
ATOM     96  C   UNL A   1      46.292  35.456  30.550  1.00  0.00     0.022 A 
BRANCH  94  97
ATOM     97  S   UNL A   1      45.650  36.907  28.314  1.00  0.00     0.127 S 
ATOM     98  O   UNL A   1      46.147  36.362  27.053  1.00  0.00    -0.237 OA
ATOM     99  O   UNL A   1      44.252  37.339  28.283  1.00  0.00    -0.237 OA
ATOM    100  O   UNL A   1      46.549  37.829  28.996  1.00  0.00    -0.744 OA
ENDBRANCH  94  97
ENDBRANCH  67  90
ENDBRANCH  41  42
ENDBRANCH  34  36
ENDBRANCH  33  34
ENDBRANCH  32  33
ENDBRANCH   1  32
TORSDOF 18
ENDMDL
MODEL 3
REMARK VINA RESULT:     -13.9      1.316      7.440
REMARK SMILES O=C(NC1(C(=O)OCCOC(=O)c2ccc(-c3c4nc(c(-c5cccc(S(=O)(=O)[O-])c5F)c5ccc([nH]5)c(-c5cccc(S(=O)(=O)[O-])c5F)c5nc(c(-c6cccc(S(=O)(=O)[O-])c6F)c6ccc3[nH]6)C=C5)C=C4)cc2)CC[NH2+]CC1)OCC1c2ccccc2-c2ccccc21
REMARK SMILES IDX 8 1 7 2 5 3 6 4 4 5 76 6 80 7 77 8 79 9 78 10 3 13 1 14 2 15
REMARK SMILES IDX 81 17 82 18 83 19 84 20 95 21 85 22 89 23 90 24 94 25 86 26
REMARK SMILES IDX 88 27 91 28 93 29 87 30 92 31 9 32 10 33 11 34 12 35 13 36
REMARK SMILES IDX 14 37 75 38 15 39 74 40 16 41 17 42 18 43 68 44 19 45 73 46
REMARK SMILES IDX 67 47 69 48 20 49 72 50 66 51 65 52 21 54 53 55 33 56 52 57
REMARK SMILES IDX 34 58 37 59 51 60 70 61 35 62 36 63 50 65 71 66 38 67 22 68
REMARK SMILES IDX 23 69 31 70 24 71 26 72 32 73 25 74 27 75 28 76 29 77 30 78
REMARK SMILES IDX 54 79 55 80 63 81 56 82 58 83 64 84 57 85 59 86 60 87 61 88
REMARK SMILES IDX 62 89 39 90 40 91 48 92 41 93 43 94 49 95 42 96 44 97 45 98
REMARK SMILES IDX 46 99 47 100
REMARK H PARENT 78 11 78 12 3 16 69 53 37 64
REMARK Flexibility Score: inf
ROOT
ATOM      1  C   UNL A   1      36.155  20.329  25.170  1.00  0.00     0.274 C 
ENDROOT
BRANCH   1   2
ATOM      2  O   UNL A   1      35.837  21.624  25.726  1.00  0.00    -0.460 OA
BRANCH   2   3
ATOM      3  C   UNL A   1      34.682  21.757  26.441  1.00  0.00     0.332 C 
ATOM      4  O   UNL A   1      34.539  21.381  27.602  1.00  0.00    -0.249 OA
BRANCH   3   5
ATOM      5  C   UNL A   1      33.542  22.490  25.626  1.00  0.00     0.151 C 
ATOM      6  C   UNL A   1      34.052  24.365  25.483  1.00  0.00     0.102 C 
ATOM      7  C   UNL A   1      32.732  21.620  24.065  1.00  0.00     0.102 C 
ATOM      8  C   UNL A   1      33.771  25.235  23.811  1.00  0.00     0.263 C 
ATOM      9  C   UNL A   1      32.684  22.581  22.374  1.00  0.00     0.263 C 
ATOM     10  N   UNL A   1      33.157  24.338  22.293  1.00  0.00    -0.346 N 
ATOM     11  H   UNL A   1      33.898  24.407  21.594  1.00  0.00     0.346 HD
ATOM     12  H   UNL A   1      32.270  24.803  22.099  1.00  0.00     0.346 HD
BRANCH   5  13
ATOM     13  N   UNL A   1      32.458  22.410  26.598  1.00  0.00    -0.305 N 
ATOM     14  O   UNL A   1      30.345  23.133  26.999  1.00  0.00    -0.225 OA
ATOM     15  C   UNL A   1      31.315  23.026  26.276  1.00  0.00     0.408 C 
ATOM     16  H   UNL A   1      32.562  21.925  27.448  1.00  0.00     0.168 HD
BRANCH  15  17
ATOM     17  O   UNL A   1      31.445  23.599  25.071  1.00  0.00    -0.449 OA
BRANCH  17  18
ATOM     18  C   UNL A   1      30.539  24.752  24.623  1.00  0.00     0.248 C 
BRANCH  18  19
ATOM     19  C   UNL A   1      30.603  26.885  24.790  1.00  0.00     0.088 C 
ATOM     20  C   UNL A   1      29.888  28.219  23.818  1.00  0.00    -0.029 A 
ATOM     21  C   UNL A   1      31.810  28.051  25.487  1.00  0.00    -0.029 A 
ATOM     22  C   UNL A   1      28.906  28.269  22.799  1.00  0.00     0.005 A 
ATOM     23  C   UNL A   1      30.329  29.467  24.292  1.00  0.00    -0.014 A 
ATOM     24  C   UNL A   1      31.376  29.371  25.262  1.00  0.00    -0.014 A 
ATOM     25  C   UNL A   1      32.908  27.955  26.388  1.00  0.00     0.005 A 
ATOM     26  C   UNL A   1      28.377  29.478  22.322  1.00  0.00     0.000 A 
ATOM     27  C   UNL A   1      29.803  30.679  23.807  1.00  0.00     0.009 A 
ATOM     28  C   UNL A   1      31.924  30.478  25.951  1.00  0.00     0.009 A 
ATOM     29  C   UNL A   1      33.472  29.059  27.052  1.00  0.00     0.000 A 
ATOM     30  C   UNL A   1      28.818  30.684  22.832  1.00  0.00     0.001 A 
ATOM     31  C   UNL A   1      32.958  30.321  26.858  1.00  0.00     0.001 A 
ENDBRANCH  18  19
ENDBRANCH  17  18
ENDBRANCH  15  17
ENDBRANCH   5  13
ENDBRANCH   3   5
ENDBRANCH   2   3
ENDBRANCH   1   2
BRANCH   1  32
ATOM     32  C   UNL A   1      37.646  20.196  24.867  1.00  0.00     0.275 C 
BRANCH  32  33
ATOM     33  O   UNL A   1      38.319  21.370  25.337  1.00  0.00    -0.458 OA
BRANCH  33  34
ATOM     34  C   UNL A   1      39.390  21.141  26.129  1.00  0.00     0.338 C 
ATOM     35  O   UNL A   1      40.074  20.136  26.196  1.00  0.00    -0.246 OA
BRANCH  34  36
ATOM     36  C   UNL A   1      39.770  22.421  26.732  1.00  0.00     0.060 A 
ATOM     37  C   UNL A   1      39.006  23.519  26.354  1.00  0.00     0.016 A 
ATOM     38  C   UNL A   1      40.898  22.584  27.521  1.00  0.00     0.016 A 
ATOM     39  C   UNL A   1      39.375  24.803  26.695  1.00  0.00     0.010 A 
ATOM     40  C   UNL A   1      41.249  23.877  27.919  1.00  0.00     0.010 A 
ATOM     41  C   UNL A   1      40.508  24.995  27.477  1.00  0.00    -0.014 A 
BRANCH  41  42
ATOM     42  C   UNL A   1      41.007  26.372  27.678  1.00  0.00     0.031 A 
ATOM     43  C   UNL A   1      42.336  26.728  27.086  1.00  0.00     0.074 A 
ATOM     44  C   UNL A   1      40.271  27.291  28.331  1.00  0.00     0.049 A 
ATOM     45  N   UNL A   1      43.125  27.725  27.367  1.00  0.00    -0.248 NA
ATOM     46  C   UNL A   1      42.861  25.813  26.056  1.00  0.00     0.031 C 
ATOM     47  C   UNL A   1      38.911  27.091  28.838  1.00  0.00     0.029 A 
ATOM     48  N   UNL A   1      40.573  28.578  28.690  1.00  0.00    -0.354 N 
ATOM     49  C   UNL A   1      44.289  27.490  26.646  1.00  0.00     0.074 A 
ATOM     50  C   UNL A   1      44.088  26.281  25.881  1.00  0.00     0.031 C 
ATOM     51  C   UNL A   1      38.497  28.215  29.441  1.00  0.00     0.029 A 
ATOM     52  C   UNL A   1      39.597  29.170  29.458  1.00  0.00     0.049 A 
ATOM     53  H   UNL A   1      41.404  29.034  28.425  1.00  0.00     0.167 HD
ATOM     54  C   UNL A   1      45.425  28.223  26.647  1.00  0.00     0.034 A 
ATOM     55  C   UNL A   1      39.624  30.319  30.158  1.00  0.00     0.034 A 
ATOM     56  C   UNL A   1      45.544  29.473  27.347  1.00  0.00     0.049 A 
ATOM     57  C   UNL A   1      40.895  31.122  30.141  1.00  0.00     0.074 A 
ATOM     58  C   UNL A   1      46.628  30.326  27.415  1.00  0.00     0.029 A 
ATOM     59  N   UNL A   1      44.521  30.059  28.083  1.00  0.00    -0.354 N 
ATOM     60  N   UNL A   1      42.015  30.882  29.499  1.00  0.00    -0.248 NA
ATOM     61  C   UNL A   1      40.914  32.351  30.944  1.00  0.00     0.031 C 
ATOM     62  C   UNL A   1      46.266  31.421  28.207  1.00  0.00     0.029 A 
ATOM     63  C   UNL A   1      44.947  31.263  28.609  1.00  0.00     0.049 A 
ATOM     64  H   UNL A   1      43.626  29.672  28.211  1.00  0.00     0.167 HD
ATOM     65  C   UNL A   1      42.864  31.939  29.799  1.00  0.00     0.074 A 
ATOM     66  C   UNL A   1      42.116  32.834  30.663  1.00  0.00     0.031 C 
ATOM     67  C   UNL A   1      44.148  32.148  29.419  1.00  0.00     0.034 A 
BRANCH  54  68
ATOM     68  C   UNL A   1      46.614  27.680  25.904  1.00  0.00     0.023 A 
ATOM     69  C   UNL A   1      46.750  27.885  24.516  1.00  0.00     0.012 A 
ATOM     70  C   UNL A   1      47.616  26.970  26.597  1.00  0.00     0.148 A 
ATOM     71  C   UNL A   1      47.846  27.364  23.827  1.00  0.00     0.002 A 
ATOM     72  C   UNL A   1      48.728  26.494  25.912  1.00  0.00     0.091 A 
ATOM     73  F   UNL A   1      47.455  26.758  27.911  1.00  0.00    -0.205 F 
ATOM     74  C   UNL A   1      48.838  26.678  24.524  1.00  0.00     0.022 A 
BRANCH  72  75
ATOM     75  S   UNL A   1      50.092  25.666  26.735  1.00  0.00     0.127 S 
ATOM     76  O   UNL A   1      50.465  26.649  27.752  1.00  0.00    -0.237 OA
ATOM     77  O   UNL A   1      49.449  24.462  27.259  1.00  0.00    -0.237 OA
ATOM     78  O   UNL A   1      51.096  25.421  25.708  1.00  0.00    -0.744 OA
ENDBRANCH  72  75
ENDBRANCH  54  68
BRANCH  55  79
ATOM     79  C   UNL A   1      38.432  30.750  30.944  1.00  0.00     0.023 A 
ATOM     80  C   UNL A   1      38.395  30.517  32.333  1.00  0.00     0.012 A 
ATOM     81  C   UNL A   1      37.354  31.428  30.337  1.00  0.00     0.148 A 
ATOM     82  C   UNL A   1      37.302  30.931  33.096  1.00  0.00     0.002 A 
ATOM     83  C   UNL A   1      36.299  31.894  31.113  1.00  0.00     0.091 A 
ATOM     84  F   UNL A   1      37.389  31.620  29.011  1.00  0.00    -0.205 F 
ATOM     85  C   UNL A   1      36.262  31.632  32.490  1.00  0.00     0.022 A 
BRANCH  83  86
ATOM     86  S   UNL A   1      34.996  32.933  30.438  1.00  0.00     0.127 S 
ATOM     87  O   UNL A   1      34.116  33.098  31.591  1.00  0.00    -0.237 OA
ATOM     88  O   UNL A   1      35.735  34.135  30.050  1.00  0.00    -0.237 OA
ATOM     89  O   UNL A   1      34.442  32.185  29.317  1.00  0.00    -0.744 OA
ENDBRANCH  83  86
ENDBRANCH  55  79
BRANCH  67  90
ATOM     90  C   UNL A   1      44.805  33.412  29.896  1.00  0.00     0.023 A 
ATOM     91  C   UNL A   1      45.483  33.428  31.130  1.00  0.00     0.012 A 
ATOM     92  C   UNL A   1      44.814  34.559  29.079  1.00  0.00     0.148 A 
ATOM     93  C   UNL A   1      46.136  34.581  31.560  1.00  0.00     0.002 A 
ATOM     94  C   UNL A   1      45.509  35.687  29.491  1.00  0.00     0.091 A 
ATOM     95  F   UNL A   1      44.146  34.524  27.917  1.00  0.00    -0.205 F 
ATOM     96  C   UNL A   1      46.159  35.704  30.736  1.00  0.00     0.022 A 
BRANCH  94  97
ATOM     97  S   UNL A   1      45.680  37.139  28.450  1.00  0.00     0.127 S 
ATOM     98  O   UNL A   1      46.293  36.576  27.249  1.00  0.00    -0.237 OA
ATOM     99  O   UNL A   1      44.290  37.566  28.282  1.00  0.00    -0.237 OA
ATOM    100  O   UNL A   1      46.511  38.074  29.197  1.00  0.00    -0.744 OA
ENDBRANCH  94  97
ENDBRANCH  67  90
ENDBRANCH  41  42
ENDBRANCH  34  36
ENDBRANCH  33  34
ENDBRANCH  32  33
ENDBRANCH   1  32
TORSDOF 18
ENDMDL
