MODEL 1
REMARK VINA RESULT:     -11.5      0.000      0.000
REMARK SMILES CCOC(=O)c1ccc(-c2ccc(C(=O)OCCOC(=O)c3ccc(-c4c5nc(c(-c6cccc(S(=O)(=O)[O-])c6F)c6ccc([nH]6)c(-c6cccc(S(=O)(=O)[O-])c6F)c6nc(c(-c7cccc(S(=O)(=O)[O-])c7F)c7ccc4[nH]7)C=C6)C=C5)cc3)o2)cc1
REMARK SMILES IDX 17 1 16 2 14 3 15 4 13 5 10 6 11 7 85 8 12 9 9 10 6 11 7 12
REMARK SMILES IDX 87 13 8 14 86 15 4 16 5 17 3 18 2 19 1 20 18 21 19 22 20 23
REMARK SMILES IDX 21 24 22 25 23 26 84 27 24 28 83 29 25 30 26 31 27 32 77 33
REMARK SMILES IDX 28 34 82 35 76 36 78 37 29 38 81 39 75 40 74 41 30 43 62 44
REMARK SMILES IDX 42 45 61 46 43 47 46 48 60 49 79 50 44 51 45 52 59 54 80 55
REMARK SMILES IDX 47 56 31 57 32 58 40 59 33 60 35 61 41 62 34 63 36 64 37 65
REMARK SMILES IDX 38 66 39 67 63 68 64 69 72 70 65 71 67 72 73 73 66 74 68 75
REMARK SMILES IDX 69 76 70 77 71 78 48 79 49 80 57 81 50 82 52 83 58 84 51 85
REMARK SMILES IDX 53 86 54 87 55 88 56 89
REMARK H PARENT 78 42 46 53
REMARK Flexibility Score: inf
ROOT
ATOM      1  C   UNL A   1      31.464  28.862  24.652  1.00  0.00     0.275 C 
ENDROOT
BRANCH   1   2
ATOM      2  O   UNL A   1      30.827  27.781  25.359  1.00  0.00    -0.456 OA
BRANCH   2   3
ATOM      3  C   UNL A   1      31.483  27.331  26.473  1.00  0.00     0.374 C 
ATOM      4  O   UNL A   1      31.188  27.637  27.618  1.00  0.00    -0.242 OA
BRANCH   3   5
ATOM      5  C   UNL A   1      32.509  26.386  26.090  1.00  0.00     0.212 A 
ATOM      6  C   UNL A   1      33.260  24.345  25.724  1.00  0.00     0.135 A 
ATOM      7  C   UNL A   1      34.210  25.201  25.212  1.00  0.00     0.052 A 
ATOM      8  O   UNL A   1      32.268  25.055  26.322  1.00  0.00    -0.449 OA
ATOM      9  C   UNL A   1      33.720  26.514  25.433  1.00  0.00     0.059 A 
BRANCH   6  10
ATOM     10  C   UNL A   1      33.064  22.910  25.653  1.00  0.00     0.017 A 
ATOM     11  C   UNL A   1      32.894  20.121  25.382  1.00  0.00     0.060 A 
ATOM     12  C   UNL A   1      32.550  20.948  24.308  1.00  0.00     0.016 A 
ATOM     13  C   UNL A   1      33.282  20.686  26.603  1.00  0.00     0.016 A 
ATOM     14  C   UNL A   1      32.628  22.335  24.448  1.00  0.00     0.013 A 
ATOM     15  C   UNL A   1      33.370  22.079  26.735  1.00  0.00     0.013 A 
BRANCH  11  16
ATOM     16  C   UNL A   1      32.963  18.660  25.150  1.00  0.00     0.338 C 
ATOM     17  O   UNL A   1      32.207  17.870  25.694  1.00  0.00    -0.246 OA
BRANCH  16  18
ATOM     18  O   UNL A   1      33.932  18.370  24.250  1.00  0.00    -0.462 OA
BRANCH  18  19
ATOM     19  C   UNL A   1      33.550  17.461  23.204  1.00  0.00     0.230 C 
ATOM     20  C   UNL A   1      32.469  18.037  22.307  1.00  0.00     0.049 C 
ENDBRANCH  18  19
ENDBRANCH  16  18
ENDBRANCH  11  16
ENDBRANCH   6  10
ENDBRANCH   3   5
ENDBRANCH   2   3
ENDBRANCH   1   2
BRANCH   1  21
ATOM     21  C   UNL A   1      31.556  30.127  25.514  1.00  0.00     0.275 C 
BRANCH  21  22
ATOM     22  O   UNL A   1      32.909  30.403  25.918  1.00  0.00    -0.458 OA
BRANCH  22  23
ATOM     23  C   UNL A   1      33.054  31.351  26.875  1.00  0.00     0.338 C 
ATOM     24  O   UNL A   1      32.244  32.211  27.182  1.00  0.00    -0.246 OA
BRANCH  23  25
ATOM     25  C   UNL A   1      34.294  31.101  27.628  1.00  0.00     0.060 A 
ATOM     26  C   UNL A   1      34.558  29.786  28.010  1.00  0.00     0.016 A 
ATOM     27  C   UNL A   1      35.169  32.127  27.987  1.00  0.00     0.016 A 
ATOM     28  C   UNL A   1      35.703  29.476  28.736  1.00  0.00     0.010 A 
ATOM     29  C   UNL A   1      36.322  31.818  28.723  1.00  0.00     0.010 A 
ATOM     30  C   UNL A   1      36.595  30.491  29.099  1.00  0.00    -0.014 A 
BRANCH  30  31
ATOM     31  C   UNL A   1      37.817  30.141  29.860  1.00  0.00     0.031 A 
ATOM     32  C   UNL A   1      38.845  29.225  29.266  1.00  0.00     0.074 A 
ATOM     33  C   UNL A   1      38.003  30.669  31.085  1.00  0.00     0.049 A 
ATOM     34  N   UNL A   1      39.969  28.804  29.787  1.00  0.00    -0.248 NA
ATOM     35  C   UNL A   1      38.581  28.719  27.911  1.00  0.00     0.031 C 
ATOM     36  C   UNL A   1      37.074  31.577  31.759  1.00  0.00     0.029 A 
ATOM     37  N   UNL A   1      39.027  30.508  31.984  1.00  0.00    -0.354 N 
ATOM     38  C   UNL A   1      40.533  27.961  28.839  1.00  0.00     0.074 A 
ATOM     39  C   UNL A   1      39.628  27.928  27.709  1.00  0.00     0.031 C 
ATOM     40  C   UNL A   1      37.563  31.881  32.972  1.00  0.00     0.029 A 
ATOM     41  C   UNL A   1      38.823  31.172  33.171  1.00  0.00     0.049 A 
ATOM     42  H   UNL A   1      39.829  29.970  31.797  1.00  0.00     0.167 HD
ATOM     43  C   UNL A   1      41.707  27.288  28.898  1.00  0.00     0.034 A 
ATOM     44  C   UNL A   1      39.561  31.191  34.298  1.00  0.00     0.034 A 
ATOM     45  C   UNL A   1      42.622  27.350  30.008  1.00  0.00     0.049 A 
ATOM     46  C   UNL A   1      40.854  30.423  34.341  1.00  0.00     0.074 A 
ATOM     47  C   UNL A   1      43.860  26.746  30.136  1.00  0.00     0.029 A 
ATOM     48  N   UNL A   1      42.397  28.054  31.181  1.00  0.00    -0.354 N 
ATOM     49  N   UNL A   1      41.429  29.725  33.392  1.00  0.00    -0.248 NA
ATOM     50  C   UNL A   1      41.610  30.461  35.601  1.00  0.00     0.031 C 
ATOM     51  C   UNL A   1      44.379  27.073  31.394  1.00  0.00     0.029 A 
ATOM     52  C   UNL A   1      43.466  27.886  32.046  1.00  0.00     0.049 A 
ATOM     53  H   UNL A   1      41.596  28.593  31.371  1.00  0.00     0.167 HD
ATOM     54  C   UNL A   1      42.619  29.254  33.932  1.00  0.00     0.074 A 
ATOM     55  C   UNL A   1      42.698  29.772  35.283  1.00  0.00     0.031 C 
ATOM     56  C   UNL A   1      43.551  28.444  33.371  1.00  0.00     0.034 A 
BRANCH  43  57
ATOM     57  C   UNL A   1      42.093  26.453  27.710  1.00  0.00     0.023 A 
ATOM     58  C   UNL A   1      42.813  27.046  26.653  1.00  0.00     0.012 A 
ATOM     59  C   UNL A   1      41.803  25.075  27.665  1.00  0.00     0.148 A 
ATOM     60  C   UNL A   1      43.222  26.284  25.560  1.00  0.00     0.002 A 
ATOM     61  C   UNL A   1      42.242  24.317  26.586  1.00  0.00     0.091 A 
ATOM     62  F   UNL A   1      41.093  24.538  28.667  1.00  0.00    -0.205 F 
ATOM     63  C   UNL A   1      42.947  24.919  25.531  1.00  0.00     0.022 A 
BRANCH  61  64
ATOM     64  S   UNL A   1      41.983  22.541  26.490  1.00  0.00     0.127 S 
ATOM     65  O   UNL A   1      40.523  22.455  26.466  1.00  0.00    -0.237 OA
ATOM     66  O   UNL A   1      42.634  22.197  25.225  1.00  0.00    -0.237 OA
ATOM     67  O   UNL A   1      42.626  21.981  27.670  1.00  0.00    -0.744 OA
ENDBRANCH  61  64
ENDBRANCH  43  57
BRANCH  44  68
ATOM     68  C   UNL A   1      39.108  32.000  35.464  1.00  0.00     0.023 A 
ATOM     69  C   UNL A   1      39.318  33.392  35.465  1.00  0.00     0.012 A 
ATOM     70  C   UNL A   1      38.434  31.406  36.549  1.00  0.00     0.148 A 
ATOM     71  C   UNL A   1      38.880  34.175  36.534  1.00  0.00     0.002 A 
ATOM     72  C   UNL A   1      37.953  32.199  37.585  1.00  0.00     0.091 A 
ATOM     73  F   UNL A   1      38.268  30.075  36.547  1.00  0.00    -0.205 F 
ATOM     74  C   UNL A   1      38.186  33.582  37.586  1.00  0.00     0.022 A 
BRANCH  72  75
ATOM     75  S   UNL A   1      36.937  31.519  38.902  1.00  0.00     0.127 S 
ATOM     76  O   UNL A   1      37.805  31.678  40.065  1.00  0.00    -0.237 OA
ATOM     77  O   UNL A   1      35.768  32.399  38.881  1.00  0.00    -0.237 OA
ATOM     78  O   UNL A   1      36.653  30.149  38.495  1.00  0.00    -0.744 OA
ENDBRANCH  72  75
ENDBRANCH  44  68
BRANCH  56  79
ATOM     79  C   UNL A   1      44.736  28.061  34.215  1.00  0.00     0.023 A 
ATOM     80  C   UNL A   1      45.870  28.896  34.223  1.00  0.00     0.012 A 
ATOM     81  C   UNL A   1      44.705  26.926  35.049  1.00  0.00     0.148 A 
ATOM     82  C   UNL A   1      46.967  28.595  35.032  1.00  0.00     0.002 A 
ATOM     83  C   UNL A   1      45.786  26.654  35.880  1.00  0.00     0.091 A 
ATOM     84  F   UNL A   1      43.626  26.131  35.010  1.00  0.00    -0.205 F 
ATOM     85  C   UNL A   1      46.919  27.482  35.868  1.00  0.00     0.022 A 
BRANCH  83  86
ATOM     86  S   UNL A   1      45.770  25.288  37.048  1.00  0.00     0.127 S 
ATOM     87  O   UNL A   1      46.999  25.525  37.803  1.00  0.00    -0.237 OA
ATOM     88  O   UNL A   1      44.537  25.529  37.800  1.00  0.00    -0.237 OA
ATOM     89  O   UNL A   1      45.750  24.077  36.239  1.00  0.00    -0.744 OA
ENDBRANCH  83  86
ENDBRANCH  56  79
ENDBRANCH  30  31
ENDBRANCH  23  25
ENDBRANCH  22  23
ENDBRANCH  21  22
ENDBRANCH   1  21
TORSDOF 18
ENDMDL
MODEL 2
REMARK VINA RESULT:     -11.2      5.322     10.555
REMARK SMILES CCOC(=O)c1ccc(-c2ccc(C(=O)OCCOC(=O)c3ccc(-c4c5nc(c(-c6cccc(S(=O)(=O)[O-])c6F)c6ccc([nH]6)c(-c6cccc(S(=O)(=O)[O-])c6F)c6nc(c(-c7cccc(S(=O)(=O)[O-])c7F)c7ccc4[nH]7)C=C6)C=C5)cc3)o2)cc1
REMARK SMILES IDX 17 1 16 2 14 3 15 4 13 5 10 6 11 7 85 8 12 9 9 10 6 11 7 12
REMARK SMILES IDX 87 13 8 14 86 15 4 16 5 17 3 18 2 19 1 20 18 21 19 22 20 23
REMARK SMILES IDX 21 24 22 25 23 26 84 27 24 28 83 29 25 30 26 31 27 32 77 33
REMARK SMILES IDX 28 34 82 35 76 36 78 37 29 38 81 39 75 40 74 41 30 43 62 44
REMARK SMILES IDX 42 45 61 46 43 47 46 48 60 49 79 50 44 51 45 52 59 54 80 55
REMARK SMILES IDX 47 56 31 57 32 58 40 59 33 60 35 61 41 62 34 63 36 64 37 65
REMARK SMILES IDX 38 66 39 67 63 68 64 69 72 70 65 71 67 72 73 73 66 74 68 75
REMARK SMILES IDX 69 76 70 77 71 78 48 79 49 80 57 81 50 82 52 83 58 84 51 85
REMARK SMILES IDX 53 86 54 87 55 88 56 89
REMARK H PARENT 78 42 46 53
REMARK Flexibility Score: inf
ROOT
ATOM      1  C   UNL A   1      34.716  20.901  25.269  1.00  0.00     0.275 C 
ENDROOT
BRANCH   1   2
ATOM      2  O   UNL A   1      34.495  21.550  26.535  1.00  0.00    -0.456 OA
BRANCH   2   3
ATOM      3  C   UNL A   1      33.479  22.466  26.564  1.00  0.00     0.374 C 
ATOM      4  O   UNL A   1      32.433  22.316  27.176  1.00  0.00    -0.242 OA
BRANCH   3   5
ATOM      5  C   UNL A   1      33.868  23.655  25.838  1.00  0.00     0.212 A 
ATOM      6  C   UNL A   1      33.440  25.420  24.588  1.00  0.00     0.135 A 
ATOM      7  C   UNL A   1      34.739  25.564  25.022  1.00  0.00     0.052 A 
ATOM      8  O   UNL A   1      32.934  24.233  25.014  1.00  0.00    -0.449 OA
ATOM      9  C   UNL A   1      35.010  24.437  25.840  1.00  0.00     0.059 A 
BRANCH   6  10
ATOM     10  C   UNL A   1      32.513  26.295  23.894  1.00  0.00     0.017 A 
ATOM     11  C   UNL A   1      30.703  28.118  22.764  1.00  0.00     0.060 A 
ATOM     12  C   UNL A   1      30.241  27.121  23.629  1.00  0.00     0.016 A 
ATOM     13  C   UNL A   1      32.062  28.179  22.431  1.00  0.00     0.016 A 
ATOM     14  C   UNL A   1      31.142  26.211  24.183  1.00  0.00     0.013 A 
ATOM     15  C   UNL A   1      32.965  27.271  23.000  1.00  0.00     0.013 A 
BRANCH  11  16
ATOM     16  C   UNL A   1      29.753  29.167  22.327  1.00  0.00     0.338 C 
ATOM     17  O   UNL A   1      29.878  29.773  21.275  1.00  0.00    -0.246 OA
BRANCH  16  18
ATOM     18  O   UNL A   1      28.753  29.304  23.230  1.00  0.00    -0.462 OA
BRANCH  18  19
ATOM     19  C   UNL A   1      27.662  30.144  22.819  1.00  0.00     0.230 C 
ATOM     20  C   UNL A   1      27.688  31.498  23.504  1.00  0.00     0.049 C 
ENDBRANCH  18  19
ENDBRANCH  16  18
ENDBRANCH  11  16
ENDBRANCH   6  10
ENDBRANCH   3   5
ENDBRANCH   2   3
ENDBRANCH   1   2
BRANCH   1  21
ATOM     21  C   UNL A   1      36.197  20.573  25.050  1.00  0.00     0.275 C 
BRANCH  21  22
ATOM     22  O   UNL A   1      37.058  21.588  25.596  1.00  0.00    -0.458 OA
BRANCH  22  23
ATOM     23  C   UNL A   1      38.357  21.236  25.749  1.00  0.00     0.338 C 
ATOM     24  O   UNL A   1      38.868  20.170  25.446  1.00  0.00    -0.246 OA
BRANCH  23  25
ATOM     25  C   UNL A   1      39.132  22.405  26.198  1.00  0.00     0.060 A 
ATOM     26  C   UNL A   1      38.695  23.662  25.781  1.00  0.00     0.016 A 
ATOM     27  C   UNL A   1      40.280  22.284  26.982  1.00  0.00     0.016 A 
ATOM     28  C   UNL A   1      39.384  24.811  26.155  1.00  0.00     0.010 A 
ATOM     29  C   UNL A   1      40.979  23.440  27.356  1.00  0.00     0.010 A 
ATOM     30  C   UNL A   1      40.533  24.709  26.946  1.00  0.00    -0.014 A 
BRANCH  30  31
ATOM     31  C   UNL A   1      41.247  25.944  27.346  1.00  0.00     0.031 A 
ATOM     32  C   UNL A   1      40.547  27.000  28.148  1.00  0.00     0.074 A 
ATOM     33  C   UNL A   1      42.538  26.100  26.997  1.00  0.00     0.049 A 
ATOM     34  N   UNL A   1      41.009  28.145  28.580  1.00  0.00    -0.248 NA
ATOM     35  C   UNL A   1      39.147  26.736  28.516  1.00  0.00     0.031 C 
ATOM     36  C   UNL A   1      43.323  25.135  26.224  1.00  0.00     0.029 A 
ATOM     37  N   UNL A   1      43.412  27.131  27.233  1.00  0.00    -0.354 N 
ATOM     38  C   UNL A   1      39.953  28.753  29.245  1.00  0.00     0.074 A 
ATOM     39  C   UNL A   1      38.823  27.850  29.160  1.00  0.00     0.031 C 
ATOM     40  C   UNL A   1      44.559  25.627  26.038  1.00  0.00     0.029 A 
ATOM     41  C   UNL A   1      44.646  26.948  26.652  1.00  0.00     0.049 A 
ATOM     42  H   UNL A   1      43.179  27.924  27.768  1.00  0.00     0.167 HD
ATOM     43  C   UNL A   1      39.932  29.947  29.884  1.00  0.00     0.034 A 
ATOM     44  C   UNL A   1      45.718  27.762  26.608  1.00  0.00     0.034 A 
ATOM     45  C   UNL A   1      41.065  30.826  29.998  1.00  0.00     0.049 A 
ATOM     46  C   UNL A   1      45.661  29.089  27.313  1.00  0.00     0.074 A 
ATOM     47  C   UNL A   1      41.155  32.032  30.670  1.00  0.00     0.029 A 
ATOM     48  N   UNL A   1      42.306  30.597  29.422  1.00  0.00    -0.354 N 
ATOM     49  N   UNL A   1      44.693  29.597  28.036  1.00  0.00    -0.248 NA
ATOM     50  C   UNL A   1      46.851  29.947  27.215  1.00  0.00     0.031 C 
ATOM     51  C   UNL A   1      42.446  32.539  30.490  1.00  0.00     0.029 A 
ATOM     52  C   UNL A   1      43.163  31.647  29.710  1.00  0.00     0.049 A 
ATOM     53  H   UNL A   1      42.542  29.805  28.887  1.00  0.00     0.167 HD
ATOM     54  C   UNL A   1      45.159  30.824  28.492  1.00  0.00     0.074 A 
ATOM     55  C   UNL A   1      46.510  30.969  27.989  1.00  0.00     0.031 C 
ATOM     56  C   UNL A   1      44.519  31.757  29.238  1.00  0.00     0.034 A 
BRANCH  43  57
ATOM     57  C   UNL A   1      38.648  30.361  30.547  1.00  0.00     0.023 A 
ATOM     58  C   UNL A   1      38.456  30.081  31.915  1.00  0.00     0.012 A 
ATOM     59  C   UNL A   1      37.663  31.078  29.840  1.00  0.00     0.148 A 
ATOM     60  C   UNL A   1      37.293  30.494  32.565  1.00  0.00     0.002 A 
ATOM     61  C   UNL A   1      36.521  31.511  30.503  1.00  0.00     0.091 A 
ATOM     62  F   UNL A   1      37.853  31.307  28.533  1.00  0.00    -0.205 F 
ATOM     63  C   UNL A   1      36.332  31.217  31.864  1.00  0.00     0.022 A 
BRANCH  61  64
ATOM     64  S   UNL A   1      35.255  32.499  29.695  1.00  0.00     0.127 S 
ATOM     65  O   UNL A   1      34.765  31.574  28.674  1.00  0.00    -0.237 OA
ATOM     66  O   UNL A   1      34.314  32.756  30.786  1.00  0.00    -0.237 OA
ATOM     67  O   UNL A   1      35.936  33.685  29.194  1.00  0.00    -0.744 OA
ENDBRANCH  61  64
ENDBRANCH  43  57
BRANCH  44  68
ATOM     68  C   UNL A   1      46.951  27.321  25.896  1.00  0.00     0.023 A 
ATOM     69  C   UNL A   1      47.881  26.503  26.565  1.00  0.00     0.012 A 
ATOM     70  C   UNL A   1      47.184  27.670  24.552  1.00  0.00     0.148 A 
ATOM     71  C   UNL A   1      49.031  26.056  25.912  1.00  0.00     0.002 A 
ATOM     72  C   UNL A   1      48.305  27.177  23.892  1.00  0.00     0.091 A 
ATOM     73  F   UNL A   1      46.304  28.474  23.938  1.00  0.00    -0.205 F 
ATOM     74  C   UNL A   1      49.236  26.381  24.573  1.00  0.00     0.022 A 
BRANCH  72  75
ATOM     75  S   UNL A   1      48.559  27.446  22.134  1.00  0.00     0.127 S 
ATOM     76  O   UNL A   1      48.657  26.080  21.630  1.00  0.00    -0.237 OA
ATOM     77  O   UNL A   1      47.342  28.160  21.746  1.00  0.00    -0.237 OA
ATOM     78  O   UNL A   1      49.770  28.252  22.043  1.00  0.00    -0.744 OA
ENDBRANCH  72  75
ENDBRANCH  44  68
BRANCH  56  79
ATOM     79  C   UNL A   1      45.266  33.025  29.553  1.00  0.00     0.023 A 
ATOM     80  C   UNL A   1      46.084  33.072  30.699  1.00  0.00     0.012 A 
ATOM     81  C   UNL A   1      45.219  34.136  28.690  1.00  0.00     0.148 A 
ATOM     82  C   UNL A   1      46.828  34.214  30.994  1.00  0.00     0.002 A 
ATOM     83  C   UNL A   1      45.993  35.258  28.970  1.00  0.00     0.091 A 
ATOM     84  F   UNL A   1      44.416  34.082  27.617  1.00  0.00    -0.205 F 
ATOM     85  C   UNL A   1      46.791  35.301  30.124  1.00  0.00     0.022 A 
BRANCH  83  86
ATOM     86  S   UNL A   1      46.066  36.667  27.857  1.00  0.00     0.127 S 
ATOM     87  O   UNL A   1      44.706  37.194  27.953  1.00  0.00    -0.237 OA
ATOM     88  O   UNL A   1      47.090  37.508  28.479  1.00  0.00    -0.237 OA
ATOM     89  O   UNL A   1      46.443  36.126  26.559  1.00  0.00    -0.744 OA
ENDBRANCH  83  86
ENDBRANCH  56  79
ENDBRANCH  30  31
ENDBRANCH  23  25
ENDBRANCH  22  23
ENDBRANCH  21  22
ENDBRANCH   1  21
TORSDOF 18
ENDMDL
MODEL 3
REMARK VINA RESULT:     -11.2      5.393      9.869
REMARK SMILES CCOC(=O)c1ccc(-c2ccc(C(=O)OCCOC(=O)c3ccc(-c4c5nc(c(-c6cccc(S(=O)(=O)[O-])c6F)c6ccc([nH]6)c(-c6cccc(S(=O)(=O)[O-])c6F)c6nc(c(-c7cccc(S(=O)(=O)[O-])c7F)c7ccc4[nH]7)C=C6)C=C5)cc3)o2)cc1
REMARK SMILES IDX 17 1 16 2 14 3 15 4 13 5 10 6 11 7 85 8 12 9 9 10 6 11 7 12
REMARK SMILES IDX 87 13 8 14 86 15 4 16 5 17 3 18 2 19 1 20 18 21 19 22 20 23
REMARK SMILES IDX 21 24 22 25 23 26 84 27 24 28 83 29 25 30 26 31 27 32 77 33
REMARK SMILES IDX 28 34 82 35 76 36 78 37 29 38 81 39 75 40 74 41 30 43 62 44
REMARK SMILES IDX 42 45 61 46 43 47 46 48 60 49 79 50 44 51 45 52 59 54 80 55
REMARK SMILES IDX 47 56 31 57 32 58 40 59 33 60 35 61 41 62 34 63 36 64 37 65
REMARK SMILES IDX 38 66 39 67 63 68 64 69 72 70 65 71 67 72 73 73 66 74 68 75
REMARK SMILES IDX 69 76 70 77 71 78 48 79 49 80 57 81 50 82 52 83 58 84 51 85
REMARK SMILES IDX 53 86 54 87 55 88 56 89
REMARK H PARENT 78 42 46 53
REMARK Flexibility Score: inf
ROOT
ATOM      1  C   UNL A   1      41.350  20.061  26.985  1.00  0.00     0.275 C 
ENDROOT
BRANCH   1   2
ATOM      2  O   UNL A   1      41.703  19.466  25.723  1.00  0.00    -0.456 OA
BRANCH   2   3
ATOM      3  C   UNL A   1      42.744  18.577  25.756  1.00  0.00     0.374 C 
ATOM      4  O   UNL A   1      42.635  17.399  26.058  1.00  0.00    -0.242 OA
BRANCH   3   5
ATOM      5  C   UNL A   1      43.955  19.224  25.301  1.00  0.00     0.212 A 
ATOM      6  C   UNL A   1      45.177  21.000  24.836  1.00  0.00     0.135 A 
ATOM      7  C   UNL A   1      46.034  19.923  24.794  1.00  0.00     0.052 A 
ATOM      8  O   UNL A   1      43.907  20.576  25.066  1.00  0.00    -0.449 OA
ATOM      9  C   UNL A   1      45.253  18.782  25.109  1.00  0.00     0.059 A 
BRANCH   6  10
ATOM     10  C   UNL A   1      45.372  22.437  24.798  1.00  0.00     0.017 A 
ATOM     11  C   UNL A   1      45.801  25.206  24.966  1.00  0.00     0.060 A 
ATOM     12  C   UNL A   1      44.612  24.654  25.450  1.00  0.00     0.016 A 
ATOM     13  C   UNL A   1      46.758  24.381  24.361  1.00  0.00     0.016 A 
ATOM     14  C   UNL A   1      44.397  23.278  25.358  1.00  0.00     0.013 A 
ATOM     15  C   UNL A   1      46.544  22.999  24.282  1.00  0.00     0.013 A 
BRANCH  11  16
ATOM     16  C   UNL A   1      46.071  26.638  25.230  1.00  0.00     0.338 C 
ATOM     17  O   UNL A   1      45.356  27.532  24.807  1.00  0.00    -0.246 OA
BRANCH  16  18
ATOM     18  O   UNL A   1      47.168  26.775  26.011  1.00  0.00    -0.462 OA
BRANCH  18  19
ATOM     19  C   UNL A   1      47.099  26.124  27.290  1.00  0.00     0.230 C 
ATOM     20  C   UNL A   1      48.363  25.347  27.610  1.00  0.00     0.049 C 
ENDBRANCH  18  19
ENDBRANCH  16  18
ENDBRANCH  11  16
ENDBRANCH   6  10
ENDBRANCH   3   5
ENDBRANCH   2   3
ENDBRANCH   1   2
BRANCH   1  21
ATOM     21  C   UNL A   1      41.082  21.565  26.849  1.00  0.00     0.275 C 
BRANCH  21  22
ATOM     22  O   UNL A   1      39.740  21.908  27.236  1.00  0.00    -0.458 OA
BRANCH  22  23
ATOM     23  C   UNL A   1      39.133  22.852  26.477  1.00  0.00     0.338 C 
ATOM     24  O   UNL A   1      38.244  22.675  25.660  1.00  0.00    -0.246 OA
BRANCH  23  25
ATOM     25  C   UNL A   1      39.593  24.187  26.897  1.00  0.00     0.060 A 
ATOM     26  C   UNL A   1      39.386  24.547  28.228  1.00  0.00     0.016 A 
ATOM     27  C   UNL A   1      40.184  25.086  26.008  1.00  0.00     0.016 A 
ATOM     28  C   UNL A   1      39.782  25.796  28.693  1.00  0.00     0.010 A 
ATOM     29  C   UNL A   1      40.579  26.348  26.474  1.00  0.00     0.010 A 
ATOM     30  C   UNL A   1      40.382  26.708  27.819  1.00  0.00    -0.014 A 
BRANCH  30  31
ATOM     31  C   UNL A   1      40.809  28.030  28.334  1.00  0.00     0.031 A 
ATOM     32  C   UNL A   1      42.264  28.385  28.400  1.00  0.00     0.074 A 
ATOM     33  C   UNL A   1      39.875  28.917  28.724  1.00  0.00     0.049 A 
ATOM     34  N   UNL A   1      42.823  29.488  28.827  1.00  0.00    -0.248 NA
ATOM     35  C   UNL A   1      43.218  27.371  27.922  1.00  0.00     0.031 C 
ATOM     36  C   UNL A   1      38.429  28.685  28.696  1.00  0.00     0.029 A 
ATOM     37  N   UNL A   1      40.000  30.186  29.233  1.00  0.00    -0.354 N 
ATOM     38  C   UNL A   1      44.192  29.294  28.698  1.00  0.00     0.074 A 
ATOM     39  C   UNL A   1      44.382  27.965  28.154  1.00  0.00     0.031 C 
ATOM     40  C   UNL A   1      37.803  29.769  29.181  1.00  0.00     0.029 A 
ATOM     41  C   UNL A   1      38.799  30.760  29.577  1.00  0.00     0.049 A 
ATOM     42  H   UNL A   1      40.867  30.641  29.340  1.00  0.00     0.167 HD
ATOM     43  C   UNL A   1      45.198  30.151  28.992  1.00  0.00     0.034 A 
ATOM     44  C   UNL A   1      38.534  31.944  30.162  1.00  0.00     0.034 A 
ATOM     45  C   UNL A   1      45.005  31.484  29.500  1.00  0.00     0.049 A 
ATOM     46  C   UNL A   1      39.672  32.871  30.491  1.00  0.00     0.074 A 
ATOM     47  C   UNL A   1      45.961  32.445  29.777  1.00  0.00     0.029 A 
ATOM     48  N   UNL A   1      43.775  32.043  29.811  1.00  0.00    -0.354 N 
ATOM     49  N   UNL A   1      40.953  32.718  30.255  1.00  0.00    -0.248 NA
ATOM     50  C   UNL A   1      39.329  34.141  31.146  1.00  0.00     0.031 C 
ATOM     51  C   UNL A   1      45.310  33.582  30.269  1.00  0.00     0.029 A 
ATOM     52  C   UNL A   1      43.948  33.330  30.293  1.00  0.00     0.049 A 
ATOM     53  H   UNL A   1      42.907  31.591  29.705  1.00  0.00     0.167 HD
ATOM     54  C   UNL A   1      41.567  33.876  30.718  1.00  0.00     0.074 A 
ATOM     55  C   UNL A   1      40.513  34.735  31.220  1.00  0.00     0.031 C 
ATOM     56  C   UNL A   1      42.885  34.190  30.748  1.00  0.00     0.034 A 
BRANCH  43  57
ATOM     57  C   UNL A   1      46.605  29.690  28.735  1.00  0.00     0.023 A 
ATOM     58  C   UNL A   1      47.233  30.034  27.521  1.00  0.00     0.012 A 
ATOM     59  C   UNL A   1      47.326  28.975  29.711  1.00  0.00     0.148 A 
ATOM     60  C   UNL A   1      48.553  29.658  27.276  1.00  0.00     0.002 A 
ATOM     61  C   UNL A   1      48.651  28.630  29.471  1.00  0.00     0.091 A 
ATOM     62  F   UNL A   1      46.699  28.633  30.846  1.00  0.00    -0.205 F 
ATOM     63  C   UNL A   1      49.264  28.966  28.253  1.00  0.00     0.022 A 
BRANCH  61  64
ATOM     64  S   UNL A   1      49.663  27.788  30.694  1.00  0.00     0.127 S 
ATOM     65  O   UNL A   1      50.934  27.654  29.985  1.00  0.00    -0.237 OA
ATOM     66  O   UNL A   1      49.680  28.748  31.799  1.00  0.00    -0.237 OA
ATOM     67  O   UNL A   1      48.973  26.541  30.990  1.00  0.00    -0.744 OA
ENDBRANCH  61  64
ENDBRANCH  43  57
BRANCH  44  68
ATOM     68  C   UNL A   1      37.122  32.332  30.438  1.00  0.00     0.023 A 
ATOM     69  C   UNL A   1      36.580  32.110  31.717  1.00  0.00     0.012 A 
ATOM     70  C   UNL A   1      36.329  32.956  29.455  1.00  0.00     0.148 A 
ATOM     71  C   UNL A   1      35.268  32.487  32.008  1.00  0.00     0.002 A 
ATOM     72  C   UNL A   1      35.041  33.377  29.767  1.00  0.00     0.091 A 
ATOM     73  F   UNL A   1      36.850  33.133  28.232  1.00  0.00    -0.205 F 
ATOM     74  C   UNL A   1      34.504  33.132  31.038  1.00  0.00     0.022 A 
BRANCH  72  75
ATOM     75  S   UNL A   1      34.053  34.331  28.609  1.00  0.00     0.127 S 
ATOM     76  O   UNL A   1      32.825  34.548  29.368  1.00  0.00    -0.237 OA
ATOM     77  O   UNL A   1      34.873  35.527  28.410  1.00  0.00    -0.237 OA
ATOM     78  O   UNL A   1      33.936  33.491  27.424  1.00  0.00    -0.744 OA
ENDBRANCH  72  75
ENDBRANCH  44  68
BRANCH  56  79
ATOM     79  C   UNL A   1      43.270  35.514  31.349  1.00  0.00     0.023 A 
ATOM     80  C   UNL A   1      43.558  36.597  30.494  1.00  0.00     0.012 A 
ATOM     81  C   UNL A   1      43.276  35.712  32.743  1.00  0.00     0.148 A 
ATOM     82  C   UNL A   1      43.870  37.851  31.019  1.00  0.00     0.002 A 
ATOM     83  C   UNL A   1      43.550  36.974  33.258  1.00  0.00     0.091 A 
ATOM     84  F   UNL A   1      43.022  34.664  33.541  1.00  0.00    -0.205 F 
ATOM     85  C   UNL A   1      43.855  38.042  32.399  1.00  0.00     0.022 A 
BRANCH  83  86
ATOM     86  S   UNL A   1      43.470  37.324  35.019  1.00  0.00     0.127 S 
ATOM     87  O   UNL A   1      42.087  36.964  35.332  1.00  0.00    -0.237 OA
ATOM     88  O   UNL A   1      44.475  36.413  35.569  1.00  0.00    -0.237 OA
ATOM     89  O   UNL A   1      43.801  38.735  35.157  1.00  0.00    -0.744 OA
ENDBRANCH  83  86
ENDBRANCH  56  79
ENDBRANCH  30  31
ENDBRANCH  23  25
ENDBRANCH  22  23
ENDBRANCH  21  22
ENDBRANCH   1  21
TORSDOF 18
ENDMDL
