MODEL 1
REMARK VINA RESULT:     -13.1      0.000      0.000
REMARK SMILES C[NH+]1CCC(C(=O)N2C[C@@H](C(=O)OCCOC(=O)c3ccc(-c4c5nc(c(-c6cccc(S(=O)(=O)[O-])c6F)c6ccc([nH]6)c(-c6cccc(S(=O)(=O)[O-])c6F)c6nc(c(-c7cccc(S(=O)(=O)[O-])c7F)c7ccc4[nH]7)C=C6)C=C5)cc3)[C@H](c3ccc4c(c3)OCO4)C2)CC1
REMARK SMILES IDX 15 1 14 2 13 3 11 4 12 5 10 6 8 7 9 8 92 9 82 10 6 11 7 12
REMARK SMILES IDX 5 13 1 14 2 15 3 16 94 17 4 19 93 20 83 21 84 22 88 23 85 24
REMARK SMILES IDX 87 25 86 26 89 27 91 28 90 29 16 30 17 31 18 32 19 33 20 34
REMARK SMILES IDX 81 35 21 36 80 37 22 38 23 39 24 40 74 41 25 42 79 43 73 44
REMARK SMILES IDX 75 45 26 46 78 47 72 48 71 49 27 51 59 52 39 53 58 54 40 55
REMARK SMILES IDX 43 56 57 57 76 58 41 59 42 60 56 62 77 63 44 64 28 65 29 66
REMARK SMILES IDX 37 67 30 68 32 69 38 70 31 71 33 72 34 73 35 74 36 75 60 76
REMARK SMILES IDX 61 77 69 78 62 79 64 80 70 81 63 82 65 83 66 84 67 85 68 86
REMARK SMILES IDX 45 87 46 88 54 89 47 90 49 91 55 92 48 93 50 94 51 95 52 96
REMARK SMILES IDX 53 97
REMARK H PARENT 2 18 75 50 43 61
REMARK Flexibility Score: inf
ROOT
ATOM      1  C   UNL A   1      31.447  31.256  26.219  1.00  0.00     0.275 C 
ENDROOT
BRANCH   1   2
ATOM      2  C   UNL A   1      31.404  30.012  25.337  1.00  0.00     0.274 C 
BRANCH   2   3
ATOM      3  O   UNL A   1      32.734  29.542  25.042  1.00  0.00    -0.462 OA
BRANCH   3   4
ATOM      4  C   UNL A   1      32.896  28.874  23.865  1.00  0.00     0.311 C 
ATOM      5  O   UNL A   1      33.593  29.245  22.936  1.00  0.00    -0.252 OA
BRANCH   4   6
ATOM      6  C   UNL A   1      32.032  27.637  23.832  1.00  0.00     0.128 C 
ATOM      7  N   UNL A   1      32.124  25.331  23.442  1.00  0.00    -0.341 N 
ATOM      8  C   UNL A   1      32.793  26.382  24.166  1.00  0.00     0.135 C 
ATOM      9  C   UNL A   1      31.475  25.867  22.251  1.00  0.00     0.128 C 
ATOM     10  C   UNL A   1      31.445  27.399  22.419  1.00  0.00     0.055 C 
BRANCH   7  11
ATOM     11  C   UNL A   1      32.313  23.974  23.598  1.00  0.00     0.226 C 
ATOM     12  O   UNL A   1      31.379  23.190  23.401  1.00  0.00    -0.275 OA
BRANCH  11  13
ATOM     13  C   UNL A   1      33.598  23.448  24.251  1.00  0.00     0.090 C 
ATOM     14  C   UNL A   1      37.351  21.391  24.671  1.00  0.00     0.332 C 
ATOM     15  N   UNL A   1      36.019  21.832  24.255  1.00  0.00    -0.337 N 
ATOM     16  C   UNL A   1      36.071  23.225  23.801  1.00  0.00     0.262 C 
ATOM     17  C   UNL A   1      35.049  21.681  25.353  1.00  0.00     0.262 C 
ATOM     18  H   UNL A   1      35.711  21.245  23.480  1.00  0.00     0.347 HD
ATOM     19  C   UNL A   1      34.724  23.622  23.225  1.00  0.00     0.075 C 
ATOM     20  C   UNL A   1      33.626  22.063  24.906  1.00  0.00     0.075 C 
ENDBRANCH  11  13
ENDBRANCH   7  11
BRANCH  10  21
ATOM     21  C   UNL A   1      30.125  28.162  22.404  1.00  0.00    -0.038 A 
ATOM     22  C   UNL A   1      28.975  27.711  23.089  1.00  0.00     0.008 A 
ATOM     23  C   UNL A   1      30.176  29.496  21.945  1.00  0.00     0.054 A 
ATOM     24  C   UNL A   1      27.939  28.599  23.407  1.00  0.00     0.051 A 
ATOM     25  C   UNL A   1      29.180  30.358  22.341  1.00  0.00     0.166 A 
ATOM     26  C   UNL A   1      28.098  29.923  23.066  1.00  0.00     0.165 A 
ATOM     27  O   UNL A   1      29.193  31.708  22.178  1.00  0.00    -0.454 OA
ATOM     28  O   UNL A   1      27.290  30.952  23.443  1.00  0.00    -0.454 OA
ATOM     29  C   UNL A   1      28.106  32.077  23.050  1.00  0.00     0.468 C 
ENDBRANCH  10  21
ENDBRANCH   4   6
ENDBRANCH   3   4
ENDBRANCH   2   3
ENDBRANCH   1   2
BRANCH   1  30
ATOM     30  O   UNL A   1      32.481  31.120  27.207  1.00  0.00    -0.458 OA
BRANCH  30  31
ATOM     31  C   UNL A   1      33.245  32.208  27.406  1.00  0.00     0.338 C 
ATOM     32  O   UNL A   1      32.892  33.392  27.349  1.00  0.00    -0.246 OA
BRANCH  31  33
ATOM     33  C   UNL A   1      34.587  31.811  27.830  1.00  0.00     0.060 A 
ATOM     34  C   UNL A   1      34.799  30.473  28.149  1.00  0.00     0.016 A 
ATOM     35  C   UNL A   1      35.582  32.751  28.069  1.00  0.00     0.016 A 
ATOM     36  C   UNL A   1      35.947  30.081  28.827  1.00  0.00     0.010 A 
ATOM     37  C   UNL A   1      36.790  32.335  28.642  1.00  0.00     0.010 A 
ATOM     38  C   UNL A   1      36.967  31.005  29.075  1.00  0.00    -0.014 A 
BRANCH  38  39
ATOM     39  C   UNL A   1      38.191  30.595  29.822  1.00  0.00     0.031 A 
ATOM     40  C   UNL A   1      39.193  29.672  29.173  1.00  0.00     0.074 A 
ATOM     41  C   UNL A   1      38.409  31.035  31.079  1.00  0.00     0.049 A 
ATOM     42  N   UNL A   1      40.207  29.047  29.711  1.00  0.00    -0.248 NA
ATOM     43  C   UNL A   1      39.018  29.398  27.736  1.00  0.00     0.031 C 
ATOM     44  C   UNL A   1      37.540  31.947  31.824  1.00  0.00     0.029 A 
ATOM     45  N   UNL A   1      39.430  30.764  31.958  1.00  0.00    -0.354 N 
ATOM     46  C   UNL A   1      40.725  28.231  28.713  1.00  0.00     0.074 A 
ATOM     47  C   UNL A   1      39.934  28.462  27.524  1.00  0.00     0.031 C 
ATOM     48  C   UNL A   1      38.073  32.180  33.033  1.00  0.00     0.029 A 
ATOM     49  C   UNL A   1      39.277  31.372  33.185  1.00  0.00     0.049 A 
ATOM     50  H   UNL A   1      40.198  30.190  31.733  1.00  0.00     0.167 HD
ATOM     51  C   UNL A   1      41.766  27.369  28.781  1.00  0.00     0.034 A 
ATOM     52  C   UNL A   1      39.998  31.263  34.318  1.00  0.00     0.034 A 
ATOM     53  C   UNL A   1      42.623  27.226  29.926  1.00  0.00     0.049 A 
ATOM     54  C   UNL A   1      41.188  30.343  34.342  1.00  0.00     0.074 A 
ATOM     55  C   UNL A   1      43.745  26.426  30.064  1.00  0.00     0.029 A 
ATOM     56  N   UNL A   1      42.474  27.916  31.117  1.00  0.00    -0.354 N 
ATOM     57  N   UNL A   1      41.686  29.615  33.373  1.00  0.00    -0.248 NA
ATOM     58  C   UNL A   1      41.918  30.235  35.613  1.00  0.00     0.031 C 
ATOM     59  C   UNL A   1      44.274  26.633  31.343  1.00  0.00     0.029 A 
ATOM     60  C   UNL A   1      43.485  27.566  31.995  1.00  0.00     0.049 A 
ATOM     61  H   UNL A   1      41.756  28.561  31.310  1.00  0.00     0.167 HD
ATOM     62  C   UNL A   1      42.800  28.981  33.910  1.00  0.00     0.074 A 
ATOM     63  C   UNL A   1      42.920  29.432  35.281  1.00  0.00     0.031 C 
ATOM     64  C   UNL A   1      43.631  28.082  33.330  1.00  0.00     0.034 A 
BRANCH  51  65
ATOM     65  C   UNL A   1      42.063  26.520  27.575  1.00  0.00     0.023 A 
ATOM     66  C   UNL A   1      42.792  27.059  26.497  1.00  0.00     0.012 A 
ATOM     67  C   UNL A   1      41.693  25.160  27.551  1.00  0.00     0.148 A 
ATOM     68  C   UNL A   1      43.133  26.261  25.405  1.00  0.00     0.002 A 
ATOM     69  C   UNL A   1      42.069  24.362  26.477  1.00  0.00     0.091 A 
ATOM     70  F   UNL A   1      40.979  24.674  28.577  1.00  0.00    -0.205 F 
ATOM     71  C   UNL A   1      42.783  24.912  25.401  1.00  0.00     0.022 A 
BRANCH  69  72
ATOM     72  S   UNL A   1      41.728  22.598  26.417  1.00  0.00     0.127 S 
ATOM     73  O   UNL A   1      40.267  22.582  26.367  1.00  0.00    -0.237 OA
ATOM     74  O   UNL A   1      42.386  22.199  25.172  1.00  0.00    -0.237 OA
ATOM     75  O   UNL A   1      42.320  22.035  27.622  1.00  0.00    -0.744 OA
ENDBRANCH  69  72
ENDBRANCH  51  65
BRANCH  52  76
ATOM     76  C   UNL A   1      39.627  32.063  35.520  1.00  0.00     0.023 A 
ATOM     77  C   UNL A   1      40.084  33.390  35.635  1.00  0.00     0.012 A 
ATOM     78  C   UNL A   1      38.804  31.534  36.534  1.00  0.00     0.148 A 
ATOM     79  C   UNL A   1      39.749  34.166  36.746  1.00  0.00     0.002 A 
ATOM     80  C   UNL A   1      38.422  32.333  37.606  1.00  0.00     0.091 A 
ATOM     81  F   UNL A   1      38.398  30.260  36.431  1.00  0.00    -0.205 F 
ATOM     82  C   UNL A   1      38.906  33.644  37.724  1.00  0.00     0.022 A 
BRANCH  80  83
ATOM     83  S   UNL A   1      37.217  31.760  38.809  1.00  0.00     0.127 S 
ATOM     84  O   UNL A   1      37.954  31.884  40.062  1.00  0.00    -0.237 OA
ATOM     85  O   UNL A   1      36.122  32.719  38.643  1.00  0.00    -0.237 OA
ATOM     86  O   UNL A   1      36.884  30.406  38.384  1.00  0.00    -0.744 OA
ENDBRANCH  80  83
ENDBRANCH  52  76
BRANCH  64  87
ATOM     87  C   UNL A   1      44.767  27.548  34.159  1.00  0.00     0.023 A 
ATOM     88  C   UNL A   1      45.983  28.258  34.206  1.00  0.00     0.012 A 
ATOM     89  C   UNL A   1      44.606  26.393  34.947  1.00  0.00     0.148 A 
ATOM     90  C   UNL A   1      47.032  27.812  35.009  1.00  0.00     0.002 A 
ATOM     91  C   UNL A   1      45.642  25.977  35.776  1.00  0.00     0.091 A 
ATOM     92  F   UNL A   1      43.449  25.718  34.870  1.00  0.00    -0.205 F 
ATOM     93  C   UNL A   1      46.857  26.679  35.802  1.00  0.00     0.022 A 
BRANCH  91  94
ATOM     94  S   UNL A   1      45.461  24.581  36.892  1.00  0.00     0.127 S 
ATOM     95  O   UNL A   1      44.348  25.014  37.735  1.00  0.00    -0.237 OA
ATOM     96  O   UNL A   1      45.140  23.483  35.977  1.00  0.00    -0.237 OA
ATOM     97  O   UNL A   1      46.746  24.444  37.562  1.00  0.00    -0.744 OA
ENDBRANCH  91  94
ENDBRANCH  64  87
ENDBRANCH  38  39
ENDBRANCH  31  33
ENDBRANCH  30  31
ENDBRANCH   1  30
TORSDOF 17
ENDMDL
MODEL 2
REMARK VINA RESULT:     -12.9      5.166      8.674
REMARK SMILES C[NH+]1CCC(C(=O)N2C[C@@H](C(=O)OCCOC(=O)c3ccc(-c4c5nc(c(-c6cccc(S(=O)(=O)[O-])c6F)c6ccc([nH]6)c(-c6cccc(S(=O)(=O)[O-])c6F)c6nc(c(-c7cccc(S(=O)(=O)[O-])c7F)c7ccc4[nH]7)C=C6)C=C5)cc3)[C@H](c3ccc4c(c3)OCO4)C2)CC1
REMARK SMILES IDX 15 1 14 2 13 3 11 4 12 5 10 6 8 7 9 8 92 9 82 10 6 11 7 12
REMARK SMILES IDX 5 13 1 14 2 15 3 16 94 17 4 19 93 20 83 21 84 22 88 23 85 24
REMARK SMILES IDX 87 25 86 26 89 27 91 28 90 29 16 30 17 31 18 32 19 33 20 34
REMARK SMILES IDX 81 35 21 36 80 37 22 38 23 39 24 40 74 41 25 42 79 43 73 44
REMARK SMILES IDX 75 45 26 46 78 47 72 48 71 49 27 51 59 52 39 53 58 54 40 55
REMARK SMILES IDX 43 56 57 57 76 58 41 59 42 60 56 62 77 63 44 64 28 65 29 66
REMARK SMILES IDX 37 67 30 68 32 69 38 70 31 71 33 72 34 73 35 74 36 75 60 76
REMARK SMILES IDX 61 77 69 78 62 79 64 80 70 81 63 82 65 83 66 84 67 85 68 86
REMARK SMILES IDX 45 87 46 88 54 89 47 90 49 91 55 92 48 93 50 94 51 95 52 96
REMARK SMILES IDX 53 97
REMARK H PARENT 2 18 75 50 43 61
REMARK Flexibility Score: inf
ROOT
ATOM      1  C   UNL A   1      37.722  19.700  25.001  1.00  0.00     0.275 C 
ENDROOT
BRANCH   1   2
ATOM      2  C   UNL A   1      36.219  19.961  24.963  1.00  0.00     0.274 C 
BRANCH   2   3
ATOM      3  O   UNL A   1      35.942  21.330  24.607  1.00  0.00    -0.462 OA
BRANCH   3   4
ATOM      4  C   UNL A   1      34.992  21.970  25.346  1.00  0.00     0.311 C 
ATOM      5  O   UNL A   1      35.057  22.181  26.545  1.00  0.00    -0.252 OA
BRANCH   4   6
ATOM      6  C   UNL A   1      33.801  22.325  24.488  1.00  0.00     0.128 C 
ATOM      7  N   UNL A   1      32.177  23.980  24.178  1.00  0.00    -0.341 N 
ATOM      8  C   UNL A   1      33.597  23.810  24.355  1.00  0.00     0.135 C 
ATOM      9  C   UNL A   1      31.450  22.884  24.808  1.00  0.00     0.128 C 
ATOM     10  C   UNL A   1      32.487  21.781  25.100  1.00  0.00     0.055 C 
BRANCH   7  11
ATOM     11  C   UNL A   1      31.528  25.135  23.796  1.00  0.00     0.226 C 
ATOM     12  O   UNL A   1      31.284  25.345  22.603  1.00  0.00    -0.275 OA
BRANCH  11  13
ATOM     13  C   UNL A   1      31.326  26.273  24.806  1.00  0.00     0.090 C 
ATOM     14  C   UNL A   1      32.068  29.916  26.968  1.00  0.00     0.332 C 
ATOM     15  N   UNL A   1      32.192  28.686  26.185  1.00  0.00    -0.337 N 
ATOM     16  C   UNL A   1      31.404  28.792  24.954  1.00  0.00     0.262 C 
ATOM     17  C   UNL A   1      31.768  27.516  26.974  1.00  0.00     0.262 C 
ATOM     18  H   UNL A   1      33.174  28.558  25.937  1.00  0.00     0.347 HD
ATOM     19  C   UNL A   1      31.665  27.580  24.078  1.00  0.00     0.075 C 
ATOM     20  C   UNL A   1      31.972  26.205  26.194  1.00  0.00     0.075 C 
ENDBRANCH  11  13
ENDBRANCH   7  11
BRANCH  10  21
ATOM     21  C   UNL A   1      32.326  20.382  24.516  1.00  0.00    -0.038 A 
ATOM     22  C   UNL A   1      32.179  20.146  23.131  1.00  0.00     0.008 A 
ATOM     23  C   UNL A   1      32.646  19.304  25.370  1.00  0.00     0.054 A 
ATOM     24  C   UNL A   1      32.450  18.882  22.590  1.00  0.00     0.051 A 
ATOM     25  C   UNL A   1      32.981  18.099  24.797  1.00  0.00     0.166 A 
ATOM     26  C   UNL A   1      32.900  17.899  23.441  1.00  0.00     0.165 A 
ATOM     27  O   UNL A   1      33.523  17.037  25.452  1.00  0.00    -0.454 OA
ATOM     28  O   UNL A   1      33.377  16.676  23.077  1.00  0.00    -0.454 OA
ATOM     29  C   UNL A   1      33.948  16.240  24.330  1.00  0.00     0.468 C 
ENDBRANCH  10  21
ENDBRANCH   4   6
ENDBRANCH   3   4
ENDBRANCH   2   3
ENDBRANCH   1   2
BRANCH   1  30
ATOM     30  O   UNL A   1      38.420  20.909  25.338  1.00  0.00    -0.458 OA
BRANCH  30  31
ATOM     31  C   UNL A   1      39.475  20.766  26.157  1.00  0.00     0.338 C 
ATOM     32  O   UNL A   1      40.131  19.737  26.360  1.00  0.00    -0.246 OA
BRANCH  31  33
ATOM     33  C   UNL A   1      39.851  22.059  26.727  1.00  0.00     0.060 A 
ATOM     34  C   UNL A   1      39.148  23.184  26.308  1.00  0.00     0.016 A 
ATOM     35  C   UNL A   1      40.973  22.199  27.535  1.00  0.00     0.016 A 
ATOM     36  C   UNL A   1      39.628  24.459  26.577  1.00  0.00     0.010 A 
ATOM     37  C   UNL A   1      41.388  23.483  27.908  1.00  0.00     0.010 A 
ATOM     38  C   UNL A   1      40.752  24.629  27.392  1.00  0.00    -0.014 A 
BRANCH  38  39
ATOM     39  C   UNL A   1      41.285  25.995  27.666  1.00  0.00     0.031 A 
ATOM     40  C   UNL A   1      42.654  26.382  27.162  1.00  0.00     0.074 A 
ATOM     41  C   UNL A   1      40.559  26.888  28.369  1.00  0.00     0.049 A 
ATOM     42  N   UNL A   1      43.373  27.434  27.455  1.00  0.00    -0.248 NA
ATOM     43  C   UNL A   1      43.309  25.455  26.223  1.00  0.00     0.031 C 
ATOM     44  C   UNL A   1      39.213  26.662  28.899  1.00  0.00     0.029 A 
ATOM     45  N   UNL A   1      40.856  28.169  28.768  1.00  0.00    -0.354 N 
ATOM     46  C   UNL A   1      44.598  27.246  26.826  1.00  0.00     0.074 A 
ATOM     47  C   UNL A   1      44.516  25.993  26.106  1.00  0.00     0.031 C 
ATOM     48  C   UNL A   1      38.792  27.769  29.529  1.00  0.00     0.029 A 
ATOM     49  C   UNL A   1      39.864  28.756  29.523  1.00  0.00     0.049 A 
ATOM     50  H   UNL A   1      41.698  28.625  28.536  1.00  0.00     0.167 HD
ATOM     51  C   UNL A   1      45.689  28.044  26.844  1.00  0.00     0.034 A 
ATOM     52  C   UNL A   1      39.833  29.937  30.172  1.00  0.00     0.034 A 
ATOM     53  C   UNL A   1      45.731  29.342  27.462  1.00  0.00     0.049 A 
ATOM     54  C   UNL A   1      41.041  30.831  30.121  1.00  0.00     0.074 A 
ATOM     55  C   UNL A   1      46.773  30.254  27.475  1.00  0.00     0.029 A 
ATOM     56  N   UNL A   1      44.680  29.925  28.150  1.00  0.00    -0.354 N 
ATOM     57  N   UNL A   1      42.172  30.653  29.482  1.00  0.00    -0.248 NA
ATOM     58  C   UNL A   1      40.967  32.091  30.875  1.00  0.00     0.031 C 
ATOM     59  C   UNL A   1      46.350  31.390  28.174  1.00  0.00     0.029 A 
ATOM     60  C   UNL A   1      45.044  31.186  28.588  1.00  0.00     0.049 A 
ATOM     61  H   UNL A   1      43.803  29.504  28.304  1.00  0.00     0.167 HD
ATOM     62  C   UNL A   1      42.934  31.787  29.739  1.00  0.00     0.074 A 
ATOM     63  C   UNL A   1      42.126  32.658  30.567  1.00  0.00     0.031 C 
ATOM     64  C   UNL A   1      44.200  32.069  29.348  1.00  0.00     0.034 A 
BRANCH  51  65
ATOM     65  C   UNL A   1      46.936  27.558  26.156  1.00  0.00     0.023 A 
ATOM     66  C   UNL A   1      47.837  26.721  26.842  1.00  0.00     0.012 A 
ATOM     67  C   UNL A   1      47.167  27.863  24.800  1.00  0.00     0.148 A 
ATOM     68  C   UNL A   1      48.960  26.208  26.192  1.00  0.00     0.002 A 
ATOM     69  C   UNL A   1      48.268  27.318  24.149  1.00  0.00     0.091 A 
ATOM     70  F   UNL A   1      46.309  28.682  24.173  1.00  0.00    -0.205 F 
ATOM     71  C   UNL A   1      49.168  26.496  24.845  1.00  0.00     0.022 A 
BRANCH  69  72
ATOM     72  S   UNL A   1      48.579  27.572  22.397  1.00  0.00     0.127 S 
ATOM     73  O   UNL A   1      49.818  28.349  22.427  1.00  0.00    -0.237 OA
ATOM     74  O   UNL A   1      48.729  26.201  21.908  1.00  0.00    -0.237 OA
ATOM     75  O   UNL A   1      47.412  28.275  21.881  1.00  0.00    -0.744 OA
ENDBRANCH  69  72
ENDBRANCH  51  65
BRANCH  52  76
ATOM     76  C   UNL A   1      38.606  30.352  30.910  1.00  0.00     0.023 A 
ATOM     77  C   UNL A   1      38.492  30.057  32.282  1.00  0.00     0.012 A 
ATOM     78  C   UNL A   1      37.565  31.058  30.275  1.00  0.00     0.148 A 
ATOM     79  C   UNL A   1      37.358  30.438  33.002  1.00  0.00     0.002 A 
ATOM     80  C   UNL A   1      36.467  31.489  31.012  1.00  0.00     0.091 A 
ATOM     81  F   UNL A   1      37.668  31.307  28.961  1.00  0.00    -0.205 F 
ATOM     82  C   UNL A   1      36.352  31.166  32.371  1.00  0.00     0.022 A 
BRANCH  80  83
ATOM     83  S   UNL A   1      35.223  32.561  30.284  1.00  0.00     0.127 S 
ATOM     84  O   UNL A   1      34.287  32.735  31.390  1.00  0.00    -0.237 OA
ATOM     85  O   UNL A   1      35.995  33.756  29.939  1.00  0.00    -0.237 OA
ATOM     86  O   UNL A   1      34.729  31.824  29.127  1.00  0.00    -0.744 OA
ENDBRANCH  80  83
ENDBRANCH  52  76
BRANCH  64  87
ATOM     87  C   UNL A   1      44.784  33.386  29.780  1.00  0.00     0.023 A 
ATOM     88  C   UNL A   1      45.482  33.468  31.001  1.00  0.00     0.012 A 
ATOM     89  C   UNL A   1      44.711  34.517  28.945  1.00  0.00     0.148 A 
ATOM     90  C   UNL A   1      46.077  34.664  31.397  1.00  0.00     0.002 A 
ATOM     91  C   UNL A   1      45.341  35.696  29.327  1.00  0.00     0.091 A 
ATOM     92  F   UNL A   1      44.021  34.425  27.798  1.00  0.00    -0.205 F 
ATOM     93  C   UNL A   1      46.018  35.774  30.555  1.00  0.00     0.022 A 
BRANCH  91  94
ATOM     94  S   UNL A   1      45.383  37.138  28.258  1.00  0.00     0.127 S 
ATOM     95  O   UNL A   1      43.960  37.394  28.044  1.00  0.00    -0.237 OA
ATOM     96  O   UNL A   1      46.061  38.132  29.092  1.00  0.00    -0.237 OA
ATOM     97  O   UNL A   1      46.138  36.733  27.080  1.00  0.00    -0.744 OA
ENDBRANCH  91  94
ENDBRANCH  64  87
ENDBRANCH  38  39
ENDBRANCH  31  33
ENDBRANCH  30  31
ENDBRANCH   1  30
TORSDOF 17
ENDMDL
MODEL 3
REMARK VINA RESULT:     -12.9      5.197      8.826
REMARK SMILES C[NH+]1CCC(C(=O)N2C[C@@H](C(=O)OCCOC(=O)c3ccc(-c4c5nc(c(-c6cccc(S(=O)(=O)[O-])c6F)c6ccc([nH]6)c(-c6cccc(S(=O)(=O)[O-])c6F)c6nc(c(-c7cccc(S(=O)(=O)[O-])c7F)c7ccc4[nH]7)C=C6)C=C5)cc3)[C@H](c3ccc4c(c3)OCO4)C2)CC1
REMARK SMILES IDX 15 1 14 2 13 3 11 4 12 5 10 6 8 7 9 8 92 9 82 10 6 11 7 12
REMARK SMILES IDX 5 13 1 14 2 15 3 16 94 17 4 19 93 20 83 21 84 22 88 23 85 24
REMARK SMILES IDX 87 25 86 26 89 27 91 28 90 29 16 30 17 31 18 32 19 33 20 34
REMARK SMILES IDX 81 35 21 36 80 37 22 38 23 39 24 40 74 41 25 42 79 43 73 44
REMARK SMILES IDX 75 45 26 46 78 47 72 48 71 49 27 51 59 52 39 53 58 54 40 55
REMARK SMILES IDX 43 56 57 57 76 58 41 59 42 60 56 62 77 63 44 64 28 65 29 66
REMARK SMILES IDX 37 67 30 68 32 69 38 70 31 71 33 72 34 73 35 74 36 75 60 76
REMARK SMILES IDX 61 77 69 78 62 79 64 80 70 81 63 82 65 83 66 84 67 85 68 86
REMARK SMILES IDX 45 87 46 88 54 89 47 90 49 91 55 92 48 93 50 94 51 95 52 96
REMARK SMILES IDX 53 97
REMARK H PARENT 2 18 75 50 43 61
REMARK Flexibility Score: inf
ROOT
ATOM      1  C   UNL A   1      37.781  19.590  24.966  1.00  0.00     0.275 C 
ENDROOT
BRANCH   1   2
ATOM      2  C   UNL A   1      36.290  19.908  25.002  1.00  0.00     0.274 C 
BRANCH   2   3
ATOM      3  O   UNL A   1      36.049  21.184  25.626  1.00  0.00    -0.462 OA
BRANCH   3   4
ATOM      4  C   UNL A   1      34.745  21.543  25.796  1.00  0.00     0.311 C 
ATOM      5  O   UNL A   1      34.160  21.581  26.864  1.00  0.00    -0.252 OA
BRANCH   4   6
ATOM      6  C   UNL A   1      34.092  21.820  24.463  1.00  0.00     0.128 C 
ATOM      7  N   UNL A   1      33.088  23.529  23.219  1.00  0.00    -0.341 N 
ATOM      8  C   UNL A   1      34.256  23.247  24.017  1.00  0.00     0.135 C 
ATOM      9  C   UNL A   1      31.970  22.694  23.642  1.00  0.00     0.128 C 
ATOM     10  C   UNL A   1      32.563  21.581  24.527  1.00  0.00     0.055 C 
BRANCH   7  11
ATOM     11  C   UNL A   1      32.888  24.629  22.412  1.00  0.00     0.226 C 
ATOM     12  O   UNL A   1      33.280  24.620  21.241  1.00  0.00    -0.275 OA
BRANCH  11  13
ATOM     13  C   UNL A   1      32.406  25.952  23.023  1.00  0.00     0.090 C 
ATOM     14  C   UNL A   1      30.176  29.601  23.479  1.00  0.00     0.332 C 
ATOM     15  N   UNL A   1      30.857  28.415  22.957  1.00  0.00    -0.337 N 
ATOM     16  C   UNL A   1      30.278  27.205  23.546  1.00  0.00     0.262 C 
ATOM     17  C   UNL A   1      32.304  28.480  23.221  1.00  0.00     0.262 C 
ATOM     18  H   UNL A   1      30.723  28.385  21.946  1.00  0.00     0.347 HD
ATOM     19  C   UNL A   1      30.879  25.979  22.882  1.00  0.00     0.075 C 
ATOM     20  C   UNL A   1      33.045  27.280  22.605  1.00  0.00     0.075 C 
ENDBRANCH  11  13
ENDBRANCH   7  11
BRANCH  10  21
ATOM     21  C   UNL A   1      32.376  20.111  24.167  1.00  0.00    -0.038 A 
ATOM     22  C   UNL A   1      32.341  19.652  22.832  1.00  0.00     0.008 A 
ATOM     23  C   UNL A   1      32.556  19.180  25.212  1.00  0.00     0.054 A 
ATOM     24  C   UNL A   1      32.587  18.306  22.533  1.00  0.00     0.051 A 
ATOM     25  C   UNL A   1      32.872  17.883  24.880  1.00  0.00     0.166 A 
ATOM     26  C   UNL A   1      32.901  17.461  23.574  1.00  0.00     0.165 A 
ATOM     27  O   UNL A   1      33.291  16.925  25.749  1.00  0.00    -0.454 OA
ATOM     28  O   UNL A   1      33.338  16.177  23.463  1.00  0.00    -0.454 OA
ATOM     29  C   UNL A   1      33.769  15.934  24.819  1.00  0.00     0.468 C 
ENDBRANCH  10  21
ENDBRANCH   4   6
ENDBRANCH   3   4
ENDBRANCH   2   3
ENDBRANCH   1   2
BRANCH   1  30
ATOM     30  O   UNL A   1      38.542  20.781  25.220  1.00  0.00    -0.458 OA
BRANCH  30  31
ATOM     31  C   UNL A   1      39.522  20.664  26.132  1.00  0.00     0.338 C 
ATOM     32  O   UNL A   1      40.135  19.636  26.446  1.00  0.00    -0.246 OA
BRANCH  31  33
ATOM     33  C   UNL A   1      39.881  21.981  26.659  1.00  0.00     0.060 A 
ATOM     34  C   UNL A   1      39.231  23.092  26.131  1.00  0.00     0.016 A 
ATOM     35  C   UNL A   1      40.946  22.147  27.537  1.00  0.00     0.016 A 
ATOM     36  C   UNL A   1      39.714  24.372  26.367  1.00  0.00     0.010 A 
ATOM     37  C   UNL A   1      41.357  23.443  27.871  1.00  0.00     0.010 A 
ATOM     38  C   UNL A   1      40.781  24.569  27.250  1.00  0.00    -0.014 A 
BRANCH  38  39
ATOM     39  C   UNL A   1      41.319  25.940  27.489  1.00  0.00     0.031 A 
ATOM     40  C   UNL A   1      42.673  26.321  26.945  1.00  0.00     0.074 A 
ATOM     41  C   UNL A   1      40.609  26.843  28.197  1.00  0.00     0.049 A 
ATOM     42  N   UNL A   1      43.398  27.377  27.204  1.00  0.00    -0.248 NA
ATOM     43  C   UNL A   1      43.306  25.380  26.004  1.00  0.00     0.031 C 
ATOM     44  C   UNL A   1      39.278  26.623  28.765  1.00  0.00     0.029 A 
ATOM     45  N   UNL A   1      40.914  28.130  28.569  1.00  0.00    -0.354 N 
ATOM     46  C   UNL A   1      44.607  27.181  26.546  1.00  0.00     0.074 A 
ATOM     47  C   UNL A   1      44.508  25.918  25.848  1.00  0.00     0.031 C 
ATOM     48  C   UNL A   1      38.871  27.739  29.389  1.00  0.00     0.029 A 
ATOM     49  C   UNL A   1      39.941  28.727  29.340  1.00  0.00     0.049 A 
ATOM     50  H   UNL A   1      41.749  28.583  28.309  1.00  0.00     0.167 HD
ATOM     51  C   UNL A   1      45.697  27.981  26.525  1.00  0.00     0.034 A 
ATOM     52  C   UNL A   1      39.925  29.918  29.971  1.00  0.00     0.034 A 
ATOM     53  C   UNL A   1      45.752  29.288  27.121  1.00  0.00     0.049 A 
ATOM     54  C   UNL A   1      41.130  30.812  29.876  1.00  0.00     0.074 A 
ATOM     55  C   UNL A   1      46.793  30.201  27.094  1.00  0.00     0.029 A 
ATOM     56  N   UNL A   1      44.718  29.880  27.827  1.00  0.00    -0.354 N 
ATOM     57  N   UNL A   1      42.244  30.626  29.211  1.00  0.00    -0.248 NA
ATOM     58  C   UNL A   1      41.073  32.083  30.612  1.00  0.00     0.031 C 
ATOM     59  C   UNL A   1      46.386  31.348  27.785  1.00  0.00     0.029 A 
ATOM     60  C   UNL A   1      45.091  31.148  28.236  1.00  0.00     0.049 A 
ATOM     61  H   UNL A   1      43.847  29.461  28.009  1.00  0.00     0.167 HD
ATOM     62  C   UNL A   1      43.010  31.765  29.431  1.00  0.00     0.074 A 
ATOM     63  C   UNL A   1      42.222  32.648  30.266  1.00  0.00     0.031 C 
ATOM     64  C   UNL A   1      44.266  32.042  29.004  1.00  0.00     0.034 A 
BRANCH  51  65
ATOM     65  C   UNL A   1      46.927  27.486  25.812  1.00  0.00     0.023 A 
ATOM     66  C   UNL A   1      47.116  27.780  24.449  1.00  0.00     0.012 A 
ATOM     67  C   UNL A   1      47.935  26.804  26.522  1.00  0.00     0.148 A 
ATOM     68  C   UNL A   1      48.284  27.385  23.796  1.00  0.00     0.002 A 
ATOM     69  C   UNL A   1      49.112  26.447  25.874  1.00  0.00     0.091 A 
ATOM     70  F   UNL A   1      47.724  26.513  27.814  1.00  0.00    -0.205 F 
ATOM     71  C   UNL A   1      49.285  26.731  24.510  1.00  0.00     0.022 A 
BRANCH  69  72
ATOM     72  S   UNL A   1      50.489  25.668  26.728  1.00  0.00     0.127 S 
ATOM     73  O   UNL A   1      50.823  26.678  27.731  1.00  0.00    -0.237 OA
ATOM     74  O   UNL A   1      49.872  24.454  27.266  1.00  0.00    -0.237 OA
ATOM     75  O   UNL A   1      51.507  25.431  25.714  1.00  0.00    -0.744 OA
ENDBRANCH  69  72
ENDBRANCH  51  65
BRANCH  52  76
ATOM     76  C   UNL A   1      38.716  30.343  30.734  1.00  0.00     0.023 A 
ATOM     77  C   UNL A   1      38.634  30.062  32.111  1.00  0.00     0.012 A 
ATOM     78  C   UNL A   1      37.662  31.045  30.117  1.00  0.00     0.148 A 
ATOM     79  C   UNL A   1      37.518  30.452  32.854  1.00  0.00     0.002 A 
ATOM     80  C   UNL A   1      36.583  31.485  30.875  1.00  0.00     0.091 A 
ATOM     81  F   UNL A   1      37.734  31.281  28.798  1.00  0.00    -0.205 F 
ATOM     82  C   UNL A   1      36.499  31.176  32.239  1.00  0.00     0.022 A 
BRANCH  80  83
ATOM     83  S   UNL A   1      35.324  32.553  30.166  1.00  0.00     0.127 S 
ATOM     84  O   UNL A   1      36.106  33.714  29.752  1.00  0.00    -0.237 OA
ATOM     85  O   UNL A   1      34.800  31.741  29.066  1.00  0.00    -0.237 OA
ATOM     86  O   UNL A   1      34.369  32.768  31.247  1.00  0.00    -0.744 OA
ENDBRANCH  80  83
ENDBRANCH  52  76
BRANCH  64  87
ATOM     87  C   UNL A   1      44.859  33.366  29.400  1.00  0.00     0.023 A 
ATOM     88  C   UNL A   1      45.623  33.458  30.580  1.00  0.00     0.012 A 
ATOM     89  C   UNL A   1      44.727  34.495  28.569  1.00  0.00     0.148 A 
ATOM     90  C   UNL A   1      46.226  34.662  30.940  1.00  0.00     0.002 A 
ATOM     91  C   UNL A   1      45.364  35.681  28.914  1.00  0.00     0.091 A 
ATOM     92  F   UNL A   1      43.975  34.393  27.462  1.00  0.00    -0.205 F 
ATOM     93  C   UNL A   1      46.108  35.769  30.102  1.00  0.00     0.022 A 
BRANCH  91  94
ATOM     94  S   UNL A   1      45.331  37.122  27.842  1.00  0.00     0.127 S 
ATOM     95  O   UNL A   1      46.118  38.085  28.609  1.00  0.00    -0.237 OA
ATOM     96  O   UNL A   1      45.986  36.629  26.628  1.00  0.00    -0.237 OA
ATOM     97  O   UNL A   1      43.923  37.450  27.668  1.00  0.00    -0.744 OA
ENDBRANCH  91  94
ENDBRANCH  64  87
ENDBRANCH  38  39
ENDBRANCH  31  33
ENDBRANCH  30  31
ENDBRANCH   1  30
TORSDOF 17
ENDMDL
