MODEL 1
REMARK VINA RESULT:     -11.6      0.000      0.000
REMARK SMILES CC[C@@](C)([NH3+])C(=O)Nc1cc(C(=O)OCCOC(=O)c2ccc(-c3c4nc(c(-c5cccc(S(=O)(=O)[O-])c5F)c5ccc([nH]5)c(-c5cccc(S(=O)(=O)[O-])c5F)c5nc(c(-c6cccc(S(=O)(=O)[O-])c6F)c6ccc3[nH]6)C=C5)C=C4)cc2)cc(C(F)(F)F)c1
REMARK SMILES IDX 15 1 14 2 12 3 13 4 11 5 9 6 10 7 89 8 84 9 83 10 8 11 6 12
REMARK SMILES IDX 7 13 3 15 4 16 2 17 1 18 5 19 85 23 86 24 87 25 88 26 16 27
REMARK SMILES IDX 17 28 18 29 19 30 20 31 21 32 82 33 22 34 81 35 23 36 24 37
REMARK SMILES IDX 25 38 75 39 26 40 80 41 74 42 76 43 27 44 79 45 73 46 72 47
REMARK SMILES IDX 28 49 60 50 40 51 59 52 41 53 44 54 58 55 77 56 42 57 43 58
REMARK SMILES IDX 57 60 78 61 45 62 29 63 30 64 38 65 31 66 33 67 39 68 32 69
REMARK SMILES IDX 34 70 35 71 36 72 37 73 61 74 62 75 70 76 63 77 65 78 71 79
REMARK SMILES IDX 64 80 66 81 67 82 68 83 69 84 46 85 47 86 55 87 48 88 50 89
REMARK SMILES IDX 56 90 49 91 51 92 52 93 53 94 54 95
REMARK H PARENT 8 14 5 20 5 21 5 22 76 48 44 59
REMARK Flexibility Score: inf
ROOT
ATOM      1  C   UNL A   1      37.922  20.082  24.858  1.00  0.00     0.275 C 
ENDROOT
BRANCH   1   2
ATOM      2  O   UNL A   1      37.166  20.951  25.723  1.00  0.00    -0.458 OA
BRANCH   2   3
ATOM      3  C   UNL A   1      36.481  21.953  25.117  1.00  0.00     0.338 C 
ATOM      4  O   UNL A   1      36.924  23.017  24.735  1.00  0.00    -0.246 OA
BRANCH   3   5
ATOM      5  C   UNL A   1      35.095  21.505  24.841  1.00  0.00     0.062 A 
ATOM      6  C   UNL A   1      32.887  22.084  24.027  1.00  0.00     0.042 A 
ATOM      7  C   UNL A   1      34.170  22.459  24.401  1.00  0.00     0.041 A 
ATOM      8  C   UNL A   1      32.509  20.747  24.121  1.00  0.00     0.039 A 
ATOM      9  C   UNL A   1      33.389  19.790  24.654  1.00  0.00     0.058 A 
ATOM     10  C   UNL A   1      34.698  20.174  24.989  1.00  0.00     0.029 A 
BRANCH   6  11
ATOM     11  N   UNL A   1      32.062  23.056  23.459  1.00  0.00    -0.321 N 
ATOM     12  C   UNL A   1      30.991  23.739  23.975  1.00  0.00     0.285 C 
ATOM     13  O   UNL A   1      30.189  24.207  23.161  1.00  0.00    -0.267 OA
ATOM     14  H   UNL A   1      32.287  23.291  22.530  1.00  0.00     0.170 HD
BRANCH  12  15
ATOM     15  C   UNL A   1      30.893  24.051  25.512  1.00  0.00     0.171 C 
ATOM     16  C   UNL A   1      30.631  22.765  26.317  1.00  0.00     0.090 C 
BRANCH  15  17
ATOM     17  C   UNL A   1      32.213  24.723  25.994  1.00  0.00     0.075 C 
ATOM     18  C   UNL A   1      32.559  26.048  25.319  1.00  0.00     0.011 C 
ENDBRANCH  15  17
BRANCH  15  19
ATOM     19  N   UNL A   1      29.808  25.030  25.777  1.00  0.00    -0.345 N 
ATOM     20  H   UNL A   1      30.195  25.844  26.256  1.00  0.00     0.345 HD
ATOM     21  H   UNL A   1      29.096  24.597  26.363  1.00  0.00     0.345 HD
ATOM     22  H   UNL A   1      29.392  25.322  24.893  1.00  0.00     0.345 HD
ENDBRANCH  15  19
ENDBRANCH  12  15
ENDBRANCH   6  11
BRANCH   9  23
ATOM     23  C   UNL A   1      32.943  18.367  24.871  1.00  0.00     0.416 C 
ATOM     24  F   UNL A   1      31.846  18.035  24.141  1.00  0.00    -0.166 F 
ATOM     25  F   UNL A   1      33.912  17.475  24.514  1.00  0.00    -0.166 F 
ATOM     26  F   UNL A   1      32.642  18.077  26.167  1.00  0.00    -0.166 F 
ENDBRANCH   9  23
ENDBRANCH   3   5
ENDBRANCH   2   3
ENDBRANCH   1   2
BRANCH   1  27
ATOM     27  C   UNL A   1      39.104  19.472  25.614  1.00  0.00     0.275 C 
BRANCH  27  28
ATOM     28  O   UNL A   1      40.152  20.444  25.781  1.00  0.00    -0.458 OA
BRANCH  28  29
ATOM     29  C   UNL A   1      40.747  20.458  26.994  1.00  0.00     0.338 C 
ATOM     30  O   UNL A   1      41.200  19.505  27.608  1.00  0.00    -0.246 OA
BRANCH  29  31
ATOM     31  C   UNL A   1      40.896  21.843  27.463  1.00  0.00     0.060 A 
ATOM     32  C   UNL A   1      40.216  22.833  26.763  1.00  0.00     0.016 A 
ATOM     33  C   UNL A   1      41.813  22.190  28.449  1.00  0.00     0.016 A 
ATOM     34  C   UNL A   1      40.544  24.174  26.937  1.00  0.00     0.010 A 
ATOM     35  C   UNL A   1      42.056  23.547  28.707  1.00  0.00     0.010 A 
ATOM     36  C   UNL A   1      41.470  24.555  27.915  1.00  0.00    -0.014 A 
BRANCH  36  37
ATOM     37  C   UNL A   1      41.858  25.991  28.075  1.00  0.00     0.031 A 
ATOM     38  C   UNL A   1      43.208  26.466  27.591  1.00  0.00     0.074 A 
ATOM     39  C   UNL A   1      41.016  26.876  28.646  1.00  0.00     0.049 A 
ATOM     40  N   UNL A   1      43.804  27.614  27.797  1.00  0.00    -0.248 NA
ATOM     41  C   UNL A   1      44.001  25.520  26.789  1.00  0.00     0.031 C 
ATOM     42  C   UNL A   1      39.672  26.574  29.143  1.00  0.00     0.029 A 
ATOM     43  N   UNL A   1      41.170  28.217  28.915  1.00  0.00    -0.354 N 
ATOM     44  C   UNL A   1      45.068  27.496  27.228  1.00  0.00     0.074 A 
ATOM     45  C   UNL A   1      45.151  26.167  26.660  1.00  0.00     0.031 C 
ATOM     46  C   UNL A   1      39.119  27.693  29.632  1.00  0.00     0.029 A 
ATOM     47  C   UNL A   1      40.093  28.776  29.565  1.00  0.00     0.049 A 
ATOM     48  H   UNL A   1      41.974  28.727  28.667  1.00  0.00     0.167 HD
ATOM     49  C   UNL A   1      46.066  28.410  27.171  1.00  0.00     0.034 A 
ATOM     50  C   UNL A   1      39.918  30.006  30.087  1.00  0.00     0.034 A 
ATOM     51  C   UNL A   1      45.951  29.763  27.648  1.00  0.00     0.049 A 
ATOM     52  C   UNL A   1      41.030  31.013  29.985  1.00  0.00     0.074 A 
ATOM     53  C   UNL A   1      46.894  30.776  27.596  1.00  0.00     0.029 A 
ATOM     54  N   UNL A   1      44.820  30.301  28.241  1.00  0.00    -0.354 N 
ATOM     55  N   UNL A   1      42.204  30.891  29.416  1.00  0.00    -0.248 NA
ATOM     56  C   UNL A   1      40.789  32.333  30.586  1.00  0.00     0.031 C 
ATOM     57  C   UNL A   1      46.334  31.925  28.166  1.00  0.00     0.029 A 
ATOM     58  C   UNL A   1      45.038  31.631  28.557  1.00  0.00     0.049 A 
ATOM     59  H   UNL A   1      43.985  29.809  28.413  1.00  0.00     0.167 HD
ATOM     60  C   UNL A   1      42.830  32.124  29.565  1.00  0.00     0.074 A 
ATOM     61  C   UNL A   1      41.895  32.987  30.256  1.00  0.00     0.031 C 
ATOM     62  C   UNL A   1      44.076  32.499  29.184  1.00  0.00     0.034 A 
BRANCH  49  63
ATOM     63  C   UNL A   1      47.371  27.989  26.547  1.00  0.00     0.023 A 
ATOM     64  C   UNL A   1      48.453  27.608  27.366  1.00  0.00     0.012 A 
ATOM     65  C   UNL A   1      47.507  27.916  25.146  1.00  0.00     0.148 A 
ATOM     66  C   UNL A   1      49.659  27.194  26.801  1.00  0.00     0.002 A 
ATOM     67  C   UNL A   1      48.698  27.461  24.590  1.00  0.00     0.091 A 
ATOM     68  F   UNL A   1      46.475  28.302  24.381  1.00  0.00    -0.205 F 
ATOM     69  C   UNL A   1      49.778  27.111  25.416  1.00  0.00     0.022 A 
BRANCH  67  70
ATOM     70  S   UNL A   1      48.917  27.246  22.820  1.00  0.00     0.127 S 
ATOM     71  O   UNL A   1      50.373  27.269  22.697  1.00  0.00    -0.237 OA
ATOM     72  O   UNL A   1      48.308  25.936  22.588  1.00  0.00    -0.237 OA
ATOM     73  O   UNL A   1      48.216  28.357  22.192  1.00  0.00    -0.744 OA
ENDBRANCH  67  70
ENDBRANCH  49  63
BRANCH  50  74
ATOM     74  C   UNL A   1      38.625  30.358  30.744  1.00  0.00     0.023 A 
ATOM     75  C   UNL A   1      38.422  30.023  32.096  1.00  0.00     0.012 A 
ATOM     76  C   UNL A   1      37.613  31.050  30.049  1.00  0.00     0.148 A 
ATOM     77  C   UNL A   1      37.227  30.352  32.739  1.00  0.00     0.002 A 
ATOM     78  C   UNL A   1      36.452  31.429  30.712  1.00  0.00     0.091 A 
ATOM     79  F   UNL A   1      37.812  31.338  28.755  1.00  0.00    -0.205 F 
ATOM     80  C   UNL A   1      36.249  31.067  32.052  1.00  0.00     0.022 A 
BRANCH  78  81
ATOM     81  S   UNL A   1      35.212  32.479  29.944  1.00  0.00     0.127 S 
ATOM     82  O   UNL A   1      34.725  31.626  28.864  1.00  0.00    -0.237 OA
ATOM     83  O   UNL A   1      34.266  32.687  31.041  1.00  0.00    -0.237 OA
ATOM     84  O   UNL A   1      35.923  33.683  29.534  1.00  0.00    -0.744 OA
ENDBRANCH  78  81
ENDBRANCH  50  74
BRANCH  62  85
ATOM     85  C   UNL A   1      44.495  33.916  29.468  1.00  0.00     0.023 A 
ATOM     86  C   UNL A   1      45.117  34.230  30.692  1.00  0.00     0.012 A 
ATOM     87  C   UNL A   1      44.339  34.921  28.493  1.00  0.00     0.148 A 
ATOM     88  C   UNL A   1      45.551  35.528  30.954  1.00  0.00     0.002 A 
ATOM     89  C   UNL A   1      44.815  36.203  28.744  1.00  0.00     0.091 A 
ATOM     90  F   UNL A   1      43.725  34.609  27.343  1.00  0.00    -0.205 F 
ATOM     91  C   UNL A   1      45.412  36.511  29.977  1.00  0.00     0.022 A 
BRANCH  89  92
ATOM     92  S   UNL A   1      44.757  37.506  27.507  1.00  0.00     0.127 S 
ATOM     93  O   UNL A   1      45.116  38.683  28.296  1.00  0.00    -0.237 OA
ATOM     94  O   UNL A   1      45.782  37.077  26.554  1.00  0.00    -0.237 OA
ATOM     95  O   UNL A   1      43.401  37.492  26.978  1.00  0.00    -0.744 OA
ENDBRANCH  89  92
ENDBRANCH  62  85
ENDBRANCH  36  37
ENDBRANCH  29  31
ENDBRANCH  28  29
ENDBRANCH  27  28
ENDBRANCH   1  27
TORSDOF 19
ENDMDL
MODEL 2
REMARK VINA RESULT:     -11.5      2.072      8.052
REMARK SMILES CC[C@@](C)([NH3+])C(=O)Nc1cc(C(=O)OCCOC(=O)c2ccc(-c3c4nc(c(-c5cccc(S(=O)(=O)[O-])c5F)c5ccc([nH]5)c(-c5cccc(S(=O)(=O)[O-])c5F)c5nc(c(-c6cccc(S(=O)(=O)[O-])c6F)c6ccc3[nH]6)C=C5)C=C4)cc2)cc(C(F)(F)F)c1
REMARK SMILES IDX 15 1 14 2 12 3 13 4 11 5 9 6 10 7 89 8 84 9 83 10 8 11 6 12
REMARK SMILES IDX 7 13 3 15 4 16 2 17 1 18 5 19 85 23 86 24 87 25 88 26 16 27
REMARK SMILES IDX 17 28 18 29 19 30 20 31 21 32 82 33 22 34 81 35 23 36 24 37
REMARK SMILES IDX 25 38 75 39 26 40 80 41 74 42 76 43 27 44 79 45 73 46 72 47
REMARK SMILES IDX 28 49 60 50 40 51 59 52 41 53 44 54 58 55 77 56 42 57 43 58
REMARK SMILES IDX 57 60 78 61 45 62 29 63 30 64 38 65 31 66 33 67 39 68 32 69
REMARK SMILES IDX 34 70 35 71 36 72 37 73 61 74 62 75 70 76 63 77 65 78 71 79
REMARK SMILES IDX 64 80 66 81 67 82 68 83 69 84 46 85 47 86 55 87 48 88 50 89
REMARK SMILES IDX 56 90 49 91 51 92 52 93 53 94 54 95
REMARK H PARENT 8 14 5 20 5 21 5 22 76 48 44 59
REMARK Flexibility Score: inf
ROOT
ATOM      1  C   UNL A   1      35.336  20.969  25.000  1.00  0.00     0.275 C 
ENDROOT
BRANCH   1   2
ATOM      2  O   UNL A   1      35.460  22.345  25.411  1.00  0.00    -0.458 OA
BRANCH   2   3
ATOM      3  C   UNL A   1      34.990  23.275  24.542  1.00  0.00     0.338 C 
ATOM      4  O   UNL A   1      35.332  23.438  23.389  1.00  0.00    -0.246 OA
BRANCH   3   5
ATOM      5  C   UNL A   1      33.858  24.004  25.164  1.00  0.00     0.062 A 
ATOM      6  C   UNL A   1      32.899  26.142  25.780  1.00  0.00     0.042 A 
ATOM      7  C   UNL A   1      33.966  25.392  25.302  1.00  0.00     0.041 A 
ATOM      8  C   UNL A   1      31.722  25.499  26.153  1.00  0.00     0.039 A 
ATOM      9  C   UNL A   1      31.629  24.098  26.116  1.00  0.00     0.058 A 
ATOM     10  C   UNL A   1      32.699  23.353  25.591  1.00  0.00     0.029 A 
BRANCH   6  11
ATOM     11  N   UNL A   1      33.017  27.533  25.756  1.00  0.00    -0.321 N 
ATOM     12  C   UNL A   1      32.909  28.426  24.722  1.00  0.00     0.285 C 
ATOM     13  O   UNL A   1      33.468  29.516  24.871  1.00  0.00    -0.267 OA
ATOM     14  H   UNL A   1      33.213  27.941  26.630  1.00  0.00     0.170 HD
BRANCH  12  15
ATOM     15  C   UNL A   1      31.975  28.132  23.493  1.00  0.00     0.171 C 
ATOM     16  C   UNL A   1      32.405  26.841  22.774  1.00  0.00     0.090 C 
BRANCH  15  17
ATOM     17  C   UNL A   1      30.499  28.010  23.975  1.00  0.00     0.075 C 
ATOM     18  C   UNL A   1      29.770  26.740  23.544  1.00  0.00     0.011 C 
ENDBRANCH  15  17
BRANCH  15  19
ATOM     19  N   UNL A   1      32.005  29.266  22.533  1.00  0.00    -0.345 N 
ATOM     20  H   UNL A   1      32.333  30.106  23.010  1.00  0.00     0.345 HD
ATOM     21  H   UNL A   1      31.067  29.426  22.168  1.00  0.00     0.345 HD
ATOM     22  H   UNL A   1      32.637  29.043  21.765  1.00  0.00     0.345 HD
ENDBRANCH  15  19
ENDBRANCH  12  15
ENDBRANCH   6  11
BRANCH   9  23
ATOM     23  C   UNL A   1      30.403  23.391  26.633  1.00  0.00     0.416 C 
ATOM     24  F   UNL A   1      29.993  22.376  25.828  1.00  0.00    -0.166 F 
ATOM     25  F   UNL A   1      30.623  22.831  27.858  1.00  0.00    -0.166 F 
ATOM     26  F   UNL A   1      29.325  24.208  26.797  1.00  0.00    -0.166 F 
ENDBRANCH   9  23
ENDBRANCH   3   5
ENDBRANCH   2   3
ENDBRANCH   1   2
BRANCH   1  27
ATOM     27  C   UNL A   1      36.710  20.296  24.970  1.00  0.00     0.275 C 
BRANCH  27  28
ATOM     28  O   UNL A   1      37.756  21.282  25.043  1.00  0.00    -0.458 OA
BRANCH  28  29
ATOM     29  C   UNL A   1      38.831  20.936  25.786  1.00  0.00     0.338 C 
ATOM     30  O   UNL A   1      39.375  19.846  25.840  1.00  0.00    -0.246 OA
BRANCH  29  31
ATOM     31  C   UNL A   1      39.367  22.122  26.471  1.00  0.00     0.060 A 
ATOM     32  C   UNL A   1      38.841  23.359  26.118  1.00  0.00     0.016 A 
ATOM     33  C   UNL A   1      40.477  22.048  27.307  1.00  0.00     0.016 A 
ATOM     34  C   UNL A   1      39.495  24.534  26.475  1.00  0.00     0.010 A 
ATOM     35  C   UNL A   1      41.065  23.236  27.765  1.00  0.00     0.010 A 
ATOM     36  C   UNL A   1      40.619  24.492  27.309  1.00  0.00    -0.014 A 
BRANCH  36  37
ATOM     37  C   UNL A   1      41.352  25.748  27.659  1.00  0.00     0.031 A 
ATOM     38  C   UNL A   1      40.681  26.804  28.506  1.00  0.00     0.074 A 
ATOM     39  C   UNL A   1      42.614  25.956  27.229  1.00  0.00     0.049 A 
ATOM     40  N   UNL A   1      41.069  28.026  28.766  1.00  0.00    -0.248 NA
ATOM     41  C   UNL A   1      39.394  26.444  29.124  1.00  0.00     0.031 C 
ATOM     42  C   UNL A   1      43.403  25.023  26.423  1.00  0.00     0.029 A 
ATOM     43  N   UNL A   1      43.456  27.029  27.405  1.00  0.00    -0.354 N 
ATOM     44  C   UNL A   1      40.040  28.606  29.500  1.00  0.00     0.074 A 
ATOM     45  C   UNL A   1      39.013  27.598  29.653  1.00  0.00     0.031 C 
ATOM     46  C   UNL A   1      44.614  25.550  26.193  1.00  0.00     0.029 A 
ATOM     47  C   UNL A   1      44.666  26.892  26.760  1.00  0.00     0.049 A 
ATOM     48  H   UNL A   1      43.218  27.820  27.940  1.00  0.00     0.167 HD
ATOM     49  C   UNL A   1      39.958  29.858  30.013  1.00  0.00     0.034 A 
ATOM     50  C   UNL A   1      45.686  27.758  26.604  1.00  0.00     0.034 A 
ATOM     51  C   UNL A   1      41.017  30.830  29.947  1.00  0.00     0.049 A 
ATOM     52  C   UNL A   1      45.584  29.131  27.208  1.00  0.00     0.074 A 
ATOM     53  C   UNL A   1      41.044  32.110  30.474  1.00  0.00     0.029 A 
ATOM     54  N   UNL A   1      42.246  30.622  29.339  1.00  0.00    -0.354 N 
ATOM     55  N   UNL A   1      44.617  29.648  27.925  1.00  0.00    -0.248 NA
ATOM     56  C   UNL A   1      46.721  30.039  26.993  1.00  0.00     0.031 C 
ATOM     57  C   UNL A   1      42.287  32.680  30.177  1.00  0.00     0.029 A 
ATOM     58  C   UNL A   1      43.040  31.748  29.480  1.00  0.00     0.049 A 
ATOM     59  H   UNL A   1      42.514  29.797  28.876  1.00  0.00     0.167 HD
ATOM     60  C   UNL A   1      45.038  30.927  28.269  1.00  0.00     0.074 A 
ATOM     61  C   UNL A   1      46.360  31.099  27.703  1.00  0.00     0.031 C 
ATOM     62  C   UNL A   1      44.379  31.882  28.970  1.00  0.00     0.034 A 
BRANCH  49  63
ATOM     63  C   UNL A   1      38.684  30.248  30.717  1.00  0.00     0.023 A 
ATOM     64  C   UNL A   1      38.506  29.932  32.078  1.00  0.00     0.012 A 
ATOM     65  C   UNL A   1      37.686  30.981  30.042  1.00  0.00     0.148 A 
ATOM     66  C   UNL A   1      37.342  30.308  32.748  1.00  0.00     0.002 A 
ATOM     67  C   UNL A   1      36.547  31.389  30.727  1.00  0.00     0.091 A 
ATOM     68  F   UNL A   1      37.862  31.255  28.741  1.00  0.00    -0.205 F 
ATOM     69  C   UNL A   1      36.369  31.043  32.077  1.00  0.00     0.022 A 
BRANCH  67  70
ATOM     70  S   UNL A   1      35.276  32.408  29.968  1.00  0.00     0.127 S 
ATOM     71  O   UNL A   1      34.338  32.585  31.074  1.00  0.00    -0.237 OA
ATOM     72  O   UNL A   1      36.022  33.613  29.603  1.00  0.00    -0.237 OA
ATOM     73  O   UNL A   1      34.774  31.642  28.836  1.00  0.00    -0.744 OA
ENDBRANCH  67  70
ENDBRANCH  49  63
BRANCH  50  74
ATOM     74  C   UNL A   1      46.906  27.342  25.852  1.00  0.00     0.023 A 
ATOM     75  C   UNL A   1      46.994  27.610  24.472  1.00  0.00     0.012 A 
ATOM     76  C   UNL A   1      47.990  26.714  26.499  1.00  0.00     0.148 A 
ATOM     77  C   UNL A   1      48.128  27.243  23.746  1.00  0.00     0.002 A 
ATOM     78  C   UNL A   1      49.141  26.409  25.782  1.00  0.00     0.091 A 
ATOM     79  F   UNL A   1      47.879  26.443  27.807  1.00  0.00    -0.205 F 
ATOM     80  C   UNL A   1      49.207  26.656  24.404  1.00  0.00     0.022 A 
BRANCH  78  81
ATOM     81  S   UNL A   1      50.627  25.791  26.582  1.00  0.00     0.127 S 
ATOM     82  O   UNL A   1      51.535  25.636  25.449  1.00  0.00    -0.237 OA
ATOM     83  O   UNL A   1      50.961  26.886  27.494  1.00  0.00    -0.237 OA
ATOM     84  O   UNL A   1      50.226  24.559  27.250  1.00  0.00    -0.744 OA
ENDBRANCH  78  81
ENDBRANCH  50  74
BRANCH  62  85
ATOM     85  C   UNL A   1      45.087  33.189  29.205  1.00  0.00     0.023 A 
ATOM     86  C   UNL A   1      45.927  33.338  30.326  1.00  0.00     0.012 A 
ATOM     87  C   UNL A   1      44.978  34.243  28.277  1.00  0.00     0.148 A 
ATOM     88  C   UNL A   1      46.626  34.526  30.535  1.00  0.00     0.002 A 
ATOM     89  C   UNL A   1      45.712  35.409  28.469  1.00  0.00     0.091 A 
ATOM     90  F   UNL A   1      44.156  34.092  27.228  1.00  0.00    -0.205 F 
ATOM     91  C   UNL A   1      46.528  35.556  29.602  1.00  0.00     0.022 A 
BRANCH  89  92
ATOM     92  S   UNL A   1      45.714  36.748  27.271  1.00  0.00     0.127 S 
ATOM     93  O   UNL A   1      46.480  36.164  26.171  1.00  0.00    -0.237 OA
ATOM     94  O   UNL A   1      44.287  36.922  26.994  1.00  0.00    -0.237 OA
ATOM     95  O   UNL A   1      46.339  37.880  27.940  1.00  0.00    -0.744 OA
ENDBRANCH  89  92
ENDBRANCH  62  85
ENDBRANCH  36  37
ENDBRANCH  29  31
ENDBRANCH  28  29
ENDBRANCH  27  28
ENDBRANCH   1  27
TORSDOF 19
ENDMDL
MODEL 3
REMARK VINA RESULT:     -11.5      1.799      2.807
REMARK SMILES CC[C@@](C)([NH3+])C(=O)Nc1cc(C(=O)OCCOC(=O)c2ccc(-c3c4nc(c(-c5cccc(S(=O)(=O)[O-])c5F)c5ccc([nH]5)c(-c5cccc(S(=O)(=O)[O-])c5F)c5nc(c(-c6cccc(S(=O)(=O)[O-])c6F)c6ccc3[nH]6)C=C5)C=C4)cc2)cc(C(F)(F)F)c1
REMARK SMILES IDX 15 1 14 2 12 3 13 4 11 5 9 6 10 7 89 8 84 9 83 10 8 11 6 12
REMARK SMILES IDX 7 13 3 15 4 16 2 17 1 18 5 19 85 23 86 24 87 25 88 26 16 27
REMARK SMILES IDX 17 28 18 29 19 30 20 31 21 32 82 33 22 34 81 35 23 36 24 37
REMARK SMILES IDX 25 38 75 39 26 40 80 41 74 42 76 43 27 44 79 45 73 46 72 47
REMARK SMILES IDX 28 49 60 50 40 51 59 52 41 53 44 54 58 55 77 56 42 57 43 58
REMARK SMILES IDX 57 60 78 61 45 62 29 63 30 64 38 65 31 66 33 67 39 68 32 69
REMARK SMILES IDX 34 70 35 71 36 72 37 73 61 74 62 75 70 76 63 77 65 78 71 79
REMARK SMILES IDX 64 80 66 81 67 82 68 83 69 84 46 85 47 86 55 87 48 88 50 89
REMARK SMILES IDX 56 90 49 91 51 92 52 93 53 94 54 95
REMARK H PARENT 8 14 5 20 5 21 5 22 76 48 44 59
REMARK Flexibility Score: inf
ROOT
ATOM      1  C   UNL A   1      37.872  19.854  24.962  1.00  0.00     0.275 C 
ENDROOT
BRANCH   1   2
ATOM      2  O   UNL A   1      37.743  21.217  24.512  1.00  0.00    -0.458 OA
BRANCH   2   3
ATOM      3  C   UNL A   1      36.886  22.002  25.213  1.00  0.00     0.338 C 
ATOM      4  O   UNL A   1      37.172  22.932  25.939  1.00  0.00    -0.246 OA
BRANCH   3   5
ATOM      5  C   UNL A   1      35.491  21.655  24.851  1.00  0.00     0.062 A 
ATOM      6  C   UNL A   1      33.598  20.182  25.200  1.00  0.00     0.042 A 
ATOM      7  C   UNL A   1      34.932  20.504  25.417  1.00  0.00     0.041 A 
ATOM      8  C   UNL A   1      32.821  21.000  24.385  1.00  0.00     0.039 A 
ATOM      9  C   UNL A   1      33.388  22.104  23.727  1.00  0.00     0.058 A 
ATOM     10  C   UNL A   1      34.727  22.443  23.988  1.00  0.00     0.029 A 
BRANCH   6  11
ATOM     11  N   UNL A   1      33.063  19.105  25.909  1.00  0.00    -0.321 N 
ATOM     12  C   UNL A   1      32.665  17.862  25.490  1.00  0.00     0.285 C 
ATOM     13  O   UNL A   1      31.850  17.272  26.205  1.00  0.00    -0.267 OA
ATOM     14  H   UNL A   1      32.951  19.267  26.873  1.00  0.00     0.170 HD
BRANCH  12  15
ATOM     15  C   UNL A   1      33.348  17.166  24.258  1.00  0.00     0.171 C 
ATOM     16  C   UNL A   1      32.986  17.889  22.948  1.00  0.00     0.090 C 
BRANCH  15  17
ATOM     17  C   UNL A   1      34.893  17.155  24.454  1.00  0.00     0.075 C 
ATOM     18  C   UNL A   1      35.438  16.020  25.318  1.00  0.00     0.011 C 
ENDBRANCH  15  17
BRANCH  15  19
ATOM     19  N   UNL A   1      32.932  15.742  24.168  1.00  0.00    -0.345 N 
ATOM     20  H   UNL A   1      32.100  15.668  23.581  1.00  0.00     0.345 HD
ATOM     21  H   UNL A   1      32.723  15.390  25.101  1.00  0.00     0.345 HD
ATOM     22  H   UNL A   1      33.687  15.194  23.757  1.00  0.00     0.345 HD
ENDBRANCH  15  19
ENDBRANCH  12  15
ENDBRANCH   6  11
BRANCH   9  23
ATOM     23  C   UNL A   1      32.582  22.919  22.750  1.00  0.00     0.416 C 
ATOM     24  F   UNL A   1      32.973  22.742  21.460  1.00  0.00    -0.166 F 
ATOM     25  F   UNL A   1      31.259  22.588  22.787  1.00  0.00    -0.166 F 
ATOM     26  F   UNL A   1      32.627  24.260  22.982  1.00  0.00    -0.166 F 
ENDBRANCH   9  23
ENDBRANCH   3   5
ENDBRANCH   2   3
ENDBRANCH   1   2
BRANCH   1  27
ATOM     27  C   UNL A   1      39.319  19.559  25.362  1.00  0.00     0.275 C 
BRANCH  27  28
ATOM     28  O   UNL A   1      39.595  20.077  26.676  1.00  0.00    -0.458 OA
BRANCH  28  29
ATOM     29  C   UNL A   1      40.893  20.353  26.933  1.00  0.00     0.338 C 
ATOM     30  O   UNL A   1      41.857  19.632  26.736  1.00  0.00    -0.246 OA
BRANCH  29  31
ATOM     31  C   UNL A   1      41.026  21.743  27.394  1.00  0.00     0.060 A 
ATOM     32  C   UNL A   1      40.381  22.728  26.656  1.00  0.00     0.016 A 
ATOM     33  C   UNL A   1      41.902  22.097  28.415  1.00  0.00     0.016 A 
ATOM     34  C   UNL A   1      40.706  24.070  26.831  1.00  0.00     0.010 A 
ATOM     35  C   UNL A   1      42.138  23.455  28.670  1.00  0.00     0.010 A 
ATOM     36  C   UNL A   1      41.590  24.457  27.844  1.00  0.00    -0.014 A 
BRANCH  36  37
ATOM     37  C   UNL A   1      41.977  25.893  28.007  1.00  0.00     0.031 A 
ATOM     38  C   UNL A   1      43.329  26.370  27.530  1.00  0.00     0.074 A 
ATOM     39  C   UNL A   1      41.132  26.778  28.574  1.00  0.00     0.049 A 
ATOM     40  N   UNL A   1      43.923  27.517  27.740  1.00  0.00    -0.248 NA
ATOM     41  C   UNL A   1      44.127  25.424  26.732  1.00  0.00     0.031 C 
ATOM     42  C   UNL A   1      39.785  26.475  29.063  1.00  0.00     0.029 A 
ATOM     43  N   UNL A   1      41.283  28.118  28.844  1.00  0.00    -0.354 N 
ATOM     44  C   UNL A   1      45.190  27.401  27.178  1.00  0.00     0.074 A 
ATOM     45  C   UNL A   1      45.277  26.073  26.609  1.00  0.00     0.031 C 
ATOM     46  C   UNL A   1      39.228  27.593  29.550  1.00  0.00     0.029 A 
ATOM     47  C   UNL A   1      40.202  28.676  29.489  1.00  0.00     0.049 A 
ATOM     48  H   UNL A   1      42.088  28.630  28.600  1.00  0.00     0.167 HD
ATOM     49  C   UNL A   1      46.188  28.316  27.127  1.00  0.00     0.034 A 
ATOM     50  C   UNL A   1      40.024  29.906  30.011  1.00  0.00     0.034 A 
ATOM     51  C   UNL A   1      46.070  29.669  27.604  1.00  0.00     0.049 A 
ATOM     52  C   UNL A   1      41.135  30.914  29.914  1.00  0.00     0.074 A 
ATOM     53  C   UNL A   1      47.012  30.682  27.557  1.00  0.00     0.029 A 
ATOM     54  N   UNL A   1      44.935  30.205  28.191  1.00  0.00    -0.354 N 
ATOM     55  N   UNL A   1      42.312  30.793  29.351  1.00  0.00    -0.248 NA
ATOM     56  C   UNL A   1      40.890  32.234  30.515  1.00  0.00     0.031 C 
ATOM     57  C   UNL A   1      46.448  31.830  28.124  1.00  0.00     0.029 A 
ATOM     58  C   UNL A   1      45.150  31.535  28.508  1.00  0.00     0.049 A 
ATOM     59  H   UNL A   1      44.100  29.713  28.357  1.00  0.00     0.167 HD
ATOM     60  C   UNL A   1      42.937  32.026  29.505  1.00  0.00     0.074 A 
ATOM     61  C   UNL A   1      41.997  32.888  30.191  1.00  0.00     0.031 C 
ATOM     62  C   UNL A   1      44.184  32.402  29.131  1.00  0.00     0.034 A 
BRANCH  49  63
ATOM     63  C   UNL A   1      47.497  27.896  26.509  1.00  0.00     0.023 A 
ATOM     64  C   UNL A   1      48.564  27.486  27.333  1.00  0.00     0.012 A 
ATOM     65  C   UNL A   1      47.649  27.853  25.109  1.00  0.00     0.148 A 
ATOM     66  C   UNL A   1      49.773  27.074  26.774  1.00  0.00     0.002 A 
ATOM     67  C   UNL A   1      48.842  27.399  24.558  1.00  0.00     0.091 A 
ATOM     68  F   UNL A   1      46.631  28.266  24.340  1.00  0.00    -0.205 F 
ATOM     69  C   UNL A   1      49.909  27.020  25.389  1.00  0.00     0.022 A 
BRANCH  67  70
ATOM     70  S   UNL A   1      49.082  27.221  22.786  1.00  0.00     0.127 S 
ATOM     71  O   UNL A   1      50.533  27.072  22.696  1.00  0.00    -0.237 OA
ATOM     72  O   UNL A   1      48.327  26.002  22.491  1.00  0.00    -0.237 OA
ATOM     73  O   UNL A   1      48.536  28.430  22.185  1.00  0.00    -0.744 OA
ENDBRANCH  67  70
ENDBRANCH  49  63
BRANCH  50  74
ATOM     74  C   UNL A   1      38.727  30.256  30.660  1.00  0.00     0.023 A 
ATOM     75  C   UNL A   1      38.526  29.945  32.018  1.00  0.00     0.012 A 
ATOM     76  C   UNL A   1      37.708  30.926  29.952  1.00  0.00     0.148 A 
ATOM     77  C   UNL A   1      37.327  30.273  32.655  1.00  0.00     0.002 A 
ATOM     78  C   UNL A   1      36.543  31.305  30.609  1.00  0.00     0.091 A 
ATOM     79  F   UNL A   1      37.905  31.193  28.654  1.00  0.00    -0.205 F 
ATOM     80  C   UNL A   1      36.343  30.965  31.954  1.00  0.00     0.022 A 
BRANCH  78  81
ATOM     81  S   UNL A   1      35.293  32.328  29.822  1.00  0.00     0.127 S 
ATOM     82  O   UNL A   1      34.335  32.520  30.906  1.00  0.00    -0.237 OA
ATOM     83  O   UNL A   1      36.060  33.521  29.458  1.00  0.00    -0.237 OA
ATOM     84  O   UNL A   1      34.818  31.555  28.681  1.00  0.00    -0.744 OA
ENDBRANCH  78  81
ENDBRANCH  50  74
BRANCH  62  85
ATOM     85  C   UNL A   1      44.601  33.820  29.417  1.00  0.00     0.023 A 
ATOM     86  C   UNL A   1      45.204  34.135  30.650  1.00  0.00     0.012 A 
ATOM     87  C   UNL A   1      44.460  34.823  28.438  1.00  0.00     0.148 A 
ATOM     88  C   UNL A   1      45.637  35.434  30.915  1.00  0.00     0.002 A 
ATOM     89  C   UNL A   1      44.934  36.105  28.692  1.00  0.00     0.091 A 
ATOM     90  F   UNL A   1      43.863  34.508  27.279  1.00  0.00    -0.205 F 
ATOM     91  C   UNL A   1      45.513  36.415  29.933  1.00  0.00     0.022 A 
BRANCH  89  92
ATOM     92  S   UNL A   1      44.897  37.404  27.452  1.00  0.00     0.127 S 
ATOM     93  O   UNL A   1      45.859  36.908  26.470  1.00  0.00    -0.237 OA
ATOM     94  O   UNL A   1      43.502  37.372  27.008  1.00  0.00    -0.237 OA
ATOM     95  O   UNL A   1      45.279  38.627  28.144  1.00  0.00    -0.744 OA
ENDBRANCH  89  92
ENDBRANCH  62  85
ENDBRANCH  36  37
ENDBRANCH  29  31
ENDBRANCH  28  29
ENDBRANCH  27  28
ENDBRANCH   1  27
TORSDOF 19
ENDMDL
