MODEL 1
REMARK VINA RESULT:     -11.7      0.000      0.000
REMARK SMILES CC1=C[C@@H]([C@@H]2N=N[C@H](S)N2/N=C/c2ccc(C(=O)OCCOC(=O)c3ccc(-c4c5nc(c(-c6cccc(S(=O)(=O)[O-])c6F)c6ccc([nH]6)c(-c6cccc(S(=O)(=O)[O-])c6F)c6nc(c(-c7cccc(S(=O)(=O)[O-])c7F)c7ccc4[nH]7)C=C6)C=C5)cc3)cc2)N=N1
REMARK SMILES IDX 20 1 19 2 17 3 18 4 16 5 13 6 14 7 89 8 15 9 88 10 12 11
REMARK SMILES IDX 11 12 10 13 5 14 6 15 7 16 8 17 4 18 1 19 2 20 3 21 91 22
REMARK SMILES IDX 90 23 9 24 21 26 22 27 23 28 24 29 25 30 26 31 87 32 27 33
REMARK SMILES IDX 86 34 28 35 29 36 30 37 80 38 31 39 85 40 79 41 81 42 32 43
REMARK SMILES IDX 84 44 78 45 77 46 33 48 65 49 45 50 64 51 46 52 49 53 63 54
REMARK SMILES IDX 82 55 47 56 48 57 62 59 83 60 50 61 34 62 35 63 43 64 36 65
REMARK SMILES IDX 38 66 44 67 37 68 39 69 40 70 41 71 42 72 66 73 67 74 75 75
REMARK SMILES IDX 68 76 70 77 76 78 69 79 71 80 72 81 73 82 74 83 51 84 52 85
REMARK SMILES IDX 60 86 53 87 55 88 61 89 54 90 56 91 57 92 58 93 59 94
REMARK H PARENT 9 25 81 47 49 58
REMARK Flexibility Score: inf
ROOT
ATOM      1  C   UNL A   1      38.780  19.270  25.195  1.00  0.00     0.275 C 
ENDROOT
BRANCH   1   2
ATOM      2  O   UNL A   1      37.967  20.428  24.946  1.00  0.00    -0.458 OA
BRANCH   2   3
ATOM      3  C   UNL A   1      36.626  20.193  24.933  1.00  0.00     0.338 C 
ATOM      4  O   UNL A   1      36.079  19.128  24.757  1.00  0.00    -0.246 OA
BRANCH   3   5
ATOM      5  C   UNL A   1      35.884  21.438  25.264  1.00  0.00     0.060 A 
ATOM      6  C   UNL A   1      34.398  23.728  25.794  1.00  0.00    -0.005 A 
ATOM      7  C   UNL A   1      33.756  22.590  25.297  1.00  0.00     0.010 A 
ATOM      8  C   UNL A   1      35.770  23.726  26.051  1.00  0.00     0.010 A 
ATOM      9  C   UNL A   1      34.503  21.450  25.018  1.00  0.00     0.016 A 
ATOM     10  C   UNL A   1      36.512  22.568  25.804  1.00  0.00     0.016 A 
BRANCH   6  11
ATOM     11  C   UNL A   1      33.573  24.923  26.018  1.00  0.00     0.141 C 
ATOM     12  N   UNL A   1      33.973  26.115  25.702  1.00  0.00    -0.180 NA
BRANCH  12  13
ATOM     13  N   UNL A   1      33.054  27.122  25.871  1.00  0.00    -0.233 NA
ATOM     14  C   UNL A   1      31.643  26.780  25.576  1.00  0.00     0.274 C 
ATOM     15  N   UNL A   1      30.798  27.239  26.713  1.00  0.00    -0.161 NA
ATOM     16  N   UNL A   1      31.483  27.875  27.542  1.00  0.00    -0.153 NA
ATOM     17  C   UNL A   1      32.904  27.852  27.152  1.00  0.00     0.298 C 
BRANCH  14  18
ATOM     18  C   UNL A   1      31.130  27.417  24.244  1.00  0.00     0.201 C 
ATOM     19  C   UNL A   1      32.394  25.556  21.336  1.00  0.00     0.068 C 
ATOM     20  C   UNL A   1      31.947  26.544  22.350  1.00  0.00     0.058 C 
ATOM     21  C   UNL A   1      30.906  26.409  23.168  1.00  0.00     0.031 C 
ATOM     22  N   UNL A   1      32.684  27.670  22.621  1.00  0.00    -0.160 NA
ATOM     23  N   UNL A   1      32.211  28.258  23.640  1.00  0.00    -0.177 NA
ENDBRANCH  14  18
BRANCH  17  24
ATOM     24  S   UNL A   1      33.685  29.507  27.050  1.00  0.00    -0.128 SA
ATOM     25  H   UNL A   1      35.027  29.366  26.890  1.00  0.00     0.106 HD
ENDBRANCH  17  24
ENDBRANCH  12  13
ENDBRANCH   6  11
ENDBRANCH   3   5
ENDBRANCH   2   3
ENDBRANCH   1   2
BRANCH   1  26
ATOM     26  C   UNL A   1      40.004  19.628  26.025  1.00  0.00     0.275 C 
BRANCH  26  27
ATOM     27  O   UNL A   1      41.217  19.457  25.292  1.00  0.00    -0.458 OA
BRANCH  27  28
ATOM     28  C   UNL A   1      42.317  19.323  26.064  1.00  0.00     0.338 C 
ATOM     29  O   UNL A   1      42.903  18.289  26.351  1.00  0.00    -0.246 OA
BRANCH  28  30
ATOM     30  C   UNL A   1      42.580  20.588  26.749  1.00  0.00     0.060 A 
ATOM     31  C   UNL A   1      41.987  20.793  27.997  1.00  0.00     0.016 A 
ATOM     32  C   UNL A   1      43.194  21.630  26.040  1.00  0.00     0.016 A 
ATOM     33  C   UNL A   1      41.927  22.078  28.497  1.00  0.00     0.010 A 
ATOM     34  C   UNL A   1      43.119  22.911  26.529  1.00  0.00     0.010 A 
ATOM     35  C   UNL A   1      42.451  23.128  27.733  1.00  0.00    -0.014 A 
BRANCH  35  36
ATOM     36  C   UNL A   1      42.517  24.450  28.333  1.00  0.00     0.031 A 
ATOM     37  C   UNL A   1      41.344  25.268  27.936  1.00  0.00     0.074 A 
ATOM     38  C   UNL A   1      43.434  24.773  29.267  1.00  0.00     0.049 A 
ATOM     39  N   UNL A   1      41.333  26.340  27.214  1.00  0.00    -0.248 NA
ATOM     40  C   UNL A   1      39.998  24.709  28.181  1.00  0.00     0.031 C 
ATOM     41  C   UNL A   1      44.405  23.852  29.871  1.00  0.00     0.029 A 
ATOM     42  N   UNL A   1      43.596  25.915  29.999  1.00  0.00    -0.354 N 
ATOM     43  C   UNL A   1      40.000  26.750  27.223  1.00  0.00     0.074 A 
ATOM     44  C   UNL A   1      39.220  25.594  27.555  1.00  0.00     0.031 C 
ATOM     45  C   UNL A   1      44.849  24.376  31.033  1.00  0.00     0.029 A 
ATOM     46  C   UNL A   1      44.292  25.706  31.193  1.00  0.00     0.049 A 
ATOM     47  H   UNL A   1      43.258  26.795  29.715  1.00  0.00     0.167 HD
ATOM     48  C   UNL A   1      39.712  28.067  27.411  1.00  0.00     0.034 A 
ATOM     49  C   UNL A   1      44.330  26.528  32.272  1.00  0.00     0.034 A 
ATOM     50  C   UNL A   1      40.870  28.879  27.138  1.00  0.00     0.049 A 
ATOM     51  C   UNL A   1      43.941  27.879  31.821  1.00  0.00     0.074 A 
ATOM     52  C   UNL A   1      41.609  29.258  26.041  1.00  0.00     0.029 A 
ATOM     53  N   UNL A   1      41.640  29.089  28.249  1.00  0.00    -0.354 N 
ATOM     54  N   UNL A   1      44.670  28.604  31.020  1.00  0.00    -0.248 NA
ATOM     55  C   UNL A   1      42.562  28.324  31.994  1.00  0.00     0.031 C 
ATOM     56  C   UNL A   1      42.900  29.612  26.537  1.00  0.00     0.029 A 
ATOM     57  C   UNL A   1      42.904  29.483  27.925  1.00  0.00     0.049 A 
ATOM     58  H   UNL A   1      41.320  28.969  29.172  1.00  0.00     0.167 HD
ATOM     59  C   UNL A   1      43.738  29.272  30.249  1.00  0.00     0.074 A 
ATOM     60  C   UNL A   1      42.497  29.226  31.011  1.00  0.00     0.031 C 
ATOM     61  C   UNL A   1      43.954  29.467  28.917  1.00  0.00     0.034 A 
BRANCH  48  62
ATOM     62  C   UNL A   1      38.651  28.587  28.381  1.00  0.00     0.023 A 
ATOM     63  C   UNL A   1      37.759  29.560  27.870  1.00  0.00     0.012 A 
ATOM     64  C   UNL A   1      38.687  28.447  29.789  1.00  0.00     0.148 A 
ATOM     65  C   UNL A   1      37.004  30.385  28.711  1.00  0.00     0.002 A 
ATOM     66  C   UNL A   1      37.888  29.224  30.619  1.00  0.00     0.091 A 
ATOM     67  F   UNL A   1      39.585  27.652  30.370  1.00  0.00    -0.205 F 
ATOM     68  C   UNL A   1      37.067  30.218  30.089  1.00  0.00     0.022 A 
BRANCH  66  69
ATOM     69  S   UNL A   1      37.926  29.039  32.410  1.00  0.00     0.127 S 
ATOM     70  O   UNL A   1      37.829  27.589  32.553  1.00  0.00    -0.237 OA
ATOM     71  O   UNL A   1      39.232  29.612  32.736  1.00  0.00    -0.237 OA
ATOM     72  O   UNL A   1      36.793  29.806  32.913  1.00  0.00    -0.744 OA
ENDBRANCH  66  69
ENDBRANCH  48  62
BRANCH  49  73
ATOM     73  C   UNL A   1      44.489  26.218  33.716  1.00  0.00     0.023 A 
ATOM     74  C   UNL A   1      45.772  26.279  34.302  1.00  0.00     0.012 A 
ATOM     75  C   UNL A   1      43.372  26.140  34.575  1.00  0.00     0.148 A 
ATOM     76  C   UNL A   1      45.932  26.313  35.692  1.00  0.00     0.002 A 
ATOM     77  C   UNL A   1      43.538  26.162  35.958  1.00  0.00     0.091 A 
ATOM     78  F   UNL A   1      42.145  26.136  34.043  1.00  0.00    -0.205 F 
ATOM     79  C   UNL A   1      44.816  26.265  36.520  1.00  0.00     0.022 A 
BRANCH  77  80
ATOM     80  S   UNL A   1      42.140  26.116  37.089  1.00  0.00     0.127 S 
ATOM     81  O   UNL A   1      42.802  26.211  38.392  1.00  0.00    -0.237 OA
ATOM     82  O   UNL A   1      41.392  27.306  36.696  1.00  0.00    -0.237 OA
ATOM     83  O   UNL A   1      41.475  24.841  36.850  1.00  0.00    -0.744 OA
ENDBRANCH  77  80
ENDBRANCH  49  73
BRANCH  61  84
ATOM     84  C   UNL A   1      45.370  29.515  28.438  1.00  0.00     0.023 A 
ATOM     85  C   UNL A   1      46.200  30.644  28.573  1.00  0.00     0.012 A 
ATOM     86  C   UNL A   1      45.904  28.328  27.912  1.00  0.00     0.148 A 
ATOM     87  C   UNL A   1      47.537  30.589  28.168  1.00  0.00     0.002 A 
ATOM     88  C   UNL A   1      47.240  28.262  27.558  1.00  0.00     0.091 A 
ATOM     89  F   UNL A   1      45.087  27.271  27.780  1.00  0.00    -0.205 F 
ATOM     90  C   UNL A   1      48.061  29.394  27.675  1.00  0.00     0.022 A 
BRANCH  88  91
ATOM     91  S   UNL A   1      47.983  26.718  27.029  1.00  0.00     0.127 S 
ATOM     92  O   UNL A   1      49.379  27.102  26.835  1.00  0.00    -0.237 OA
ATOM     93  O   UNL A   1      47.740  25.843  28.177  1.00  0.00    -0.237 OA
ATOM     94  O   UNL A   1      47.264  26.323  25.823  1.00  0.00    -0.744 OA
ENDBRANCH  88  91
ENDBRANCH  61  84
ENDBRANCH  35  36
ENDBRANCH  28  30
ENDBRANCH  27  28
ENDBRANCH  26  27
ENDBRANCH   1  26
TORSDOF 18
ENDMDL
MODEL 2
REMARK VINA RESULT:     -11.2      4.727     10.483
REMARK SMILES CC1=C[C@@H]([C@@H]2N=N[C@H](S)N2/N=C/c2ccc(C(=O)OCCOC(=O)c3ccc(-c4c5nc(c(-c6cccc(S(=O)(=O)[O-])c6F)c6ccc([nH]6)c(-c6cccc(S(=O)(=O)[O-])c6F)c6nc(c(-c7cccc(S(=O)(=O)[O-])c7F)c7ccc4[nH]7)C=C6)C=C5)cc3)cc2)N=N1
REMARK SMILES IDX 20 1 19 2 17 3 18 4 16 5 13 6 14 7 89 8 15 9 88 10 12 11
REMARK SMILES IDX 11 12 10 13 5 14 6 15 7 16 8 17 4 18 1 19 2 20 3 21 91 22
REMARK SMILES IDX 90 23 9 24 21 26 22 27 23 28 24 29 25 30 26 31 87 32 27 33
REMARK SMILES IDX 86 34 28 35 29 36 30 37 80 38 31 39 85 40 79 41 81 42 32 43
REMARK SMILES IDX 84 44 78 45 77 46 33 48 65 49 45 50 64 51 46 52 49 53 63 54
REMARK SMILES IDX 82 55 47 56 48 57 62 59 83 60 50 61 34 62 35 63 43 64 36 65
REMARK SMILES IDX 38 66 44 67 37 68 39 69 40 70 41 71 42 72 66 73 67 74 75 75
REMARK SMILES IDX 68 76 70 77 76 78 69 79 71 80 72 81 73 82 74 83 51 84 52 85
REMARK SMILES IDX 60 86 53 87 55 88 61 89 54 90 56 91 57 92 58 93 59 94
REMARK H PARENT 9 25 81 47 49 58
REMARK Flexibility Score: inf
ROOT
ATOM      1  C   UNL A   1      33.708  34.966  28.703  1.00  0.00     0.275 C 
ENDROOT
BRANCH   1   2
ATOM      2  O   UNL A   1      32.817  34.873  29.827  1.00  0.00    -0.458 OA
BRANCH   2   3
ATOM      3  C   UNL A   1      33.117  35.702  30.864  1.00  0.00     0.338 C 
ATOM      4  O   UNL A   1      32.608  36.773  31.105  1.00  0.00    -0.246 OA
BRANCH   3   5
ATOM      5  C   UNL A   1      34.125  35.067  31.753  1.00  0.00     0.060 A 
ATOM      6  C   UNL A   1      35.926  33.903  33.524  1.00  0.00    -0.005 A 
ATOM      7  C   UNL A   1      34.573  33.973  33.866  1.00  0.00     0.010 A 
ATOM      8  C   UNL A   1      36.385  34.387  32.298  1.00  0.00     0.010 A 
ATOM      9  C   UNL A   1      33.675  34.569  32.985  1.00  0.00     0.016 A 
ATOM     10  C   UNL A   1      35.477  34.953  31.400  1.00  0.00     0.016 A 
BRANCH   6  11
ATOM     11  C   UNL A   1      36.840  33.315  34.513  1.00  0.00     0.141 C 
ATOM     12  N   UNL A   1      36.531  33.203  35.767  1.00  0.00    -0.180 NA
BRANCH  12  13
ATOM     13  N   UNL A   1      37.441  32.537  36.553  1.00  0.00    -0.233 NA
ATOM     14  C   UNL A   1      37.034  32.278  37.953  1.00  0.00     0.274 C 
ATOM     15  N   UNL A   1      37.292  30.845  38.263  1.00  0.00    -0.161 NA
ATOM     16  N   UNL A   1      37.873  30.286  37.308  1.00  0.00    -0.153 NA
ATOM     17  C   UNL A   1      38.000  31.218  36.174  1.00  0.00     0.298 C 
BRANCH  14  18
ATOM     18  C   UNL A   1      37.786  33.185  38.981  1.00  0.00     0.201 C 
ATOM     19  C   UNL A   1      41.333  33.522  38.073  1.00  0.00     0.068 C 
ATOM     20  C   UNL A   1      40.003  33.358  38.714  1.00  0.00     0.058 C 
ATOM     21  C   UNL A   1      38.882  33.982  38.359  1.00  0.00     0.031 C 
ATOM     22  N   UNL A   1      39.791  32.409  39.683  1.00  0.00    -0.160 NA
ATOM     23  N   UNL A   1      38.553  32.328  39.941  1.00  0.00    -0.177 NA
ENDBRANCH  14  18
BRANCH  17  24
ATOM     24  S   UNL A   1      39.709  31.398  35.534  1.00  0.00    -0.128 SA
ATOM     25  H   UNL A   1      40.338  30.194  35.579  1.00  0.00     0.106 HD
ENDBRANCH  17  24
ENDBRANCH  12  13
ENDBRANCH   6  11
ENDBRANCH   3   5
ENDBRANCH   2   3
ENDBRANCH   1   2
BRANCH   1  26
ATOM     26  C   UNL A   1      33.936  33.602  28.069  1.00  0.00     0.275 C 
BRANCH  26  27
ATOM     27  O   UNL A   1      34.790  32.779  28.862  1.00  0.00    -0.458 OA
BRANCH  27  28
ATOM     28  C   UNL A   1      34.887  31.502  28.431  1.00  0.00     0.338 C 
ATOM     29  O   UNL A   1      33.993  30.799  27.985  1.00  0.00    -0.246 OA
BRANCH  28  30
ATOM     30  C   UNL A   1      36.190  30.962  28.817  1.00  0.00     0.060 A 
ATOM     31  C   UNL A   1      37.204  31.867  29.143  1.00  0.00     0.016 A 
ATOM     32  C   UNL A   1      36.450  29.600  28.608  1.00  0.00     0.016 A 
ATOM     33  C   UNL A   1      38.508  31.416  29.168  1.00  0.00     0.010 A 
ATOM     34  C   UNL A   1      37.749  29.156  28.616  1.00  0.00     0.010 A 
ATOM     35  C   UNL A   1      38.769  30.076  28.856  1.00  0.00    -0.014 A 
BRANCH  35  36
ATOM     36  C   UNL A   1      40.123  29.580  29.030  1.00  0.00     0.031 A 
ATOM     37  C   UNL A   1      40.485  29.529  30.468  1.00  0.00     0.074 A 
ATOM     38  C   UNL A   1      40.840  29.068  28.009  1.00  0.00     0.049 A 
ATOM     39  N   UNL A   1      41.386  30.224  31.084  1.00  0.00    -0.248 NA
ATOM     40  C   UNL A   1      39.592  28.783  31.379  1.00  0.00     0.031 C 
ATOM     41  C   UNL A   1      40.352  28.847  26.643  1.00  0.00     0.029 A 
ATOM     42  N   UNL A   1      42.073  28.479  27.994  1.00  0.00    -0.354 N 
ATOM     43  C   UNL A   1      41.375  29.726  32.386  1.00  0.00     0.074 A 
ATOM     44  C   UNL A   1      40.102  29.096  32.572  1.00  0.00     0.031 C 
ATOM     45  C   UNL A   1      41.149  27.950  26.025  1.00  0.00     0.029 A 
ATOM     46  C   UNL A   1      42.261  27.629  26.902  1.00  0.00     0.049 A 
ATOM     47  H   UNL A   1      42.760  28.639  28.681  1.00  0.00     0.167 HD
ATOM     48  C   UNL A   1      42.558  29.478  33.012  1.00  0.00     0.034 A 
ATOM     49  C   UNL A   1      43.206  26.665  26.768  1.00  0.00     0.034 A 
ATOM     50  C   UNL A   1      43.630  30.187  32.360  1.00  0.00     0.049 A 
ATOM     51  C   UNL A   1      44.298  26.972  27.714  1.00  0.00     0.074 A 
ATOM     52  C   UNL A   1      44.046  31.490  32.217  1.00  0.00     0.029 A 
ATOM     53  N   UNL A   1      44.222  29.452  31.371  1.00  0.00    -0.354 N 
ATOM     54  N   UNL A   1      45.080  28.007  27.593  1.00  0.00    -0.248 NA
ATOM     55  C   UNL A   1      44.330  26.306  29.013  1.00  0.00     0.031 C 
ATOM     56  C   UNL A   1      44.839  31.524  31.031  1.00  0.00     0.029 A 
ATOM     57  C   UNL A   1      44.923  30.236  30.505  1.00  0.00     0.049 A 
ATOM     58  H   UNL A   1      44.150  28.473  31.292  1.00  0.00     0.167 HD
ATOM     59  C   UNL A   1      45.317  28.389  28.899  1.00  0.00     0.074 A 
ATOM     60  C   UNL A   1      45.016  27.217  29.710  1.00  0.00     0.031 C 
ATOM     61  C   UNL A   1      45.369  29.710  29.234  1.00  0.00     0.034 A 
BRANCH  48  62
ATOM     62  C   UNL A   1      42.876  28.196  33.781  1.00  0.00     0.023 A 
ATOM     63  C   UNL A   1      43.454  27.143  33.032  1.00  0.00     0.012 A 
ATOM     64  C   UNL A   1      42.353  27.850  35.051  1.00  0.00     0.148 A 
ATOM     65  C   UNL A   1      43.448  25.820  33.490  1.00  0.00     0.002 A 
ATOM     66  C   UNL A   1      42.408  26.546  35.530  1.00  0.00     0.091 A 
ATOM     67  F   UNL A   1      41.677  28.741  35.773  1.00  0.00    -0.205 F 
ATOM     68  C   UNL A   1      42.926  25.520  34.741  1.00  0.00     0.022 A 
BRANCH  66  69
ATOM     69  S   UNL A   1      41.753  26.107  37.149  1.00  0.00     0.127 S 
ATOM     70  O   UNL A   1      41.506  24.678  36.983  1.00  0.00    -0.237 OA
ATOM     71  O   UNL A   1      42.878  26.449  38.022  1.00  0.00    -0.237 OA
ATOM     72  O   UNL A   1      40.573  26.941  37.340  1.00  0.00    -0.744 OA
ENDBRANCH  66  69
ENDBRANCH  48  62
BRANCH  49  73
ATOM     73  C   UNL A   1      43.175  25.378  26.026  1.00  0.00     0.023 A 
ATOM     74  C   UNL A   1      44.171  25.108  25.063  1.00  0.00     0.012 A 
ATOM     75  C   UNL A   1      42.355  24.310  26.448  1.00  0.00     0.148 A 
ATOM     76  C   UNL A   1      44.375  23.811  24.577  1.00  0.00     0.002 A 
ATOM     77  C   UNL A   1      42.555  23.024  25.952  1.00  0.00     0.091 A 
ATOM     78  F   UNL A   1      41.441  24.531  27.400  1.00  0.00    -0.205 F 
ATOM     79  C   UNL A   1      43.575  22.767  25.029  1.00  0.00     0.022 A 
BRANCH  77  80
ATOM     80  S   UNL A   1      41.567  21.623  26.500  1.00  0.00     0.127 S 
ATOM     81  O   UNL A   1      42.136  20.527  25.716  1.00  0.00    -0.237 OA
ATOM     82  O   UNL A   1      41.873  21.577  27.927  1.00  0.00    -0.237 OA
ATOM     83  O   UNL A   1      40.188  21.950  26.158  1.00  0.00    -0.744 OA
ENDBRANCH  77  80
ENDBRANCH  49  73
BRANCH  61  84
ATOM     84  C   UNL A   1      45.767  30.686  28.173  1.00  0.00     0.023 A 
ATOM     85  C   UNL A   1      44.844  31.410  27.395  1.00  0.00     0.012 A 
ATOM     86  C   UNL A   1      47.140  30.942  28.029  1.00  0.00     0.148 A 
ATOM     87  C   UNL A   1      45.292  32.360  26.473  1.00  0.00     0.002 A 
ATOM     88  C   UNL A   1      47.577  31.919  27.150  1.00  0.00     0.091 A 
ATOM     89  F   UNL A   1      47.999  30.227  28.771  1.00  0.00    -0.205 F 
ATOM     90  C   UNL A   1      46.657  32.626  26.361  1.00  0.00     0.022 A 
BRANCH  88  91
ATOM     91  S   UNL A   1      49.309  32.372  27.057  1.00  0.00     0.127 S 
ATOM     92  O   UNL A   1      49.955  31.073  26.885  1.00  0.00    -0.237 OA
ATOM     93  O   UNL A   1      49.344  33.237  25.876  1.00  0.00    -0.237 OA
ATOM     94  O   UNL A   1      49.608  33.064  28.305  1.00  0.00    -0.744 OA
ENDBRANCH  88  91
ENDBRANCH  61  84
ENDBRANCH  35  36
ENDBRANCH  28  30
ENDBRANCH  27  28
ENDBRANCH  26  27
ENDBRANCH   1  26
TORSDOF 18
ENDMDL
MODEL 3
REMARK VINA RESULT:     -11.1      4.961     10.573
REMARK SMILES CC1=C[C@@H]([C@@H]2N=N[C@H](S)N2/N=C/c2ccc(C(=O)OCCOC(=O)c3ccc(-c4c5nc(c(-c6cccc(S(=O)(=O)[O-])c6F)c6ccc([nH]6)c(-c6cccc(S(=O)(=O)[O-])c6F)c6nc(c(-c7cccc(S(=O)(=O)[O-])c7F)c7ccc4[nH]7)C=C6)C=C5)cc3)cc2)N=N1
REMARK SMILES IDX 20 1 19 2 17 3 18 4 16 5 13 6 14 7 89 8 15 9 88 10 12 11
REMARK SMILES IDX 11 12 10 13 5 14 6 15 7 16 8 17 4 18 1 19 2 20 3 21 91 22
REMARK SMILES IDX 90 23 9 24 21 26 22 27 23 28 24 29 25 30 26 31 87 32 27 33
REMARK SMILES IDX 86 34 28 35 29 36 30 37 80 38 31 39 85 40 79 41 81 42 32 43
REMARK SMILES IDX 84 44 78 45 77 46 33 48 65 49 45 50 64 51 46 52 49 53 63 54
REMARK SMILES IDX 82 55 47 56 48 57 62 59 83 60 50 61 34 62 35 63 43 64 36 65
REMARK SMILES IDX 38 66 44 67 37 68 39 69 40 70 41 71 42 72 66 73 67 74 75 75
REMARK SMILES IDX 68 76 70 77 76 78 69 79 71 80 72 81 73 82 74 83 51 84 52 85
REMARK SMILES IDX 60 86 53 87 55 88 61 89 54 90 56 91 57 92 58 93 59 94
REMARK H PARENT 9 25 81 47 49 58
REMARK Flexibility Score: inf
ROOT
ATOM      1  C   UNL A   1      33.996  35.316  28.569  1.00  0.00     0.275 C 
ENDROOT
BRANCH   1   2
ATOM      2  O   UNL A   1      33.276  34.691  29.644  1.00  0.00    -0.458 OA
BRANCH   2   3
ATOM      3  C   UNL A   1      33.320  35.363  30.828  1.00  0.00     0.338 C 
ATOM      4  O   UNL A   1      32.727  36.380  31.105  1.00  0.00    -0.246 OA
BRANCH   3   5
ATOM      5  C   UNL A   1      34.147  34.615  31.811  1.00  0.00     0.060 A 
ATOM      6  C   UNL A   1      35.753  33.339  33.689  1.00  0.00    -0.005 A 
ATOM      7  C   UNL A   1      35.444  34.692  33.853  1.00  0.00     0.010 A 
ATOM      8  C   UNL A   1      35.249  32.611  32.609  1.00  0.00     0.010 A 
ATOM      9  C   UNL A   1      34.653  35.333  32.904  1.00  0.00     0.016 A 
ATOM     10  C   UNL A   1      34.425  33.248  31.678  1.00  0.00     0.016 A 
BRANCH   6  11
ATOM     11  C   UNL A   1      36.637  32.723  34.688  1.00  0.00     0.141 C 
ATOM     12  N   UNL A   1      36.832  33.243  35.860  1.00  0.00    -0.180 NA
BRANCH  12  13
ATOM     13  N   UNL A   1      37.600  32.502  36.725  1.00  0.00    -0.233 NA
ATOM     14  C   UNL A   1      37.086  32.366  38.108  1.00  0.00     0.274 C 
ATOM     15  N   UNL A   1      37.131  30.928  38.490  1.00  0.00    -0.161 NA
ATOM     16  N   UNL A   1      37.683  30.253  37.596  1.00  0.00    -0.153 NA
ATOM     17  C   UNL A   1      37.996  31.104  36.435  1.00  0.00     0.298 C 
BRANCH  14  18
ATOM     18  C   UNL A   1      37.895  33.215  39.142  1.00  0.00     0.201 C 
ATOM     19  C   UNL A   1      41.251  33.987  37.854  1.00  0.00     0.068 C 
ATOM     20  C   UNL A   1      40.036  33.625  38.627  1.00  0.00     0.058 C 
ATOM     21  C   UNL A   1      38.832  34.177  38.496  1.00  0.00     0.031 C 
ATOM     22  N   UNL A   1      40.030  32.555  39.487  1.00  0.00    -0.160 NA
ATOM     23  N   UNL A   1      38.848  32.328  39.883  1.00  0.00    -0.177 NA
ENDBRANCH  14  18
BRANCH  17  24
ATOM     24  S   UNL A   1      39.746  31.026  35.893  1.00  0.00    -0.128 SA
ATOM     25  H   UNL A   1      40.406  32.130  36.332  1.00  0.00     0.106 HD
ENDBRANCH  17  24
ENDBRANCH  12  13
ENDBRANCH   6  11
ENDBRANCH   3   5
ENDBRANCH   2   3
ENDBRANCH   1   2
BRANCH   1  26
ATOM     26  C   UNL A   1      34.735  34.284  27.730  1.00  0.00     0.275 C 
BRANCH  26  27
ATOM     27  O   UNL A   1      35.515  33.400  28.534  1.00  0.00    -0.458 OA
BRANCH  27  28
ATOM     28  C   UNL A   1      35.370  32.093  28.223  1.00  0.00     0.338 C 
ATOM     29  O   UNL A   1      34.364  31.535  27.814  1.00  0.00    -0.246 OA
BRANCH  28  30
ATOM     30  C   UNL A   1      36.539  31.354  28.699  1.00  0.00     0.060 A 
ATOM     31  C   UNL A   1      37.579  32.079  29.284  1.00  0.00     0.016 A 
ATOM     32  C   UNL A   1      36.687  30.009  28.332  1.00  0.00     0.016 A 
ATOM     33  C   UNL A   1      38.813  31.474  29.419  1.00  0.00     0.010 A 
ATOM     34  C   UNL A   1      37.919  29.413  28.449  1.00  0.00     0.010 A 
ATOM     35  C   UNL A   1      38.979  30.164  28.954  1.00  0.00    -0.014 A 
BRANCH  35  36
ATOM     36  C   UNL A   1      40.235  29.489  29.235  1.00  0.00     0.031 A 
ATOM     37  C   UNL A   1      40.415  29.297  30.695  1.00  0.00     0.074 A 
ATOM     38  C   UNL A   1      41.001  28.958  28.261  1.00  0.00     0.049 A 
ATOM     39  N   UNL A   1      41.313  29.828  31.459  1.00  0.00    -0.248 NA
ATOM     40  C   UNL A   1      39.338  28.612  31.440  1.00  0.00     0.031 C 
ATOM     41  C   UNL A   1      40.655  28.893  26.835  1.00  0.00     0.029 A 
ATOM     42  N   UNL A   1      42.149  28.220  28.332  1.00  0.00    -0.354 N 
ATOM     43  C   UNL A   1      41.089  29.250  32.708  1.00  0.00     0.074 A 
ATOM     44  C   UNL A   1      39.736  28.776  32.702  1.00  0.00     0.031 C 
ATOM     45  C   UNL A   1      41.408  27.945  26.239  1.00  0.00     0.029 A 
ATOM     46  C   UNL A   1      42.362  27.427  27.202  1.00  0.00     0.049 A 
ATOM     47  H   UNL A   1      42.763  28.245  29.102  1.00  0.00     0.167 HD
ATOM     48  C   UNL A   1      42.151  28.812  33.438  1.00  0.00     0.034 A 
ATOM     49  C   UNL A   1      43.195  26.361  27.095  1.00  0.00     0.034 A 
ATOM     50  C   UNL A   1      43.369  29.420  32.966  1.00  0.00     0.049 A 
ATOM     51  C   UNL A   1      44.195  26.463  28.177  1.00  0.00     0.074 A 
ATOM     52  C   UNL A   1      43.952  30.666  32.975  1.00  0.00     0.029 A 
ATOM     53  N   UNL A   1      43.983  28.683  31.991  1.00  0.00    -0.354 N 
ATOM     54  N   UNL A   1      45.104  27.396  28.226  1.00  0.00    -0.248 NA
ATOM     55  C   UNL A   1      43.995  25.714  29.413  1.00  0.00     0.031 C 
ATOM     56  C   UNL A   1      44.878  30.678  31.889  1.00  0.00     0.029 A 
ATOM     57  C   UNL A   1      44.870  29.427  31.273  1.00  0.00     0.049 A 
ATOM     58  H   UNL A   1      43.804  27.729  31.827  1.00  0.00     0.167 HD
ATOM     59  C   UNL A   1      45.229  27.657  29.576  1.00  0.00     0.074 A 
ATOM     60  C   UNL A   1      44.696  26.481  30.252  1.00  0.00     0.031 C 
ATOM     61  C   UNL A   1      45.398  28.935  30.021  1.00  0.00     0.034 A 
BRANCH  48  62
ATOM     62  C   UNL A   1      42.220  27.451  34.131  1.00  0.00     0.023 A 
ATOM     63  C   UNL A   1      41.734  27.399  35.458  1.00  0.00     0.012 A 
ATOM     64  C   UNL A   1      43.009  26.354  33.707  1.00  0.00     0.148 A 
ATOM     65  C   UNL A   1      42.069  26.354  36.328  1.00  0.00     0.002 A 
ATOM     66  C   UNL A   1      43.286  25.287  34.553  1.00  0.00     0.091 A 
ATOM     67  F   UNL A   1      43.617  26.372  32.522  1.00  0.00    -0.205 F 
ATOM     68  C   UNL A   1      42.846  25.295  35.876  1.00  0.00     0.022 A 
BRANCH  66  69
ATOM     69  S   UNL A   1      44.280  23.886  34.012  1.00  0.00     0.127 S 
ATOM     70  O   UNL A   1      45.631  24.367  34.286  1.00  0.00    -0.237 OA
ATOM     71  O   UNL A   1      43.802  22.827  34.902  1.00  0.00    -0.237 OA
ATOM     72  O   UNL A   1      43.948  23.682  32.608  1.00  0.00    -0.744 OA
ENDBRANCH  66  69
ENDBRANCH  48  62
BRANCH  49  73
ATOM     73  C   UNL A   1      43.099  25.141  26.253  1.00  0.00     0.023 A 
ATOM     74  C   UNL A   1      44.039  24.935  25.221  1.00  0.00     0.012 A 
ATOM     75  C   UNL A   1      42.278  24.056  26.628  1.00  0.00     0.148 A 
ATOM     76  C   UNL A   1      44.191  23.679  24.620  1.00  0.00     0.002 A 
ATOM     77  C   UNL A   1      42.425  22.812  26.019  1.00  0.00     0.091 A 
ATOM     78  F   UNL A   1      41.418  24.214  27.640  1.00  0.00    -0.205 F 
ATOM     79  C   UNL A   1      43.392  22.616  25.026  1.00  0.00     0.022 A 
BRANCH  77  80
ATOM     80  S   UNL A   1      41.436  21.388  26.500  1.00  0.00     0.127 S 
ATOM     81  O   UNL A   1      41.897  21.149  27.869  1.00  0.00    -0.237 OA
ATOM     82  O   UNL A   1      40.078  21.914  26.397  1.00  0.00    -0.237 OA
ATOM     83  O   UNL A   1      41.779  20.328  25.561  1.00  0.00    -0.744 OA
ENDBRANCH  77  80
ENDBRANCH  49  73
BRANCH  61  84
ATOM     84  C   UNL A   1      46.032  29.920  29.092  1.00  0.00     0.023 A 
ATOM     85  C   UNL A   1      47.415  29.969  28.835  1.00  0.00     0.012 A 
ATOM     86  C   UNL A   1      45.169  30.771  28.383  1.00  0.00     0.148 A 
ATOM     87  C   UNL A   1      47.925  30.871  27.896  1.00  0.00     0.002 A 
ATOM     88  C   UNL A   1      45.672  31.627  27.419  1.00  0.00     0.091 A 
ATOM     89  F   UNL A   1      43.857  30.715  28.659  1.00  0.00    -0.205 F 
ATOM     90  C   UNL A   1      47.053  31.689  27.178  1.00  0.00     0.022 A 
BRANCH  88  91
ATOM     91  S   UNL A   1      44.580  32.612  26.393  1.00  0.00     0.127 S 
ATOM     92  O   UNL A   1      45.511  33.205  25.437  1.00  0.00    -0.237 OA
ATOM     93  O   UNL A   1      43.683  31.601  25.831  1.00  0.00    -0.237 OA
ATOM     94  O   UNL A   1      43.922  33.549  27.297  1.00  0.00    -0.744 OA
ENDBRANCH  88  91
ENDBRANCH  61  84
ENDBRANCH  35  36
ENDBRANCH  28  30
ENDBRANCH  27  28
ENDBRANCH  26  27
ENDBRANCH   1  26
TORSDOF 18
ENDMDL
