MODEL 1
REMARK VINA RESULT:     -12.3      0.000      0.000
REMARK SMILES O=C(CNc1nc(-c2ccccc2)c(-c2ccccc2)s1)OCCOC(=O)c1ccc(-c2c3nc(c(-c4cccc(S(=O)(=O)[O-])c4F)c4ccc([nH]4)c(-c4cccc(S(=O)(=O)[O-])c4F)c4nc(c(-c5cccc(S(=O)(=O)[O-])c5F)c5ccc2[nH]5)C=C4)C=C3)cc1
REMARK SMILES IDX 23 1 22 2 2 3 1 4 3 5 4 6 5 8 6 9 21 10 7 11 14 12 8 13 9 14
REMARK SMILES IDX 13 15 10 16 12 17 11 18 15 19 16 20 20 21 17 22 19 23 18 24
REMARK SMILES IDX 24 25 25 26 26 27 27 28 28 29 29 30 90 31 30 32 89 33 31 34
REMARK SMILES IDX 32 35 33 36 83 37 34 38 88 39 82 40 84 41 35 42 87 43 81 44
REMARK SMILES IDX 80 45 36 47 68 48 48 49 67 50 49 51 52 52 66 53 85 54 50 55
REMARK SMILES IDX 51 56 65 58 86 59 53 60 37 61 38 62 46 63 39 64 41 65 47 66
REMARK SMILES IDX 40 67 42 68 43 69 44 70 45 71 69 72 70 73 78 74 71 75 73 76
REMARK SMILES IDX 79 77 72 78 74 79 75 80 76 81 77 82 54 83 55 84 63 85 56 86
REMARK SMILES IDX 58 87 64 88 57 89 59 90 60 91 61 92 62 93
REMARK H PARENT 4 7 84 46 52 57
REMARK Flexibility Score: inf
ROOT
ATOM      1  C   UNL A   1      31.823  29.525  24.966  1.00  0.00     0.274 C 
ENDROOT
BRANCH   1   2
ATOM      2  O   UNL A   1      30.612  29.133  24.286  1.00  0.00    -0.461 OA
BRANCH   2   3
ATOM      3  C   UNL A   1      30.458  28.995  22.945  1.00  0.00     0.325 C 
ATOM      4  O   UNL A   1      30.097  29.967  22.280  1.00  0.00    -0.250 OA
BRANCH   3   5
ATOM      5  C   UNL A   1      30.739  27.652  22.275  1.00  0.00     0.238 C 
BRANCH   5   6
ATOM      6  N   UNL A   1      30.463  26.530  23.154  1.00  0.00    -0.351 N 
ATOM      7  H   UNL A   1      29.615  26.499  23.651  1.00  0.00     0.163 HD
BRANCH   6   8
ATOM      8  C   UNL A   1      31.355  25.531  23.300  1.00  0.00     0.184 A 
ATOM      9  N   UNL A   1      31.063  24.253  23.364  1.00  0.00    -0.220 NA
ATOM     10  S   UNL A   1      33.007  25.917  23.561  1.00  0.00    -0.096 S 
ATOM     11  C   UNL A   1      32.201  23.512  23.647  1.00  0.00     0.091 A 
ATOM     12  C   UNL A   1      33.344  24.264  23.870  1.00  0.00     0.064 A 
BRANCH  11  13
ATOM     13  C   UNL A   1      32.178  22.056  23.656  1.00  0.00     0.002 A 
ATOM     14  C   UNL A   1      32.374  21.325  24.835  1.00  0.00     0.010 A 
ATOM     15  C   UNL A   1      32.049  21.370  22.442  1.00  0.00     0.010 A 
ATOM     16  C   UNL A   1      32.496  19.933  24.792  1.00  0.00     0.001 A 
ATOM     17  C   UNL A   1      32.175  19.979  22.400  1.00  0.00     0.001 A 
ATOM     18  C   UNL A   1      32.410  19.263  23.573  1.00  0.00     0.000 A 
ENDBRANCH  11  13
BRANCH  12  19
ATOM     19  C   UNL A   1      34.702  23.875  24.233  1.00  0.00    -0.006 A 
ATOM     20  C   UNL A   1      35.214  24.202  25.497  1.00  0.00     0.009 A 
ATOM     21  C   UNL A   1      35.497  23.157  23.334  1.00  0.00     0.009 A 
ATOM     22  C   UNL A   1      36.513  23.830  25.848  1.00  0.00     0.001 A 
ATOM     23  C   UNL A   1      36.795  22.788  23.686  1.00  0.00     0.001 A 
ATOM     24  C   UNL A   1      37.303  23.128  24.941  1.00  0.00     0.000 A 
ENDBRANCH  12  19
ENDBRANCH   6   8
ENDBRANCH   5   6
ENDBRANCH   3   5
ENDBRANCH   2   3
ENDBRANCH   1   2
BRANCH   1  25
ATOM     25  C   UNL A   1      31.617  30.696  25.925  1.00  0.00     0.275 C 
BRANCH  25  26
ATOM     26  O   UNL A   1      32.499  30.591  27.051  1.00  0.00    -0.458 OA
BRANCH  26  27
ATOM     27  C   UNL A   1      33.177  31.724  27.356  1.00  0.00     0.338 C 
ATOM     28  O   UNL A   1      32.729  32.859  27.363  1.00  0.00    -0.246 OA
BRANCH  27  29
ATOM     29  C   UNL A   1      34.516  31.369  27.873  1.00  0.00     0.060 A 
ATOM     30  C   UNL A   1      34.774  30.015  28.119  1.00  0.00     0.016 A 
ATOM     31  C   UNL A   1      35.511  32.328  28.092  1.00  0.00     0.016 A 
ATOM     32  C   UNL A   1      36.011  29.625  28.631  1.00  0.00     0.010 A 
ATOM     33  C   UNL A   1      36.753  31.933  28.601  1.00  0.00     0.010 A 
ATOM     34  C   UNL A   1      36.997  30.584  28.906  1.00  0.00    -0.014 A 
BRANCH  34  35
ATOM     35  C   UNL A   1      38.238  30.167  29.600  1.00  0.00     0.031 A 
ATOM     36  C   UNL A   1      38.520  30.682  30.986  1.00  0.00     0.074 A 
ATOM     37  C   UNL A   1      39.096  29.309  29.017  1.00  0.00     0.049 A 
ATOM     38  N   UNL A   1      39.476  30.346  31.812  1.00  0.00    -0.248 NA
ATOM     39  C   UNL A   1      37.607  31.711  31.507  1.00  0.00     0.031 C 
ATOM     40  C   UNL A   1      38.967  28.774  27.663  1.00  0.00     0.029 A 
ATOM     41  N   UNL A   1      40.254  28.747  29.493  1.00  0.00    -0.354 N 
ATOM     42  C   UNL A   1      39.276  31.111  32.954  1.00  0.00     0.074 A 
ATOM     43  C   UNL A   1      38.133  31.962  32.697  1.00  0.00     0.031 C 
ATOM     44  C   UNL A   1      40.018  27.976  27.408  1.00  0.00     0.029 A 
ATOM     45  C   UNL A   1      40.888  27.936  28.582  1.00  0.00     0.049 A 
ATOM     46  H   UNL A   1      40.599  28.912  30.400  1.00  0.00     0.167 HD
ATOM     47  C   UNL A   1      39.956  31.084  34.125  1.00  0.00     0.034 A 
ATOM     48  C   UNL A   1      42.035  27.237  28.689  1.00  0.00     0.034 A 
ATOM     49  C   UNL A   1      41.091  30.241  34.385  1.00  0.00     0.049 A 
ATOM     50  C   UNL A   1      42.772  27.218  30.003  1.00  0.00     0.074 A 
ATOM     51  C   UNL A   1      41.824  30.119  35.553  1.00  0.00     0.029 A 
ATOM     52  N   UNL A   1      41.668  29.384  33.461  1.00  0.00    -0.354 N 
ATOM     53  N   UNL A   1      42.470  27.817  31.130  1.00  0.00    -0.248 NA
ATOM     54  C   UNL A   1      43.982  26.385  30.076  1.00  0.00     0.031 C 
ATOM     55  C   UNL A   1      42.853  29.197  35.330  1.00  0.00     0.029 A 
ATOM     56  C   UNL A   1      42.750  28.732  34.029  1.00  0.00     0.049 A 
ATOM     57  H   UNL A   1      41.354  29.257  32.536  1.00  0.00     0.167 HD
ATOM     58  C   UNL A   1      43.430  27.408  32.051  1.00  0.00     0.074 A 
ATOM     59  C   UNL A   1      44.306  26.487  31.358  1.00  0.00     0.031 C 
ATOM     60  C   UNL A   1      43.584  27.776  33.347  1.00  0.00     0.034 A 
BRANCH  47  61
ATOM     61  C   UNL A   1      39.442  31.953  35.242  1.00  0.00     0.023 A 
ATOM     62  C   UNL A   1      38.533  31.405  36.170  1.00  0.00     0.012 A 
ATOM     63  C   UNL A   1      39.890  33.276  35.410  1.00  0.00     0.148 A 
ATOM     64  C   UNL A   1      38.057  32.169  37.234  1.00  0.00     0.002 A 
ATOM     65  C   UNL A   1      39.440  34.020  36.496  1.00  0.00     0.091 A 
ATOM     66  F   UNL A   1      40.736  33.787  34.504  1.00  0.00    -0.205 F 
ATOM     67  C   UNL A   1      38.517  33.471  37.403  1.00  0.00     0.022 A 
BRANCH  65  68
ATOM     68  S   UNL A   1      40.024  35.683  36.840  1.00  0.00     0.127 S 
ATOM     69  O   UNL A   1      39.265  36.019  38.044  1.00  0.00    -0.237 OA
ATOM     70  O   UNL A   1      41.454  35.469  37.061  1.00  0.00    -0.237 OA
ATOM     71  O   UNL A   1      39.705  36.474  35.659  1.00  0.00    -0.744 OA
ENDBRANCH  65  68
ENDBRANCH  47  61
BRANCH  48  72
ATOM     72  C   UNL A   1      42.528  26.437  27.532  1.00  0.00     0.023 A 
ATOM     73  C   UNL A   1      43.369  27.038  26.575  1.00  0.00     0.012 A 
ATOM     74  C   UNL A   1      42.169  25.084  27.378  1.00  0.00     0.148 A 
ATOM     75  C   UNL A   1      43.814  26.317  25.467  1.00  0.00     0.002 A 
ATOM     76  C   UNL A   1      42.659  24.356  26.299  1.00  0.00     0.091 A 
ATOM     77  F   UNL A   1      41.352  24.535  28.286  1.00  0.00    -0.205 F 
ATOM     78  C   UNL A   1      43.466  24.975  25.332  1.00  0.00     0.022 A 
BRANCH  76  79
ATOM     79  S   UNL A   1      42.359  22.594  26.120  1.00  0.00     0.127 S 
ATOM     80  O   UNL A   1      42.953  22.321  24.814  1.00  0.00    -0.237 OA
ATOM     81  O   UNL A   1      43.094  22.042  27.259  1.00  0.00    -0.237 OA
ATOM     82  O   UNL A   1      40.914  22.435  26.209  1.00  0.00    -0.744 OA
ENDBRANCH  76  79
ENDBRANCH  48  72
BRANCH  60  83
ATOM     83  C   UNL A   1      44.734  27.171  34.113  1.00  0.00     0.023 A 
ATOM     84  C   UNL A   1      45.978  27.831  34.137  1.00  0.00     0.012 A 
ATOM     85  C   UNL A   1      44.568  25.986  34.856  1.00  0.00     0.148 A 
ATOM     86  C   UNL A   1      47.051  27.301  34.854  1.00  0.00     0.002 A 
ATOM     87  C   UNL A   1      45.629  25.488  35.607  1.00  0.00     0.091 A 
ATOM     88  F   UNL A   1      43.384  25.358  34.810  1.00  0.00    -0.205 F 
ATOM     89  C   UNL A   1      46.874  26.137  35.597  1.00  0.00     0.022 A 
BRANCH  87  90
ATOM     90  S   UNL A   1      45.456  24.043  36.663  1.00  0.00     0.127 S 
ATOM     91  O   UNL A   1      44.782  23.101  35.774  1.00  0.00    -0.237 OA
ATOM     92  O   UNL A   1      46.849  23.706  36.965  1.00  0.00    -0.237 OA
ATOM     93  O   UNL A   1      44.685  24.488  37.816  1.00  0.00    -0.744 OA
ENDBRANCH  87  90
ENDBRANCH  60  83
ENDBRANCH  34  35
ENDBRANCH  27  29
ENDBRANCH  26  27
ENDBRANCH  25  26
ENDBRANCH   1  25
TORSDOF 18
ENDMDL
MODEL 2
REMARK VINA RESULT:     -12.1      5.060     10.241
REMARK SMILES O=C(CNc1nc(-c2ccccc2)c(-c2ccccc2)s1)OCCOC(=O)c1ccc(-c2c3nc(c(-c4cccc(S(=O)(=O)[O-])c4F)c4ccc([nH]4)c(-c4cccc(S(=O)(=O)[O-])c4F)c4nc(c(-c5cccc(S(=O)(=O)[O-])c5F)c5ccc2[nH]5)C=C4)C=C3)cc1
REMARK SMILES IDX 23 1 22 2 2 3 1 4 3 5 4 6 5 8 6 9 21 10 7 11 14 12 8 13 9 14
REMARK SMILES IDX 13 15 10 16 12 17 11 18 15 19 16 20 20 21 17 22 19 23 18 24
REMARK SMILES IDX 24 25 25 26 26 27 27 28 28 29 29 30 90 31 30 32 89 33 31 34
REMARK SMILES IDX 32 35 33 36 83 37 34 38 88 39 82 40 84 41 35 42 87 43 81 44
REMARK SMILES IDX 80 45 36 47 68 48 48 49 67 50 49 51 52 52 66 53 85 54 50 55
REMARK SMILES IDX 51 56 65 58 86 59 53 60 37 61 38 62 46 63 39 64 41 65 47 66
REMARK SMILES IDX 40 67 42 68 43 69 44 70 45 71 69 72 70 73 78 74 71 75 73 76
REMARK SMILES IDX 79 77 72 78 74 79 75 80 76 81 77 82 54 83 55 84 63 85 56 86
REMARK SMILES IDX 58 87 64 88 57 89 59 90 60 91 61 92 62 93
REMARK H PARENT 4 7 84 46 52 57
REMARK Flexibility Score: inf
ROOT
ATOM      1  C   UNL A   1      35.612  20.935  25.385  1.00  0.00     0.274 C 
ENDROOT
BRANCH   1   2
ATOM      2  O   UNL A   1      34.577  20.283  24.620  1.00  0.00    -0.461 OA
BRANCH   2   3
ATOM      3  C   UNL A   1      33.330  19.977  25.061  1.00  0.00     0.325 C 
ATOM      4  O   UNL A   1      33.117  18.860  25.531  1.00  0.00    -0.250 OA
BRANCH   3   5
ATOM      5  C   UNL A   1      32.213  21.016  24.980  1.00  0.00     0.238 C 
BRANCH   5   6
ATOM      6  N   UNL A   1      32.531  22.094  24.061  1.00  0.00    -0.351 N 
ATOM      7  H   UNL A   1      33.004  21.894  23.222  1.00  0.00     0.163 HD
BRANCH   6   8
ATOM      8  C   UNL A   1      32.186  23.365  24.343  1.00  0.00     0.184 A 
ATOM      9  N   UNL A   1      31.351  24.101  23.648  1.00  0.00    -0.220 NA
ATOM     10  S   UNL A   1      32.979  24.180  25.629  1.00  0.00    -0.096 S 
ATOM     11  C   UNL A   1      31.326  25.398  24.137  1.00  0.00     0.091 A 
ATOM     12  C   UNL A   1      32.218  25.647  25.170  1.00  0.00     0.064 A 
BRANCH  11  13
ATOM     13  C   UNL A   1      30.392  26.389  23.621  1.00  0.00     0.002 A 
ATOM     14  C   UNL A   1      30.819  27.444  22.803  1.00  0.00     0.010 A 
ATOM     15  C   UNL A   1      29.053  26.338  24.026  1.00  0.00     0.010 A 
ATOM     16  C   UNL A   1      29.932  28.464  22.444  1.00  0.00     0.001 A 
ATOM     17  C   UNL A   1      28.168  27.360  23.670  1.00  0.00     0.001 A 
ATOM     18  C   UNL A   1      28.611  28.427  22.889  1.00  0.00     0.000 A 
ENDBRANCH  11  13
BRANCH  12  19
ATOM     19  C   UNL A   1      32.525  26.866  25.909  1.00  0.00    -0.006 A 
ATOM     20  C   UNL A   1      31.615  27.368  26.850  1.00  0.00     0.009 A 
ATOM     21  C   UNL A   1      33.737  27.533  25.700  1.00  0.00     0.009 A 
ATOM     22  C   UNL A   1      31.907  28.533  27.559  1.00  0.00     0.001 A 
ATOM     23  C   UNL A   1      34.026  28.699  26.409  1.00  0.00     0.001 A 
ATOM     24  C   UNL A   1      33.110  29.200  27.336  1.00  0.00     0.000 A 
ENDBRANCH  12  19
ENDBRANCH   6   8
ENDBRANCH   5   6
ENDBRANCH   3   5
ENDBRANCH   2   3
ENDBRANCH   1   2
BRANCH   1  25
ATOM     25  C   UNL A   1      37.007  20.386  25.093  1.00  0.00     0.275 C 
BRANCH  25  26
ATOM     26  O   UNL A   1      37.992  21.423  25.193  1.00  0.00    -0.458 OA
BRANCH  26  27
ATOM     27  C   UNL A   1      39.080  21.112  25.939  1.00  0.00     0.338 C 
ATOM     28  O   UNL A   1      39.633  20.026  25.998  1.00  0.00    -0.246 OA
BRANCH  27  29
ATOM     29  C   UNL A   1      39.628  22.345  26.542  1.00  0.00     0.060 A 
ATOM     30  C   UNL A   1      39.100  23.567  26.107  1.00  0.00     0.016 A 
ATOM     31  C   UNL A   1      40.620  22.317  27.529  1.00  0.00     0.016 A 
ATOM     32  C   UNL A   1      39.598  24.762  26.623  1.00  0.00     0.010 A 
ATOM     33  C   UNL A   1      41.114  23.518  28.048  1.00  0.00     0.010 A 
ATOM     34  C   UNL A   1      40.629  24.748  27.574  1.00  0.00    -0.014 A 
BRANCH  34  35
ATOM     35  C   UNL A   1      41.252  26.028  27.984  1.00  0.00     0.031 A 
ATOM     36  C   UNL A   1      42.678  26.316  27.596  1.00  0.00     0.074 A 
ATOM     37  C   UNL A   1      40.547  26.946  28.670  1.00  0.00     0.049 A 
ATOM     38  N   UNL A   1      43.367  27.417  27.744  1.00  0.00    -0.248 NA
ATOM     39  C   UNL A   1      43.424  25.219  26.959  1.00  0.00     0.031 C 
ATOM     40  C   UNL A   1      39.177  26.774  29.150  1.00  0.00     0.029 A 
ATOM     41  N   UNL A   1      40.896  28.204  29.092  1.00  0.00    -0.354 N 
ATOM     42  C   UNL A   1      44.622  27.153  27.211  1.00  0.00     0.074 A 
ATOM     43  C   UNL A   1      44.614  25.772  26.776  1.00  0.00     0.031 C 
ATOM     44  C   UNL A   1      38.808  27.880  29.819  1.00  0.00     0.029 A 
ATOM     45  C   UNL A   1      39.910  28.840  29.808  1.00  0.00     0.049 A 
ATOM     46  H   UNL A   1      41.772  28.613  28.900  1.00  0.00     0.167 HD
ATOM     47  C   UNL A   1      45.675  27.991  27.062  1.00  0.00     0.034 A 
ATOM     48  C   UNL A   1      39.897  30.060  30.381  1.00  0.00     0.034 A 
ATOM     49  C   UNL A   1      45.688  29.363  27.492  1.00  0.00     0.049 A 
ATOM     50  C   UNL A   1      41.080  30.976  30.198  1.00  0.00     0.074 A 
ATOM     51  C   UNL A   1      46.697  30.300  27.352  1.00  0.00     0.029 A 
ATOM     52  N   UNL A   1      44.648  29.994  28.157  1.00  0.00    -0.354 N 
ATOM     53  N   UNL A   1      42.194  30.768  29.540  1.00  0.00    -0.248 NA
ATOM     54  C   UNL A   1      40.979  32.318  30.792  1.00  0.00     0.031 C 
ATOM     55  C   UNL A   1      46.271  31.494  27.945  1.00  0.00     0.029 A 
ATOM     56  C   UNL A   1      44.990  31.305  28.439  1.00  0.00     0.049 A 
ATOM     57  H   UNL A   1      43.791  29.570  28.394  1.00  0.00     0.167 HD
ATOM     58  C   UNL A   1      42.912  31.958  29.614  1.00  0.00     0.074 A 
ATOM     59  C   UNL A   1      42.091  32.893  30.354  1.00  0.00     0.031 C 
ATOM     60  C   UNL A   1      44.145  32.245  29.130  1.00  0.00     0.034 A 
BRANCH  47  61
ATOM     61  C   UNL A   1      46.885  27.459  26.341  1.00  0.00     0.023 A 
ATOM     62  C   UNL A   1      47.759  26.589  27.024  1.00  0.00     0.012 A 
ATOM     63  C   UNL A   1      47.130  27.766  24.989  1.00  0.00     0.148 A 
ATOM     64  C   UNL A   1      48.874  26.053  26.382  1.00  0.00     0.002 A 
ATOM     65  C   UNL A   1      48.223  27.198  24.344  1.00  0.00     0.091 A 
ATOM     66  F   UNL A   1      46.300  28.614  24.364  1.00  0.00    -0.205 F 
ATOM     67  C   UNL A   1      49.100  26.349  25.041  1.00  0.00     0.022 A 
BRANCH  65  68
ATOM     68  S   UNL A   1      48.565  27.462  22.601  1.00  0.00     0.127 S 
ATOM     69  O   UNL A   1      48.617  26.089  22.099  1.00  0.00    -0.237 OA
ATOM     70  O   UNL A   1      47.393  28.225  22.169  1.00  0.00    -0.237 OA
ATOM     71  O   UNL A   1      49.820  28.196  22.544  1.00  0.00    -0.744 OA
ENDBRANCH  65  68
ENDBRANCH  47  61
BRANCH  48  72
ATOM     72  C   UNL A   1      38.694  30.515  31.132  1.00  0.00     0.023 A 
ATOM     73  C   UNL A   1      38.591  30.254  32.512  1.00  0.00     0.012 A 
ATOM     74  C   UNL A   1      37.652  31.209  30.485  1.00  0.00     0.148 A 
ATOM     75  C   UNL A   1      37.458  30.642  33.227  1.00  0.00     0.002 A 
ATOM     76  C   UNL A   1      36.550  31.639  31.214  1.00  0.00     0.091 A 
ATOM     77  F   UNL A   1      37.758  31.430  29.168  1.00  0.00    -0.205 F 
ATOM     78  C   UNL A   1      36.441  31.341  32.581  1.00  0.00     0.022 A 
BRANCH  76  79
ATOM     79  S   UNL A   1      35.257  32.651  30.484  1.00  0.00     0.127 S 
ATOM     80  O   UNL A   1      34.810  31.812  29.376  1.00  0.00    -0.237 OA
ATOM     81  O   UNL A   1      34.304  32.772  31.588  1.00  0.00    -0.237 OA
ATOM     82  O   UNL A   1      35.905  33.903  30.116  1.00  0.00    -0.744 OA
ENDBRANCH  76  79
ENDBRANCH  48  72
BRANCH  60  83
ATOM     83  C   UNL A   1      44.684  33.634  29.367  1.00  0.00     0.023 A 
ATOM     84  C   UNL A   1      45.375  33.917  30.562  1.00  0.00     0.012 A 
ATOM     85  C   UNL A   1      44.558  34.640  28.388  1.00  0.00     0.148 A 
ATOM     86  C   UNL A   1      45.899  35.189  30.797  1.00  0.00     0.002 A 
ATOM     87  C   UNL A   1      45.123  35.892  28.609  1.00  0.00     0.091 A 
ATOM     88  F   UNL A   1      43.881  34.362  27.264  1.00  0.00    -0.205 F 
ATOM     89  C   UNL A   1      45.782  36.172  29.817  1.00  0.00     0.022 A 
BRANCH  87  90
ATOM     90  S   UNL A   1      45.097  37.185  27.361  1.00  0.00     0.127 S 
ATOM     91  O   UNL A   1      45.695  38.308  28.080  1.00  0.00    -0.237 OA
ATOM     92  O   UNL A   1      45.941  36.620  26.305  1.00  0.00    -0.237 OA
ATOM     93  O   UNL A   1      43.698  37.345  26.988  1.00  0.00    -0.744 OA
ENDBRANCH  87  90
ENDBRANCH  60  83
ENDBRANCH  34  35
ENDBRANCH  27  29
ENDBRANCH  26  27
ENDBRANCH  25  26
ENDBRANCH   1  25
TORSDOF 18
ENDMDL
MODEL 3
REMARK VINA RESULT:     -11.9      4.704     10.219
REMARK SMILES O=C(CNc1nc(-c2ccccc2)c(-c2ccccc2)s1)OCCOC(=O)c1ccc(-c2c3nc(c(-c4cccc(S(=O)(=O)[O-])c4F)c4ccc([nH]4)c(-c4cccc(S(=O)(=O)[O-])c4F)c4nc(c(-c5cccc(S(=O)(=O)[O-])c5F)c5ccc2[nH]5)C=C4)C=C3)cc1
REMARK SMILES IDX 23 1 22 2 2 3 1 4 3 5 4 6 5 8 6 9 21 10 7 11 14 12 8 13 9 14
REMARK SMILES IDX 13 15 10 16 12 17 11 18 15 19 16 20 20 21 17 22 19 23 18 24
REMARK SMILES IDX 24 25 25 26 26 27 27 28 28 29 29 30 90 31 30 32 89 33 31 34
REMARK SMILES IDX 32 35 33 36 83 37 34 38 88 39 82 40 84 41 35 42 87 43 81 44
REMARK SMILES IDX 80 45 36 47 68 48 48 49 67 50 49 51 52 52 66 53 85 54 50 55
REMARK SMILES IDX 51 56 65 58 86 59 53 60 37 61 38 62 46 63 39 64 41 65 47 66
REMARK SMILES IDX 40 67 42 68 43 69 44 70 45 71 69 72 70 73 78 74 71 75 73 76
REMARK SMILES IDX 79 77 72 78 74 79 75 80 76 81 77 82 54 83 55 84 63 85 56 86
REMARK SMILES IDX 58 87 64 88 57 89 59 90 60 91 61 92 62 93
REMARK H PARENT 4 7 84 46 52 57
REMARK Flexibility Score: inf
ROOT
ATOM      1  C   UNL A   1      34.909  20.811  25.418  1.00  0.00     0.274 C 
ENDROOT
BRANCH   1   2
ATOM      2  O   UNL A   1      34.052  20.633  24.272  1.00  0.00    -0.461 OA
BRANCH   2   3
ATOM      3  C   UNL A   1      32.732  20.940  24.206  1.00  0.00     0.325 C 
ATOM      4  O   UNL A   1      31.945  20.371  24.962  1.00  0.00    -0.250 OA
BRANCH   3   5
ATOM      5  C   UNL A   1      32.238  21.987  23.209  1.00  0.00     0.238 C 
BRANCH   5   6
ATOM      6  N   UNL A   1      33.142  23.118  23.106  1.00  0.00    -0.351 N 
ATOM      7  H   UNL A   1      34.077  22.971  22.838  1.00  0.00     0.163 HD
BRANCH   6   8
ATOM      8  C   UNL A   1      32.717  24.368  23.374  1.00  0.00     0.184 A 
ATOM      9  N   UNL A   1      32.985  25.047  24.464  1.00  0.00    -0.220 NA
ATOM     10  S   UNL A   1      31.623  25.129  22.292  1.00  0.00    -0.096 S 
ATOM     11  C   UNL A   1      32.285  26.243  24.473  1.00  0.00     0.091 A 
ATOM     12  C   UNL A   1      31.423  26.421  23.402  1.00  0.00     0.064 A 
BRANCH  11  13
ATOM     13  C   UNL A   1      32.493  27.240  25.515  1.00  0.00     0.002 A 
ATOM     14  C   UNL A   1      33.666  28.004  25.576  1.00  0.00     0.010 A 
ATOM     15  C   UNL A   1      31.539  27.372  26.532  1.00  0.00     0.010 A 
ATOM     16  C   UNL A   1      33.906  28.845  26.667  1.00  0.00     0.001 A 
ATOM     17  C   UNL A   1      31.782  28.210  27.623  1.00  0.00     0.001 A 
ATOM     18  C   UNL A   1      32.971  28.936  27.696  1.00  0.00     0.000 A 
ENDBRANCH  11  13
BRANCH  12  19
ATOM     19  C   UNL A   1      30.496  27.498  23.074  1.00  0.00    -0.006 A 
ATOM     20  C   UNL A   1      30.954  28.645  22.409  1.00  0.00     0.009 A 
ATOM     21  C   UNL A   1      29.141  27.389  23.402  1.00  0.00     0.009 A 
ATOM     22  C   UNL A   1      30.069  29.676  22.094  1.00  0.00     0.001 A 
ATOM     23  C   UNL A   1      28.258  28.422  23.087  1.00  0.00     0.001 A 
ATOM     24  C   UNL A   1      28.723  29.566  22.437  1.00  0.00     0.000 A 
ENDBRANCH  12  19
ENDBRANCH   6   8
ENDBRANCH   5   6
ENDBRANCH   3   5
ENDBRANCH   2   3
ENDBRANCH   1   2
BRANCH   1  25
ATOM     25  C   UNL A   1      36.394  20.685  25.081  1.00  0.00     0.275 C 
BRANCH  25  26
ATOM     26  O   UNL A   1      37.142  21.756  25.672  1.00  0.00    -0.458 OA
BRANCH  26  27
ATOM     27  C   UNL A   1      38.449  21.484  25.902  1.00  0.00     0.338 C 
ATOM     28  O   UNL A   1      39.059  20.491  25.540  1.00  0.00    -0.246 OA
BRANCH  27  29
ATOM     29  C   UNL A   1      39.097  22.669  26.505  1.00  0.00     0.060 A 
ATOM     30  C   UNL A   1      38.522  23.919  26.246  1.00  0.00     0.016 A 
ATOM     31  C   UNL A   1      40.227  22.567  27.324  1.00  0.00     0.016 A 
ATOM     32  C   UNL A   1      39.105  25.073  26.768  1.00  0.00     0.010 A 
ATOM     33  C   UNL A   1      40.806  23.727  27.849  1.00  0.00     0.010 A 
ATOM     34  C   UNL A   1      40.269  24.988  27.546  1.00  0.00    -0.014 A 
BRANCH  34  35
ATOM     35  C   UNL A   1      40.962  26.234  27.951  1.00  0.00     0.031 A 
ATOM     36  C   UNL A   1      42.391  26.455  27.535  1.00  0.00     0.074 A 
ATOM     37  C   UNL A   1      40.315  27.181  28.657  1.00  0.00     0.049 A 
ATOM     38  N   UNL A   1      43.135  27.521  27.675  1.00  0.00    -0.248 NA
ATOM     39  C   UNL A   1      43.070  25.328  26.877  1.00  0.00     0.031 C 
ATOM     40  C   UNL A   1      38.949  27.071  29.164  1.00  0.00     0.029 A 
ATOM     41  N   UNL A   1      40.734  28.418  29.078  1.00  0.00    -0.354 N 
ATOM     42  C   UNL A   1      44.365  27.201  27.115  1.00  0.00     0.074 A 
ATOM     43  C   UNL A   1      44.282  25.825  26.672  1.00  0.00     0.031 C 
ATOM     44  C   UNL A   1      38.647  28.189  29.847  1.00  0.00     0.029 A 
ATOM     45  C   UNL A   1      39.794  29.095  29.818  1.00  0.00     0.049 A 
ATOM     46  H   UNL A   1      41.623  28.785  28.870  1.00  0.00     0.167 HD
ATOM     47  C   UNL A   1      45.454  27.988  26.948  1.00  0.00     0.034 A 
ATOM     48  C   UNL A   1      39.852  30.310  30.398  1.00  0.00     0.034 A 
ATOM     49  C   UNL A   1      45.542  29.355  27.385  1.00  0.00     0.049 A 
ATOM     50  C   UNL A   1      41.073  31.170  30.195  1.00  0.00     0.074 A 
ATOM     51  C   UNL A   1      46.592  30.243  27.230  1.00  0.00     0.029 A 
ATOM     52  N   UNL A   1      44.548  30.031  28.075  1.00  0.00    -0.354 N 
ATOM     53  N   UNL A   1      42.163  30.913  29.513  1.00  0.00    -0.248 NA
ATOM     54  C   UNL A   1      41.049  32.511  30.798  1.00  0.00     0.031 C 
ATOM     55  C   UNL A   1      46.236  31.453  27.838  1.00  0.00     0.029 A 
ATOM     56  C   UNL A   1      44.958  31.323  28.357  1.00  0.00     0.049 A 
ATOM     57  H   UNL A   1      43.675  29.647  28.327  1.00  0.00     0.167 HD
ATOM     58  C   UNL A   1      42.938  32.066  29.578  1.00  0.00     0.074 A 
ATOM     59  C   UNL A   1      42.179  33.035  30.341  1.00  0.00     0.031 C 
ATOM     60  C   UNL A   1      44.173  32.297  29.070  1.00  0.00     0.034 A 
BRANCH  47  61
ATOM     61  C   UNL A   1      46.622  27.403  26.199  1.00  0.00     0.023 A 
ATOM     62  C   UNL A   1      46.675  27.547  24.797  1.00  0.00     0.012 A 
ATOM     63  C   UNL A   1      47.682  26.767  26.871  1.00  0.00     0.148 A 
ATOM     64  C   UNL A   1      47.753  27.044  24.071  1.00  0.00     0.002 A 
ATOM     65  C   UNL A   1      48.773  26.301  26.144  1.00  0.00     0.091 A 
ATOM     66  F   UNL A   1      47.602  26.619  28.201  1.00  0.00    -0.205 F 
ATOM     67  C   UNL A   1      48.805  26.431  24.745  1.00  0.00     0.022 A 
BRANCH  65  68
ATOM     68  S   UNL A   1      50.210  25.557  26.923  1.00  0.00     0.127 S 
ATOM     69  O   UNL A   1      51.078  25.315  25.771  1.00  0.00    -0.237 OA
ATOM     70  O   UNL A   1      50.664  26.624  27.816  1.00  0.00    -0.237 OA
ATOM     71  O   UNL A   1      49.726  24.363  27.602  1.00  0.00    -0.744 OA
ENDBRANCH  65  68
ENDBRANCH  47  61
BRANCH  48  72
ATOM     72  C   UNL A   1      38.687  30.819  31.176  1.00  0.00     0.023 A 
ATOM     73  C   UNL A   1      38.663  30.668  32.576  1.00  0.00     0.012 A 
ATOM     74  C   UNL A   1      37.605  31.453  30.535  1.00  0.00     0.148 A 
ATOM     75  C   UNL A   1      37.567  31.105  33.320  1.00  0.00     0.002 A 
ATOM     76  C   UNL A   1      36.540  31.934  31.288  1.00  0.00     0.091 A 
ATOM     77  F   UNL A   1      37.636  31.569  29.201  1.00  0.00    -0.205 F 
ATOM     78  C   UNL A   1      36.510  31.746  32.678  1.00  0.00     0.022 A 
BRANCH  76  79
ATOM     79  S   UNL A   1      35.200  32.878  30.553  1.00  0.00     0.127 S 
ATOM     80  O   UNL A   1      35.908  34.037  30.017  1.00  0.00    -0.237 OA
ATOM     81  O   UNL A   1      34.689  31.948  29.545  1.00  0.00    -0.237 OA
ATOM     82  O   UNL A   1      34.270  33.146  31.643  1.00  0.00    -0.744 OA
ENDBRANCH  76  79
ENDBRANCH  48  72
BRANCH  60  83
ATOM     83  C   UNL A   1      44.783  33.657  29.304  1.00  0.00     0.023 A 
ATOM     84  C   UNL A   1      45.527  33.894  30.477  1.00  0.00     0.012 A 
ATOM     85  C   UNL A   1      44.670  34.680  28.341  1.00  0.00     0.148 A 
ATOM     86  C   UNL A   1      46.116  35.137  30.707  1.00  0.00     0.002 A 
ATOM     87  C   UNL A   1      45.300  35.902  28.556  1.00  0.00     0.091 A 
ATOM     88  F   UNL A   1      43.943  34.447  27.238  1.00  0.00    -0.205 F 
ATOM     89  C   UNL A   1      46.012  36.137  29.744  1.00  0.00     0.022 A 
BRANCH  87  90
ATOM     90  S   UNL A   1      45.290  37.211  27.324  1.00  0.00     0.127 S 
ATOM     91  O   UNL A   1      45.985  38.288  28.025  1.00  0.00    -0.237 OA
ATOM     92  O   UNL A   1      46.049  36.612  26.223  1.00  0.00    -0.237 OA
ATOM     93  O   UNL A   1      43.887  37.456  27.019  1.00  0.00    -0.744 OA
ENDBRANCH  87  90
ENDBRANCH  60  83
ENDBRANCH  34  35
ENDBRANCH  27  29
ENDBRANCH  26  27
ENDBRANCH  25  26
ENDBRANCH   1  25
TORSDOF 18
ENDMDL
