MODEL 1
REMARK VINA RESULT:     -12.1      0.000      0.000
REMARK SMILES C[C@H](C1CC1)n1c(SCC(=O)OCCOC(=O)c2ccc(-c3c4nc(c(-c5cccc(S(=O)(=O)[O-])c5F)c5ccc([nH]5)c(-c5cccc(S(=O)(=O)[O-])c5F)c5nc(c(-c6cccc(S(=O)(=O)[O-])c6F)c6ccc3[nH]6)C=C5)C=C4)cc2)nc2cc(Cl)c(Cl)cc21
REMARK SMILES IDX 13 1 12 2 10 3 11 4 9 5 8 6 7 7 6 8 89 9 81 10 82 11 88 12
REMARK SMILES IDX 83 13 86 14 84 15 87 16 85 17 2 18 1 19 3 20 4 21 5 22 14 23
REMARK SMILES IDX 15 24 16 25 17 26 18 27 19 28 80 29 20 30 79 31 21 32 22 33
REMARK SMILES IDX 23 34 73 35 24 36 78 37 72 38 74 39 25 40 77 41 71 42 70 43
REMARK SMILES IDX 26 45 58 46 38 47 57 48 39 49 42 50 56 51 75 52 40 53 41 54
REMARK SMILES IDX 55 56 76 57 43 58 27 59 28 60 36 61 29 62 31 63 37 64 30 65
REMARK SMILES IDX 32 66 33 67 34 68 35 69 59 70 60 71 68 72 61 73 63 74 69 75
REMARK SMILES IDX 62 76 64 77 65 78 66 79 67 80 44 81 45 82 53 83 46 84 48 85
REMARK SMILES IDX 54 86 47 87 49 88 50 89 51 90 52 91
REMARK H PARENT 74 44 42 55
REMARK Flexibility Score: inf
ROOT
ATOM      1  C   UNL A   1      34.082  23.529  26.515  1.00  0.00     0.274 C 
ENDROOT
BRANCH   1   2
ATOM      2  O   UNL A   1      32.593  23.516  26.524  1.00  0.00    -0.461 OA
BRANCH   2   3
ATOM      3  C   UNL A   1      31.918  24.617  26.038  1.00  0.00     0.316 C 
ATOM      4  O   UNL A   1      30.917  25.038  26.618  1.00  0.00    -0.251 OA
BRANCH   3   5
ATOM      5  C   UNL A   1      32.555  25.434  24.851  1.00  0.00     0.200 C 
BRANCH   5   6
ATOM      6  S   UNL A   1      31.481  26.001  23.504  1.00  0.00    -0.076 SA
BRANCH   6   7
ATOM      7  C   UNL A   1      30.600  27.552  23.720  1.00  0.00     0.169 A 
ATOM      8  N   UNL A   1      30.971  28.822  24.225  1.00  0.00    -0.316 N 
ATOM      9  C   UNL A   1      29.979  29.731  23.841  1.00  0.00     0.071 A 
ATOM     10  N   UNL A   1      29.548  27.711  22.925  1.00  0.00    -0.222 NA
ATOM     11  C   UNL A   1      29.265  29.047  22.876  1.00  0.00     0.091 A 
ATOM     12  C   UNL A   1      29.785  31.104  24.077  1.00  0.00     0.050 A 
ATOM     13  C   UNL A   1      28.456  29.769  21.982  1.00  0.00     0.052 A 
ATOM     14  C   UNL A   1      29.087  31.831  23.109  1.00  0.00     0.061 A 
ATOM     15  C   UNL A   1      28.444  31.171  22.060  1.00  0.00     0.061 A 
ATOM     16  Cl  UNL A   1      29.171  33.558  23.216  1.00  0.00    -0.083 Cl
ATOM     17  Cl  UNL A   1      27.653  32.041  20.789  1.00  0.00    -0.083 Cl
BRANCH   8  18
ATOM     18  C   UNL A   1      32.298  29.309  24.628  1.00  0.00     0.090 C 
ATOM     19  C   UNL A   1      33.533  28.979  23.752  1.00  0.00     0.032 C 
BRANCH  18  20
ATOM     20  C   UNL A   1      32.578  28.779  25.974  1.00  0.00     0.012 C 
ATOM     21  C   UNL A   1      32.506  29.656  27.221  1.00  0.00     0.006 C 
ATOM     22  C   UNL A   1      31.602  28.494  27.059  1.00  0.00     0.006 C 
ENDBRANCH  18  20
ENDBRANCH   8  18
ENDBRANCH   6   7
ENDBRANCH   5   6
ENDBRANCH   3   5
ENDBRANCH   2   3
ENDBRANCH   1   2
BRANCH   1  23
ATOM     23  C   UNL A   1      34.818  22.211  26.049  1.00  0.00     0.275 C 
BRANCH  23  24
ATOM     24  O   UNL A   1      36.252  22.466  25.955  1.00  0.00    -0.458 OA
BRANCH  24  25
ATOM     25  C   UNL A   1      37.156  21.502  25.669  1.00  0.00     0.338 C 
ATOM     26  O   UNL A   1      36.975  20.462  25.000  1.00  0.00    -0.246 OA
BRANCH  25  27
ATOM     27  C   UNL A   1      38.477  22.048  26.019  1.00  0.00     0.060 A 
ATOM     28  C   UNL A   1      39.615  21.353  26.407  1.00  0.00     0.016 A 
ATOM     29  C   UNL A   1      38.580  23.426  25.841  1.00  0.00     0.016 A 
ATOM     30  C   UNL A   1      40.653  22.112  26.966  1.00  0.00     0.010 A 
ATOM     31  C   UNL A   1      39.749  24.098  25.998  1.00  0.00     0.010 A 
ATOM     32  C   UNL A   1      40.591  23.513  26.889  1.00  0.00    -0.014 A 
BRANCH  32  33
ATOM     33  C   UNL A   1      41.230  24.450  27.799  1.00  0.00     0.031 A 
ATOM     34  C   UNL A   1      40.459  25.661  28.059  1.00  0.00     0.074 A 
ATOM     35  C   UNL A   1      42.376  24.214  28.490  1.00  0.00     0.049 A 
ATOM     36  N   UNL A   1      40.512  26.743  27.367  1.00  0.00    -0.248 NA
ATOM     37  C   UNL A   1      39.404  25.620  29.072  1.00  0.00     0.031 C 
ATOM     38  C   UNL A   1      43.150  22.971  28.659  1.00  0.00     0.029 A 
ATOM     39  N   UNL A   1      43.078  25.093  29.264  1.00  0.00    -0.354 N 
ATOM     40  C   UNL A   1      39.692  27.630  28.039  1.00  0.00     0.074 A 
ATOM     41  C   UNL A   1      38.862  26.829  28.906  1.00  0.00     0.031 C 
ATOM     42  C   UNL A   1      44.095  23.139  29.617  1.00  0.00     0.029 A 
ATOM     43  C   UNL A   1      44.127  24.539  29.989  1.00  0.00     0.049 A 
ATOM     44  H   UNL A   1      42.855  26.051  29.305  1.00  0.00     0.167 HD
ATOM     45  C   UNL A   1      39.957  28.963  28.023  1.00  0.00     0.034 A 
ATOM     46  C   UNL A   1      44.979  25.202  30.809  1.00  0.00     0.034 A 
ATOM     47  C   UNL A   1      41.022  29.284  27.099  1.00  0.00     0.049 A 
ATOM     48  C   UNL A   1      44.993  26.609  30.348  1.00  0.00     0.074 A 
ATOM     49  C   UNL A   1      41.231  29.103  25.746  1.00  0.00     0.029 A 
ATOM     50  N   UNL A   1      42.266  29.498  27.648  1.00  0.00    -0.354 N 
ATOM     51  N   UNL A   1      45.479  26.985  29.197  1.00  0.00    -0.248 NA
ATOM     52  C   UNL A   1      44.108  27.562  30.994  1.00  0.00     0.031 C 
ATOM     53  C   UNL A   1      42.613  28.764  25.625  1.00  0.00     0.029 A 
ATOM     54  C   UNL A   1      43.187  28.811  26.898  1.00  0.00     0.049 A 
ATOM     55  H   UNL A   1      42.461  30.049  28.440  1.00  0.00     0.167 HD
ATOM     56  C   UNL A   1      44.619  27.986  28.769  1.00  0.00     0.074 A 
ATOM     57  C   UNL A   1      43.882  28.384  29.966  1.00  0.00     0.031 C 
ATOM     58  C   UNL A   1      44.386  28.195  27.439  1.00  0.00     0.034 A 
BRANCH  45  59
ATOM     59  C   UNL A   1      39.500  29.938  29.067  1.00  0.00     0.023 A 
ATOM     60  C   UNL A   1      40.222  29.976  30.277  1.00  0.00     0.012 A 
ATOM     61  C   UNL A   1      38.293  30.668  29.010  1.00  0.00     0.148 A 
ATOM     62  C   UNL A   1      39.762  30.701  31.379  1.00  0.00     0.002 A 
ATOM     63  C   UNL A   1      37.891  31.467  30.073  1.00  0.00     0.091 A 
ATOM     64  F   UNL A   1      37.450  30.492  27.986  1.00  0.00    -0.205 F 
ATOM     65  C   UNL A   1      38.607  31.466  31.271  1.00  0.00     0.022 A 
BRANCH  63  66
ATOM     66  S   UNL A   1      36.459  32.542  29.937  1.00  0.00     0.127 S 
ATOM     67  O   UNL A   1      35.500  31.670  29.267  1.00  0.00    -0.237 OA
ATOM     68  O   UNL A   1      36.163  32.827  31.342  1.00  0.00    -0.237 OA
ATOM     69  O   UNL A   1      36.924  33.699  29.182  1.00  0.00    -0.744 OA
ENDBRANCH  63  66
ENDBRANCH  45  59
BRANCH  46  70
ATOM     70  C   UNL A   1      45.636  24.799  32.074  1.00  0.00     0.023 A 
ATOM     71  C   UNL A   1      46.770  25.505  32.528  1.00  0.00     0.012 A 
ATOM     72  C   UNL A   1      44.956  23.969  32.992  1.00  0.00     0.148 A 
ATOM     73  C   UNL A   1      47.174  25.443  33.867  1.00  0.00     0.002 A 
ATOM     74  C   UNL A   1      45.356  23.919  34.326  1.00  0.00     0.091 A 
ATOM     75  F   UNL A   1      43.859  23.320  32.579  1.00  0.00    -0.205 F 
ATOM     76  C   UNL A   1      46.456  24.665  34.770  1.00  0.00     0.022 A 
BRANCH  74  77
ATOM     77  S   UNL A   1      44.444  22.986  35.564  1.00  0.00     0.127 S 
ATOM     78  O   UNL A   1      45.219  23.251  36.777  1.00  0.00    -0.237 OA
ATOM     79  O   UNL A   1      43.135  23.635  35.521  1.00  0.00    -0.237 OA
ATOM     80  O   UNL A   1      44.478  21.600  35.119  1.00  0.00    -0.744 OA
ENDBRANCH  74  77
ENDBRANCH  46  70
BRANCH  58  81
ATOM     81  C   UNL A   1      45.294  27.503  26.441  1.00  0.00     0.023 A 
ATOM     82  C   UNL A   1      46.522  28.065  26.028  1.00  0.00     0.012 A 
ATOM     83  C   UNL A   1      44.989  26.189  26.045  1.00  0.00     0.148 A 
ATOM     84  C   UNL A   1      47.413  27.342  25.227  1.00  0.00     0.002 A 
ATOM     85  C   UNL A   1      45.899  25.455  25.291  1.00  0.00     0.091 A 
ATOM     86  F   UNL A   1      43.819  25.664  26.440  1.00  0.00    -0.205 F 
ATOM     87  C   UNL A   1      47.108  26.031  24.872  1.00  0.00     0.022 A 
BRANCH  85  88
ATOM     88  S   UNL A   1      45.633  23.719  24.916  1.00  0.00     0.127 S 
ATOM     89  O   UNL A   1      46.587  23.489  23.834  1.00  0.00    -0.237 OA
ATOM     90  O   UNL A   1      45.976  23.068  26.181  1.00  0.00    -0.237 OA
ATOM     91  O   UNL A   1      44.227  23.600  24.550  1.00  0.00    -0.744 OA
ENDBRANCH  85  88
ENDBRANCH  58  81
ENDBRANCH  32  33
ENDBRANCH  25  27
ENDBRANCH  24  25
ENDBRANCH  23  24
ENDBRANCH   1  23
TORSDOF 18
ENDMDL
MODEL 2
REMARK VINA RESULT:     -11.8      5.055     10.122
REMARK SMILES C[C@H](C1CC1)n1c(SCC(=O)OCCOC(=O)c2ccc(-c3c4nc(c(-c5cccc(S(=O)(=O)[O-])c5F)c5ccc([nH]5)c(-c5cccc(S(=O)(=O)[O-])c5F)c5nc(c(-c6cccc(S(=O)(=O)[O-])c6F)c6ccc3[nH]6)C=C5)C=C4)cc2)nc2cc(Cl)c(Cl)cc21
REMARK SMILES IDX 13 1 12 2 10 3 11 4 9 5 8 6 7 7 6 8 89 9 81 10 82 11 88 12
REMARK SMILES IDX 83 13 86 14 84 15 87 16 85 17 2 18 1 19 3 20 4 21 5 22 14 23
REMARK SMILES IDX 15 24 16 25 17 26 18 27 19 28 80 29 20 30 79 31 21 32 22 33
REMARK SMILES IDX 23 34 73 35 24 36 78 37 72 38 74 39 25 40 77 41 71 42 70 43
REMARK SMILES IDX 26 45 58 46 38 47 57 48 39 49 42 50 56 51 75 52 40 53 41 54
REMARK SMILES IDX 55 56 76 57 43 58 27 59 28 60 36 61 29 62 31 63 37 64 30 65
REMARK SMILES IDX 32 66 33 67 34 68 35 69 59 70 60 71 68 72 61 73 63 74 69 75
REMARK SMILES IDX 62 76 64 77 65 78 66 79 67 80 44 81 45 82 53 83 46 84 48 85
REMARK SMILES IDX 54 86 47 87 49 88 50 89 51 90 52 91
REMARK H PARENT 74 44 42 55
REMARK Flexibility Score: inf
ROOT
ATOM      1  C   UNL A   1      31.720  29.341  25.140  1.00  0.00     0.274 C 
ENDROOT
BRANCH   1   2
ATOM      2  O   UNL A   1      32.461  28.486  26.107  1.00  0.00    -0.461 OA
BRANCH   2   3
ATOM      3  C   UNL A   1      31.802  27.425  26.695  1.00  0.00     0.316 C 
ATOM      4  O   UNL A   1      31.169  27.589  27.738  1.00  0.00    -0.251 OA
BRANCH   3   5
ATOM      5  C   UNL A   1      31.715  26.060  25.915  1.00  0.00     0.200 C 
BRANCH   5   6
ATOM      6  S   UNL A   1      33.074  25.597  24.806  1.00  0.00    -0.076 SA
BRANCH   6   7
ATOM      7  C   UNL A   1      34.068  24.165  25.239  1.00  0.00     0.169 A 
ATOM      8  N   UNL A   1      34.226  22.879  24.667  1.00  0.00    -0.316 N 
ATOM      9  C   UNL A   1      35.373  22.309  25.230  1.00  0.00     0.071 A 
ATOM     10  N   UNL A   1      35.149  24.435  25.962  1.00  0.00    -0.222 NA
ATOM     11  C   UNL A   1      36.006  23.379  25.835  1.00  0.00     0.091 A 
ATOM     12  C   UNL A   1      36.000  21.059  25.083  1.00  0.00     0.050 A 
ATOM     13  C   UNL A   1      37.372  23.277  26.149  1.00  0.00     0.052 A 
ATOM     14  C   UNL A   1      37.384  21.007  25.275  1.00  0.00     0.061 A 
ATOM     15  C   UNL A   1      38.067  22.112  25.785  1.00  0.00     0.061 A 
ATOM     16  Cl  UNL A   1      38.195  19.573  24.738  1.00  0.00    -0.083 Cl
ATOM     17  Cl  UNL A   1      39.791  22.121  25.945  1.00  0.00    -0.083 Cl
BRANCH   8  18
ATOM     18  C   UNL A   1      33.685  22.350  23.407  1.00  0.00     0.090 C 
ATOM     19  C   UNL A   1      33.343  23.325  22.253  1.00  0.00     0.032 C 
BRANCH  18  20
ATOM     20  C   UNL A   1      32.447  21.617  23.725  1.00  0.00     0.012 C 
ATOM     21  C   UNL A   1      32.300  20.122  23.460  1.00  0.00     0.006 C 
ATOM     22  C   UNL A   1      32.220  20.657  24.838  1.00  0.00     0.006 C 
ENDBRANCH  18  20
ENDBRANCH   8  18
ENDBRANCH   6   7
ENDBRANCH   5   6
ENDBRANCH   3   5
ENDBRANCH   2   3
ENDBRANCH   1   2
BRANCH   1  23
ATOM     23  C   UNL A   1      31.330  30.799  25.610  1.00  0.00     0.275 C 
BRANCH  23  24
ATOM     24  O   UNL A   1      32.176  31.187  26.734  1.00  0.00    -0.458 OA
BRANCH  24  25
ATOM     25  C   UNL A   1      32.409  32.475  27.073  1.00  0.00     0.338 C 
ATOM     26  O   UNL A   1      31.674  33.463  26.860  1.00  0.00    -0.246 OA
BRANCH  25  27
ATOM     27  C   UNL A   1      33.536  32.464  28.018  1.00  0.00     0.060 A 
ATOM     28  C   UNL A   1      33.961  33.487  28.856  1.00  0.00     0.016 A 
ATOM     29  C   UNL A   1      34.174  31.229  28.118  1.00  0.00     0.016 A 
ATOM     30  C   UNL A   1      35.226  33.334  29.440  1.00  0.00     0.010 A 
ATOM     31  C   UNL A   1      35.160  30.985  29.018  1.00  0.00     0.010 A 
ATOM     32  C   UNL A   1      35.875  32.092  29.345  1.00  0.00    -0.014 A 
BRANCH  32  33
ATOM     33  C   UNL A   1      37.312  31.871  29.400  1.00  0.00     0.031 A 
ATOM     34  C   UNL A   1      37.744  30.579  28.876  1.00  0.00     0.074 A 
ATOM     35  C   UNL A   1      38.235  32.798  29.765  1.00  0.00     0.049 A 
ATOM     36  N   UNL A   1      37.841  29.492  29.555  1.00  0.00    -0.248 NA
ATOM     37  C   UNL A   1      37.923  30.430  27.431  1.00  0.00     0.031 C 
ATOM     38  C   UNL A   1      38.090  34.245  30.008  1.00  0.00     0.029 A 
ATOM     39  N   UNL A   1      39.575  32.614  29.944  1.00  0.00    -0.354 N 
ATOM     40  C   UNL A   1      38.373  28.573  28.671  1.00  0.00     0.074 A 
ATOM     41  C   UNL A   1      38.166  29.120  27.352  1.00  0.00     0.031 C 
ATOM     42  C   UNL A   1      39.312  34.822  30.123  1.00  0.00     0.029 A 
ATOM     43  C   UNL A   1      40.312  33.774  30.157  1.00  0.00     0.049 A 
ATOM     44  H   UNL A   1      39.991  31.721  29.923  1.00  0.00     0.167 HD
ATOM     45  C   UNL A   1      39.179  27.572  29.116  1.00  0.00     0.034 A 
ATOM     46  C   UNL A   1      41.647  33.852  30.380  1.00  0.00     0.034 A 
ATOM     47  C   UNL A   1      39.212  27.518  30.560  1.00  0.00     0.049 A 
ATOM     48  C   UNL A   1      42.055  32.543  30.939  1.00  0.00     0.074 A 
ATOM     49  C   UNL A   1      38.267  27.364  31.556  1.00  0.00     0.029 A 
ATOM     50  N   UNL A   1      40.316  28.072  31.169  1.00  0.00    -0.354 N 
ATOM     51  N   UNL A   1      41.676  32.110  32.109  1.00  0.00    -0.248 NA
ATOM     52  C   UNL A   1      42.571  31.531  30.035  1.00  0.00     0.031 C 
ATOM     53  C   UNL A   1      38.681  28.246  32.600  1.00  0.00     0.029 A 
ATOM     54  C   UNL A   1      39.881  28.847  32.215  1.00  0.00     0.049 A 
ATOM     55  H   UNL A   1      41.253  27.935  30.902  1.00  0.00     0.167 HD
ATOM     56  C   UNL A   1      41.471  30.750  31.925  1.00  0.00     0.074 A 
ATOM     57  C   UNL A   1      42.161  30.434  30.677  1.00  0.00     0.031 C 
ATOM     58  C   UNL A   1      40.528  30.074  32.647  1.00  0.00     0.034 A 
BRANCH  45  59
ATOM     59  C   UNL A   1      40.194  26.855  28.277  1.00  0.00     0.023 A 
ATOM     60  C   UNL A   1      40.291  25.458  28.432  1.00  0.00     0.012 A 
ATOM     61  C   UNL A   1      41.188  27.491  27.502  1.00  0.00     0.148 A 
ATOM     62  C   UNL A   1      41.331  24.729  27.849  1.00  0.00     0.002 A 
ATOM     63  C   UNL A   1      42.160  26.751  26.841  1.00  0.00     0.091 A 
ATOM     64  F   UNL A   1      41.288  28.825  27.504  1.00  0.00    -0.205 F 
ATOM     65  C   UNL A   1      42.254  25.372  27.034  1.00  0.00     0.022 A 
BRANCH  63  66
ATOM     66  S   UNL A   1      43.310  27.533  25.706  1.00  0.00     0.127 S 
ATOM     67  O   UNL A   1      44.040  28.429  26.596  1.00  0.00    -0.237 OA
ATOM     68  O   UNL A   1      44.075  26.386  25.214  1.00  0.00    -0.237 OA
ATOM     69  O   UNL A   1      42.472  28.165  24.693  1.00  0.00    -0.744 OA
ENDBRANCH  63  66
ENDBRANCH  45  59
BRANCH  46  70
ATOM     70  C   UNL A   1      42.650  34.866  29.981  1.00  0.00     0.023 A 
ATOM     71  C   UNL A   1      43.176  35.748  30.949  1.00  0.00     0.012 A 
ATOM     72  C   UNL A   1      43.336  34.739  28.753  1.00  0.00     0.148 A 
ATOM     73  C   UNL A   1      44.381  36.426  30.732  1.00  0.00     0.002 A 
ATOM     74  C   UNL A   1      44.540  35.409  28.546  1.00  0.00     0.091 A 
ATOM     75  F   UNL A   1      42.862  33.881  27.840  1.00  0.00    -0.205 F 
ATOM     76  C   UNL A   1      45.073  36.243  29.539  1.00  0.00     0.022 A 
BRANCH  74  77
ATOM     77  S   UNL A   1      45.522  35.176  27.058  1.00  0.00     0.127 S 
ATOM     78  O   UNL A   1      46.023  33.812  27.233  1.00  0.00    -0.237 OA
ATOM     79  O   UNL A   1      44.515  35.328  26.010  1.00  0.00    -0.237 OA
ATOM     80  O   UNL A   1      46.553  36.205  27.100  1.00  0.00    -0.744 OA
ENDBRANCH  74  77
ENDBRANCH  46  70
BRANCH  58  81
ATOM     81  C   UNL A   1      39.911  30.774  33.842  1.00  0.00     0.023 A 
ATOM     82  C   UNL A   1      40.569  30.853  35.088  1.00  0.00     0.012 A 
ATOM     83  C   UNL A   1      38.728  31.511  33.658  1.00  0.00     0.148 A 
ATOM     84  C   UNL A   1      40.051  31.632  36.129  1.00  0.00     0.002 A 
ATOM     85  C   UNL A   1      38.244  32.325  34.677  1.00  0.00     0.091 A 
ATOM     86  F   UNL A   1      38.108  31.429  32.471  1.00  0.00    -0.205 F 
ATOM     87  C   UNL A   1      38.897  32.381  35.918  1.00  0.00     0.022 A 
BRANCH  85  88
ATOM     88  S   UNL A   1      36.843  33.420  34.428  1.00  0.00     0.127 S 
ATOM     89  O   UNL A   1      36.334  33.583  35.788  1.00  0.00    -0.237 OA
ATOM     90  O   UNL A   1      37.474  34.614  33.864  1.00  0.00    -0.237 OA
ATOM     91  O   UNL A   1      35.953  32.727  33.504  1.00  0.00    -0.744 OA
ENDBRANCH  85  88
ENDBRANCH  58  81
ENDBRANCH  32  33
ENDBRANCH  25  27
ENDBRANCH  24  25
ENDBRANCH  23  24
ENDBRANCH   1  23
TORSDOF 18
ENDMDL
MODEL 3
REMARK VINA RESULT:     -11.6      3.639      7.723
REMARK SMILES C[C@H](C1CC1)n1c(SCC(=O)OCCOC(=O)c2ccc(-c3c4nc(c(-c5cccc(S(=O)(=O)[O-])c5F)c5ccc([nH]5)c(-c5cccc(S(=O)(=O)[O-])c5F)c5nc(c(-c6cccc(S(=O)(=O)[O-])c6F)c6ccc3[nH]6)C=C5)C=C4)cc2)nc2cc(Cl)c(Cl)cc21
REMARK SMILES IDX 13 1 12 2 10 3 11 4 9 5 8 6 7 7 6 8 89 9 81 10 82 11 88 12
REMARK SMILES IDX 83 13 86 14 84 15 87 16 85 17 2 18 1 19 3 20 4 21 5 22 14 23
REMARK SMILES IDX 15 24 16 25 17 26 18 27 19 28 80 29 20 30 79 31 21 32 22 33
REMARK SMILES IDX 23 34 73 35 24 36 78 37 72 38 74 39 25 40 77 41 71 42 70 43
REMARK SMILES IDX 26 45 58 46 38 47 57 48 39 49 42 50 56 51 75 52 40 53 41 54
REMARK SMILES IDX 55 56 76 57 43 58 27 59 28 60 36 61 29 62 31 63 37 64 30 65
REMARK SMILES IDX 32 66 33 67 34 68 35 69 59 70 60 71 68 72 61 73 63 74 69 75
REMARK SMILES IDX 62 76 64 77 65 78 66 79 67 80 44 81 45 82 53 83 46 84 48 85
REMARK SMILES IDX 54 86 47 87 49 88 50 89 51 90 52 91
REMARK H PARENT 74 44 42 55
REMARK Flexibility Score: inf
ROOT
ATOM      1  C   UNL A   1      40.450  21.357  27.313  1.00  0.00     0.274 C 
ENDROOT
BRANCH   1   2
ATOM      2  O   UNL A   1      40.002  22.147  26.134  1.00  0.00    -0.461 OA
BRANCH   2   3
ATOM      3  C   UNL A   1      38.741  22.708  26.152  1.00  0.00     0.316 C 
ATOM      4  O   UNL A   1      38.601  23.918  26.332  1.00  0.00    -0.251 OA
BRANCH   3   5
ATOM      5  C   UNL A   1      37.508  21.813  25.751  1.00  0.00     0.200 C 
BRANCH   5   6
ATOM      6  S   UNL A   1      36.766  22.031  24.110  1.00  0.00    -0.076 SA
BRANCH   6   7
ATOM      7  C   UNL A   1      35.392  23.177  23.948  1.00  0.00     0.169 A 
ATOM      8  N   UNL A   1      34.015  23.013  23.661  1.00  0.00    -0.316 N 
ATOM      9  C   UNL A   1      33.373  24.212  23.993  1.00  0.00     0.071 A 
ATOM     10  N   UNL A   1      35.551  24.331  24.586  1.00  0.00    -0.222 NA
ATOM     11  C   UNL A   1      34.313  24.887  24.749  1.00  0.00     0.091 A 
ATOM     12  C   UNL A   1      32.041  24.652  23.896  1.00  0.00     0.050 A 
ATOM     13  C   UNL A   1      33.894  25.933  25.588  1.00  0.00     0.052 A 
ATOM     14  C   UNL A   1      31.608  25.602  24.825  1.00  0.00     0.061 A 
ATOM     15  C   UNL A   1      32.523  26.223  25.677  1.00  0.00     0.061 A 
ATOM     16  Cl  UNL A   1      29.899  25.863  24.938  1.00  0.00    -0.083 Cl
ATOM     17  Cl  UNL A   1      32.013  27.331  26.906  1.00  0.00    -0.083 Cl
BRANCH   8  18
ATOM     18  C   UNL A   1      33.234  21.775  23.527  1.00  0.00     0.090 C 
ATOM     19  C   UNL A   1      32.017  21.738  22.571  1.00  0.00     0.032 C 
BRANCH  18  20
ATOM     20  C   UNL A   1      32.734  21.416  24.866  1.00  0.00     0.012 C 
ATOM     21  C   UNL A   1      32.978  20.041  25.481  1.00  0.00     0.006 C 
ATOM     22  C   UNL A   1      33.520  21.263  26.119  1.00  0.00     0.006 C 
ENDBRANCH  18  20
ENDBRANCH   8  18
ENDBRANCH   6   7
ENDBRANCH   5   6
ENDBRANCH   3   5
ENDBRANCH   2   3
ENDBRANCH   1   2
BRANCH   1  23
ATOM     23  C   UNL A   1      41.460  20.171  27.052  1.00  0.00     0.275 C 
BRANCH  23  24
ATOM     24  O   UNL A   1      41.925  20.226  25.669  1.00  0.00    -0.458 OA
BRANCH  24  25
ATOM     25  C   UNL A   1      43.221  20.065  25.319  1.00  0.00     0.338 C 
ATOM     26  O   UNL A   1      43.730  19.103  24.705  1.00  0.00    -0.246 OA
BRANCH  25  27
ATOM     27  C   UNL A   1      43.873  21.370  25.510  1.00  0.00     0.060 A 
ATOM     28  C   UNL A   1      45.154  21.626  25.982  1.00  0.00     0.016 A 
ATOM     29  C   UNL A   1      43.111  22.449  25.068  1.00  0.00     0.016 A 
ATOM     30  C   UNL A   1      45.434  22.950  26.348  1.00  0.00     0.010 A 
ATOM     31  C   UNL A   1      43.584  23.721  25.052  1.00  0.00     0.010 A 
ATOM     32  C   UNL A   1      44.519  23.959  26.007  1.00  0.00    -0.014 A 
BRANCH  32  33
ATOM     33  C   UNL A   1      44.347  25.228  26.698  1.00  0.00     0.031 A 
ATOM     34  C   UNL A   1      45.421  26.189  26.471  1.00  0.00     0.074 A 
ATOM     35  C   UNL A   1      43.240  25.598  27.392  1.00  0.00     0.049 A 
ATOM     36  N   UNL A   1      46.497  26.285  27.168  1.00  0.00    -0.248 NA
ATOM     37  C   UNL A   1      45.387  27.010  25.260  1.00  0.00     0.031 C 
ATOM     38  C   UNL A   1      41.914  24.960  27.486  1.00  0.00     0.029 A 
ATOM     39  N   UNL A   1      43.069  26.720  28.150  1.00  0.00    -0.354 N 
ATOM     40  C   UNL A   1      47.155  27.383  26.647  1.00  0.00     0.074 A 
ATOM     41  C   UNL A   1      46.570  27.622  25.350  1.00  0.00     0.031 C 
ATOM     42  C   UNL A   1      41.040  25.793  28.104  1.00  0.00     0.029 A 
ATOM     43  C   UNL A   1      41.776  26.931  28.617  1.00  0.00     0.049 A 
ATOM     44  H   UNL A   1      43.810  27.337  28.352  1.00  0.00     0.167 HD
ATOM     45  C   UNL A   1      47.935  28.163  27.442  1.00  0.00     0.034 A 
ATOM     46  C   UNL A   1      41.359  27.955  29.401  1.00  0.00     0.034 A 
ATOM     47  C   UNL A   1      48.106  27.581  28.755  1.00  0.00     0.049 A 
ATOM     48  C   UNL A   1      42.552  28.432  30.137  1.00  0.00     0.074 A 
ATOM     49  C   UNL A   1      48.598  26.384  29.239  1.00  0.00     0.029 A 
ATOM     50  N   UNL A   1      47.330  28.106  29.764  1.00  0.00    -0.354 N 
ATOM     51  N   UNL A   1      43.174  27.723  31.038  1.00  0.00    -0.248 NA
ATOM     52  C   UNL A   1      43.302  29.551  29.595  1.00  0.00     0.031 C 
ATOM     53  C   UNL A   1      47.734  26.038  30.321  1.00  0.00     0.029 A 
ATOM     54  C   UNL A   1      46.797  27.062  30.478  1.00  0.00     0.049 A 
ATOM     55  H   UNL A   1      47.183  29.062  29.942  1.00  0.00     0.167 HD
ATOM     56  C   UNL A   1      44.517  28.011  30.839  1.00  0.00     0.074 A 
ATOM     57  C   UNL A   1      44.522  29.231  30.036  1.00  0.00     0.031 C 
ATOM     58  C   UNL A   1      45.485  27.083  31.100  1.00  0.00     0.034 A 
BRANCH  45  59
ATOM     59  C   UNL A   1      48.272  29.598  27.166  1.00  0.00     0.023 A 
ATOM     60  C   UNL A   1      49.636  29.951  27.156  1.00  0.00     0.012 A 
ATOM     61  C   UNL A   1      47.330  30.648  27.119  1.00  0.00     0.148 A 
ATOM     62  C   UNL A   1      50.044  31.287  27.106  1.00  0.00     0.002 A 
ATOM     63  C   UNL A   1      47.739  31.967  26.967  1.00  0.00     0.091 A 
ATOM     64  F   UNL A   1      46.037  30.401  27.356  1.00  0.00    -0.205 F 
ATOM     65  C   UNL A   1      49.095  32.295  26.989  1.00  0.00     0.022 A 
BRANCH  63  66
ATOM     66  S   UNL A   1      46.547  33.286  26.717  1.00  0.00     0.127 S 
ATOM     67  O   UNL A   1      47.414  34.400  26.348  1.00  0.00    -0.237 OA
ATOM     68  O   UNL A   1      45.728  32.750  25.629  1.00  0.00    -0.237 OA
ATOM     69  O   UNL A   1      45.842  33.405  27.988  1.00  0.00    -0.744 OA
ENDBRANCH  63  66
ENDBRANCH  45  59
BRANCH  46  70
ATOM     70  C   UNL A   1      40.079  28.700  29.443  1.00  0.00     0.023 A 
ATOM     71  C   UNL A   1      39.271  28.766  28.288  1.00  0.00     0.012 A 
ATOM     72  C   UNL A   1      39.496  29.037  30.684  1.00  0.00     0.148 A 
ATOM     73  C   UNL A   1      37.911  29.088  28.373  1.00  0.00     0.002 A 
ATOM     74  C   UNL A   1      38.140  29.347  30.764  1.00  0.00     0.091 A 
ATOM     75  F   UNL A   1      40.246  28.946  31.790  1.00  0.00    -0.205 F 
ATOM     76  C   UNL A   1      37.341  29.361  29.613  1.00  0.00     0.022 A 
BRANCH  74  77
ATOM     77  S   UNL A   1      37.318  29.650  32.335  1.00  0.00     0.127 S 
ATOM     78  O   UNL A   1      38.097  30.765  32.877  1.00  0.00    -0.237 OA
ATOM     79  O   UNL A   1      35.968  30.001  31.901  1.00  0.00    -0.237 OA
ATOM     80  O   UNL A   1      37.439  28.410  33.089  1.00  0.00    -0.744 OA
ENDBRANCH  74  77
ENDBRANCH  46  70
BRANCH  58  81
ATOM     81  C   UNL A   1      45.087  25.839  31.871  1.00  0.00     0.023 A 
ATOM     82  C   UNL A   1      44.587  24.685  31.231  1.00  0.00     0.012 A 
ATOM     83  C   UNL A   1      45.385  25.771  33.244  1.00  0.00     0.148 A 
ATOM     84  C   UNL A   1      44.372  23.500  31.943  1.00  0.00     0.002 A 
ATOM     85  C   UNL A   1      45.218  24.577  33.939  1.00  0.00     0.091 A 
ATOM     86  F   UNL A   1      45.857  26.873  33.845  1.00  0.00    -0.205 F 
ATOM     87  C   UNL A   1      44.702  23.442  33.294  1.00  0.00     0.022 A 
BRANCH  85  88
ATOM     88  S   UNL A   1      45.751  24.392  35.643  1.00  0.00     0.127 S 
ATOM     89  O   UNL A   1      45.551  22.964  35.875  1.00  0.00    -0.237 OA
ATOM     90  O   UNL A   1      47.153  24.811  35.580  1.00  0.00    -0.237 OA
ATOM     91  O   UNL A   1      44.901  25.281  36.427  1.00  0.00    -0.744 OA
ENDBRANCH  85  88
ENDBRANCH  58  81
ENDBRANCH  32  33
ENDBRANCH  25  27
ENDBRANCH  24  25
ENDBRANCH  23  24
ENDBRANCH   1  23
TORSDOF 18
ENDMDL
