MODEL 1
REMARK VINA RESULT:     -12.9      0.000      0.000
REMARK SMILES C[C@H](C(=O)OCCOC(=O)c1ccc(-c2c3nc(c(-c4cccc(S(=O)(=O)[O-])c4F)c4ccc([nH]4)c(-c4cccc(S(=O)(=O)[O-])c4F)c4nc(c(-c5cccc(S(=O)(=O)[O-])c5F)c5ccc2[nH]5)C=C4)C=C3)cc1)N1C(=O)C[C@@H](N2C(=O)/C(=C/c3ccccc3)SC2=S)C1=O
REMARK SMILES IDX 6 1 5 2 3 3 4 4 2 5 1 6 74 7 75 8 93 9 76 10 77 11 78 12
REMARK SMILES IDX 94 13 79 14 80 15 91 16 81 17 82 18 90 19 92 20 83 21 84 22
REMARK SMILES IDX 85 23 89 24 86 25 88 26 87 27 7 28 8 29 9 30 10 31 11 32
REMARK SMILES IDX 12 33 73 34 13 35 72 36 14 37 15 38 16 39 66 40 17 41 71 42
REMARK SMILES IDX 65 43 67 44 18 45 70 46 64 47 63 48 19 50 51 51 31 52 50 53
REMARK SMILES IDX 32 54 35 55 49 56 68 57 33 58 34 59 48 61 69 62 36 63 20 64
REMARK SMILES IDX 21 65 29 66 22 67 24 68 30 69 23 70 25 71 26 72 27 73 28 74
REMARK SMILES IDX 52 75 53 76 61 77 54 78 56 79 62 80 55 81 57 82 58 83 59 84
REMARK SMILES IDX 60 85 37 86 38 87 46 88 39 89 41 90 47 91 40 92 42 93 43 94
REMARK SMILES IDX 44 95 45 96
REMARK H PARENT 67 49 35 60
REMARK Flexibility Score: inf
ROOT
ATOM      1  C   UNL A   1      34.941  21.193  24.696  1.00  0.00     0.274 C 
ENDROOT
BRANCH   1   2
ATOM      2  O   UNL A   1      33.863  21.210  25.652  1.00  0.00    -0.461 OA
BRANCH   2   3
ATOM      3  C   UNL A   1      32.603  21.035  25.170  1.00  0.00     0.329 C 
ATOM      4  O   UNL A   1      32.116  19.941  24.901  1.00  0.00    -0.250 OA
BRANCH   3   5
ATOM      5  C   UNL A   1      31.857  22.359  24.922  1.00  0.00     0.200 C 
ATOM      6  C   UNL A   1      30.952  22.676  26.114  1.00  0.00     0.044 C 
BRANCH   5   7
ATOM      7  N   UNL A   1      32.720  23.465  24.494  1.00  0.00    -0.267 N 
ATOM      8  C   UNL A   1      32.985  23.660  23.161  1.00  0.00     0.232 C 
ATOM      9  C   UNL A   1      33.138  24.525  25.258  1.00  0.00     0.253 C 
ATOM     10  O   UNL A   1      32.631  22.953  22.228  1.00  0.00    -0.274 OA
ATOM     11  C   UNL A   1      33.824  24.890  22.995  1.00  0.00     0.136 C 
ATOM     12  C   UNL A   1      33.674  25.597  24.329  1.00  0.00     0.191 C 
ATOM     13  O   UNL A   1      32.966  24.715  26.453  1.00  0.00    -0.272 OA
BRANCH  12  14
ATOM     14  N   UNL A   1      32.739  26.747  24.318  1.00  0.00    -0.280 N 
ATOM     15  C   UNL A   1      31.703  26.779  23.398  1.00  0.00     0.266 C 
ATOM     16  C   UNL A   1      32.822  27.838  25.160  1.00  0.00     0.149 C 
ATOM     17  O   UNL A   1      31.451  25.917  22.567  1.00  0.00    -0.268 OA
ATOM     18  C   UNL A   1      30.931  28.037  23.504  1.00  0.00     0.081 C 
ATOM     19  S   UNL A   1      31.550  28.999  24.775  1.00  0.00    -0.054 SA
ATOM     20  S   UNL A   1      33.958  28.149  26.339  1.00  0.00    -0.052 S 
ATOM     21  C   UNL A   1      29.932  28.292  22.649  1.00  0.00     0.029 C 
BRANCH  21  22
ATOM     22  C   UNL A   1      29.149  29.525  22.550  1.00  0.00    -0.024 A 
ATOM     23  C   UNL A   1      29.499  30.495  21.605  1.00  0.00     0.008 A 
ATOM     24  C   UNL A   1      28.110  29.786  23.451  1.00  0.00     0.008 A 
ATOM     25  C   UNL A   1      28.803  31.704  21.551  1.00  0.00     0.001 A 
ATOM     26  C   UNL A   1      27.417  30.996  23.396  1.00  0.00     0.001 A 
ATOM     27  C   UNL A   1      27.762  31.954  22.445  1.00  0.00     0.000 A 
ENDBRANCH  21  22
ENDBRANCH  12  14
ENDBRANCH   5   7
ENDBRANCH   3   5
ENDBRANCH   2   3
ENDBRANCH   1   2
BRANCH   1  28
ATOM     28  C   UNL A   1      36.206  20.619  25.330  1.00  0.00     0.275 C 
BRANCH  28  29
ATOM     29  O   UNL A   1      37.317  21.511  25.132  1.00  0.00    -0.458 OA
BRANCH  29  30
ATOM     30  C   UNL A   1      38.477  21.107  25.698  1.00  0.00     0.338 C 
ATOM     31  O   UNL A   1      39.000  20.008  25.622  1.00  0.00    -0.246 OA
BRANCH  30  32
ATOM     32  C   UNL A   1      39.120  22.262  26.334  1.00  0.00     0.060 A 
ATOM     33  C   UNL A   1      38.607  23.528  26.059  1.00  0.00     0.016 A 
ATOM     34  C   UNL A   1      40.272  22.115  27.101  1.00  0.00     0.016 A 
ATOM     35  C   UNL A   1      39.298  24.665  26.465  1.00  0.00     0.010 A 
ATOM     36  C   UNL A   1      40.922  23.258  27.577  1.00  0.00     0.010 A 
ATOM     37  C   UNL A   1      40.463  24.544  27.233  1.00  0.00    -0.014 A 
BRANCH  37  38
ATOM     38  C   UNL A   1      41.213  25.759  27.651  1.00  0.00     0.031 A 
ATOM     39  C   UNL A   1      40.537  26.814  28.486  1.00  0.00     0.074 A 
ATOM     40  C   UNL A   1      42.495  25.925  27.270  1.00  0.00     0.049 A 
ATOM     41  N   UNL A   1      40.969  28.001  28.824  1.00  0.00    -0.248 NA
ATOM     42  C   UNL A   1      39.192  26.499  28.997  1.00  0.00     0.031 C 
ATOM     43  C   UNL A   1      43.270  24.976  26.470  1.00  0.00     0.029 A 
ATOM     44  N   UNL A   1      43.370  26.959  27.496  1.00  0.00    -0.354 N 
ATOM     45  C   UNL A   1      39.925  28.604  29.517  1.00  0.00     0.074 A 
ATOM     46  C   UNL A   1      38.842  27.645  29.564  1.00  0.00     0.031 C 
ATOM     47  C   UNL A   1      44.506  25.462  26.283  1.00  0.00     0.029 A 
ATOM     48  C   UNL A   1      44.594  26.785  26.892  1.00  0.00     0.049 A 
ATOM     49  H   UNL A   1      43.144  27.749  28.038  1.00  0.00     0.167 HD
ATOM     50  C   UNL A   1      39.878  29.838  30.072  1.00  0.00     0.034 A 
ATOM     51  C   UNL A   1      45.657  27.607  26.807  1.00  0.00     0.034 A 
ATOM     52  C   UNL A   1      40.986  30.754  30.099  1.00  0.00     0.049 A 
ATOM     53  C   UNL A   1      45.589  28.959  27.459  1.00  0.00     0.074 A 
ATOM     54  C   UNL A   1      41.054  32.004  30.689  1.00  0.00     0.029 A 
ATOM     55  N   UNL A   1      42.224  30.516  29.523  1.00  0.00    -0.354 N 
ATOM     56  N   UNL A   1      44.615  29.487  28.163  1.00  0.00    -0.248 NA
ATOM     57  C   UNL A   1      46.767  29.826  27.319  1.00  0.00     0.031 C 
ATOM     58  C   UNL A   1      42.334  32.524  30.466  1.00  0.00     0.029 A 
ATOM     59  C   UNL A   1      43.064  31.594  29.743  1.00  0.00     0.049 A 
ATOM     60  H   UNL A   1      42.471  29.700  29.030  1.00  0.00     0.167 HD
ATOM     61  C   UNL A   1      45.070  30.737  28.564  1.00  0.00     0.074 A 
ATOM     62  C   UNL A   1      46.418  30.877  28.050  1.00  0.00     0.031 C 
ATOM     63  C   UNL A   1      44.422  31.694  29.272  1.00  0.00     0.034 A 
BRANCH  50  64
ATOM     64  C   UNL A   1      38.592  30.264  30.729  1.00  0.00     0.023 A 
ATOM     65  C   UNL A   1      38.374  29.977  32.091  1.00  0.00     0.012 A 
ATOM     66  C   UNL A   1      37.628  31.002  30.014  1.00  0.00     0.148 A 
ATOM     67  C   UNL A   1      37.204  30.396  32.725  1.00  0.00     0.002 A 
ATOM     68  C   UNL A   1      36.482  31.450  30.663  1.00  0.00     0.091 A 
ATOM     69  F   UNL A   1      37.841  31.243  28.713  1.00  0.00    -0.205 F 
ATOM     70  C   UNL A   1      36.265  31.141  32.016  1.00  0.00     0.022 A 
BRANCH  68  71
ATOM     71  S   UNL A   1      35.255  32.477  29.847  1.00  0.00     0.127 S 
ATOM     72  O   UNL A   1      36.053  33.636  29.453  1.00  0.00    -0.237 OA
ATOM     73  O   UNL A   1      34.825  31.627  28.735  1.00  0.00    -0.237 OA
ATOM     74  O   UNL A   1      34.223  32.732  30.843  1.00  0.00    -0.744 OA
ENDBRANCH  68  71
ENDBRANCH  50  64
BRANCH  51  75
ATOM     75  C   UNL A   1      46.888  27.154  26.100  1.00  0.00     0.023 A 
ATOM     76  C   UNL A   1      47.047  27.453  24.733  1.00  0.00     0.012 A 
ATOM     77  C   UNL A   1      47.923  26.482  26.780  1.00  0.00     0.148 A 
ATOM     78  C   UNL A   1      48.206  27.079  24.054  1.00  0.00     0.002 A 
ATOM     79  C   UNL A   1      49.100  26.165  26.111  1.00  0.00     0.091 A 
ATOM     80  F   UNL A   1      47.744  26.180  28.074  1.00  0.00    -0.205 F 
ATOM     81  C   UNL A   1      49.239  26.449  24.745  1.00  0.00     0.022 A 
BRANCH  79  82
ATOM     82  S   UNL A   1      50.528  25.491  26.971  1.00  0.00     0.127 S 
ATOM     83  O   UNL A   1      50.863  26.575  27.890  1.00  0.00    -0.237 OA
ATOM     84  O   UNL A   1      49.970  24.296  27.606  1.00  0.00    -0.237 OA
ATOM     85  O   UNL A   1      51.506  25.208  25.929  1.00  0.00    -0.744 OA
ENDBRANCH  79  82
ENDBRANCH  51  75
BRANCH  63  86
ATOM     86  C   UNL A   1      45.165  32.973  29.551  1.00  0.00     0.023 A 
ATOM     87  C   UNL A   1      45.945  33.078  30.718  1.00  0.00     0.012 A 
ATOM     88  C   UNL A   1      45.149  34.036  28.628  1.00  0.00     0.148 A 
ATOM     89  C   UNL A   1      46.679  34.235  30.978  1.00  0.00     0.002 A 
ATOM     90  C   UNL A   1      45.915  35.170  28.873  1.00  0.00     0.091 A 
ATOM     91  F   UNL A   1      44.382  33.925  27.534  1.00  0.00    -0.205 F 
ATOM     92  C   UNL A   1      46.673  35.275  30.051  1.00  0.00     0.022 A 
BRANCH  90  93
ATOM     93  S   UNL A   1      46.029  36.518  27.691  1.00  0.00     0.127 S 
ATOM     94  O   UNL A   1      46.530  35.833  26.502  1.00  0.00    -0.237 OA
ATOM     95  O   UNL A   1      44.640  36.970  27.594  1.00  0.00    -0.237 OA
ATOM     96  O   UNL A   1      46.935  37.491  28.287  1.00  0.00    -0.744 OA
ENDBRANCH  90  93
ENDBRANCH  63  86
ENDBRANCH  37  38
ENDBRANCH  30  32
ENDBRANCH  29  30
ENDBRANCH  28  29
ENDBRANCH   1  28
TORSDOF 17
ENDMDL
MODEL 2
REMARK VINA RESULT:     -12.6      1.784      7.647
REMARK SMILES C[C@H](C(=O)OCCOC(=O)c1ccc(-c2c3nc(c(-c4cccc(S(=O)(=O)[O-])c4F)c4ccc([nH]4)c(-c4cccc(S(=O)(=O)[O-])c4F)c4nc(c(-c5cccc(S(=O)(=O)[O-])c5F)c5ccc2[nH]5)C=C4)C=C3)cc1)N1C(=O)C[C@@H](N2C(=O)/C(=C/c3ccccc3)SC2=S)C1=O
REMARK SMILES IDX 6 1 5 2 3 3 4 4 2 5 1 6 74 7 75 8 93 9 76 10 77 11 78 12
REMARK SMILES IDX 94 13 79 14 80 15 91 16 81 17 82 18 90 19 92 20 83 21 84 22
REMARK SMILES IDX 85 23 89 24 86 25 88 26 87 27 7 28 8 29 9 30 10 31 11 32
REMARK SMILES IDX 12 33 73 34 13 35 72 36 14 37 15 38 16 39 66 40 17 41 71 42
REMARK SMILES IDX 65 43 67 44 18 45 70 46 64 47 63 48 19 50 51 51 31 52 50 53
REMARK SMILES IDX 32 54 35 55 49 56 68 57 33 58 34 59 48 61 69 62 36 63 20 64
REMARK SMILES IDX 21 65 29 66 22 67 24 68 30 69 23 70 25 71 26 72 27 73 28 74
REMARK SMILES IDX 52 75 53 76 61 77 54 78 56 79 62 80 55 81 57 82 58 83 59 84
REMARK SMILES IDX 60 85 37 86 38 87 46 88 39 89 41 90 47 91 40 92 42 93 43 94
REMARK SMILES IDX 44 95 45 96
REMARK H PARENT 67 49 35 60
REMARK Flexibility Score: inf
ROOT
ATOM      1  C   UNL A   1      36.918  20.382  25.048  1.00  0.00     0.274 C 
ENDROOT
BRANCH   1   2
ATOM      2  O   UNL A   1      37.075  21.562  24.235  1.00  0.00    -0.461 OA
BRANCH   2   3
ATOM      3  C   UNL A   1      36.511  22.712  24.695  1.00  0.00     0.329 C 
ATOM      4  O   UNL A   1      37.111  23.777  24.799  1.00  0.00    -0.250 OA
BRANCH   3   5
ATOM      5  C   UNL A   1      35.050  22.535  25.148  1.00  0.00     0.200 C 
ATOM      6  C   UNL A   1      34.758  23.458  26.331  1.00  0.00     0.044 C 
BRANCH   5   7
ATOM      7  N   UNL A   1      34.070  22.601  24.059  1.00  0.00    -0.267 N 
ATOM      8  C   UNL A   1      33.015  21.725  24.023  1.00  0.00     0.232 C 
ATOM      9  C   UNL A   1      33.924  23.614  23.145  1.00  0.00     0.253 C 
ATOM     10  O   UNL A   1      32.802  20.794  24.788  1.00  0.00    -0.274 OA
ATOM     11  C   UNL A   1      32.133  22.054  22.858  1.00  0.00     0.136 C 
ATOM     12  C   UNL A   1      32.575  23.452  22.470  1.00  0.00     0.191 C 
ATOM     13  O   UNL A   1      34.624  24.604  22.989  1.00  0.00    -0.272 OA
BRANCH  12  14
ATOM     14  N   UNL A   1      31.669  24.535  22.920  1.00  0.00    -0.280 N 
ATOM     15  C   UNL A   1      31.506  25.664  22.132  1.00  0.00     0.266 C 
ATOM     16  C   UNL A   1      30.962  24.529  24.106  1.00  0.00     0.149 C 
ATOM     17  O   UNL A   1      32.036  25.869  21.049  1.00  0.00    -0.268 OA
ATOM     18  C   UNL A   1      30.620  26.652  22.788  1.00  0.00     0.081 C 
ATOM     19  S   UNL A   1      30.051  26.031  24.276  1.00  0.00    -0.054 SA
ATOM     20  S   UNL A   1      30.960  23.368  25.302  1.00  0.00    -0.052 S 
ATOM     21  C   UNL A   1      30.398  27.844  22.220  1.00  0.00     0.029 C 
BRANCH  21  22
ATOM     22  C   UNL A   1      29.643  28.964  22.785  1.00  0.00    -0.024 A 
ATOM     23  C   UNL A   1      28.309  29.159  22.412  1.00  0.00     0.008 A 
ATOM     24  C   UNL A   1      30.266  29.896  23.622  1.00  0.00     0.008 A 
ATOM     25  C   UNL A   1      27.602  30.264  22.889  1.00  0.00     0.001 A 
ATOM     26  C   UNL A   1      29.559  31.001  24.097  1.00  0.00     0.001 A 
ATOM     27  C   UNL A   1      28.226  31.184  23.731  1.00  0.00     0.000 A 
ENDBRANCH  21  22
ENDBRANCH  12  14
ENDBRANCH   5   7
ENDBRANCH   3   5
ENDBRANCH   2   3
ENDBRANCH   1   2
BRANCH   1  28
ATOM     28  C   UNL A   1      38.281  19.769  25.363  1.00  0.00     0.275 C 
BRANCH  28  29
ATOM     29  O   UNL A   1      39.281  20.795  25.479  1.00  0.00    -0.458 OA
BRANCH  29  30
ATOM     30  C   UNL A   1      40.055  20.713  26.584  1.00  0.00     0.338 C 
ATOM     31  O   UNL A   1      40.519  19.708  27.095  1.00  0.00    -0.246 OA
BRANCH  30  32
ATOM     32  C   UNL A   1      40.388  22.070  27.031  1.00  0.00     0.060 A 
ATOM     33  C   UNL A   1      39.805  23.141  26.356  1.00  0.00     0.016 A 
ATOM     34  C   UNL A   1      41.339  22.290  28.024  1.00  0.00     0.016 A 
ATOM     35  C   UNL A   1      40.239  24.439  26.598  1.00  0.00     0.010 A 
ATOM     36  C   UNL A   1      41.717  23.603  28.322  1.00  0.00     0.010 A 
ATOM     37  C   UNL A   1      41.200  24.687  27.588  1.00  0.00    -0.014 A 
BRANCH  37  38
ATOM     38  C   UNL A   1      41.679  26.074  27.834  1.00  0.00     0.031 A 
ATOM     39  C   UNL A   1      43.056  26.488  27.387  1.00  0.00     0.074 A 
ATOM     40  C   UNL A   1      40.887  26.959  28.470  1.00  0.00     0.049 A 
ATOM     41  N   UNL A   1      43.707  27.594  27.637  1.00  0.00    -0.248 NA
ATOM     42  C   UNL A   1      43.806  25.525  26.562  1.00  0.00     0.031 C 
ATOM     43  C   UNL A   1      39.529  26.690  28.946  1.00  0.00     0.029 A 
ATOM     44  N   UNL A   1      41.114  28.262  28.838  1.00  0.00    -0.354 N 
ATOM     45  C   UNL A   1      44.967  27.431  27.070  1.00  0.00     0.074 A 
ATOM     46  C   UNL A   1      44.984  26.124  26.451  1.00  0.00     0.031 C 
ATOM     47  C   UNL A   1      39.039  27.794  29.529  1.00  0.00     0.029 A 
ATOM     48  C   UNL A   1      40.067  28.829  29.529  1.00  0.00     0.049 A 
ATOM     49  H   UNL A   1      41.946  28.746  28.628  1.00  0.00     0.167 HD
ATOM     50  C   UNL A   1      46.008  28.297  27.059  1.00  0.00     0.034 A 
ATOM     51  C   UNL A   1      39.956  30.031  30.124  1.00  0.00     0.034 A 
ATOM     52  C   UNL A   1      45.958  29.629  27.600  1.00  0.00     0.049 A 
ATOM     53  C   UNL A   1      41.116  30.985  30.069  1.00  0.00     0.074 A 
ATOM     54  C   UNL A   1      46.942  30.601  27.584  1.00  0.00     0.029 A 
ATOM     55  N   UNL A   1      44.860  30.181  28.242  1.00  0.00    -0.354 N 
ATOM     56  N   UNL A   1      42.277  30.836  29.476  1.00  0.00    -0.248 NA
ATOM     57  C   UNL A   1      40.951  32.275  30.753  1.00  0.00     0.031 C 
ATOM     58  C   UNL A   1      46.441  31.742  28.220  1.00  0.00     0.029 A 
ATOM     59  C   UNL A   1      45.142  31.481  28.626  1.00  0.00     0.049 A 
ATOM     60  H   UNL A   1      44.006  29.718  28.401  1.00  0.00     0.167 HD
ATOM     61  C   UNL A   1      42.971  32.019  29.698  1.00  0.00     0.074 A 
ATOM     62  C   UNL A   1      42.091  32.885  30.456  1.00  0.00     0.031 C 
ATOM     63  C   UNL A   1      44.234  32.349  29.331  1.00  0.00     0.034 A 
BRANCH  50  64
ATOM     64  C   UNL A   1      47.290  27.845  26.411  1.00  0.00     0.023 A 
ATOM     65  C   UNL A   1      48.320  27.301  27.204  1.00  0.00     0.012 A 
ATOM     66  C   UNL A   1      47.449  27.899  25.012  1.00  0.00     0.148 A 
ATOM     67  C   UNL A   1      49.500  26.844  26.616  1.00  0.00     0.002 A 
ATOM     68  C   UNL A   1      48.612  27.406  24.430  1.00  0.00     0.091 A 
ATOM     69  F   UNL A   1      46.468  28.443  24.277  1.00  0.00    -0.205 F 
ATOM     70  C   UNL A   1      49.641  26.885  25.231  1.00  0.00     0.022 A 
BRANCH  68  71
ATOM     71  S   UNL A   1      48.848  27.353  22.650  1.00  0.00     0.127 S 
ATOM     72  O   UNL A   1      48.019  28.473  22.208  1.00  0.00    -0.237 OA
ATOM     73  O   UNL A   1      50.290  27.573  22.519  1.00  0.00    -0.237 OA
ATOM     74  O   UNL A   1      48.400  26.032  22.228  1.00  0.00    -0.744 OA
ENDBRANCH  68  71
ENDBRANCH  50  64
BRANCH  51  75
ATOM     75  C   UNL A   1      38.680  30.408  30.797  1.00  0.00     0.023 A 
ATOM     76  C   UNL A   1      38.513  30.126  32.166  1.00  0.00     0.012 A 
ATOM     77  C   UNL A   1      37.659  31.092  30.107  1.00  0.00     0.148 A 
ATOM     78  C   UNL A   1      37.348  30.503  32.833  1.00  0.00     0.002 A 
ATOM     79  C   UNL A   1      36.526  31.518  30.793  1.00  0.00     0.091 A 
ATOM     80  F   UNL A   1      37.821  31.328  28.798  1.00  0.00    -0.205 F 
ATOM     81  C   UNL A   1      36.361  31.213  32.151  1.00  0.00     0.022 A 
BRANCH  79  82
ATOM     82  S   UNL A   1      35.287  32.564  30.018  1.00  0.00     0.127 S 
ATOM     83  O   UNL A   1      34.350  32.783  31.117  1.00  0.00    -0.237 OA
ATOM     84  O   UNL A   1      36.071  33.739  29.634  1.00  0.00    -0.237 OA
ATOM     85  O   UNL A   1      34.782  31.793  28.890  1.00  0.00    -0.744 OA
ENDBRANCH  79  82
ENDBRANCH  51  75
BRANCH  63  86
ATOM     86  C   UNL A   1      44.737  33.712  29.726  1.00  0.00     0.023 A 
ATOM     87  C   UNL A   1      45.442  33.864  30.935  1.00  0.00     0.012 A 
ATOM     88  C   UNL A   1      44.576  34.819  28.871  1.00  0.00     0.148 A 
ATOM     89  C   UNL A   1      45.958  35.106  31.302  1.00  0.00     0.002 A 
ATOM     90  C   UNL A   1      45.127  36.045  29.224  1.00  0.00     0.091 A 
ATOM     91  F   UNL A   1      43.882  34.658  27.736  1.00  0.00    -0.205 F 
ATOM     92  C   UNL A   1      45.810  36.193  30.443  1.00  0.00     0.022 A 
BRANCH  90  93
ATOM     93  S   UNL A   1      45.056  37.473  28.136  1.00  0.00     0.127 S 
ATOM     94  O   UNL A   1      43.639  37.510  27.783  1.00  0.00    -0.237 OA
ATOM     95  O   UNL A   1      45.494  38.560  29.014  1.00  0.00    -0.237 OA
ATOM     96  O   UNL A   1      45.972  37.181  27.041  1.00  0.00    -0.744 OA
ENDBRANCH  90  93
ENDBRANCH  63  86
ENDBRANCH  37  38
ENDBRANCH  30  32
ENDBRANCH  29  30
ENDBRANCH  28  29
ENDBRANCH   1  28
TORSDOF 17
ENDMDL
MODEL 3
REMARK VINA RESULT:     -12.6      1.731      2.319
REMARK SMILES C[C@H](C(=O)OCCOC(=O)c1ccc(-c2c3nc(c(-c4cccc(S(=O)(=O)[O-])c4F)c4ccc([nH]4)c(-c4cccc(S(=O)(=O)[O-])c4F)c4nc(c(-c5cccc(S(=O)(=O)[O-])c5F)c5ccc2[nH]5)C=C4)C=C3)cc1)N1C(=O)C[C@@H](N2C(=O)/C(=C/c3ccccc3)SC2=S)C1=O
REMARK SMILES IDX 6 1 5 2 3 3 4 4 2 5 1 6 74 7 75 8 93 9 76 10 77 11 78 12
REMARK SMILES IDX 94 13 79 14 80 15 91 16 81 17 82 18 90 19 92 20 83 21 84 22
REMARK SMILES IDX 85 23 89 24 86 25 88 26 87 27 7 28 8 29 9 30 10 31 11 32
REMARK SMILES IDX 12 33 73 34 13 35 72 36 14 37 15 38 16 39 66 40 17 41 71 42
REMARK SMILES IDX 65 43 67 44 18 45 70 46 64 47 63 48 19 50 51 51 31 52 50 53
REMARK SMILES IDX 32 54 35 55 49 56 68 57 33 58 34 59 48 61 69 62 36 63 20 64
REMARK SMILES IDX 21 65 29 66 22 67 24 68 30 69 23 70 25 71 26 72 27 73 28 74
REMARK SMILES IDX 52 75 53 76 61 77 54 78 56 79 62 80 55 81 57 82 58 83 59 84
REMARK SMILES IDX 60 85 37 86 38 87 46 88 39 89 41 90 47 91 40 92 42 93 43 94
REMARK SMILES IDX 44 95 45 96
REMARK H PARENT 67 49 35 60
REMARK Flexibility Score: inf
ROOT
ATOM      1  C   UNL A   1      36.894  20.382  24.689  1.00  0.00     0.274 C 
ENDROOT
BRANCH   1   2
ATOM      2  O   UNL A   1      36.905  21.661  24.026  1.00  0.00    -0.461 OA
BRANCH   2   3
ATOM      3  C   UNL A   1      36.429  22.727  24.726  1.00  0.00     0.329 C 
ATOM      4  O   UNL A   1      37.098  23.715  25.011  1.00  0.00    -0.250 OA
BRANCH   3   5
ATOM      5  C   UNL A   1      34.974  22.546  25.194  1.00  0.00     0.200 C 
ATOM      6  C   UNL A   1      34.698  23.454  26.393  1.00  0.00     0.044 C 
BRANCH   5   7
ATOM      7  N   UNL A   1      33.980  22.628  24.119  1.00  0.00    -0.267 N 
ATOM      8  C   UNL A   1      32.906  21.774  24.103  1.00  0.00     0.232 C 
ATOM      9  C   UNL A   1      33.842  23.640  23.202  1.00  0.00     0.253 C 
ATOM     10  O   UNL A   1      32.685  20.852  24.876  1.00  0.00    -0.274 OA
ATOM     11  C   UNL A   1      32.015  22.117  22.949  1.00  0.00     0.136 C 
ATOM     12  C   UNL A   1      32.481  23.504  22.547  1.00  0.00     0.191 C 
ATOM     13  O   UNL A   1      34.561  24.614  23.031  1.00  0.00    -0.272 OA
BRANCH  12  14
ATOM     14  N   UNL A   1      31.604  24.608  23.004  1.00  0.00    -0.280 N 
ATOM     15  C   UNL A   1      31.431  25.723  22.200  1.00  0.00     0.266 C 
ATOM     16  C   UNL A   1      30.937  24.635  24.212  1.00  0.00     0.149 C 
ATOM     17  O   UNL A   1      31.928  25.899  21.097  1.00  0.00    -0.268 OA
ATOM     18  C   UNL A   1      30.580  26.735  22.864  1.00  0.00     0.081 C 
ATOM     19  S   UNL A   1      30.051  26.152  24.382  1.00  0.00    -0.054 SA
ATOM     20  S   UNL A   1      30.959  23.498  25.431  1.00  0.00    -0.052 S 
ATOM     21  C   UNL A   1      30.355  27.919  22.280  1.00  0.00     0.029 C 
BRANCH  21  22
ATOM     22  C   UNL A   1      29.634  29.060  22.846  1.00  0.00    -0.024 A 
ATOM     23  C   UNL A   1      28.323  29.324  22.437  1.00  0.00     0.008 A 
ATOM     24  C   UNL A   1      30.272  29.945  23.723  1.00  0.00     0.008 A 
ATOM     25  C   UNL A   1      27.652  30.450  22.918  1.00  0.00     0.001 A 
ATOM     26  C   UNL A   1      29.600  31.071  24.201  1.00  0.00     0.001 A 
ATOM     27  C   UNL A   1      28.290  31.323  23.799  1.00  0.00     0.000 A 
ENDBRANCH  21  22
ENDBRANCH  12  14
ENDBRANCH   5   7
ENDBRANCH   3   5
ENDBRANCH   2   3
ENDBRANCH   1   2
BRANCH   1  28
ATOM     28  C   UNL A   1      38.303  20.003  25.139  1.00  0.00     0.275 C 
BRANCH  28  29
ATOM     29  O   UNL A   1      38.710  20.815  26.254  1.00  0.00    -0.458 OA
BRANCH  29  30
ATOM     30  C   UNL A   1      40.034  20.780  26.529  1.00  0.00     0.338 C 
ATOM     31  O   UNL A   1      40.820  19.877  26.293  1.00  0.00    -0.246 OA
BRANCH  30  32
ATOM     32  C   UNL A   1      40.443  22.088  27.053  1.00  0.00     0.060 A 
ATOM     33  C   UNL A   1      39.930  23.227  26.436  1.00  0.00     0.016 A 
ATOM     34  C   UNL A   1      41.398  22.195  28.060  1.00  0.00     0.016 A 
ATOM     35  C   UNL A   1      40.439  24.481  26.753  1.00  0.00     0.010 A 
ATOM     36  C   UNL A   1      41.851  23.464  28.434  1.00  0.00     0.010 A 
ATOM     37  C   UNL A   1      41.405  24.616  27.760  1.00  0.00    -0.014 A 
BRANCH  37  38
ATOM     38  C   UNL A   1      41.964  25.956  28.085  1.00  0.00     0.031 A 
ATOM     39  C   UNL A   1      41.115  26.977  28.795  1.00  0.00     0.074 A 
ATOM     40  C   UNL A   1      43.228  26.264  27.732  1.00  0.00     0.049 A 
ATOM     41  N   UNL A   1      41.366  28.238  29.033  1.00  0.00    -0.248 NA
ATOM     42  C   UNL A   1      39.803  26.525  29.289  1.00  0.00     0.031 C 
ATOM     43  C   UNL A   1      44.159  25.363  27.051  1.00  0.00     0.029 A 
ATOM     44  N   UNL A   1      43.944  27.425  27.888  1.00  0.00    -0.354 N 
ATOM     45  C   UNL A   1      40.220  28.749  29.632  1.00  0.00     0.074 A 
ATOM     46  C   UNL A   1      39.276  27.658  29.734  1.00  0.00     0.031 C 
ATOM     47  C   UNL A   1      45.325  25.998  26.859  1.00  0.00     0.029 A 
ATOM     48  C   UNL A   1      45.206  27.368  27.343  1.00  0.00     0.049 A 
ATOM     49  H   UNL A   1      43.589  28.221  28.346  1.00  0.00     0.167 HD
ATOM     50  C   UNL A   1      39.982  30.009  30.066  1.00  0.00     0.034 A 
ATOM     51  C   UNL A   1      46.151  28.320  27.215  1.00  0.00     0.034 A 
ATOM     52  C   UNL A   1      40.955  31.069  30.042  1.00  0.00     0.049 A 
ATOM     53  C   UNL A   1      45.872  29.702  27.735  1.00  0.00     0.074 A 
ATOM     54  C   UNL A   1      40.827  32.364  30.514  1.00  0.00     0.029 A 
ATOM     55  N   UNL A   1      42.238  30.955  29.532  1.00  0.00    -0.354 N 
ATOM     56  N   UNL A   1      44.805  30.150  28.353  1.00  0.00    -0.248 NA
ATOM     57  C   UNL A   1      46.927  30.708  27.551  1.00  0.00     0.031 C 
ATOM     58  C   UNL A   1      42.033  33.035  30.285  1.00  0.00     0.029 A 
ATOM     59  C   UNL A   1      42.914  32.154  29.677  1.00  0.00     0.049 A 
ATOM     60  H   UNL A   1      42.615  30.140  29.127  1.00  0.00     0.167 HD
ATOM     61  C   UNL A   1      45.068  31.481  28.649  1.00  0.00     0.074 A 
ATOM     62  C   UNL A   1      46.406  31.761  28.169  1.00  0.00     0.031 C 
ATOM     63  C   UNL A   1      44.265  32.399  29.243  1.00  0.00     0.034 A 
BRANCH  50  64
ATOM     64  C   UNL A   1      38.622  30.310  30.638  1.00  0.00     0.023 A 
ATOM     65  C   UNL A   1      38.321  29.931  31.961  1.00  0.00     0.012 A 
ATOM     66  C   UNL A   1      37.666  31.022  29.887  1.00  0.00     0.148 A 
ATOM     67  C   UNL A   1      37.079  30.233  32.519  1.00  0.00     0.002 A 
ATOM     68  C   UNL A   1      36.444  31.354  30.463  1.00  0.00     0.091 A 
ATOM     69  F   UNL A   1      37.962  31.351  28.622  1.00  0.00    -0.205 F 
ATOM     70  C   UNL A   1      36.147  30.954  31.776  1.00  0.00     0.022 A 
BRANCH  68  71
ATOM     71  S   UNL A   1      35.214  32.342  29.605  1.00  0.00     0.127 S 
ATOM     72  O   UNL A   1      34.269  32.638  30.681  1.00  0.00    -0.237 OA
ATOM     73  O   UNL A   1      35.998  33.491  29.149  1.00  0.00    -0.237 OA
ATOM     74  O   UNL A   1      34.704  31.498  28.533  1.00  0.00    -0.744 OA
ENDBRANCH  68  71
ENDBRANCH  50  64
BRANCH  51  75
ATOM     75  C   UNL A   1      47.463  27.980  26.594  1.00  0.00     0.023 A 
ATOM     76  C   UNL A   1      48.563  27.688  27.423  1.00  0.00     0.012 A 
ATOM     77  C   UNL A   1      47.614  27.890  25.196  1.00  0.00     0.148 A 
ATOM     78  C   UNL A   1      49.792  27.327  26.872  1.00  0.00     0.002 A 
ATOM     79  C   UNL A   1      48.825  27.472  24.656  1.00  0.00     0.091 A 
ATOM     80  F   UNL A   1      46.565  28.199  24.421  1.00  0.00    -0.205 F 
ATOM     81  C   UNL A   1      49.920  27.203  25.490  1.00  0.00     0.022 A 
BRANCH  79  82
ATOM     82  S   UNL A   1      49.018  27.146  22.899  1.00  0.00     0.127 S 
ATOM     83  O   UNL A   1      48.444  28.349  22.305  1.00  0.00    -0.237 OA
ATOM     84  O   UNL A   1      50.471  27.026  22.765  1.00  0.00    -0.237 OA
ATOM     85  O   UNL A   1      48.295  25.904  22.656  1.00  0.00    -0.744 OA
ENDBRANCH  79  82
ENDBRANCH  51  75
BRANCH  63  86
ATOM     86  C   UNL A   1      44.815  33.788  29.424  1.00  0.00     0.023 A 
ATOM     87  C   UNL A   1      45.545  34.096  30.588  1.00  0.00     0.012 A 
ATOM     88  C   UNL A   1      44.674  34.760  28.416  1.00  0.00     0.148 A 
ATOM     89  C   UNL A   1      46.104  35.361  30.760  1.00  0.00     0.002 A 
ATOM     90  C   UNL A   1      45.268  36.007  28.575  1.00  0.00     0.091 A 
ATOM     91  F   UNL A   1      43.956  34.454  27.325  1.00  0.00    -0.205 F 
ATOM     92  C   UNL A   1      45.975  36.312  29.749  1.00  0.00     0.022 A 
BRANCH  90  93
ATOM     93  S   UNL A   1      45.221  37.258  27.287  1.00  0.00     0.127 S 
ATOM     94  O   UNL A   1      45.846  38.398  27.953  1.00  0.00    -0.237 OA
ATOM     95  O   UNL A   1      46.032  36.651  26.229  1.00  0.00    -0.237 OA
ATOM     96  O   UNL A   1      43.814  37.421  26.944  1.00  0.00    -0.744 OA
ENDBRANCH  90  93
ENDBRANCH  63  86
ENDBRANCH  37  38
ENDBRANCH  30  32
ENDBRANCH  29  30
ENDBRANCH  28  29
ENDBRANCH   1  28
TORSDOF 17
ENDMDL
