MODEL 1
REMARK VINA RESULT:     -11.5      0.000      0.000
REMARK SMILES O=C(OCCOC(=O)c1cccn1C[C@@H]1C[N@H+]2CCC[C@@H]2CO1)c1ccc(-c2c3nc(c(-c4cccc(S(=O)(=O)[O-])c4F)c4ccc([nH]4)c(-c4cccc(S(=O)(=O)[O-])c4F)c4nc(c(-c5cccc(S(=O)(=O)[O-])c5F)c5ccc2[nH]5)C=C4)C=C3)cc1
REMARK SMILES IDX 4 1 3 2 2 3 1 4 24 5 25 6 86 7 26 8 85 9 27 10 28 11 29 12
REMARK SMILES IDX 79 13 30 14 84 15 78 16 80 17 31 18 83 19 77 20 76 21 32 23
REMARK SMILES IDX 64 24 44 25 63 26 45 27 48 28 62 29 81 30 46 31 47 32 61 34
REMARK SMILES IDX 82 35 49 36 33 37 34 38 42 39 35 40 37 41 43 42 36 43 38 44
REMARK SMILES IDX 39 45 40 46 41 47 65 48 66 49 74 50 67 51 69 52 75 53 68 54
REMARK SMILES IDX 70 55 71 56 72 57 73 58 50 59 51 60 59 61 52 62 54 63 60 64
REMARK SMILES IDX 53 65 55 66 56 67 57 68 58 69 5 70 6 71 7 72 8 73 9 74 10 75
REMARK SMILES IDX 13 76 11 77 12 78 14 79 15 80 16 81 23 82 17 83 22 84 18 85
REMARK SMILES IDX 21 86 19 88 20 89
REMARK H PARENT 80 22 48 33 17 87
REMARK Flexibility Score: inf
ROOT
ATOM      1  C   UNL A   1      39.328  20.248  25.778  1.00  0.00     0.275 C 
ENDROOT
BRANCH   1   2
ATOM      2  O   UNL A   1      40.708  20.542  25.585  1.00  0.00    -0.458 OA
BRANCH   2   3
ATOM      3  C   UNL A   1      41.693  19.674  25.947  1.00  0.00     0.338 C 
ATOM      4  O   UNL A   1      41.449  18.483  25.866  1.00  0.00    -0.246 OA
BRANCH   3   5
ATOM      5  C   UNL A   1      43.081  20.280  26.256  1.00  0.00     0.060 A 
ATOM      6  C   UNL A   1      42.605  21.279  27.551  1.00  0.00     0.016 A 
ATOM      7  C   UNL A   1      44.023  21.084  24.938  1.00  0.00     0.016 A 
ATOM      8  C   UNL A   1      42.705  22.924  27.596  1.00  0.00     0.010 A 
ATOM      9  C   UNL A   1      44.050  23.079  25.005  1.00  0.00     0.010 A 
ATOM     10  C   UNL A   1      43.380  23.871  26.410  1.00  0.00    -0.014 A 
BRANCH  10  11
ATOM     11  C   UNL A   1      43.903  25.193  26.981  1.00  0.00     0.031 A 
ATOM     12  C   UNL A   1      42.823  26.365  26.953  1.00  0.00     0.074 A 
ATOM     13  C   UNL A   1      45.238  25.253  27.360  1.00  0.00     0.049 A 
ATOM     14  N   UNL A   1      42.547  27.159  27.942  1.00  0.00    -0.248 NA
ATOM     15  C   UNL A   1      41.799  26.613  25.882  1.00  0.00     0.031 C 
ATOM     16  C   UNL A   1      46.220  24.138  27.378  1.00  0.00     0.029 A 
ATOM     17  N   UNL A   1      46.058  26.275  27.827  1.00  0.00    -0.354 N 
ATOM     18  C   UNL A   1      41.258  27.696  27.767  1.00  0.00     0.074 A 
ATOM     19  C   UNL A   1      40.795  27.260  26.499  1.00  0.00     0.031 C 
ATOM     20  C   UNL A   1      47.483  24.560  27.676  1.00  0.00     0.029 A 
ATOM     21  C   UNL A   1      47.472  25.980  27.986  1.00  0.00     0.049 A 
ATOM     22  H   UNL A   1      45.694  27.165  28.043  1.00  0.00     0.167 HD
ATOM     23  C   UNL A   1      40.711  28.582  28.645  1.00  0.00     0.034 A 
ATOM     24  C   UNL A   1      48.490  26.866  28.337  1.00  0.00     0.034 A 
ATOM     25  C   UNL A   1      41.754  29.384  29.178  1.00  0.00     0.049 A 
ATOM     26  C   UNL A   1      47.713  27.907  28.998  1.00  0.00     0.074 A 
ATOM     27  C   UNL A   1      42.453  30.360  28.509  1.00  0.00     0.029 A 
ATOM     28  N   UNL A   1      42.511  28.849  30.185  1.00  0.00    -0.354 N 
ATOM     29  N   UNL A   1      47.132  27.745  30.150  1.00  0.00    -0.248 NA
ATOM     30  C   UNL A   1      47.405  29.110  28.235  1.00  0.00     0.031 C 
ATOM     31  C   UNL A   1      43.737  29.828  28.632  1.00  0.00     0.029 A 
ATOM     32  C   UNL A   1      43.812  29.048  29.791  1.00  0.00     0.049 A 
ATOM     33  H   UNL A   1      42.192  28.416  31.010  1.00  0.00     0.167 HD
ATOM     34  C   UNL A   1      46.105  28.638  30.059  1.00  0.00     0.074 A 
ATOM     35  C   UNL A   1      46.507  29.626  29.064  1.00  0.00     0.031 C 
ATOM     36  C   UNL A   1      44.842  28.284  30.416  1.00  0.00     0.034 A 
BRANCH  23  37
ATOM     37  C   UNL A   1      39.338  28.917  29.115  1.00  0.00     0.023 A 
ATOM     38  C   UNL A   1      38.663  29.932  28.384  1.00  0.00     0.012 A 
ATOM     39  C   UNL A   1      39.059  28.778  30.483  1.00  0.00     0.148 A 
ATOM     40  C   UNL A   1      37.915  30.913  29.031  1.00  0.00     0.002 A 
ATOM     41  C   UNL A   1      38.250  29.723  31.111  1.00  0.00     0.091 A 
ATOM     42  F   UNL A   1      39.701  27.823  31.170  1.00  0.00    -0.205 F 
ATOM     43  C   UNL A   1      37.729  30.820  30.399  1.00  0.00     0.022 A 
BRANCH  41  44
ATOM     44  S   UNL A   1      37.852  29.664  32.856  1.00  0.00     0.127 S 
ATOM     45  O   UNL A   1      39.118  30.050  33.473  1.00  0.00    -0.237 OA
ATOM     46  O   UNL A   1      36.799  30.679  32.944  1.00  0.00    -0.237 OA
ATOM     47  O   UNL A   1      37.394  28.305  33.108  1.00  0.00    -0.744 OA
ENDBRANCH  41  44
ENDBRANCH  23  37
BRANCH  24  48
ATOM     48  C   UNL A   1      50.010  27.171  28.336  1.00  0.00     0.023 A 
ATOM     49  C   UNL A   1      50.790  27.507  29.448  1.00  0.00     0.012 A 
ATOM     50  C   UNL A   1      50.778  26.949  27.124  1.00  0.00     0.148 A 
ATOM     51  C   UNL A   1      52.215  27.485  29.382  1.00  0.00     0.002 A 
ATOM     52  C   UNL A   1      52.162  26.764  27.104  1.00  0.00     0.091 A 
ATOM     53  F   UNL A   1      50.176  27.000  25.931  1.00  0.00    -0.205 F 
ATOM     54  C   UNL A   1      52.896  27.044  28.242  1.00  0.00     0.022 A 
BRANCH  52  55
ATOM     55  S   UNL A   1      53.014  25.998  25.693  1.00  0.00     0.127 S 
ATOM     56  O   UNL A   1      54.338  26.612  25.744  1.00  0.00    -0.237 OA
ATOM     57  O   UNL A   1      52.984  24.583  26.065  1.00  0.00    -0.237 OA
ATOM     58  O   UNL A   1      52.226  26.323  24.512  1.00  0.00    -0.744 OA
ENDBRANCH  52  55
ENDBRANCH  24  48
BRANCH  36  59
ATOM     59  C   UNL A   1      44.647  27.076  31.334  1.00  0.00     0.023 A 
ATOM     60  C   UNL A   1      44.615  25.831  30.680  1.00  0.00     0.012 A 
ATOM     61  C   UNL A   1      44.488  27.066  32.752  1.00  0.00     0.148 A 
ATOM     62  C   UNL A   1      44.452  24.632  31.379  1.00  0.00     0.002 A 
ATOM     63  C   UNL A   1      44.298  25.861  33.450  1.00  0.00     0.091 A 
ATOM     64  F   UNL A   1      44.533  28.215  33.425  1.00  0.00    -0.205 F 
ATOM     65  C   UNL A   1      44.296  24.644  32.759  1.00  0.00     0.022 A 
BRANCH  63  66
ATOM     66  S   UNL A   1      43.990  25.728  35.233  1.00  0.00     0.127 S 
ATOM     67  O   UNL A   1      45.097  26.507  35.797  1.00  0.00    -0.237 OA
ATOM     68  O   UNL A   1      42.685  26.371  35.373  1.00  0.00    -0.237 OA
ATOM     69  O   UNL A   1      44.024  24.308  35.561  1.00  0.00    -0.744 OA
ENDBRANCH  63  66
ENDBRANCH  36  59
ENDBRANCH  10  11
ENDBRANCH   3   5
ENDBRANCH   2   3
ENDBRANCH   1   2
BRANCH   1  70
ATOM     70  C   UNL A   1      38.462  21.503  25.735  1.00  0.00     0.275 C 
BRANCH  70  71
ATOM     71  O   UNL A   1      37.457  21.444  24.707  1.00  0.00    -0.457 OA
BRANCH  71  72
ATOM     72  C   UNL A   1      36.266  20.825  25.019  1.00  0.00     0.355 C 
ATOM     73  O   UNL A   1      36.049  19.629  24.904  1.00  0.00    -0.244 OA
BRANCH  72  74
ATOM     74  C   UNL A   1      35.333  21.827  25.477  1.00  0.00     0.127 A 
ATOM     75  C   UNL A   1      35.102  22.107  26.824  1.00  0.00     0.035 A 
ATOM     76  N   UNL A   1      34.417  22.604  24.735  1.00  0.00    -0.339 N 
ATOM     77  C   UNL A   1      34.277  23.238  26.904  1.00  0.00     0.020 A 
ATOM     78  C   UNL A   1      33.982  23.606  25.606  1.00  0.00     0.086 A 
BRANCH  76  79
ATOM     79  C   UNL A   1      33.792  22.337  23.378  1.00  0.00     0.160 C 
BRANCH  79  80
ATOM     80  C   UNL A   1      32.147  21.638  23.098  1.00  0.00     0.193 C 
ATOM     81  C   UNL A   1      32.168  20.510  24.582  1.00  0.00     0.296 C 
ATOM     82  O   UNL A   1      31.714  20.770  21.435  1.00  0.00    -0.364 OA
ATOM     83  N   UNL A   1      32.858  19.088  24.451  1.00  0.00    -0.328 N 
ATOM     84  C   UNL A   1      32.240  18.747  21.365  1.00  0.00     0.225 C 
ATOM     85  C   UNL A   1      32.920  18.229  25.614  1.00  0.00     0.262 C 
ATOM     86  C   UNL A   1      32.550  18.070  23.188  1.00  0.00     0.210 C 
ATOM     87  H   UNL A   1      33.741  19.564  24.268  1.00  0.00     0.348 HD
ATOM     88  C   UNL A   1      33.548  16.940  25.028  1.00  0.00     0.068 C 
ATOM     89  C   UNL A   1      33.664  17.097  23.484  1.00  0.00     0.073 C 
ENDBRANCH  79  80
ENDBRANCH  76  79
ENDBRANCH  72  74
ENDBRANCH  71  72
ENDBRANCH  70  71
ENDBRANCH   1  70
TORSDOF 16
ENDMDL
MODEL 2
REMARK VINA RESULT:     -11.5      1.419      2.881
REMARK SMILES O=C(OCCOC(=O)c1cccn1C[C@@H]1C[N@H+]2CCC[C@@H]2CO1)c1ccc(-c2c3nc(c(-c4cccc(S(=O)(=O)[O-])c4F)c4ccc([nH]4)c(-c4cccc(S(=O)(=O)[O-])c4F)c4nc(c(-c5cccc(S(=O)(=O)[O-])c5F)c5ccc2[nH]5)C=C4)C=C3)cc1
REMARK SMILES IDX 4 1 3 2 2 3 1 4 24 5 25 6 86 7 26 8 85 9 27 10 28 11 29 12
REMARK SMILES IDX 79 13 30 14 84 15 78 16 80 17 31 18 83 19 77 20 76 21 32 23
REMARK SMILES IDX 64 24 44 25 63 26 45 27 48 28 62 29 81 30 46 31 47 32 61 34
REMARK SMILES IDX 82 35 49 36 33 37 34 38 42 39 35 40 37 41 43 42 36 43 38 44
REMARK SMILES IDX 39 45 40 46 41 47 65 48 66 49 74 50 67 51 69 52 75 53 68 54
REMARK SMILES IDX 70 55 71 56 72 57 73 58 50 59 51 60 59 61 52 62 54 63 60 64
REMARK SMILES IDX 53 65 55 66 56 67 57 68 58 69 5 70 6 71 7 72 8 73 9 74 10 75
REMARK SMILES IDX 13 76 11 77 12 78 14 79 15 80 16 81 23 82 17 83 22 84 18 85
REMARK SMILES IDX 21 86 19 88 20 89
REMARK H PARENT 80 22 48 33 17 87
REMARK Flexibility Score: inf
ROOT
ATOM      1  C   UNL A   1      39.365  19.962  25.480  1.00  0.00     0.275 C 
ENDROOT
BRANCH   1   2
ATOM      2  O   UNL A   1      40.623  20.375  26.006  1.00  0.00    -0.458 OA
BRANCH   2   3
ATOM      3  C   UNL A   1      41.675  19.520  26.127  1.00  0.00     0.338 C 
ATOM      4  O   UNL A   1      41.494  18.358  25.806  1.00  0.00    -0.246 OA
BRANCH   3   5
ATOM      5  C   UNL A   1      43.044  20.141  26.492  1.00  0.00     0.060 A 
ATOM      6  C   UNL A   1      42.488  21.217  27.690  1.00  0.00     0.016 A 
ATOM      7  C   UNL A   1      44.075  20.862  25.194  1.00  0.00     0.016 A 
ATOM      8  C   UNL A   1      42.595  22.861  27.643  1.00  0.00     0.010 A 
ATOM      9  C   UNL A   1      44.110  22.857  25.143  1.00  0.00     0.010 A 
ATOM     10  C   UNL A   1      43.353  23.734  26.450  1.00  0.00    -0.014 A 
BRANCH  10  11
ATOM     11  C   UNL A   1      43.845  25.086  26.975  1.00  0.00     0.031 A 
ATOM     12  C   UNL A   1      42.727  26.223  26.938  1.00  0.00     0.074 A 
ATOM     13  C   UNL A   1      45.184  25.199  27.323  1.00  0.00     0.049 A 
ATOM     14  N   UNL A   1      42.445  27.034  27.911  1.00  0.00    -0.248 NA
ATOM     15  C   UNL A   1      41.674  26.409  25.883  1.00  0.00     0.031 C 
ATOM     16  C   UNL A   1      46.201  24.116  27.350  1.00  0.00     0.029 A 
ATOM     17  N   UNL A   1      45.980  26.259  27.746  1.00  0.00    -0.354 N 
ATOM     18  C   UNL A   1      41.137  27.526  27.750  1.00  0.00     0.074 A 
ATOM     19  C   UNL A   1      40.662  27.040  26.503  1.00  0.00     0.031 C 
ATOM     20  C   UNL A   1      47.456  24.586  27.610  1.00  0.00     0.029 A 
ATOM     21  C   UNL A   1      47.406  26.013  27.882  1.00  0.00     0.049 A 
ATOM     22  H   UNL A   1      45.592  27.142  27.945  1.00  0.00     0.167 HD
ATOM     23  C   UNL A   1      40.580  28.417  28.614  1.00  0.00     0.034 A 
ATOM     24  C   UNL A   1      48.402  26.940  28.188  1.00  0.00     0.034 A 
ATOM     25  C   UNL A   1      41.607  29.266  29.104  1.00  0.00     0.049 A 
ATOM     26  C   UNL A   1      47.605  27.973  28.838  1.00  0.00     0.074 A 
ATOM     27  C   UNL A   1      42.260  30.245  28.395  1.00  0.00     0.029 A 
ATOM     28  N   UNL A   1      42.400  28.783  30.109  1.00  0.00    -0.354 N 
ATOM     29  N   UNL A   1      47.053  27.825  30.006  1.00  0.00    -0.248 NA
ATOM     30  C   UNL A   1      47.244  29.145  28.050  1.00  0.00     0.031 C 
ATOM     31  C   UNL A   1      43.563  29.758  28.504  1.00  0.00     0.029 A 
ATOM     32  C   UNL A   1      43.686  29.012  29.683  1.00  0.00     0.049 A 
ATOM     33  H   UNL A   1      42.113  28.363  30.952  1.00  0.00     0.167 HD
ATOM     34  C   UNL A   1      45.997  28.682  29.912  1.00  0.00     0.074 A 
ATOM     35  C   UNL A   1      46.346  29.655  28.883  1.00  0.00     0.031 C 
ATOM     36  C   UNL A   1      44.753  28.298  30.305  1.00  0.00     0.034 A 
BRANCH  23  37
ATOM     37  C   UNL A   1      39.206  28.722  29.105  1.00  0.00     0.023 A 
ATOM     38  C   UNL A   1      38.453  29.632  28.314  1.00  0.00     0.012 A 
ATOM     39  C   UNL A   1      38.979  28.689  30.489  1.00  0.00     0.148 A 
ATOM     40  C   UNL A   1      37.675  30.626  28.901  1.00  0.00     0.002 A 
ATOM     41  C   UNL A   1      38.141  29.643  31.062  1.00  0.00     0.091 A 
ATOM     42  F   UNL A   1      39.695  27.833  31.232  1.00  0.00    -0.205 F 
ATOM     43  C   UNL A   1      37.538  30.644  30.279  1.00  0.00     0.022 A 
BRANCH  41  44
ATOM     44  S   UNL A   1      37.804  29.718  32.820  1.00  0.00     0.127 S 
ATOM     45  O   UNL A   1      37.348  28.360  33.104  1.00  0.00    -0.237 OA
ATOM     46  O   UNL A   1      39.129  30.038  33.353  1.00  0.00    -0.237 OA
ATOM     47  O   UNL A   1      36.822  30.781  32.985  1.00  0.00    -0.744 OA
ENDBRANCH  41  44
ENDBRANCH  23  37
BRANCH  24  48
ATOM     48  C   UNL A   1      49.910  27.293  28.147  1.00  0.00     0.023 A 
ATOM     49  C   UNL A   1      50.653  27.885  29.174  1.00  0.00     0.012 A 
ATOM     50  C   UNL A   1      50.714  26.848  27.022  1.00  0.00     0.148 A 
ATOM     51  C   UNL A   1      52.079  27.900  29.138  1.00  0.00     0.002 A 
ATOM     52  C   UNL A   1      52.103  26.712  27.064  1.00  0.00     0.091 A 
ATOM     53  F   UNL A   1      50.138  26.623  25.836  1.00  0.00    -0.205 F 
ATOM     54  C   UNL A   1      52.801  27.253  28.128  1.00  0.00     0.022 A 
BRANCH  52  55
ATOM     55  S   UNL A   1      53.012  25.696  25.862  1.00  0.00     0.127 S 
ATOM     56  O   UNL A   1      52.251  24.449  25.853  1.00  0.00    -0.237 OA
ATOM     57  O   UNL A   1      52.882  26.498  24.644  1.00  0.00    -0.237 OA
ATOM     58  O   UNL A   1      54.374  25.587  26.365  1.00  0.00    -0.744 OA
ENDBRANCH  52  55
ENDBRANCH  24  48
BRANCH  36  59
ATOM     59  C   UNL A   1      44.615  27.110  31.259  1.00  0.00     0.023 A 
ATOM     60  C   UNL A   1      44.493  25.856  30.633  1.00  0.00     0.012 A 
ATOM     61  C   UNL A   1      44.589  27.126  32.685  1.00  0.00     0.148 A 
ATOM     62  C   UNL A   1      44.366  24.673  31.366  1.00  0.00     0.002 A 
ATOM     63  C   UNL A   1      44.436  25.937  33.419  1.00  0.00     0.091 A 
ATOM     64  F   UNL A   1      44.725  28.285  33.331  1.00  0.00    -0.205 F 
ATOM     65  C   UNL A   1      44.340  24.710  32.754  1.00  0.00     0.022 A 
BRANCH  63  66
ATOM     66  S   UNL A   1      44.294  25.840  35.226  1.00  0.00     0.127 S 
ATOM     67  O   UNL A   1      43.522  27.045  35.541  1.00  0.00    -0.237 OA
ATOM     68  O   UNL A   1      43.548  24.597  35.413  1.00  0.00    -0.237 OA
ATOM     69  O   UNL A   1      45.652  25.839  35.756  1.00  0.00    -0.744 OA
ENDBRANCH  63  66
ENDBRANCH  36  59
ENDBRANCH  10  11
ENDBRANCH   3   5
ENDBRANCH   2   3
ENDBRANCH   1   2
BRANCH   1  70
ATOM     70  C   UNL A   1      38.359  21.107  25.430  1.00  0.00     0.275 C 
BRANCH  70  71
ATOM     71  O   UNL A   1      37.026  20.657  25.134  1.00  0.00    -0.457 OA
BRANCH  71  72
ATOM     72  C   UNL A   1      35.980  21.446  25.561  1.00  0.00     0.355 C 
ATOM     73  O   UNL A   1      36.100  22.474  26.208  1.00  0.00    -0.244 OA
BRANCH  72  74
ATOM     74  C   UNL A   1      34.742  20.841  25.131  1.00  0.00     0.127 A 
ATOM     75  C   UNL A   1      34.634  19.509  24.727  1.00  0.00     0.035 A 
ATOM     76  N   UNL A   1      33.481  21.437  24.913  1.00  0.00    -0.339 N 
ATOM     77  C   UNL A   1      33.276  19.213  24.545  1.00  0.00     0.020 A 
ATOM     78  C   UNL A   1      32.578  20.377  24.800  1.00  0.00     0.086 A 
BRANCH  76  79
ATOM     79  C   UNL A   1      33.130  22.882  24.604  1.00  0.00     0.160 C 
BRANCH  79  80
ATOM     80  C   UNL A   1      34.145  24.025  23.638  1.00  0.00     0.193 C 
ATOM     81  C   UNL A   1      34.349  25.286  24.996  1.00  0.00     0.296 C 
ATOM     82  O   UNL A   1      33.509  24.740  21.968  1.00  0.00    -0.364 OA
ATOM     83  N   UNL A   1      33.215  26.376  25.205  1.00  0.00    -0.328 N 
ATOM     84  C   UNL A   1      32.326  26.454  22.167  1.00  0.00     0.225 C 
ATOM     85  C   UNL A   1      33.345  27.326  26.288  1.00  0.00     0.262 C 
ATOM     86  C   UNL A   1      32.588  27.248  23.950  1.00  0.00     0.210 C 
ATOM     87  H   UNL A   1      32.566  25.619  25.421  1.00  0.00     0.348 HD
ATOM     88  C   UNL A   1      32.121  28.245  26.058  1.00  0.00     0.068 C 
ATOM     89  C   UNL A   1      31.435  27.841  24.721  1.00  0.00     0.073 C 
ENDBRANCH  79  80
ENDBRANCH  76  79
ENDBRANCH  72  74
ENDBRANCH  71  72
ENDBRANCH  70  71
ENDBRANCH   1  70
TORSDOF 16
ENDMDL
MODEL 3
REMARK VINA RESULT:     -11.4      5.631     10.921
REMARK SMILES O=C(OCCOC(=O)c1cccn1C[C@@H]1C[N@H+]2CCC[C@@H]2CO1)c1ccc(-c2c3nc(c(-c4cccc(S(=O)(=O)[O-])c4F)c4ccc([nH]4)c(-c4cccc(S(=O)(=O)[O-])c4F)c4nc(c(-c5cccc(S(=O)(=O)[O-])c5F)c5ccc2[nH]5)C=C4)C=C3)cc1
REMARK SMILES IDX 4 1 3 2 2 3 1 4 24 5 25 6 86 7 26 8 85 9 27 10 28 11 29 12
REMARK SMILES IDX 79 13 30 14 84 15 78 16 80 17 31 18 83 19 77 20 76 21 32 23
REMARK SMILES IDX 64 24 44 25 63 26 45 27 48 28 62 29 81 30 46 31 47 32 61 34
REMARK SMILES IDX 82 35 49 36 33 37 34 38 42 39 35 40 37 41 43 42 36 43 38 44
REMARK SMILES IDX 39 45 40 46 41 47 65 48 66 49 74 50 67 51 69 52 75 53 68 54
REMARK SMILES IDX 70 55 71 56 72 57 73 58 50 59 51 60 59 61 52 62 54 63 60 64
REMARK SMILES IDX 53 65 55 66 56 67 57 68 58 69 5 70 6 71 7 72 8 73 9 74 10 75
REMARK SMILES IDX 13 76 11 77 12 78 14 79 15 80 16 81 23 82 17 83 22 84 18 85
REMARK SMILES IDX 21 86 19 88 20 89
REMARK H PARENT 80 22 48 33 17 87
REMARK Flexibility Score: inf
ROOT
ATOM      1  C   UNL A   1      33.675  32.203  27.524  1.00  0.00     0.275 C 
ENDROOT
BRANCH   1   2
ATOM      2  O   UNL A   1      33.306  32.797  28.766  1.00  0.00    -0.458 OA
BRANCH   2   3
ATOM      3  C   UNL A   1      33.349  34.142  28.969  1.00  0.00     0.338 C 
ATOM      4  O   UNL A   1      32.540  34.827  28.368  1.00  0.00    -0.246 OA
BRANCH   3   5
ATOM      5  C   UNL A   1      34.302  34.653  30.074  1.00  0.00     0.060 A 
ATOM      6  C   UNL A   1      35.767  34.215  29.325  1.00  0.00     0.016 A 
ATOM      7  C   UNL A   1      34.083  34.090  31.779  1.00  0.00     0.016 A 
ATOM      8  C   UNL A   1      36.873  33.141  29.909  1.00  0.00     0.010 A 
ATOM      9  C   UNL A   1      35.409  32.737  32.407  1.00  0.00     0.010 A 
ATOM     10  C   UNL A   1      36.776  32.377  31.381  1.00  0.00    -0.014 A 
BRANCH  10  11
ATOM     11  C   UNL A   1      38.164  31.994  31.904  1.00  0.00     0.031 A 
ATOM     12  C   UNL A   1      38.587  30.501  31.537  1.00  0.00     0.074 A 
ATOM     13  C   UNL A   1      38.839  32.917  32.691  1.00  0.00     0.049 A 
ATOM     14  N   UNL A   1      39.732  30.142  31.044  1.00  0.00    -0.248 NA
ATOM     15  C   UNL A   1      37.684  29.301  31.487  1.00  0.00     0.031 C 
ATOM     16  C   UNL A   1      38.419  34.306  33.010  1.00  0.00     0.029 A 
ATOM     17  N   UNL A   1      40.044  32.887  33.386  1.00  0.00    -0.354 N 
ATOM     18  C   UNL A   1      39.593  28.906  30.385  1.00  0.00     0.074 A 
ATOM     19  C   UNL A   1      38.268  28.457  30.620  1.00  0.00     0.031 C 
ATOM     20  C   UNL A   1      39.243  34.905  33.918  1.00  0.00     0.029 A 
ATOM     21  C   UNL A   1      40.357  34.026  34.233  1.00  0.00     0.049 A 
ATOM     22  H   UNL A   1      40.661  32.123  33.307  1.00  0.00     0.167 HD
ATOM     23  C   UNL A   1      40.641  28.275  29.788  1.00  0.00     0.034 A 
ATOM     24  C   UNL A   1      41.444  34.171  35.094  1.00  0.00     0.034 A 
ATOM     25  C   UNL A   1      41.816  28.560  30.533  1.00  0.00     0.049 A 
ATOM     26  C   UNL A   1      42.370  33.209  34.506  1.00  0.00     0.074 A 
ATOM     27  C   UNL A   1      42.130  28.070  31.778  1.00  0.00     0.029 A 
ATOM     28  N   UNL A   1      42.421  29.769  30.321  1.00  0.00    -0.354 N 
ATOM     29  N   UNL A   1      42.953  33.385  33.357  1.00  0.00    -0.248 NA
ATOM     30  C   UNL A   1      42.485  31.904  35.145  1.00  0.00     0.031 C 
ATOM     31  C   UNL A   1      42.233  29.279  32.466  1.00  0.00     0.029 A 
ATOM     32  C   UNL A   1      42.610  30.293  31.577  1.00  0.00     0.049 A 
ATOM     33  H   UNL A   1      42.665  30.176  29.458  1.00  0.00     0.167 HD
ATOM     34  C   UNL A   1      43.169  32.096  32.968  1.00  0.00     0.074 A 
ATOM     35  C   UNL A   1      43.171  31.294  34.187  1.00  0.00     0.031 C 
ATOM     36  C   UNL A   1      42.865  31.690  31.707  1.00  0.00     0.034 A 
BRANCH  23  37
ATOM     37  C   UNL A   1      40.824  27.364  28.623  1.00  0.00     0.023 A 
ATOM     38  C   UNL A   1      40.889  25.977  28.925  1.00  0.00     0.012 A 
ATOM     39  C   UNL A   1      41.544  27.845  27.518  1.00  0.00     0.148 A 
ATOM     40  C   UNL A   1      41.811  25.143  28.296  1.00  0.00     0.002 A 
ATOM     41  C   UNL A   1      42.411  26.986  26.847  1.00  0.00     0.091 A 
ATOM     42  F   UNL A   1      41.483  29.155  27.240  1.00  0.00    -0.205 F 
ATOM     43  C   UNL A   1      42.588  25.656  27.271  1.00  0.00     0.022 A 
BRANCH  41  44
ATOM     44  S   UNL A   1      43.403  27.496  25.446  1.00  0.00     0.127 S 
ATOM     45  O   UNL A   1      44.350  28.422  26.061  1.00  0.00    -0.237 OA
ATOM     46  O   UNL A   1      43.985  26.220  25.027  1.00  0.00    -0.237 OA
ATOM     47  O   UNL A   1      42.465  28.068  24.489  1.00  0.00    -0.744 OA
ENDBRANCH  41  44
ENDBRANCH  23  37
BRANCH  24  48
ATOM     48  C   UNL A   1      42.047  34.899  36.322  1.00  0.00     0.023 A 
ATOM     49  C   UNL A   1      43.320  35.475  36.405  1.00  0.00     0.012 A 
ATOM     50  C   UNL A   1      41.199  35.180  37.467  1.00  0.00     0.148 A 
ATOM     51  C   UNL A   1      43.659  36.362  37.469  1.00  0.00     0.002 A 
ATOM     52  C   UNL A   1      41.471  36.173  38.410  1.00  0.00     0.091 A 
ATOM     53  F   UNL A   1      40.132  34.412  37.714  1.00  0.00    -0.205 F 
ATOM     54  C   UNL A   1      42.719  36.767  38.423  1.00  0.00     0.022 A 
BRANCH  52  55
ATOM     55  S   UNL A   1      40.186  36.839  39.510  1.00  0.00     0.127 S 
ATOM     56  O   UNL A   1      40.859  37.970  40.144  1.00  0.00    -0.237 OA
ATOM     57  O   UNL A   1      39.143  37.209  38.552  1.00  0.00    -0.237 OA
ATOM     58  O   UNL A   1      39.815  35.756  40.411  1.00  0.00    -0.744 OA
ENDBRANCH  52  55
ENDBRANCH  24  48
BRANCH  36  59
ATOM     59  C   UNL A   1      42.725  32.745  30.607  1.00  0.00     0.023 A 
ATOM     60  C   UNL A   1      41.507  33.449  30.611  1.00  0.00     0.012 A 
ATOM     61  C   UNL A   1      43.666  33.086  29.591  1.00  0.00     0.148 A 
ATOM     62  C   UNL A   1      41.228  34.450  29.676  1.00  0.00     0.002 A 
ATOM     63  C   UNL A   1      43.373  34.075  28.636  1.00  0.00     0.091 A 
ATOM     64  F   UNL A   1      44.846  32.467  29.555  1.00  0.00    -0.205 F 
ATOM     65  C   UNL A   1      42.157  34.765  28.693  1.00  0.00     0.022 A 
BRANCH  63  66
ATOM     66  S   UNL A   1      44.446  34.529  27.245  1.00  0.00     0.127 S 
ATOM     67  O   UNL A   1      43.537  35.304  26.394  1.00  0.00    -0.237 OA
ATOM     68  O   UNL A   1      45.475  35.337  27.896  1.00  0.00    -0.237 OA
ATOM     69  O   UNL A   1      44.913  33.283  26.650  1.00  0.00    -0.744 OA
ENDBRANCH  63  66
ENDBRANCH  36  59
ENDBRANCH  10  11
ENDBRANCH   3   5
ENDBRANCH   2   3
ENDBRANCH   1   2
BRANCH   1  70
ATOM     70  C   UNL A   1      32.918  30.906  27.259  1.00  0.00     0.275 C 
BRANCH  70  71
ATOM     71  O   UNL A   1      33.425  30.196  26.116  1.00  0.00    -0.457 OA
BRANCH  71  72
ATOM     72  C   UNL A   1      33.956  28.943  26.331  1.00  0.00     0.355 C 
ATOM     73  O   UNL A   1      34.561  28.605  27.336  1.00  0.00    -0.244 OA
BRANCH  72  74
ATOM     74  C   UNL A   1      33.692  28.126  25.170  1.00  0.00     0.127 A 
ATOM     75  C   UNL A   1      33.598  28.635  23.874  1.00  0.00     0.035 A 
ATOM     76  N   UNL A   1      33.366  26.755  25.095  1.00  0.00    -0.339 N 
ATOM     77  C   UNL A   1      33.508  27.557  22.983  1.00  0.00     0.020 A 
ATOM     78  C   UNL A   1      33.507  26.408  23.749  1.00  0.00     0.086 A 
BRANCH  76  79
ATOM     79  C   UNL A   1      32.747  25.845  26.141  1.00  0.00     0.160 C 
BRANCH  79  80
ATOM     80  C   UNL A   1      32.249  24.126  25.876  1.00  0.00     0.193 C 
ATOM     81  C   UNL A   1      33.866  23.376  26.419  1.00  0.00     0.296 C 
ATOM     82  O   UNL A   1      31.628  23.535  24.152  1.00  0.00    -0.364 OA
ATOM     83  N   UNL A   1      35.047  23.258  25.366  1.00  0.00    -0.328 N 
ATOM     84  C   UNL A   1      33.157  22.963  22.843  1.00  0.00     0.225 C 
ATOM     85  C   UNL A   1      36.320  22.722  25.796  1.00  0.00     0.262 C 
ATOM     86  C   UNL A   1      34.819  22.644  23.850  1.00  0.00     0.210 C 
ATOM     87  H   UNL A   1      35.052  24.276  25.299  1.00  0.00     0.348 HD
ATOM     88  C   UNL A   1      37.116  22.679  24.468  1.00  0.00     0.068 C 
ATOM     89  C   UNL A   1      36.161  23.060  23.300  1.00  0.00     0.073 C 
ENDBRANCH  79  80
ENDBRANCH  76  79
ENDBRANCH  72  74
ENDBRANCH  71  72
ENDBRANCH  70  71
ENDBRANCH   1  70
TORSDOF 16
ENDMDL
