MODEL 1
REMARK VINA RESULT:     -13.6      0.000      0.000
REMARK SMILES O=C(OCCOC(=O)c1cc(Cl)c2c(c1)[C@H]1C=CC[C@H]1[C@H](c1ccc(S(=O)(=O)N3CCOCC3)cc1)N2)c1ccc(-c2c3nc(c(-c4cccc(S(=O)(=O)[O-])c4F)c4ccc([nH]4)c(-c4cccc(S(=O)(=O)[O-])c4F)c4nc(c(-c5cccc(S(=O)(=O)[O-])c5F)c5ccc2[nH]5)C=C4)C=C3)cc1
REMARK SMILES IDX 4 1 3 2 2 3 1 4 38 5 39 6 100 7 40 8 99 9 41 10 42 11 43 12
REMARK SMILES IDX 93 13 44 14 98 15 92 16 94 17 45 18 97 19 91 20 90 21 46 23
REMARK SMILES IDX 78 24 58 25 77 26 59 27 62 28 76 29 95 30 60 31 61 32 75 34
REMARK SMILES IDX 96 35 63 36 47 37 48 38 56 39 49 40 51 41 57 42 50 43 52 44
REMARK SMILES IDX 53 45 54 46 55 47 79 48 80 49 88 50 81 51 83 52 89 53 82 54
REMARK SMILES IDX 84 55 85 56 86 57 87 58 64 59 65 60 73 61 66 62 68 63 74 64
REMARK SMILES IDX 67 65 69 66 70 67 71 68 72 69 5 70 6 71 7 72 8 73 9 74 10 75
REMARK SMILES IDX 15 76 11 77 14 78 12 79 13 80 16 81 37 82 17 83 20 84 21 85
REMARK SMILES IDX 18 87 19 88 22 89 23 90 36 91 24 92 35 93 25 94 26 95 27 96
REMARK SMILES IDX 28 97 29 98 30 99 34 100 31 101 33 102 32 103
REMARK H PARENT 94 22 62 33 37 86
REMARK Flexibility Score: inf
ROOT
ATOM      1  C   UNL A   1      44.828  22.101  25.112  1.00  0.00     0.275 C 
ENDROOT
BRANCH   1   2
ATOM      2  O   UNL A   1      44.229  23.352  24.747  1.00  0.00    -0.458 OA
BRANCH   2   3
ATOM      3  C   UNL A   1      44.673  24.599  25.029  1.00  0.00     0.338 C 
ATOM      4  O   UNL A   1      45.754  24.961  24.565  1.00  0.00    -0.246 OA
BRANCH   3   5
ATOM      5  C   UNL A   1      44.010  25.488  26.036  1.00  0.00     0.060 A 
ATOM      6  C   UNL A   1      44.207  26.859  26.210  1.00  0.00     0.016 A 
ATOM      7  C   UNL A   1      43.111  24.846  26.900  1.00  0.00     0.016 A 
ATOM      8  C   UNL A   1      43.477  27.578  27.166  1.00  0.00     0.010 A 
ATOM      9  C   UNL A   1      42.355  25.558  27.833  1.00  0.00     0.010 A 
ATOM     10  C   UNL A   1      42.546  26.933  27.982  1.00  0.00    -0.014 A 
BRANCH  10  11
ATOM     11  C   UNL A   1      41.907  27.646  29.108  1.00  0.00     0.031 A 
ATOM     12  C   UNL A   1      42.540  27.545  30.462  1.00  0.00     0.074 A 
ATOM     13  C   UNL A   1      40.795  28.382  28.940  1.00  0.00     0.049 A 
ATOM     14  N   UNL A   1      42.210  28.164  31.561  1.00  0.00    -0.248 NA
ATOM     15  C   UNL A   1      43.720  26.671  30.591  1.00  0.00     0.031 C 
ATOM     16  C   UNL A   1      40.121  28.613  27.668  1.00  0.00     0.029 A 
ATOM     17  N   UNL A   1      40.015  29.049  29.852  1.00  0.00    -0.354 N 
ATOM     18  C   UNL A   1      43.177  27.812  32.487  1.00  0.00     0.074 A 
ATOM     19  C   UNL A   1      44.048  26.847  31.861  1.00  0.00     0.031 C 
ATOM     20  C   UNL A   1      38.979  29.287  27.892  1.00  0.00     0.029 A 
ATOM     21  C   UNL A   1      38.849  29.544  29.318  1.00  0.00     0.049 A 
ATOM     22  H   UNL A   1      40.267  29.161  30.798  1.00  0.00     0.167 HD
ATOM     23  C   UNL A   1      43.368  28.319  33.723  1.00  0.00     0.034 A 
ATOM     24  C   UNL A   1      37.795  30.140  29.906  1.00  0.00     0.034 A 
ATOM     25  C   UNL A   1      42.500  29.280  34.333  1.00  0.00     0.049 A 
ATOM     26  C   UNL A   1      37.920  30.542  31.347  1.00  0.00     0.074 A 
ATOM     27  C   UNL A   1      42.643  29.915  35.552  1.00  0.00     0.029 A 
ATOM     28  N   UNL A   1      41.309  29.720  33.779  1.00  0.00    -0.354 N 
ATOM     29  N   UNL A   1      38.931  30.343  32.158  1.00  0.00    -0.248 NA
ATOM     30  C   UNL A   1      36.827  31.333  31.928  1.00  0.00     0.031 C 
ATOM     31  C   UNL A   1      41.519  30.722  35.746  1.00  0.00     0.029 A 
ATOM     32  C   UNL A   1      40.687  30.599  34.643  1.00  0.00     0.049 A 
ATOM     33  H   UNL A   1      40.959  29.448  32.900  1.00  0.00     0.167 HD
ATOM     34  C   UNL A   1      38.640  31.056  33.311  1.00  0.00     0.074 A 
ATOM     35  C   UNL A   1      37.332  31.651  33.116  1.00  0.00     0.031 C 
ATOM     36  C   UNL A   1      39.409  31.225  34.413  1.00  0.00     0.034 A 
BRANCH  23  37
ATOM     37  C   UNL A   1      44.614  27.899  34.439  1.00  0.00     0.023 A 
ATOM     38  C   UNL A   1      45.830  28.537  34.118  1.00  0.00     0.012 A 
ATOM     39  C   UNL A   1      44.588  26.895  35.420  1.00  0.00     0.148 A 
ATOM     40  C   UNL A   1      47.013  28.163  34.749  1.00  0.00     0.002 A 
ATOM     41  C   UNL A   1      45.768  26.544  36.064  1.00  0.00     0.091 A 
ATOM     42  F   UNL A   1      43.421  26.291  35.683  1.00  0.00    -0.205 F 
ATOM     43  C   UNL A   1      46.980  27.171  35.727  1.00  0.00     0.022 A 
BRANCH  41  44
ATOM     44  S   UNL A   1      45.833  25.296  37.351  1.00  0.00     0.127 S 
ATOM     45  O   UNL A   1      45.108  25.956  38.437  1.00  0.00    -0.237 OA
ATOM     46  O   UNL A   1      45.121  24.181  36.728  1.00  0.00    -0.237 OA
ATOM     47  O   UNL A   1      47.246  25.057  37.611  1.00  0.00    -0.744 OA
ENDBRANCH  41  44
ENDBRANCH  23  37
BRANCH  24  48
ATOM     48  C   UNL A   1      36.592  30.479  29.097  1.00  0.00     0.023 A 
ATOM     49  C   UNL A   1      35.878  29.453  28.450  1.00  0.00     0.012 A 
ATOM     50  C   UNL A   1      36.114  31.804  29.028  1.00  0.00     0.148 A 
ATOM     51  C   UNL A   1      34.712  29.741  27.738  1.00  0.00     0.002 A 
ATOM     52  C   UNL A   1      34.945  32.083  28.325  1.00  0.00     0.091 A 
ATOM     53  F   UNL A   1      36.804  32.760  29.665  1.00  0.00    -0.205 F 
ATOM     54  C   UNL A   1      34.245  31.052  27.678  1.00  0.00     0.022 A 
BRANCH  52  55
ATOM     55  S   UNL A   1      34.235  33.730  28.209  1.00  0.00     0.127 S 
ATOM     56  O   UNL A   1      35.148  34.382  27.271  1.00  0.00    -0.237 OA
ATOM     57  O   UNL A   1      32.905  33.447  27.673  1.00  0.00    -0.237 OA
ATOM     58  O   UNL A   1      34.251  34.265  29.563  1.00  0.00    -0.744 OA
ENDBRANCH  52  55
ENDBRANCH  24  48
BRANCH  36  59
ATOM     59  C   UNL A   1      38.915  32.130  35.502  1.00  0.00     0.023 A 
ATOM     60  C   UNL A   1      38.095  31.608  36.517  1.00  0.00     0.012 A 
ATOM     61  C   UNL A   1      39.442  33.432  35.620  1.00  0.00     0.148 A 
ATOM     62  C   UNL A   1      37.816  32.370  37.650  1.00  0.00     0.002 A 
ATOM     63  C   UNL A   1      39.194  34.168  36.769  1.00  0.00     0.091 A 
ATOM     64  F   UNL A   1      40.218  33.898  34.631  1.00  0.00    -0.205 F 
ATOM     65  C   UNL A   1      38.379  33.639  37.785  1.00  0.00     0.022 A 
BRANCH  63  66
ATOM     66  S   UNL A   1      39.958  35.762  37.082  1.00  0.00     0.127 S 
ATOM     67  O   UNL A   1      39.252  36.199  38.286  1.00  0.00    -0.237 OA
ATOM     68  O   UNL A   1      41.358  35.396  37.292  1.00  0.00    -0.237 OA
ATOM     69  O   UNL A   1      39.709  36.572  35.897  1.00  0.00    -0.744 OA
ENDBRANCH  63  66
ENDBRANCH  36  59
ENDBRANCH  10  11
ENDBRANCH   3   5
ENDBRANCH   2   3
ENDBRANCH   1   2
BRANCH   1  70
ATOM     70  C   UNL A   1      43.829  20.979  25.401  1.00  0.00     0.275 C 
BRANCH  70  71
ATOM     71  O   UNL A   1      42.690  21.392  26.166  1.00  0.00    -0.458 OA
BRANCH  71  72
ATOM     72  C   UNL A   1      41.648  20.520  26.176  1.00  0.00     0.338 C 
ATOM     73  O   UNL A   1      41.704  19.308  26.274  1.00  0.00    -0.246 OA
BRANCH  72  74
ATOM     74  C   UNL A   1      40.390  21.287  26.141  1.00  0.00     0.062 A 
ATOM     75  C   UNL A   1      40.329  22.555  26.705  1.00  0.00     0.038 A 
ATOM     76  C   UNL A   1      39.279  20.758  25.479  1.00  0.00     0.022 A 
ATOM     77  C   UNL A   1      39.116  23.240  26.691  1.00  0.00     0.065 A 
ATOM     78  C   UNL A   1      38.044  21.432  25.514  1.00  0.00    -0.015 A 
ATOM     79  Cl  UNL A   1      39.123  24.895  27.188  1.00  0.00    -0.082 Cl
ATOM     80  C   UNL A   1      37.932  22.632  26.228  1.00  0.00     0.057 A 
ATOM     81  C   UNL A   1      36.887  20.944  24.681  1.00  0.00     0.049 C 
ATOM     82  N   UNL A   1      36.703  23.246  26.386  1.00  0.00    -0.376 N 
ATOM     83  C   UNL A   1      36.298  19.610  25.046  1.00  0.00    -0.023 C 
ATOM     84  C   UNL A   1      35.641  21.864  24.670  1.00  0.00     0.031 C 
ATOM     85  C   UNL A   1      35.457  22.574  26.044  1.00  0.00     0.114 C 
ATOM     86  H   UNL A   1      36.669  24.165  26.739  1.00  0.00     0.161 HD
ATOM     87  C   UNL A   1      34.982  19.581  24.821  1.00  0.00    -0.030 C 
ATOM     88  C   UNL A   1      34.521  20.884  24.260  1.00  0.00     0.034 C 
BRANCH  85  89
ATOM     89  C   UNL A   1      34.315  23.593  26.006  1.00  0.00    -0.025 A 
ATOM     90  C   UNL A   1      33.014  23.326  26.474  1.00  0.00     0.007 A 
ATOM     91  C   UNL A   1      34.574  24.883  25.538  1.00  0.00     0.007 A 
ATOM     92  C   UNL A   1      32.047  24.339  26.568  1.00  0.00     0.022 A 
ATOM     93  C   UNL A   1      33.645  25.904  25.711  1.00  0.00     0.022 A 
ATOM     94  C   UNL A   1      32.386  25.646  26.236  1.00  0.00     0.082 A 
BRANCH  94  95
ATOM     95  S   UNL A   1      31.220  26.951  26.539  1.00  0.00     0.243 S 
ATOM     96  O   UNL A   1      29.899  26.370  26.569  1.00  0.00    -0.207 OA
ATOM     97  O   UNL A   1      31.740  27.736  27.644  1.00  0.00    -0.207 OA
BRANCH  95  98
ATOM     98  N   UNL A   1      31.292  27.938  25.177  1.00  0.00    -0.193 NA
ATOM     99  C   UNL A   1      30.671  27.548  23.895  1.00  0.00     0.131 C 
ATOM    100  C   UNL A   1      32.017  29.217  25.172  1.00  0.00     0.131 C 
ATOM    101  C   UNL A   1      31.625  27.779  22.710  1.00  0.00     0.177 C 
ATOM    102  C   UNL A   1      32.959  29.285  23.970  1.00  0.00     0.177 C 
ATOM    103  O   UNL A   1      32.250  29.072  22.741  1.00  0.00    -0.379 OA
ENDBRANCH  95  98
ENDBRANCH  94  95
ENDBRANCH  85  89
ENDBRANCH  72  74
ENDBRANCH  71  72
ENDBRANCH  70  71
ENDBRANCH   1  70
TORSDOF 17
ENDMDL
MODEL 2
REMARK VINA RESULT:     -12.9      4.792     11.003
REMARK SMILES O=C(OCCOC(=O)c1cc(Cl)c2c(c1)[C@H]1C=CC[C@H]1[C@H](c1ccc(S(=O)(=O)N3CCOCC3)cc1)N2)c1ccc(-c2c3nc(c(-c4cccc(S(=O)(=O)[O-])c4F)c4ccc([nH]4)c(-c4cccc(S(=O)(=O)[O-])c4F)c4nc(c(-c5cccc(S(=O)(=O)[O-])c5F)c5ccc2[nH]5)C=C4)C=C3)cc1
REMARK SMILES IDX 4 1 3 2 2 3 1 4 38 5 39 6 100 7 40 8 99 9 41 10 42 11 43 12
REMARK SMILES IDX 93 13 44 14 98 15 92 16 94 17 45 18 97 19 91 20 90 21 46 23
REMARK SMILES IDX 78 24 58 25 77 26 59 27 62 28 76 29 95 30 60 31 61 32 75 34
REMARK SMILES IDX 96 35 63 36 47 37 48 38 56 39 49 40 51 41 57 42 50 43 52 44
REMARK SMILES IDX 53 45 54 46 55 47 79 48 80 49 88 50 81 51 83 52 89 53 82 54
REMARK SMILES IDX 84 55 85 56 86 57 87 58 64 59 65 60 73 61 66 62 68 63 74 64
REMARK SMILES IDX 67 65 69 66 70 67 71 68 72 69 5 70 6 71 7 72 8 73 9 74 10 75
REMARK SMILES IDX 15 76 11 77 14 78 12 79 13 80 16 81 37 82 17 83 20 84 21 85
REMARK SMILES IDX 18 87 19 88 22 89 23 90 36 91 24 92 35 93 25 94 26 95 27 96
REMARK SMILES IDX 28 97 29 98 30 99 34 100 31 101 33 102 32 103
REMARK H PARENT 94 22 62 33 37 86
REMARK Flexibility Score: inf
ROOT
ATOM      1  C   UNL A   1      34.581  33.260  32.096  1.00  0.00     0.275 C 
ENDROOT
BRANCH   1   2
ATOM      2  O   UNL A   1      35.674  33.386  33.015  1.00  0.00    -0.458 OA
BRANCH   2   3
ATOM      3  C   UNL A   1      36.612  32.460  33.321  1.00  0.00     0.338 C 
ATOM      4  O   UNL A   1      36.717  32.087  34.490  1.00  0.00    -0.246 OA
BRANCH   3   5
ATOM      5  C   UNL A   1      37.658  32.012  32.347  1.00  0.00     0.060 A 
ATOM      6  C   UNL A   1      37.635  32.157  30.958  1.00  0.00     0.016 A 
ATOM      7  C   UNL A   1      38.763  31.362  32.913  1.00  0.00     0.016 A 
ATOM      8  C   UNL A   1      38.712  31.732  30.169  1.00  0.00     0.010 A 
ATOM      9  C   UNL A   1      39.856  30.964  32.141  1.00  0.00     0.010 A 
ATOM     10  C   UNL A   1      39.829  31.134  30.755  1.00  0.00    -0.014 A 
BRANCH  10  11
ATOM     11  C   UNL A   1      40.884  30.523  29.920  1.00  0.00     0.031 A 
ATOM     12  C   UNL A   1      42.077  31.355  29.562  1.00  0.00     0.074 A 
ATOM     13  C   UNL A   1      40.801  29.250  29.494  1.00  0.00     0.049 A 
ATOM     14  N   UNL A   1      43.159  30.994  28.930  1.00  0.00    -0.248 NA
ATOM     15  C   UNL A   1      42.076  32.761  30.007  1.00  0.00     0.031 C 
ATOM     16  C   UNL A   1      39.729  28.319  29.825  1.00  0.00     0.029 A 
ATOM     17  N   UNL A   1      41.620  28.529  28.662  1.00  0.00    -0.354 N 
ATOM     18  C   UNL A   1      43.991  32.100  28.963  1.00  0.00     0.074 A 
ATOM     19  C   UNL A   1      43.259  33.178  29.583  1.00  0.00     0.031 C 
ATOM     20  C   UNL A   1      39.905  27.182  29.129  1.00  0.00     0.029 A 
ATOM     21  C   UNL A   1      41.105  27.302  28.314  1.00  0.00     0.049 A 
ATOM     22  H   UNL A   1      42.493  28.858  28.344  1.00  0.00     0.167 HD
ATOM     23  C   UNL A   1      45.285  32.178  28.588  1.00  0.00     0.034 A 
ATOM     24  C   UNL A   1      41.547  26.376  27.443  1.00  0.00     0.034 A 
ATOM     25  C   UNL A   1      46.004  31.102  27.978  1.00  0.00     0.049 A 
ATOM     26  C   UNL A   1      42.920  26.548  26.862  1.00  0.00     0.074 A 
ATOM     27  C   UNL A   1      47.339  31.051  27.626  1.00  0.00     0.029 A 
ATOM     28  N   UNL A   1      45.435  29.895  27.603  1.00  0.00    -0.354 N 
ATOM     29  N   UNL A   1      43.761  27.536  27.051  1.00  0.00    -0.248 NA
ATOM     30  C   UNL A   1      43.451  25.453  26.040  1.00  0.00     0.031 C 
ATOM     31  C   UNL A   1      47.571  29.818  27.010  1.00  0.00     0.029 A 
ATOM     32  C   UNL A   1      46.384  29.099  26.994  1.00  0.00     0.049 A 
ATOM     33  H   UNL A   1      44.495  29.643  27.749  1.00  0.00     0.167 HD
ATOM     34  C   UNL A   1      44.949  27.144  26.452  1.00  0.00     0.074 A 
ATOM     35  C   UNL A   1      44.705  25.850  25.846  1.00  0.00     0.031 C 
ATOM     36  C   UNL A   1      46.140  27.790  26.441  1.00  0.00     0.034 A 
BRANCH  23  37
ATOM     37  C   UNL A   1      46.008  33.448  28.917  1.00  0.00     0.023 A 
ATOM     38  C   UNL A   1      46.663  33.553  30.161  1.00  0.00     0.012 A 
ATOM     39  C   UNL A   1      46.047  34.521  28.012  1.00  0.00     0.148 A 
ATOM     40  C   UNL A   1      47.331  34.723  30.512  1.00  0.00     0.002 A 
ATOM     41  C   UNL A   1      46.737  35.675  28.357  1.00  0.00     0.091 A 
ATOM     42  F   UNL A   1      45.393  34.397  26.848  1.00  0.00    -0.205 F 
ATOM     43  C   UNL A   1      47.373  35.781  29.607  1.00  0.00     0.022 A 
BRANCH  41  44
ATOM     44  S   UNL A   1      46.872  37.087  27.259  1.00  0.00     0.127 S 
ATOM     45  O   UNL A   1      45.475  37.507  27.147  1.00  0.00    -0.237 OA
ATOM     46  O   UNL A   1      47.724  37.991  28.031  1.00  0.00    -0.237 OA
ATOM     47  O   UNL A   1      47.465  36.586  26.027  1.00  0.00    -0.744 OA
ENDBRANCH  41  44
ENDBRANCH  23  37
BRANCH  24  48
ATOM     48  C   UNL A   1      40.722  25.168  27.167  1.00  0.00     0.023 A 
ATOM     49  C   UNL A   1      39.434  25.316  26.621  1.00  0.00     0.012 A 
ATOM     50  C   UNL A   1      41.240  23.873  27.377  1.00  0.00     0.148 A 
ATOM     51  C   UNL A   1      38.668  24.195  26.296  1.00  0.00     0.002 A 
ATOM     52  C   UNL A   1      40.475  22.759  27.042  1.00  0.00     0.091 A 
ATOM     53  F   UNL A   1      42.475  23.759  27.885  1.00  0.00    -0.205 F 
ATOM     54  C   UNL A   1      39.188  22.919  26.503  1.00  0.00     0.022 A 
BRANCH  52  55
ATOM     55  S   UNL A   1      41.058  21.070  27.236  1.00  0.00     0.127 S 
ATOM     56  O   UNL A   1      40.846  20.845  28.665  1.00  0.00    -0.237 OA
ATOM     57  O   UNL A   1      40.148  20.335  26.359  1.00  0.00    -0.237 OA
ATOM     58  O   UNL A   1      42.449  21.078  26.809  1.00  0.00    -0.744 OA
ENDBRANCH  52  55
ENDBRANCH  24  48
BRANCH  36  59
ATOM     59  C   UNL A   1      47.318  27.114  25.806  1.00  0.00     0.023 A 
ATOM     60  C   UNL A   1      47.593  27.336  24.446  1.00  0.00     0.012 A 
ATOM     61  C   UNL A   1      48.255  26.440  26.615  1.00  0.00     0.148 A 
ATOM     62  C   UNL A   1      48.800  26.905  23.898  1.00  0.00     0.002 A 
ATOM     63  C   UNL A   1      49.471  26.052  26.073  1.00  0.00     0.091 A 
ATOM     64  F   UNL A   1      47.958  26.244  27.908  1.00  0.00    -0.205 F 
ATOM     65  C   UNL A   1      49.744  26.282  24.713  1.00  0.00     0.022 A 
BRANCH  63  66
ATOM     66  S   UNL A   1      50.790  25.340  27.062  1.00  0.00     0.127 S 
ATOM     67  O   UNL A   1      51.178  26.474  27.900  1.00  0.00    -0.237 OA
ATOM     68  O   UNL A   1      50.096  24.266  27.770  1.00  0.00    -0.237 OA
ATOM     69  O   UNL A   1      51.809  24.894  26.121  1.00  0.00    -0.744 OA
ENDBRANCH  63  66
ENDBRANCH  36  59
ENDBRANCH  10  11
ENDBRANCH   3   5
ENDBRANCH   2   3
ENDBRANCH   1   2
BRANCH   1  70
ATOM     70  C   UNL A   1      34.438  34.426  31.116  1.00  0.00     0.275 C 
BRANCH  70  71
ATOM     71  O   UNL A   1      34.819  34.110  29.771  1.00  0.00    -0.458 OA
BRANCH  71  72
ATOM     72  C   UNL A   1      33.790  33.947  28.897  1.00  0.00     0.338 C 
ATOM     73  O   UNL A   1      32.951  34.773  28.587  1.00  0.00    -0.246 OA
BRANCH  72  74
ATOM     74  C   UNL A   1      33.893  32.608  28.291  1.00  0.00     0.062 A 
ATOM     75  C   UNL A   1      35.050  31.856  28.449  1.00  0.00     0.038 A 
ATOM     76  C   UNL A   1      32.794  32.073  27.613  1.00  0.00     0.022 A 
ATOM     77  C   UNL A   1      35.132  30.610  27.831  1.00  0.00     0.065 A 
ATOM     78  C   UNL A   1      32.902  30.838  26.948  1.00  0.00    -0.015 A 
ATOM     79  Cl  UNL A   1      36.479  29.604  28.231  1.00  0.00    -0.082 Cl
ATOM     80  C   UNL A   1      34.124  30.152  26.960  1.00  0.00     0.057 A 
ATOM     81  C   UNL A   1      31.684  30.189  26.344  1.00  0.00     0.049 C 
ATOM     82  N   UNL A   1      34.294  29.003  26.209  1.00  0.00    -0.376 N 
ATOM     83  C   UNL A   1      31.045  30.890  25.177  1.00  0.00    -0.023 C 
ATOM     84  C   UNL A   1      31.897  28.757  25.794  1.00  0.00     0.031 C 
ATOM     85  C   UNL A   1      33.327  28.591  25.201  1.00  0.00     0.114 C 
ATOM     86  H   UNL A   1      35.092  28.446  26.361  1.00  0.00     0.161 HD
ATOM     87  C   UNL A   1      30.524  30.016  24.311  1.00  0.00    -0.030 C 
ATOM     88  C   UNL A   1      30.730  28.619  24.793  1.00  0.00     0.034 C 
BRANCH  85  89
ATOM     89  C   UNL A   1      33.603  27.145  24.783  1.00  0.00    -0.025 A 
ATOM     90  C   UNL A   1      33.518  26.686  23.454  1.00  0.00     0.007 A 
ATOM     91  C   UNL A   1      34.018  26.228  25.750  1.00  0.00     0.007 A 
ATOM     92  C   UNL A   1      33.936  25.395  23.096  1.00  0.00     0.022 A 
ATOM     93  C   UNL A   1      34.512  24.979  25.384  1.00  0.00     0.022 A 
ATOM     94  C   UNL A   1      34.488  24.559  24.061  1.00  0.00     0.082 A 
BRANCH  94  95
ATOM     95  S   UNL A   1      35.189  23.004  23.567  1.00  0.00     0.243 S 
ATOM     96  O   UNL A   1      35.060  22.892  22.133  1.00  0.00    -0.207 OA
ATOM     97  O   UNL A   1      36.473  22.886  24.235  1.00  0.00    -0.207 OA
BRANCH  95  98
ATOM     98  N   UNL A   1      34.190  21.830  24.243  1.00  0.00    -0.193 NA
ATOM     99  C   UNL A   1      34.717  20.765  25.120  1.00  0.00     0.131 C 
ATOM    100  C   UNL A   1      32.748  21.770  23.962  1.00  0.00     0.131 C 
ATOM    101  C   UNL A   1      34.162  19.384  24.729  1.00  0.00     0.177 C 
ATOM    102  C   UNL A   1      32.350  20.355  23.541  1.00  0.00     0.177 C 
ATOM    103  O   UNL A   1      32.740  19.390  24.529  1.00  0.00    -0.379 OA
ENDBRANCH  95  98
ENDBRANCH  94  95
ENDBRANCH  85  89
ENDBRANCH  72  74
ENDBRANCH  71  72
ENDBRANCH  70  71
ENDBRANCH   1  70
TORSDOF 17
ENDMDL
MODEL 3
REMARK VINA RESULT:     -12.3      3.362      9.648
REMARK SMILES O=C(OCCOC(=O)c1cc(Cl)c2c(c1)[C@H]1C=CC[C@H]1[C@H](c1ccc(S(=O)(=O)N3CCOCC3)cc1)N2)c1ccc(-c2c3nc(c(-c4cccc(S(=O)(=O)[O-])c4F)c4ccc([nH]4)c(-c4cccc(S(=O)(=O)[O-])c4F)c4nc(c(-c5cccc(S(=O)(=O)[O-])c5F)c5ccc2[nH]5)C=C4)C=C3)cc1
REMARK SMILES IDX 4 1 3 2 2 3 1 4 38 5 39 6 100 7 40 8 99 9 41 10 42 11 43 12
REMARK SMILES IDX 93 13 44 14 98 15 92 16 94 17 45 18 97 19 91 20 90 21 46 23
REMARK SMILES IDX 78 24 58 25 77 26 59 27 62 28 76 29 95 30 60 31 61 32 75 34
REMARK SMILES IDX 96 35 63 36 47 37 48 38 56 39 49 40 51 41 57 42 50 43 52 44
REMARK SMILES IDX 53 45 54 46 55 47 79 48 80 49 88 50 81 51 83 52 89 53 82 54
REMARK SMILES IDX 84 55 85 56 86 57 87 58 64 59 65 60 73 61 66 62 68 63 74 64
REMARK SMILES IDX 67 65 69 66 70 67 71 68 72 69 5 70 6 71 7 72 8 73 9 74 10 75
REMARK SMILES IDX 15 76 11 77 14 78 12 79 13 80 16 81 37 82 17 83 20 84 21 85
REMARK SMILES IDX 18 87 19 88 22 89 23 90 36 91 24 92 35 93 25 94 26 95 27 96
REMARK SMILES IDX 28 97 29 98 30 99 34 100 31 101 33 102 32 103
REMARK H PARENT 94 22 62 33 37 86
REMARK Flexibility Score: inf
ROOT
ATOM      1  C   UNL A   1      33.824  35.070  30.830  1.00  0.00     0.275 C 
ENDROOT
BRANCH   1   2
ATOM      2  O   UNL A   1      34.885  34.105  30.802  1.00  0.00    -0.458 OA
BRANCH   2   3
ATOM      3  C   UNL A   1      34.966  32.941  31.487  1.00  0.00     0.338 C 
ATOM      4  O   UNL A   1      34.021  32.608  32.202  1.00  0.00    -0.246 OA
BRANCH   3   5
ATOM      5  C   UNL A   1      36.226  32.136  31.573  1.00  0.00     0.060 A 
ATOM      6  C   UNL A   1      36.463  31.021  32.380  1.00  0.00     0.016 A 
ATOM      7  C   UNL A   1      37.277  32.582  30.758  1.00  0.00     0.016 A 
ATOM      8  C   UNL A   1      37.681  30.331  32.321  1.00  0.00     0.010 A 
ATOM      9  C   UNL A   1      38.482  31.883  30.667  1.00  0.00     0.010 A 
ATOM     10  C   UNL A   1      38.696  30.757  31.464  1.00  0.00    -0.014 A 
BRANCH  10  11
ATOM     11  C   UNL A   1      40.042  30.147  31.526  1.00  0.00     0.031 A 
ATOM     12  C   UNL A   1      41.043  30.735  32.472  1.00  0.00     0.074 A 
ATOM     13  C   UNL A   1      40.373  29.083  30.773  1.00  0.00     0.049 A 
ATOM     14  N   UNL A   1      42.239  30.302  32.761  1.00  0.00    -0.248 NA
ATOM     15  C   UNL A   1      40.639  31.938  33.221  1.00  0.00     0.031 C 
ATOM     16  C   UNL A   1      39.474  28.381  29.866  1.00  0.00     0.029 A 
ATOM     17  N   UNL A   1      41.569  28.426  30.628  1.00  0.00    -0.354 N 
ATOM     18  C   UNL A   1      42.698  31.131  33.770  1.00  0.00     0.074 A 
ATOM     19  C   UNL A   1      41.703  32.157  33.977  1.00  0.00     0.031 C 
ATOM     20  C   UNL A   1      40.172  27.452  29.189  1.00  0.00     0.029 A 
ATOM     21  C   UNL A   1      41.561  27.488  29.622  1.00  0.00     0.049 A 
ATOM     22  H   UNL A   1      42.358  28.608  31.190  1.00  0.00     0.167 HD
ATOM     23  C   UNL A   1      43.813  30.994  34.517  1.00  0.00     0.034 A 
ATOM     24  C   UNL A   1      42.554  26.739  29.108  1.00  0.00     0.034 A 
ATOM     25  C   UNL A   1      44.791  29.971  34.307  1.00  0.00     0.049 A 
ATOM     26  C   UNL A   1      43.873  26.723  29.824  1.00  0.00     0.074 A 
ATOM     27  C   UNL A   1      45.921  29.696  35.054  1.00  0.00     0.029 A 
ATOM     28  N   UNL A   1      44.768  29.071  33.253  1.00  0.00    -0.354 N 
ATOM     29  N   UNL A   1      44.223  27.400  30.891  1.00  0.00    -0.248 NA
ATOM     30  C   UNL A   1      44.893  25.781  29.346  1.00  0.00     0.031 C 
ATOM     31  C   UNL A   1      46.598  28.644  34.432  1.00  0.00     0.029 A 
ATOM     32  C   UNL A   1      45.880  28.256  33.309  1.00  0.00     0.049 A 
ATOM     33  H   UNL A   1      44.063  29.021  32.567  1.00  0.00     0.167 HD
ATOM     34  C   UNL A   1      45.463  26.905  31.266  1.00  0.00     0.074 A 
ATOM     35  C   UNL A   1      45.829  25.905  30.282  1.00  0.00     0.031 C 
ATOM     36  C   UNL A   1      46.206  27.229  32.350  1.00  0.00     0.034 A 
BRANCH  23  37
ATOM     37  C   UNL A   1      43.967  31.928  35.678  1.00  0.00     0.023 A 
ATOM     38  C   UNL A   1      44.645  33.149  35.481  1.00  0.00     0.012 A 
ATOM     39  C   UNL A   1      43.447  31.611  36.943  1.00  0.00     0.148 A 
ATOM     40  C   UNL A   1      44.824  34.036  36.539  1.00  0.00     0.002 A 
ATOM     41  C   UNL A   1      43.608  32.512  37.987  1.00  0.00     0.091 A 
ATOM     42  F   UNL A   1      42.831  30.432  37.101  1.00  0.00    -0.205 F 
ATOM     43  C   UNL A   1      44.300  33.720  37.790  1.00  0.00     0.022 A 
BRANCH  41  44
ATOM     44  S   UNL A   1      42.954  32.213  39.631  1.00  0.00     0.127 S 
ATOM     45  O   UNL A   1      41.544  31.947  39.343  1.00  0.00    -0.237 OA
ATOM     46  O   UNL A   1      43.723  31.044  40.056  1.00  0.00    -0.237 OA
ATOM     47  O   UNL A   1      43.207  33.427  40.394  1.00  0.00    -0.744 OA
ENDBRANCH  41  44
ENDBRANCH  23  37
BRANCH  24  48
ATOM     48  C   UNL A   1      42.290  25.874  27.925  1.00  0.00     0.023 A 
ATOM     49  C   UNL A   1      42.377  26.420  26.632  1.00  0.00     0.012 A 
ATOM     50  C   UNL A   1      42.025  24.497  28.079  1.00  0.00     0.148 A 
ATOM     51  C   UNL A   1      42.196  25.612  25.508  1.00  0.00     0.002 A 
ATOM     52  C   UNL A   1      41.854  23.696  26.954  1.00  0.00     0.091 A 
ATOM     53  F   UNL A   1      41.961  23.999  29.322  1.00  0.00    -0.205 F 
ATOM     54  C   UNL A   1      41.938  24.253  25.667  1.00  0.00     0.022 A 
BRANCH  52  55
ATOM     55  S   UNL A   1      41.550  21.926  27.043  1.00  0.00     0.127 S 
ATOM     56  O   UNL A   1      41.588  21.547  25.632  1.00  0.00    -0.237 OA
ATOM     57  O   UNL A   1      42.690  21.465  27.833  1.00  0.00    -0.237 OA
ATOM     58  O   UNL A   1      40.255  21.778  27.690  1.00  0.00    -0.744 OA
ENDBRANCH  52  55
ENDBRANCH  24  48
BRANCH  36  59
ATOM     59  C   UNL A   1      47.480  26.479  32.599  1.00  0.00     0.023 A 
ATOM     60  C   UNL A   1      48.696  27.005  32.130  1.00  0.00     0.012 A 
ATOM     61  C   UNL A   1      47.480  25.374  33.474  1.00  0.00     0.148 A 
ATOM     62  C   UNL A   1      49.905  26.447  32.544  1.00  0.00     0.002 A 
ATOM     63  C   UNL A   1      48.687  24.851  33.914  1.00  0.00     0.091 A 
ATOM     64  F   UNL A   1      46.301  24.897  33.899  1.00  0.00    -0.205 F 
ATOM     65  C   UNL A   1      49.901  25.385  33.448  1.00  0.00     0.022 A 
BRANCH  63  66
ATOM     66  S   UNL A   1      48.787  23.558  35.156  1.00  0.00     0.127 S 
ATOM     67  O   UNL A   1      47.918  24.086  36.207  1.00  0.00    -0.237 OA
ATOM     68  O   UNL A   1      48.247  22.403  34.439  1.00  0.00    -0.237 OA
ATOM     69  O   UNL A   1      50.194  23.450  35.518  1.00  0.00    -0.744 OA
ENDBRANCH  63  66
ENDBRANCH  36  59
ENDBRANCH  10  11
ENDBRANCH   3   5
ENDBRANCH   2   3
ENDBRANCH   1   2
BRANCH   1  70
ATOM     70  C   UNL A   1      33.057  35.207  29.514  1.00  0.00     0.275 C 
BRANCH  70  71
ATOM     71  O   UNL A   1      32.922  33.981  28.784  1.00  0.00    -0.458 OA
BRANCH  71  72
ATOM     72  C   UNL A   1      33.934  33.705  27.919  1.00  0.00     0.338 C 
ATOM     73  O   UNL A   1      34.746  34.488  27.462  1.00  0.00    -0.246 OA
BRANCH  72  74
ATOM     74  C   UNL A   1      33.963  32.252  27.676  1.00  0.00     0.062 A 
ATOM     75  C   UNL A   1      35.022  31.486  28.146  1.00  0.00     0.038 A 
ATOM     76  C   UNL A   1      32.886  31.640  27.028  1.00  0.00     0.022 A 
ATOM     77  C   UNL A   1      35.041  30.121  27.867  1.00  0.00     0.065 A 
ATOM     78  C   UNL A   1      32.936  30.272  26.704  1.00  0.00    -0.015 A 
ATOM     79  Cl  UNL A   1      36.241  29.157  28.654  1.00  0.00    -0.082 Cl
ATOM     80  C   UNL A   1      34.079  29.528  27.025  1.00  0.00     0.057 A 
ATOM     81  C   UNL A   1      31.723  29.578  26.142  1.00  0.00     0.049 C 
ATOM     82  N   UNL A   1      34.208  28.216  26.604  1.00  0.00    -0.376 N 
ATOM     83  C   UNL A   1      31.267  30.001  24.773  1.00  0.00    -0.023 C 
ATOM     84  C   UNL A   1      31.847  28.041  25.989  1.00  0.00     0.031 C 
ATOM     85  C   UNL A   1      33.304  27.631  25.623  1.00  0.00     0.114 C 
ATOM     86  H   UNL A   1      34.930  27.662  26.979  1.00  0.00     0.161 HD
ATOM     87  C   UNL A   1      30.748  28.974  24.095  1.00  0.00    -0.030 C 
ATOM     88  C   UNL A   1      30.771  27.736  24.926  1.00  0.00     0.034 C 
BRANCH  85  89
ATOM     89  C   UNL A   1      33.477  26.110  25.608  1.00  0.00    -0.025 A 
ATOM     90  C   UNL A   1      34.485  25.445  24.883  1.00  0.00     0.007 A 
ATOM     91  C   UNL A   1      32.632  25.325  26.396  1.00  0.00     0.007 A 
ATOM     92  C   UNL A   1      34.703  24.067  25.028  1.00  0.00     0.022 A 
ATOM     93  C   UNL A   1      32.902  23.976  26.605  1.00  0.00     0.022 A 
ATOM     94  C   UNL A   1      33.942  23.341  25.938  1.00  0.00     0.082 A 
BRANCH  94  95
ATOM     95  S   UNL A   1      34.350  21.642  26.256  1.00  0.00     0.243 S 
ATOM     96  O   UNL A   1      35.645  21.379  25.673  1.00  0.00    -0.207 OA
ATOM     97  O   UNL A   1      34.074  21.395  27.660  1.00  0.00    -0.207 OA
BRANCH  95  98
ATOM     98  N   UNL A   1      33.226  20.743  25.383  1.00  0.00    -0.193 NA
ATOM     99  C   UNL A   1      33.123  19.276  25.520  1.00  0.00     0.131 C 
ATOM    100  C   UNL A   1      32.319  21.358  24.404  1.00  0.00     0.131 C 
ATOM    101  C   UNL A   1      33.041  18.585  24.148  1.00  0.00     0.177 C 
ATOM    102  C   UNL A   1      32.378  20.598  23.078  1.00  0.00     0.177 C 
ATOM    103  O   UNL A   1      32.092  19.205  23.265  1.00  0.00    -0.379 OA
ENDBRANCH  95  98
ENDBRANCH  94  95
ENDBRANCH  85  89
ENDBRANCH  72  74
ENDBRANCH  71  72
ENDBRANCH  70  71
ENDBRANCH   1  70
TORSDOF 17
ENDMDL
