MODEL 1
REMARK VINA RESULT:     -11.8      0.000      0.000
REMARK SMILES O=C(NCc1ccc(C(=O)OCCOC(=O)c2ccc(-c3c4nc(c(-c5cccc(S(=O)(=O)[O-])c5F)c5ccc([nH]5)c(-c5cccc(S(=O)(=O)[O-])c5F)c5nc(c(-c6cccc(S(=O)(=O)[O-])c6F)c6ccc3[nH]6)C=C5)C=C4)cc2)o1)Nc1ccc(F)c(Cl)c1
REMARK SMILES IDX 12 1 11 2 9 3 10 4 8 5 5 6 6 7 80 8 7 9 4 10 3 11 1 12 2 13
REMARK SMILES IDX 81 14 82 17 83 18 89 19 84 20 87 21 85 22 88 23 86 24 13 25
REMARK SMILES IDX 14 26 15 27 16 28 17 29 18 30 79 31 19 32 78 33 20 34 21 35
REMARK SMILES IDX 22 36 72 37 23 38 77 39 71 40 73 41 24 42 76 43 70 44 69 45
REMARK SMILES IDX 25 47 57 48 37 49 56 50 38 51 41 52 55 53 74 54 39 55 40 56
REMARK SMILES IDX 54 58 75 59 42 60 26 61 27 62 35 63 28 64 30 65 36 66 29 67
REMARK SMILES IDX 31 68 32 69 33 70 34 71 58 72 59 73 67 74 60 75 62 76 68 77
REMARK SMILES IDX 61 78 63 79 64 80 65 81 66 82 43 83 44 84 52 85 45 86 47 87
REMARK SMILES IDX 53 88 46 89 48 90 49 91 50 92 51 93
REMARK H PARENT 3 15 81 16 73 46 41 57
REMARK Flexibility Score: inf
ROOT
ATOM      1  C   UNL A   1      37.466  20.742  24.722  1.00  0.00     0.275 C 
ENDROOT
BRANCH   1   2
ATOM      2  O   UNL A   1      36.454  21.175  25.649  1.00  0.00    -0.456 OA
BRANCH   2   3
ATOM      3  C   UNL A   1      35.178  20.770  25.366  1.00  0.00     0.374 C 
ATOM      4  O   UNL A   1      34.899  19.827  24.642  1.00  0.00    -0.242 OA
BRANCH   3   5
ATOM      5  C   UNL A   1      34.229  21.557  26.123  1.00  0.00     0.211 A 
ATOM      6  C   UNL A   1      32.253  22.503  26.404  1.00  0.00     0.124 A 
ATOM      7  C   UNL A   1      32.888  22.563  27.626  1.00  0.00     0.048 A 
ATOM      8  O   UNL A   1      33.093  21.970  25.476  1.00  0.00    -0.452 OA
ATOM      9  C   UNL A   1      34.154  21.947  27.448  1.00  0.00     0.058 A 
BRANCH   6  10
ATOM     10  C   UNL A   1      30.872  22.799  25.946  1.00  0.00     0.193 C 
BRANCH  10  11
ATOM     11  N   UNL A   1      30.471  24.045  26.572  1.00  0.00    -0.331 N 
ATOM     12  O   UNL A   1      30.225  26.236  26.803  1.00  0.00    -0.248 OA
ATOM     13  C   UNL A   1      30.253  25.276  26.041  1.00  0.00     0.319 C 
ATOM     14  N   UNL A   1      30.076  25.324  24.687  1.00  0.00    -0.308 N 
ATOM     15  H   UNL A   1      30.336  23.989  27.545  1.00  0.00     0.165 HD
ATOM     16  H   UNL A   1      29.953  24.462  24.229  1.00  0.00     0.171 HD
BRANCH  14  17
ATOM     17  C   UNL A   1      30.051  26.478  23.876  1.00  0.00     0.044 A 
ATOM     18  C   UNL A   1      31.264  26.879  23.297  1.00  0.00     0.029 A 
ATOM     19  C   UNL A   1      28.901  27.245  23.652  1.00  0.00     0.049 A 
ATOM     20  C   UNL A   1      31.325  28.021  22.495  1.00  0.00     0.043 A 
ATOM     21  C   UNL A   1      28.966  28.390  22.854  1.00  0.00     0.078 A 
ATOM     22  C   UNL A   1      30.175  28.770  22.279  1.00  0.00     0.141 A 
ATOM     23  Cl  UNL A   1      27.547  29.336  22.604  1.00  0.00    -0.081 Cl
ATOM     24  F   UNL A   1      30.260  29.873  21.517  1.00  0.00    -0.205 F 
ENDBRANCH  14  17
ENDBRANCH  10  11
ENDBRANCH   6  10
ENDBRANCH   3   5
ENDBRANCH   2   3
ENDBRANCH   1   2
BRANCH   1  25
ATOM     25  C   UNL A   1      38.530  19.878  25.412  1.00  0.00     0.275 C 
BRANCH  25  26
ATOM     26  O   UNL A   1      39.789  20.566  25.541  1.00  0.00    -0.458 OA
BRANCH  26  27
ATOM     27  C   UNL A   1      40.331  20.556  26.781  1.00  0.00     0.338 C 
ATOM     28  O   UNL A   1      40.580  19.575  27.462  1.00  0.00    -0.246 OA
BRANCH  27  29
ATOM     29  C   UNL A   1      40.736  21.923  27.157  1.00  0.00     0.060 A 
ATOM     30  C   UNL A   1      40.342  22.968  26.317  1.00  0.00     0.016 A 
ATOM     31  C   UNL A   1      41.523  22.179  28.279  1.00  0.00     0.016 A 
ATOM     32  C   UNL A   1      40.730  24.275  26.590  1.00  0.00     0.010 A 
ATOM     33  C   UNL A   1      41.913  23.495  28.557  1.00  0.00     0.010 A 
ATOM     34  C   UNL A   1      41.524  24.549  27.711  1.00  0.00    -0.014 A 
BRANCH  34  35
ATOM     35  C   UNL A   1      41.948  25.943  27.980  1.00  0.00     0.031 A 
ATOM     36  C   UNL A   1      43.327  26.398  27.602  1.00  0.00     0.074 A 
ATOM     37  C   UNL A   1      41.083  26.801  28.555  1.00  0.00     0.049 A 
ATOM     38  N   UNL A   1      43.886  27.566  27.781  1.00  0.00    -0.248 NA
ATOM     39  C   UNL A   1      44.191  25.411  26.936  1.00  0.00     0.031 C 
ATOM     40  C   UNL A   1      39.715  26.474  28.956  1.00  0.00     0.029 A 
ATOM     41  N   UNL A   1      41.232  28.118  28.911  1.00  0.00    -0.354 N 
ATOM     42  C   UNL A   1      45.175  27.451  27.278  1.00  0.00     0.074 A 
ATOM     43  C   UNL A   1      45.318  26.095  26.790  1.00  0.00     0.031 C 
ATOM     44  C   UNL A   1      39.151  27.559  29.511  1.00  0.00     0.029 A 
ATOM     45  C   UNL A   1      40.125  28.647  29.532  1.00  0.00     0.049 A 
ATOM     46  H   UNL A   1      42.053  28.634  28.738  1.00  0.00     0.167 HD
ATOM     47  C   UNL A   1      46.145  28.393  27.210  1.00  0.00     0.034 A 
ATOM     48  C   UNL A   1      39.926  29.866  30.070  1.00  0.00     0.034 A 
ATOM     49  C   UNL A   1      45.988  29.751  27.660  1.00  0.00     0.049 A 
ATOM     50  C   UNL A   1      41.026  30.889  29.997  1.00  0.00     0.074 A 
ATOM     51  C   UNL A   1      46.899  30.790  27.595  1.00  0.00     0.029 A 
ATOM     52  N   UNL A   1      44.845  30.260  28.256  1.00  0.00    -0.354 N 
ATOM     53  N   UNL A   1      42.202  30.794  29.426  1.00  0.00    -0.248 NA
ATOM     54  C   UNL A   1      40.766  32.194  30.622  1.00  0.00     0.031 C 
ATOM     55  C   UNL A   1      46.308  31.926  28.160  1.00  0.00     0.029 A 
ATOM     56  C   UNL A   1      45.028  31.595  28.573  1.00  0.00     0.049 A 
ATOM     57  H   UNL A   1      44.022  29.746  28.431  1.00  0.00     0.167 HD
ATOM     58  C   UNL A   1      42.814  32.029  29.603  1.00  0.00     0.074 A 
ATOM     59  C   UNL A   1      41.867  32.866  30.313  1.00  0.00     0.031 C 
ATOM     60  C   UNL A   1      44.055  32.429  29.232  1.00  0.00     0.034 A 
BRANCH  47  61
ATOM     61  C   UNL A   1      47.456  27.997  26.587  1.00  0.00     0.023 A 
ATOM     62  C   UNL A   1      48.548  27.686  27.420  1.00  0.00     0.012 A 
ATOM     63  C   UNL A   1      47.595  27.886  25.191  1.00  0.00     0.148 A 
ATOM     64  C   UNL A   1      49.768  27.292  26.872  1.00  0.00     0.002 A 
ATOM     65  C   UNL A   1      48.804  27.462  24.652  1.00  0.00     0.091 A 
ATOM     66  F   UNL A   1      46.553  28.215  24.413  1.00  0.00    -0.205 F 
ATOM     67  C   UNL A   1      49.893  27.170  25.490  1.00  0.00     0.022 A 
BRANCH  65  68
ATOM     68  S   UNL A   1      49.031  27.219  22.886  1.00  0.00     0.127 S 
ATOM     69  O   UNL A   1      48.272  25.991  22.656  1.00  0.00    -0.237 OA
ATOM     70  O   UNL A   1      48.424  28.424  22.320  1.00  0.00    -0.237 OA
ATOM     71  O   UNL A   1      50.469  27.120  22.685  1.00  0.00    -0.744 OA
ENDBRANCH  65  68
ENDBRANCH  47  61
BRANCH  48  72
ATOM     72  C   UNL A   1      38.607  30.197  30.679  1.00  0.00     0.023 A 
ATOM     73  C   UNL A   1      38.328  29.771  31.991  1.00  0.00     0.012 A 
ATOM     74  C   UNL A   1      37.649  30.964  29.988  1.00  0.00     0.148 A 
ATOM     75  C   UNL A   1      37.114  30.091  32.600  1.00  0.00     0.002 A 
ATOM     76  C   UNL A   1      36.463  31.323  30.619  1.00  0.00     0.091 A 
ATOM     77  F   UNL A   1      37.920  31.337  28.728  1.00  0.00    -0.205 F 
ATOM     78  C   UNL A   1      36.188  30.878  31.920  1.00  0.00     0.022 A 
BRANCH  76  79
ATOM     79  S   UNL A   1      35.282  32.443  29.856  1.00  0.00     0.127 S 
ATOM     80  O   UNL A   1      34.761  31.629  28.762  1.00  0.00    -0.237 OA
ATOM     81  O   UNL A   1      34.337  32.687  30.946  1.00  0.00    -0.237 OA
ATOM     82  O   UNL A   1      36.057  33.615  29.469  1.00  0.00    -0.744 OA
ENDBRANCH  76  79
ENDBRANCH  48  72
BRANCH  60  83
ATOM     83  C   UNL A   1      44.467  33.835  29.577  1.00  0.00     0.023 A 
ATOM     84  C   UNL A   1      44.945  34.113  30.873  1.00  0.00     0.012 A 
ATOM     85  C   UNL A   1      44.458  34.855  28.606  1.00  0.00     0.148 A 
ATOM     86  C   UNL A   1      45.390  35.392  31.204  1.00  0.00     0.002 A 
ATOM     87  C   UNL A   1      44.939  36.118  28.933  1.00  0.00     0.091 A 
ATOM     88  F   UNL A   1      43.977  34.576  27.386  1.00  0.00    -0.205 F 
ATOM     89  C   UNL A   1      45.399  36.390  30.232  1.00  0.00     0.022 A 
BRANCH  87  90
ATOM     90  S   UNL A   1      45.058  37.437  27.719  1.00  0.00     0.127 S 
ATOM     91  O   UNL A   1      43.658  37.819  27.551  1.00  0.00    -0.237 OA
ATOM     92  O   UNL A   1      45.881  38.432  28.411  1.00  0.00    -0.237 OA
ATOM     93  O   UNL A   1      45.695  36.842  26.551  1.00  0.00    -0.744 OA
ENDBRANCH  87  90
ENDBRANCH  60  83
ENDBRANCH  34  35
ENDBRANCH  27  29
ENDBRANCH  26  27
ENDBRANCH  25  26
ENDBRANCH   1  25
TORSDOF 17
ENDMDL
MODEL 2
REMARK VINA RESULT:     -11.6      5.489     10.558
REMARK SMILES O=C(NCc1ccc(C(=O)OCCOC(=O)c2ccc(-c3c4nc(c(-c5cccc(S(=O)(=O)[O-])c5F)c5ccc([nH]5)c(-c5cccc(S(=O)(=O)[O-])c5F)c5nc(c(-c6cccc(S(=O)(=O)[O-])c6F)c6ccc3[nH]6)C=C5)C=C4)cc2)o1)Nc1ccc(F)c(Cl)c1
REMARK SMILES IDX 12 1 11 2 9 3 10 4 8 5 5 6 6 7 80 8 7 9 4 10 3 11 1 12 2 13
REMARK SMILES IDX 81 14 82 17 83 18 89 19 84 20 87 21 85 22 88 23 86 24 13 25
REMARK SMILES IDX 14 26 15 27 16 28 17 29 18 30 79 31 19 32 78 33 20 34 21 35
REMARK SMILES IDX 22 36 72 37 23 38 77 39 71 40 73 41 24 42 76 43 70 44 69 45
REMARK SMILES IDX 25 47 57 48 37 49 56 50 38 51 41 52 55 53 74 54 39 55 40 56
REMARK SMILES IDX 54 58 75 59 42 60 26 61 27 62 35 63 28 64 30 65 36 66 29 67
REMARK SMILES IDX 31 68 32 69 33 70 34 71 58 72 59 73 67 74 60 75 62 76 68 77
REMARK SMILES IDX 61 78 63 79 64 80 65 81 66 82 43 83 44 84 52 85 45 86 47 87
REMARK SMILES IDX 53 88 46 89 48 90 49 91 50 92 51 93
REMARK H PARENT 3 15 81 16 73 46 41 57
REMARK Flexibility Score: inf
ROOT
ATOM      1  C   UNL A   1      31.236  29.148  24.954  1.00  0.00     0.275 C 
ENDROOT
BRANCH   1   2
ATOM      2  O   UNL A   1      30.494  29.459  23.760  1.00  0.00    -0.456 OA
BRANCH   2   3
ATOM      3  C   UNL A   1      29.697  28.456  23.278  1.00  0.00     0.374 C 
ATOM      4  O   UNL A   1      28.498  28.565  23.075  1.00  0.00    -0.242 OA
BRANCH   3   5
ATOM      5  C   UNL A   1      30.501  27.296  22.961  1.00  0.00     0.211 A 
ATOM      6  C   UNL A   1      30.957  25.138  23.081  1.00  0.00     0.124 A 
ATOM      7  C   UNL A   1      31.759  25.648  22.083  1.00  0.00     0.048 A 
ATOM      8  O   UNL A   1      30.256  26.146  23.667  1.00  0.00    -0.452 OA
ATOM      9  C   UNL A   1      31.460  27.032  21.999  1.00  0.00     0.058 A 
BRANCH   6  10
ATOM     10  C   UNL A   1      30.648  23.764  23.553  1.00  0.00     0.193 C 
BRANCH  10  11
ATOM     11  N   UNL A   1      31.051  23.690  24.945  1.00  0.00    -0.331 N 
ATOM     12  O   UNL A   1      32.257  23.070  26.700  1.00  0.00    -0.248 OA
ATOM     13  C   UNL A   1      32.243  23.362  25.508  1.00  0.00     0.319 C 
ATOM     14  N   UNL A   1      33.329  23.397  24.682  1.00  0.00    -0.308 N 
ATOM     15  H   UNL A   1      30.341  23.914  25.589  1.00  0.00     0.165 HD
ATOM     16  H   UNL A   1      33.197  23.813  23.799  1.00  0.00     0.171 HD
BRANCH  14  17
ATOM     17  C   UNL A   1      34.621  22.900  24.956  1.00  0.00     0.044 A 
ATOM     18  C   UNL A   1      34.850  21.540  24.704  1.00  0.00     0.029 A 
ATOM     19  C   UNL A   1      35.655  23.680  25.488  1.00  0.00     0.049 A 
ATOM     20  C   UNL A   1      36.097  20.969  24.967  1.00  0.00     0.043 A 
ATOM     21  C   UNL A   1      36.900  23.105  25.756  1.00  0.00     0.078 A 
ATOM     22  C   UNL A   1      37.115  21.755  25.492  1.00  0.00     0.141 A 
ATOM     23  Cl  UNL A   1      38.158  24.071  26.431  1.00  0.00    -0.081 Cl
ATOM     24  F   UNL A   1      38.301  21.182  25.751  1.00  0.00    -0.205 F 
ENDBRANCH  14  17
ENDBRANCH  10  11
ENDBRANCH   6  10
ENDBRANCH   3   5
ENDBRANCH   2   3
ENDBRANCH   1   2
BRANCH   1  25
ATOM     25  C   UNL A   1      31.579  30.414  25.750  1.00  0.00     0.275 C 
BRANCH  25  26
ATOM     26  O   UNL A   1      32.971  30.466  26.115  1.00  0.00    -0.458 OA
BRANCH  26  27
ATOM     27  C   UNL A   1      33.302  31.429  27.007  1.00  0.00     0.338 C 
ATOM     28  O   UNL A   1      32.616  32.379  27.344  1.00  0.00    -0.246 OA
BRANCH  27  29
ATOM     29  C   UNL A   1      34.584  31.089  27.652  1.00  0.00     0.060 A 
ATOM     30  C   UNL A   1      34.805  29.750  27.983  1.00  0.00     0.016 A 
ATOM     31  C   UNL A   1      35.532  32.061  27.971  1.00  0.00     0.016 A 
ATOM     32  C   UNL A   1      35.974  29.370  28.635  1.00  0.00     0.010 A 
ATOM     33  C   UNL A   1      36.710  31.679  28.625  1.00  0.00     0.010 A 
ATOM     34  C   UNL A   1      36.934  30.334  28.966  1.00  0.00    -0.014 A 
BRANCH  34  35
ATOM     35  C   UNL A   1      38.166  29.920  29.679  1.00  0.00     0.031 A 
ATOM     36  C   UNL A   1      38.455  30.447  31.054  1.00  0.00     0.074 A 
ATOM     37  C   UNL A   1      39.017  29.058  29.089  1.00  0.00     0.049 A 
ATOM     38  N   UNL A   1      39.489  30.221  31.821  1.00  0.00    -0.248 NA
ATOM     39  C   UNL A   1      37.450  31.345  31.644  1.00  0.00     0.031 C 
ATOM     40  C   UNL A   1      38.835  28.473  27.760  1.00  0.00     0.029 A 
ATOM     41  N   UNL A   1      40.208  28.536  29.526  1.00  0.00    -0.354 N 
ATOM     42  C   UNL A   1      39.277  30.969  32.972  1.00  0.00     0.074 A 
ATOM     43  C   UNL A   1      38.017  31.661  32.800  1.00  0.00     0.031 C 
ATOM     44  C   UNL A   1      39.882  27.679  27.486  1.00  0.00     0.029 A 
ATOM     45  C   UNL A   1      40.821  27.721  28.604  1.00  0.00     0.049 A 
ATOM     46  H   UNL A   1      40.587  28.728  30.414  1.00  0.00     0.167 HD
ATOM     47  C   UNL A   1      40.053  31.057  34.078  1.00  0.00     0.034 A 
ATOM     48  C   UNL A   1      42.011  27.091  28.650  1.00  0.00     0.034 A 
ATOM     49  C   UNL A   1      41.285  30.338  34.263  1.00  0.00     0.049 A 
ATOM     50  C   UNL A   1      42.862  27.220  29.884  1.00  0.00     0.074 A 
ATOM     51  C   UNL A   1      42.120  30.330  35.367  1.00  0.00     0.029 A 
ATOM     52  N   UNL A   1      41.861  29.499  33.321  1.00  0.00    -0.354 N 
ATOM     53  N   UNL A   1      42.597  27.849  31.004  1.00  0.00    -0.248 NA
ATOM     54  C   UNL A   1      44.162  26.534  29.874  1.00  0.00     0.031 C 
ATOM     55  C   UNL A   1      43.205  29.490  35.089  1.00  0.00     0.029 A 
ATOM     56  C   UNL A   1      43.043  28.974  33.814  1.00  0.00     0.049 A 
ATOM     57  H   UNL A   1      41.484  29.306  32.432  1.00  0.00     0.167 HD
ATOM     58  C   UNL A   1      43.687  27.620  31.837  1.00  0.00     0.074 A 
ATOM     59  C   UNL A   1      44.603  26.771  31.102  1.00  0.00     0.031 C 
ATOM     60  C   UNL A   1      43.918  28.087  33.088  1.00  0.00     0.034 A 
BRANCH  47  61
ATOM     61  C   UNL A   1      39.566  31.934  35.199  1.00  0.00     0.023 A 
ATOM     62  C   UNL A   1      39.827  33.318  35.154  1.00  0.00     0.012 A 
ATOM     63  C   UNL A   1      38.815  31.405  36.266  1.00  0.00     0.148 A 
ATOM     64  C   UNL A   1      39.367  34.159  36.166  1.00  0.00     0.002 A 
ATOM     65  C   UNL A   1      38.332  32.255  37.255  1.00  0.00     0.091 A 
ATOM     66  F   UNL A   1      38.602  30.081  36.307  1.00  0.00    -0.205 F 
ATOM     67  C   UNL A   1      38.611  33.630  37.210  1.00  0.00     0.022 A 
BRANCH  65  68
ATOM     68  S   UNL A   1      37.298  31.664  38.600  1.00  0.00     0.127 S 
ATOM     69  O   UNL A   1      38.151  31.913  39.761  1.00  0.00    -0.237 OA
ATOM     70  O   UNL A   1      36.127  32.537  38.508  1.00  0.00    -0.237 OA
ATOM     71  O   UNL A   1      37.028  30.265  38.302  1.00  0.00    -0.744 OA
ENDBRANCH  65  68
ENDBRANCH  47  61
BRANCH  48  72
ATOM     72  C   UNL A   1      42.442  26.241  27.505  1.00  0.00     0.023 A 
ATOM     73  C   UNL A   1      43.261  26.796  26.505  1.00  0.00     0.012 A 
ATOM     74  C   UNL A   1      42.084  24.881  27.424  1.00  0.00     0.148 A 
ATOM     75  C   UNL A   1      43.705  26.017  25.436  1.00  0.00     0.002 A 
ATOM     76  C   UNL A   1      42.572  24.097  26.384  1.00  0.00     0.091 A 
ATOM     77  F   UNL A   1      41.280  24.376  28.371  1.00  0.00    -0.205 F 
ATOM     78  C   UNL A   1      43.372  24.666  25.382  1.00  0.00     0.022 A 
BRANCH  76  79
ATOM     79  S   UNL A   1      42.296  22.323  26.320  1.00  0.00     0.127 S 
ATOM     80  O   UNL A   1      40.842  22.250  26.203  1.00  0.00    -0.237 OA
ATOM     81  O   UNL A   1      43.031  21.937  25.115  1.00  0.00    -0.237 OA
ATOM     82  O   UNL A   1      42.864  21.800  27.556  1.00  0.00    -0.744 OA
ENDBRANCH  76  79
ENDBRANCH  48  72
BRANCH  60  83
ATOM     83  C   UNL A   1      45.208  27.689  33.753  1.00  0.00     0.023 A 
ATOM     84  C   UNL A   1      46.331  28.532  33.634  1.00  0.00     0.012 A 
ATOM     85  C   UNL A   1      45.289  26.534  34.555  1.00  0.00     0.148 A 
ATOM     86  C   UNL A   1      47.522  28.221  34.289  1.00  0.00     0.002 A 
ATOM     87  C   UNL A   1      46.469  26.250  35.234  1.00  0.00     0.091 A 
ATOM     88  F   UNL A   1      44.217  25.733  34.635  1.00  0.00    -0.205 F 
ATOM     89  C   UNL A   1      47.587  27.088  35.097  1.00  0.00     0.022 A 
BRANCH  87  90
ATOM     90  S   UNL A   1      46.610  24.856  36.358  1.00  0.00     0.127 S 
ATOM     91  O   UNL A   1      46.373  23.725  35.464  1.00  0.00    -0.237 OA
ATOM     92  O   UNL A   1      47.988  24.974  36.838  1.00  0.00    -0.237 OA
ATOM     93  O   UNL A   1      45.599  25.072  37.385  1.00  0.00    -0.744 OA
ENDBRANCH  87  90
ENDBRANCH  60  83
ENDBRANCH  34  35
ENDBRANCH  27  29
ENDBRANCH  26  27
ENDBRANCH  25  26
ENDBRANCH   1  25
TORSDOF 17
ENDMDL
MODEL 3
REMARK VINA RESULT:     -11.6      5.480     10.472
REMARK SMILES O=C(NCc1ccc(C(=O)OCCOC(=O)c2ccc(-c3c4nc(c(-c5cccc(S(=O)(=O)[O-])c5F)c5ccc([nH]5)c(-c5cccc(S(=O)(=O)[O-])c5F)c5nc(c(-c6cccc(S(=O)(=O)[O-])c6F)c6ccc3[nH]6)C=C5)C=C4)cc2)o1)Nc1ccc(F)c(Cl)c1
REMARK SMILES IDX 12 1 11 2 9 3 10 4 8 5 5 6 6 7 80 8 7 9 4 10 3 11 1 12 2 13
REMARK SMILES IDX 81 14 82 17 83 18 89 19 84 20 87 21 85 22 88 23 86 24 13 25
REMARK SMILES IDX 14 26 15 27 16 28 17 29 18 30 79 31 19 32 78 33 20 34 21 35
REMARK SMILES IDX 22 36 72 37 23 38 77 39 71 40 73 41 24 42 76 43 70 44 69 45
REMARK SMILES IDX 25 47 57 48 37 49 56 50 38 51 41 52 55 53 74 54 39 55 40 56
REMARK SMILES IDX 54 58 75 59 42 60 26 61 27 62 35 63 28 64 30 65 36 66 29 67
REMARK SMILES IDX 31 68 32 69 33 70 34 71 58 72 59 73 67 74 60 75 62 76 68 77
REMARK SMILES IDX 61 78 63 79 64 80 65 81 66 82 43 83 44 84 52 85 45 86 47 87
REMARK SMILES IDX 53 88 46 89 48 90 49 91 50 92 51 93
REMARK H PARENT 3 15 81 16 73 46 41 57
REMARK Flexibility Score: inf
ROOT
ATOM      1  C   UNL A   1      31.701  29.218  27.268  1.00  0.00     0.275 C 
ENDROOT
BRANCH   1   2
ATOM      2  O   UNL A   1      32.241  28.007  26.706  1.00  0.00    -0.456 OA
BRANCH   2   3
ATOM      3  C   UNL A   1      31.322  27.122  26.210  1.00  0.00     0.374 C 
ATOM      4  O   UNL A   1      30.693  26.328  26.891  1.00  0.00    -0.242 OA
BRANCH   3   5
ATOM      5  C   UNL A   1      31.144  27.338  24.791  1.00  0.00     0.211 A 
ATOM      6  C   UNL A   1      31.902  27.474  22.721  1.00  0.00     0.124 A 
ATOM      7  C   UNL A   1      30.527  27.439  22.627  1.00  0.00     0.048 A 
ATOM      8  O   UNL A   1      32.274  27.496  24.030  1.00  0.00    -0.452 OA
ATOM      9  C   UNL A   1      30.040  27.342  23.957  1.00  0.00     0.058 A 
BRANCH   6  10
ATOM     10  C   UNL A   1      33.004  27.398  21.728  1.00  0.00     0.193 C 
BRANCH  10  11
ATOM     11  N   UNL A   1      32.859  26.138  21.023  1.00  0.00    -0.331 N 
ATOM     12  O   UNL A   1      33.247  24.013  20.525  1.00  0.00    -0.248 OA
ATOM     13  C   UNL A   1      33.172  24.871  21.398  1.00  0.00     0.319 C 
ATOM     14  N   UNL A   1      33.368  24.669  22.735  1.00  0.00    -0.308 N 
ATOM     15  H   UNL A   1      32.470  26.215  20.122  1.00  0.00     0.165 HD
ATOM     16  H   UNL A   1      33.108  25.406  23.333  1.00  0.00     0.171 HD
BRANCH  14  17
ATOM     17  C   UNL A   1      33.905  23.519  23.350  1.00  0.00     0.044 A 
ATOM     18  C   UNL A   1      32.998  22.542  23.783  1.00  0.00     0.029 A 
ATOM     19  C   UNL A   1      35.274  23.326  23.572  1.00  0.00     0.049 A 
ATOM     20  C   UNL A   1      33.450  21.383  24.418  1.00  0.00     0.043 A 
ATOM     21  C   UNL A   1      35.725  22.168  24.212  1.00  0.00     0.078 A 
ATOM     22  C   UNL A   1      34.811  21.204  24.629  1.00  0.00     0.141 A 
ATOM     23  Cl  UNL A   1      37.410  21.953  24.499  1.00  0.00    -0.081 Cl
ATOM     24  F   UNL A   1      35.223  20.089  25.255  1.00  0.00    -0.205 F 
ENDBRANCH  14  17
ENDBRANCH  10  11
ENDBRANCH   6  10
ENDBRANCH   3   5
ENDBRANCH   2   3
ENDBRANCH   1   2
BRANCH   1  25
ATOM     25  C   UNL A   1      31.923  30.418  26.339  1.00  0.00     0.275 C 
BRANCH  25  26
ATOM     26  O   UNL A   1      33.302  30.833  26.309  1.00  0.00    -0.458 OA
BRANCH  26  27
ATOM     27  C   UNL A   1      33.667  31.708  27.276  1.00  0.00     0.338 C 
ATOM     28  O   UNL A   1      33.006  32.639  27.705  1.00  0.00    -0.246 OA
BRANCH  27  29
ATOM     29  C   UNL A   1      34.949  31.286  27.869  1.00  0.00     0.060 A 
ATOM     30  C   UNL A   1      35.035  29.982  28.363  1.00  0.00     0.016 A 
ATOM     31  C   UNL A   1      36.032  32.157  27.985  1.00  0.00     0.016 A 
ATOM     32  C   UNL A   1      36.202  29.537  28.977  1.00  0.00     0.010 A 
ATOM     33  C   UNL A   1      37.208  31.710  28.600  1.00  0.00     0.010 A 
ATOM     34  C   UNL A   1      37.297  30.400  29.104  1.00  0.00    -0.014 A 
BRANCH  34  35
ATOM     35  C   UNL A   1      38.527  29.921  29.778  1.00  0.00     0.031 A 
ATOM     36  C   UNL A   1      38.888  30.433  31.142  1.00  0.00     0.074 A 
ATOM     37  C   UNL A   1      39.310  29.014  29.163  1.00  0.00     0.049 A 
ATOM     38  N   UNL A   1      39.933  30.152  31.875  1.00  0.00    -0.248 NA
ATOM     39  C   UNL A   1      37.953  31.384  31.761  1.00  0.00     0.031 C 
ATOM     40  C   UNL A   1      39.054  28.439  27.843  1.00  0.00     0.029 A 
ATOM     41  N   UNL A   1      40.485  28.429  29.563  1.00  0.00    -0.354 N 
ATOM     42  C   UNL A   1      39.800  30.912  33.030  1.00  0.00     0.074 A 
ATOM     43  C   UNL A   1      38.574  31.671  32.898  1.00  0.00     0.031 C 
ATOM     44  C   UNL A   1      40.047  27.588  27.537  1.00  0.00     0.029 A 
ATOM     45  C   UNL A   1      41.023  27.581  28.624  1.00  0.00     0.049 A 
ATOM     46  H   UNL A   1      40.903  28.600  30.437  1.00  0.00     0.167 HD
ATOM     47  C   UNL A   1      40.614  30.958  34.111  1.00  0.00     0.034 A 
ATOM     48  C   UNL A   1      42.178  26.888  28.633  1.00  0.00     0.034 A 
ATOM     49  C   UNL A   1      41.812  30.174  34.258  1.00  0.00     0.049 A 
ATOM     50  C   UNL A   1      43.074  26.971  29.839  1.00  0.00     0.074 A 
ATOM     51  C   UNL A   1      42.680  30.122  35.334  1.00  0.00     0.029 A 
ATOM     52  N   UNL A   1      42.310  29.305  33.300  1.00  0.00    -0.354 N 
ATOM     53  N   UNL A   1      42.881  27.615  30.965  1.00  0.00    -0.248 NA
ATOM     54  C   UNL A   1      44.334  26.217  29.787  1.00  0.00     0.031 C 
ATOM     55  C   UNL A   1      43.708  29.225  35.023  1.00  0.00     0.029 A 
ATOM     56  C   UNL A   1      43.477  28.716  33.755  1.00  0.00     0.049 A 
ATOM     57  H   UNL A   1      41.894  29.132  32.424  1.00  0.00     0.167 HD
ATOM     58  C   UNL A   1      43.982  27.328  31.763  1.00  0.00     0.074 A 
ATOM     59  C   UNL A   1      44.827  26.430  31.000  1.00  0.00     0.031 C 
ATOM     60  C   UNL A   1      44.279  27.783  33.004  1.00  0.00     0.034 A 
BRANCH  47  61
ATOM     61  C   UNL A   1      40.213  31.862  35.244  1.00  0.00     0.023 A 
ATOM     62  C   UNL A   1      40.796  33.140  35.347  1.00  0.00     0.012 A 
ATOM     63  C   UNL A   1      39.230  31.472  36.175  1.00  0.00     0.148 A 
ATOM     64  C   UNL A   1      40.425  34.008  36.373  1.00  0.00     0.002 A 
ATOM     65  C   UNL A   1      38.842  32.356  37.176  1.00  0.00     0.091 A 
ATOM     66  F   UNL A   1      38.707  30.241  36.078  1.00  0.00    -0.205 F 
ATOM     67  C   UNL A   1      39.441  33.621  37.280  1.00  0.00     0.022 A 
BRANCH  65  68
ATOM     68  S   UNL A   1      37.538  31.959  38.347  1.00  0.00     0.127 S 
ATOM     69  O   UNL A   1      37.233  30.574  37.994  1.00  0.00    -0.237 OA
ATOM     70  O   UNL A   1      38.211  32.124  39.637  1.00  0.00    -0.237 OA
ATOM     71  O   UNL A   1      36.478  32.924  38.096  1.00  0.00    -0.744 OA
ENDBRANCH  65  68
ENDBRANCH  47  61
BRANCH  48  72
ATOM     72  C   UNL A   1      42.525  26.014  27.477  1.00  0.00     0.023 A 
ATOM     73  C   UNL A   1      43.364  26.514  26.463  1.00  0.00     0.012 A 
ATOM     74  C   UNL A   1      42.067  24.685  27.397  1.00  0.00     0.148 A 
ATOM     75  C   UNL A   1      43.730  25.710  25.383  1.00  0.00     0.002 A 
ATOM     76  C   UNL A   1      42.478  23.873  26.345  1.00  0.00     0.091 A 
ATOM     77  F   UNL A   1      41.246  24.234  28.357  1.00  0.00    -0.205 F 
ATOM     78  C   UNL A   1      43.299  24.387  25.331  1.00  0.00     0.022 A 
BRANCH  76  79
ATOM     79  S   UNL A   1      42.072  22.123  26.280  1.00  0.00     0.127 S 
ATOM     80  O   UNL A   1      42.846  21.679  25.124  1.00  0.00    -0.237 OA
ATOM     81  O   UNL A   1      42.564  21.643  27.572  1.00  0.00    -0.237 OA
ATOM     82  O   UNL A   1      40.623  22.069  26.139  1.00  0.00    -0.744 OA
ENDBRANCH  76  79
ENDBRANCH  48  72
BRANCH  60  83
ATOM     83  C   UNL A   1      45.567  27.317  33.628  1.00  0.00     0.023 A 
ATOM     84  C   UNL A   1      46.728  28.100  33.475  1.00  0.00     0.012 A 
ATOM     85  C   UNL A   1      45.612  26.157  34.425  1.00  0.00     0.148 A 
ATOM     86  C   UNL A   1      47.921  27.726  34.091  1.00  0.00     0.002 A 
ATOM     87  C   UNL A   1      46.796  25.810  35.067  1.00  0.00     0.091 A 
ATOM     88  F   UNL A   1      44.503  25.413  34.538  1.00  0.00    -0.205 F 
ATOM     89  C   UNL A   1      47.952  26.589  34.897  1.00  0.00     0.022 A 
BRANCH  87  90
ATOM     90  S   UNL A   1      46.900  24.407  36.185  1.00  0.00     0.127 S 
ATOM     91  O   UNL A   1      46.690  23.283  35.275  1.00  0.00    -0.237 OA
ATOM     92  O   UNL A   1      48.262  24.519  36.709  1.00  0.00    -0.237 OA
ATOM     93  O   UNL A   1      45.857  24.617  37.180  1.00  0.00    -0.744 OA
ENDBRANCH  87  90
ENDBRANCH  60  83
ENDBRANCH  34  35
ENDBRANCH  27  29
ENDBRANCH  26  27
ENDBRANCH  25  26
ENDBRANCH   1  25
TORSDOF 17
ENDMDL
