MODEL 1
REMARK VINA RESULT:     -12.2      0.000      0.000
REMARK SMILES O=C(OCCOC(=O)c1ccc(-n2cc(CSc3nc4ccccc4c(=O)n3-c3ccc(Br)cc3)nn2)cc1)c1ccc(-c2c3nc(c(-c4cccc(S(=O)(=O)[O-])c4F)c4ccc([nH]4)c(-c4cccc(S(=O)(=O)[O-])c4F)c4nc(c(-c5cccc(S(=O)(=O)[O-])c5F)c5ccc2[nH]5)C=C4)C=C3)cc1
REMARK SMILES IDX 5 1 4 2 3 3 2 4 1 5 40 6 41 7 102 8 42 9 101 10 43 11 44 12
REMARK SMILES IDX 45 13 95 14 46 15 100 16 94 17 96 18 47 19 99 20 93 21 92 22
REMARK SMILES IDX 48 24 80 25 60 26 79 27 61 28 64 29 78 30 97 31 62 32 63 33
REMARK SMILES IDX 77 35 98 36 65 37 49 38 50 39 58 40 51 41 53 42 59 43 52 44
REMARK SMILES IDX 54 45 55 46 56 47 57 48 81 49 82 50 90 51 83 52 85 53 91 54
REMARK SMILES IDX 84 55 86 56 87 57 88 58 89 59 66 60 67 61 75 62 68 63 70 64
REMARK SMILES IDX 76 65 69 66 71 67 72 68 73 69 74 70 6 71 7 72 8 73 9 74
REMARK SMILES IDX 10 75 39 76 11 77 38 78 12 79 13 80 14 81 37 82 15 83 36 84
REMARK SMILES IDX 16 85 17 86 18 87 19 88 28 89 20 90 26 91 21 92 25 93 27 94
REMARK SMILES IDX 22 95 24 96 23 97 29 98 30 99 35 100 31 101 34 102 32 103
REMARK SMILES IDX 33 104
REMARK H PARENT 96 23 64 34
REMARK Flexibility Score: inf
ROOT
ATOM      1  C   UNL A   1      32.797  36.408  29.378  1.00  0.00     0.275 C 
ENDROOT
BRANCH   1   2
ATOM      2  C   UNL A   1      32.377  36.517  30.844  1.00  0.00     0.275 C 
BRANCH   2   3
ATOM      3  O   UNL A   1      33.372  36.222  31.844  1.00  0.00    -0.458 OA
BRANCH   3   4
ATOM      4  C   UNL A   1      33.395  34.995  32.408  1.00  0.00     0.338 C 
ATOM      5  O   UNL A   1      32.443  34.503  32.992  1.00  0.00    -0.246 OA
BRANCH   4   6
ATOM      6  C   UNL A   1      34.608  34.226  32.046  1.00  0.00     0.060 A 
ATOM      7  C   UNL A   1      34.820  32.907  32.467  1.00  0.00     0.016 A 
ATOM      8  C   UNL A   1      35.562  34.867  31.244  1.00  0.00     0.016 A 
ATOM      9  C   UNL A   1      36.010  32.269  32.167  1.00  0.00     0.010 A 
ATOM     10  C   UNL A   1      36.735  34.215  30.908  1.00  0.00     0.010 A 
ATOM     11  C   UNL A   1      36.981  32.946  31.429  1.00  0.00    -0.014 A 
BRANCH  11  12
ATOM     12  C   UNL A   1      38.251  32.278  31.186  1.00  0.00     0.031 A 
ATOM     13  C   UNL A   1      38.159  31.036  30.372  1.00  0.00     0.074 A 
ATOM     14  C   UNL A   1      39.421  32.822  31.574  1.00  0.00     0.049 A 
ATOM     15  N   UNL A   1      38.375  29.816  30.747  1.00  0.00    -0.248 NA
ATOM     16  C   UNL A   1      37.606  31.151  29.018  1.00  0.00     0.031 C 
ATOM     17  C   UNL A   1      39.644  34.165  32.123  1.00  0.00     0.029 A 
ATOM     18  N   UNL A   1      40.686  32.347  31.416  1.00  0.00    -0.354 N 
ATOM     19  C   UNL A   1      38.232  29.040  29.593  1.00  0.00     0.074 A 
ATOM     20  C   UNL A   1      37.551  29.874  28.642  1.00  0.00     0.031 C 
ATOM     21  C   UNL A   1      40.948  34.490  31.985  1.00  0.00     0.029 A 
ATOM     22  C   UNL A   1      41.668  33.332  31.491  1.00  0.00     0.049 A 
ATOM     23  H   UNL A   1      40.889  31.395  31.263  1.00  0.00     0.167 HD
ATOM     24  C   UNL A   1      38.932  27.879  29.434  1.00  0.00     0.034 A 
ATOM     25  C   UNL A   1      42.959  33.219  31.094  1.00  0.00     0.034 A 
ATOM     26  C   UNL A   1      39.470  27.429  30.699  1.00  0.00     0.049 A 
ATOM     27  C   UNL A   1      43.276  31.775  31.036  1.00  0.00     0.074 A 
ATOM     28  C   UNL A   1      38.950  27.077  31.928  1.00  0.00     0.029 A 
ATOM     29  N   UNL A   1      40.810  27.650  30.906  1.00  0.00    -0.354 N 
ATOM     30  N   UNL A   1      43.319  31.007  32.088  1.00  0.00    -0.248 NA
ATOM     31  C   UNL A   1      43.107  31.091  29.764  1.00  0.00     0.031 C 
ATOM     32  C   UNL A   1      39.895  27.568  32.879  1.00  0.00     0.029 A 
ATOM     33  C   UNL A   1      40.965  28.125  32.177  1.00  0.00     0.049 A 
ATOM     34  H   UNL A   1      41.531  27.492  30.256  1.00  0.00     0.167 HD
ATOM     35  C   UNL A   1      42.712  29.829  31.673  1.00  0.00     0.074 A 
ATOM     36  C   UNL A   1      42.711  29.897  30.212  1.00  0.00     0.031 C 
ATOM     37  C   UNL A   1      42.002  29.060  32.552  1.00  0.00     0.034 A 
BRANCH  24  38
ATOM     38  C   UNL A   1      39.527  27.372  28.122  1.00  0.00     0.023 A 
ATOM     39  C   UNL A   1      39.246  26.022  27.790  1.00  0.00     0.012 A 
ATOM     40  C   UNL A   1      40.562  27.995  27.388  1.00  0.00     0.148 A 
ATOM     41  C   UNL A   1      40.043  25.295  26.899  1.00  0.00     0.002 A 
ATOM     42  C   UNL A   1      41.316  27.283  26.457  1.00  0.00     0.091 A 
ATOM     43  F   UNL A   1      40.906  29.257  27.636  1.00  0.00    -0.205 F 
ATOM     44  C   UNL A   1      41.089  25.923  26.244  1.00  0.00     0.022 A 
BRANCH  42  45
ATOM     45  S   UNL A   1      42.658  28.044  25.530  1.00  0.00     0.127 S 
ATOM     46  O   UNL A   1      43.008  26.975  24.599  1.00  0.00    -0.237 OA
ATOM     47  O   UNL A   1      41.983  29.195  24.927  1.00  0.00    -0.237 OA
ATOM     48  O   UNL A   1      43.671  28.401  26.512  1.00  0.00    -0.744 OA
ENDBRANCH  42  45
ENDBRANCH  24  38
BRANCH  25  49
ATOM     49  C   UNL A   1      43.851  34.241  30.498  1.00  0.00     0.023 A 
ATOM     50  C   UNL A   1      45.004  34.654  31.197  1.00  0.00     0.012 A 
ATOM     51  C   UNL A   1      43.733  34.602  29.137  1.00  0.00     0.148 A 
ATOM     52  C   UNL A   1      46.019  35.374  30.554  1.00  0.00     0.002 A 
ATOM     53  C   UNL A   1      44.740  35.324  28.504  1.00  0.00     0.091 A 
ATOM     54  F   UNL A   1      42.677  34.160  28.442  1.00  0.00    -0.205 F 
ATOM     55  C   UNL A   1      45.892  35.701  29.207  1.00  0.00     0.022 A 
BRANCH  53  56
ATOM     56  S   UNL A   1      44.657  35.766  26.763  1.00  0.00     0.127 S 
ATOM     57  O   UNL A   1      44.728  34.456  26.115  1.00  0.00    -0.237 OA
ATOM     58  O   UNL A   1      43.352  36.419  26.679  1.00  0.00    -0.237 OA
ATOM     59  O   UNL A   1      45.810  36.620  26.512  1.00  0.00    -0.744 OA
ENDBRANCH  53  56
ENDBRANCH  25  49
BRANCH  37  60
ATOM     60  C   UNL A   1      42.113  29.367  34.022  1.00  0.00     0.023 A 
ATOM     61  C   UNL A   1      43.202  28.936  34.807  1.00  0.00     0.012 A 
ATOM     62  C   UNL A   1      41.188  30.267  34.576  1.00  0.00     0.148 A 
ATOM     63  C   UNL A   1      43.353  29.379  36.124  1.00  0.00     0.002 A 
ATOM     64  C   UNL A   1      41.368  30.743  35.867  1.00  0.00     0.091 A 
ATOM     65  F   UNL A   1      40.161  30.670  33.812  1.00  0.00    -0.205 F 
ATOM     66  C   UNL A   1      42.444  30.294  36.650  1.00  0.00     0.022 A 
BRANCH  64  67
ATOM     67  S   UNL A   1      40.308  32.020  36.547  1.00  0.00     0.127 S 
ATOM     68  O   UNL A   1      39.019  31.337  36.627  1.00  0.00    -0.237 OA
ATOM     69  O   UNL A   1      40.936  32.295  37.841  1.00  0.00    -0.237 OA
ATOM     70  O   UNL A   1      40.371  33.135  35.609  1.00  0.00    -0.744 OA
ENDBRANCH  64  67
ENDBRANCH  37  60
ENDBRANCH  11  12
ENDBRANCH   4   6
ENDBRANCH   3   4
ENDBRANCH   2   3
ENDBRANCH   1   2
BRANCH   1  71
ATOM     71  O   UNL A   1      32.694  35.049  28.923  1.00  0.00    -0.458 OA
BRANCH  71  72
ATOM     72  C   UNL A   1      33.740  34.605  28.176  1.00  0.00     0.338 C 
ATOM     73  O   UNL A   1      34.742  35.208  27.859  1.00  0.00    -0.246 OA
BRANCH  72  74
ATOM     74  C   UNL A   1      33.469  33.204  27.820  1.00  0.00     0.060 A 
ATOM     75  C   UNL A   1      34.464  32.246  28.037  1.00  0.00     0.018 A 
ATOM     76  C   UNL A   1      32.245  32.852  27.244  1.00  0.00     0.018 A 
ATOM     77  C   UNL A   1      34.211  30.907  27.758  1.00  0.00     0.029 A 
ATOM     78  C   UNL A   1      32.025  31.527  26.867  1.00  0.00     0.029 A 
ATOM     79  C   UNL A   1      33.004  30.561  27.148  1.00  0.00     0.066 A 
BRANCH  79  80
ATOM     80  N   UNL A   1      32.884  29.254  26.650  1.00  0.00    -0.220 N 
ATOM     81  C   UNL A   1      33.764  28.666  25.783  1.00  0.00     0.141 A 
ATOM     82  N   UNL A   1      32.054  28.331  27.156  1.00  0.00    -0.062 NA
ATOM     83  C   UNL A   1      33.444  27.327  25.788  1.00  0.00     0.093 A 
ATOM     84  N   UNL A   1      32.337  27.168  26.581  1.00  0.00    -0.134 NA
BRANCH  83  85
ATOM     85  C   UNL A   1      33.952  26.223  24.940  1.00  0.00     0.138 C 
BRANCH  85  86
ATOM     86  S   UNL A   1      34.468  24.616  25.565  1.00  0.00    -0.081 SA
BRANCH  86  87
ATOM     87  C   UNL A   1      33.542  23.277  24.945  1.00  0.00     0.176 A 
ATOM     88  N   UNL A   1      33.745  22.173  25.608  1.00  0.00    -0.223 NA
ATOM     89  N   UNL A   1      32.634  23.325  23.900  1.00  0.00    -0.255 N 
ATOM     90  C   UNL A   1      33.170  20.991  25.128  1.00  0.00     0.079 A 
ATOM     91  C   UNL A   1      32.640  22.183  23.088  1.00  0.00     0.266 A 
ATOM     92  C   UNL A   1      33.074  19.850  25.926  1.00  0.00     0.029 A 
ATOM     93  C   UNL A   1      32.781  20.904  23.800  1.00  0.00     0.066 A 
ATOM     94  O   UNL A   1      32.503  22.159  21.867  1.00  0.00    -0.268 OA
ATOM     95  C   UNL A   1      32.661  18.632  25.371  1.00  0.00     0.002 A 
ATOM     96  C   UNL A   1      32.426  19.685  23.214  1.00  0.00     0.016 A 
ATOM     97  C   UNL A   1      32.377  18.540  24.007  1.00  0.00     0.001 A 
BRANCH  89  98
ATOM     98  C   UNL A   1      31.719  24.401  23.574  1.00  0.00     0.051 A 
ATOM     99  C   UNL A   1      31.967  25.215  22.447  1.00  0.00     0.028 A 
ATOM    100  C   UNL A   1      30.569  24.718  24.307  1.00  0.00     0.028 A 
ATOM    101  C   UNL A   1      31.292  26.420  22.235  1.00  0.00     0.018 A 
ATOM    102  C   UNL A   1      29.923  25.954  24.144  1.00  0.00     0.018 A 
ATOM    103  C   UNL A   1      30.324  26.823  23.139  1.00  0.00     0.018 A 
ATOM    104  Br  UNL A   1      29.597  28.559  23.028  1.00  0.00    -0.051 Br
ENDBRANCH  89  98
ENDBRANCH  86  87
ENDBRANCH  85  86
ENDBRANCH  83  85
ENDBRANCH  79  80
ENDBRANCH  72  74
ENDBRANCH  71  72
ENDBRANCH   1  71
TORSDOF 19
ENDMDL
MODEL 2
REMARK VINA RESULT:     -12.0      3.050      9.229
REMARK SMILES O=C(OCCOC(=O)c1ccc(-n2cc(CSc3nc4ccccc4c(=O)n3-c3ccc(Br)cc3)nn2)cc1)c1ccc(-c2c3nc(c(-c4cccc(S(=O)(=O)[O-])c4F)c4ccc([nH]4)c(-c4cccc(S(=O)(=O)[O-])c4F)c4nc(c(-c5cccc(S(=O)(=O)[O-])c5F)c5ccc2[nH]5)C=C4)C=C3)cc1
REMARK SMILES IDX 5 1 4 2 3 3 2 4 1 5 40 6 41 7 102 8 42 9 101 10 43 11 44 12
REMARK SMILES IDX 45 13 95 14 46 15 100 16 94 17 96 18 47 19 99 20 93 21 92 22
REMARK SMILES IDX 48 24 80 25 60 26 79 27 61 28 64 29 78 30 97 31 62 32 63 33
REMARK SMILES IDX 77 35 98 36 65 37 49 38 50 39 58 40 51 41 53 42 59 43 52 44
REMARK SMILES IDX 54 45 55 46 56 47 57 48 81 49 82 50 90 51 83 52 85 53 91 54
REMARK SMILES IDX 84 55 86 56 87 57 88 58 89 59 66 60 67 61 75 62 68 63 70 64
REMARK SMILES IDX 76 65 69 66 71 67 72 68 73 69 74 70 6 71 7 72 8 73 9 74
REMARK SMILES IDX 10 75 39 76 11 77 38 78 12 79 13 80 14 81 37 82 15 83 36 84
REMARK SMILES IDX 16 85 17 86 18 87 19 88 28 89 20 90 26 91 21 92 25 93 27 94
REMARK SMILES IDX 22 95 24 96 23 97 29 98 30 99 35 100 31 101 34 102 32 103
REMARK SMILES IDX 33 104
REMARK H PARENT 96 23 64 34
REMARK Flexibility Score: inf
ROOT
ATOM      1  C   UNL A   1      41.066  21.768  26.540  1.00  0.00     0.275 C 
ENDROOT
BRANCH   1   2
ATOM      2  C   UNL A   1      41.725  23.143  26.428  1.00  0.00     0.275 C 
BRANCH   2   3
ATOM      3  O   UNL A   1      40.888  24.299  26.624  1.00  0.00    -0.458 OA
BRANCH   3   4
ATOM      4  C   UNL A   1      41.269  25.485  26.100  1.00  0.00     0.338 C 
ATOM      5  O   UNL A   1      41.492  25.658  24.913  1.00  0.00    -0.246 OA
BRANCH   4   6
ATOM      6  C   UNL A   1      41.165  26.596  27.074  1.00  0.00     0.060 A 
ATOM      7  C   UNL A   1      40.884  27.913  26.690  1.00  0.00     0.016 A 
ATOM      8  C   UNL A   1      41.354  26.287  28.428  1.00  0.00     0.016 A 
ATOM      9  C   UNL A   1      40.883  28.923  27.636  1.00  0.00     0.010 A 
ATOM     10  C   UNL A   1      41.312  27.289  29.381  1.00  0.00     0.010 A 
ATOM     11  C   UNL A   1      41.145  28.610  28.970  1.00  0.00    -0.014 A 
BRANCH  11  12
ATOM     12  C   UNL A   1      41.206  29.700  29.933  1.00  0.00     0.031 A 
ATOM     13  C   UNL A   1      39.885  30.257  30.332  1.00  0.00     0.074 A 
ATOM     14  C   UNL A   1      42.369  30.079  30.498  1.00  0.00     0.049 A 
ATOM     15  N   UNL A   1      39.400  31.429  30.074  1.00  0.00    -0.248 NA
ATOM     16  C   UNL A   1      38.925  29.342  30.959  1.00  0.00     0.031 C 
ATOM     17  C   UNL A   1      43.673  29.414  30.392  1.00  0.00     0.029 A 
ATOM     18  N   UNL A   1      42.602  31.055  31.417  1.00  0.00    -0.354 N 
ATOM     19  C   UNL A   1      38.170  31.478  30.736  1.00  0.00     0.074 A 
ATOM     20  C   UNL A   1      37.844  30.116  31.060  1.00  0.00     0.031 C 
ATOM     21  C   UNL A   1      44.464  29.823  31.407  1.00  0.00     0.029 A 
ATOM     22  C   UNL A   1      43.785  30.882  32.130  1.00  0.00     0.049 A 
ATOM     23  H   UNL A   1      41.991  31.814  31.563  1.00  0.00     0.167 HD
ATOM     24  C   UNL A   1      37.668  32.659  31.200  1.00  0.00     0.034 A 
ATOM     25  C   UNL A   1      44.136  31.509  33.279  1.00  0.00     0.034 A 
ATOM     26  C   UNL A   1      38.350  33.779  30.593  1.00  0.00     0.049 A 
ATOM     27  C   UNL A   1      43.311  32.733  33.381  1.00  0.00     0.074 A 
ATOM     28  C   UNL A   1      38.547  34.241  29.306  1.00  0.00     0.029 A 
ATOM     29  N   UNL A   1      39.284  34.421  31.369  1.00  0.00    -0.354 N 
ATOM     30  N   UNL A   1      43.417  33.740  32.560  1.00  0.00    -0.248 NA
ATOM     31  C   UNL A   1      42.063  32.654  34.122  1.00  0.00     0.031 C 
ATOM     32  C   UNL A   1      39.877  34.758  29.303  1.00  0.00     0.029 A 
ATOM     33  C   UNL A   1      40.388  34.648  30.598  1.00  0.00     0.049 A 
ATOM     34  H   UNL A   1      39.177  34.674  32.314  1.00  0.00     0.167 HD
ATOM     35  C   UNL A   1      42.104  34.126  32.327  1.00  0.00     0.074 A 
ATOM     36  C   UNL A   1      41.329  33.504  33.400  1.00  0.00     0.031 C 
ATOM     37  C   UNL A   1      41.734  34.659  31.124  1.00  0.00     0.034 A 
BRANCH  24  38
ATOM     38  C   UNL A   1      36.897  32.845  32.505  1.00  0.00     0.023 A 
ATOM     39  C   UNL A   1      35.724  33.640  32.430  1.00  0.00     0.012 A 
ATOM     40  C   UNL A   1      37.391  32.582  33.803  1.00  0.00     0.148 A 
ATOM     41  C   UNL A   1      35.171  34.259  33.556  1.00  0.00     0.002 A 
ATOM     42  C   UNL A   1      36.802  33.152  34.930  1.00  0.00     0.091 A 
ATOM     43  F   UNL A   1      38.493  31.855  33.976  1.00  0.00    -0.205 F 
ATOM     44  C   UNL A   1      35.722  34.026  34.806  1.00  0.00     0.022 A 
BRANCH  42  45
ATOM     45  S   UNL A   1      37.429  32.856  36.591  1.00  0.00     0.127 S 
ATOM     46  O   UNL A   1      38.645  33.663  36.589  1.00  0.00    -0.237 OA
ATOM     47  O   UNL A   1      36.338  33.380  37.415  1.00  0.00    -0.237 OA
ATOM     48  O   UNL A   1      37.611  31.415  36.699  1.00  0.00    -0.744 OA
ENDBRANCH  42  45
ENDBRANCH  24  38
BRANCH  25  49
ATOM     49  C   UNL A   1      44.923  30.998  34.426  1.00  0.00     0.023 A 
ATOM     50  C   UNL A   1      45.902  31.818  35.022  1.00  0.00     0.012 A 
ATOM     51  C   UNL A   1      44.528  29.827  35.112  1.00  0.00     0.148 A 
ATOM     52  C   UNL A   1      46.445  31.502  36.274  1.00  0.00     0.002 A 
ATOM     53  C   UNL A   1      45.076  29.512  36.352  1.00  0.00     0.091 A 
ATOM     54  F   UNL A   1      43.551  29.073  34.592  1.00  0.00    -0.205 F 
ATOM     55  C   UNL A   1      46.026  30.355  36.943  1.00  0.00     0.022 A 
BRANCH  53  56
ATOM     56  S   UNL A   1      44.571  28.060  37.284  1.00  0.00     0.127 S 
ATOM     57  O   UNL A   1      43.119  28.069  37.097  1.00  0.00    -0.237 OA
ATOM     58  O   UNL A   1      45.270  26.989  36.578  1.00  0.00    -0.237 OA
ATOM     59  O   UNL A   1      44.997  28.298  38.656  1.00  0.00    -0.744 OA
ENDBRANCH  53  56
ENDBRANCH  25  49
BRANCH  37  60
ATOM     60  C   UNL A   1      42.816  35.065  30.159  1.00  0.00     0.023 A 
ATOM     61  C   UNL A   1      43.482  36.305  30.243  1.00  0.00     0.012 A 
ATOM     62  C   UNL A   1      43.295  34.095  29.263  1.00  0.00     0.148 A 
ATOM     63  C   UNL A   1      44.590  36.577  29.436  1.00  0.00     0.002 A 
ATOM     64  C   UNL A   1      44.425  34.350  28.499  1.00  0.00     0.091 A 
ATOM     65  F   UNL A   1      42.652  32.919  29.201  1.00  0.00    -0.205 F 
ATOM     66  C   UNL A   1      45.071  35.595  28.574  1.00  0.00     0.022 A 
BRANCH  64  67
ATOM     67  S   UNL A   1      45.165  33.078  27.473  1.00  0.00     0.127 S 
ATOM     68  O   UNL A   1      44.123  32.845  26.476  1.00  0.00    -0.237 OA
ATOM     69  O   UNL A   1      46.364  33.744  26.962  1.00  0.00    -0.237 OA
ATOM     70  O   UNL A   1      45.444  31.958  28.365  1.00  0.00    -0.744 OA
ENDBRANCH  64  67
ENDBRANCH  37  60
ENDBRANCH  11  12
ENDBRANCH   4   6
ENDBRANCH   3   4
ENDBRANCH   2   3
ENDBRANCH   1   2
BRANCH   1  71
ATOM     71  O   UNL A   1      39.635  21.892  26.539  1.00  0.00    -0.458 OA
BRANCH  71  72
ATOM     72  C   UNL A   1      38.971  20.963  25.800  1.00  0.00     0.338 C 
ATOM     73  O   UNL A   1      39.316  19.833  25.534  1.00  0.00    -0.246 OA
BRANCH  72  74
ATOM     74  C   UNL A   1      37.695  21.561  25.377  1.00  0.00     0.060 A 
ATOM     75  C   UNL A   1      36.636  20.718  25.029  1.00  0.00     0.018 A 
ATOM     76  C   UNL A   1      37.566  22.950  25.296  1.00  0.00     0.018 A 
ATOM     77  C   UNL A   1      35.404  21.260  24.678  1.00  0.00     0.029 A 
ATOM     78  C   UNL A   1      36.364  23.497  24.844  1.00  0.00     0.029 A 
ATOM     79  C   UNL A   1      35.285  22.646  24.560  1.00  0.00     0.066 A 
BRANCH  79  80
ATOM     80  N   UNL A   1      34.118  23.145  23.962  1.00  0.00    -0.220 N 
ATOM     81  C   UNL A   1      34.055  24.284  23.206  1.00  0.00     0.141 A 
ATOM     82  N   UNL A   1      32.984  22.445  23.828  1.00  0.00    -0.062 NA
ATOM     83  C   UNL A   1      32.826  24.245  22.587  1.00  0.00     0.093 A 
ATOM     84  N   UNL A   1      32.160  23.142  23.053  1.00  0.00    -0.134 NA
BRANCH  83  85
ATOM     85  C   UNL A   1      32.141  25.271  21.765  1.00  0.00     0.138 C 
BRANCH  85  86
ATOM     86  S   UNL A   1      32.534  27.027  21.796  1.00  0.00    -0.081 SA
BRANCH  86  87
ATOM     87  C   UNL A   1      31.361  28.008  22.631  1.00  0.00     0.176 A 
ATOM     88  N   UNL A   1      30.573  28.654  21.818  1.00  0.00    -0.223 NA
ATOM     89  N   UNL A   1      31.197  28.096  24.004  1.00  0.00    -0.255 N 
ATOM     90  C   UNL A   1      29.676  29.584  22.355  1.00  0.00     0.079 A 
ATOM     91  C   UNL A   1      30.864  29.381  24.455  1.00  0.00     0.266 A 
ATOM     92  C   UNL A   1      28.604  30.078  21.611  1.00  0.00     0.029 A 
ATOM     93  C   UNL A   1      29.909  30.117  23.614  1.00  0.00     0.066 A 
ATOM     94  O   UNL A   1      31.263  29.913  25.489  1.00  0.00    -0.268 OA
ATOM     95  C   UNL A   1      27.828  31.136  22.104  1.00  0.00     0.002 A 
ATOM     96  C   UNL A   1      29.187  31.214  24.095  1.00  0.00     0.016 A 
ATOM     97  C   UNL A   1      28.146  31.730  23.327  1.00  0.00     0.001 A 
BRANCH  89  98
ATOM     98  C   UNL A   1      31.337  27.034  24.979  1.00  0.00     0.051 A 
ATOM     99  C   UNL A   1      32.589  26.801  25.588  1.00  0.00     0.028 A 
ATOM    100  C   UNL A   1      30.300  26.185  25.386  1.00  0.00     0.028 A 
ATOM    101  C   UNL A   1      32.859  25.640  26.318  1.00  0.00     0.018 A 
ATOM    102  C   UNL A   1      30.569  24.984  26.063  1.00  0.00     0.018 A 
ATOM    103  C   UNL A   1      31.861  24.695  26.481  1.00  0.00     0.018 A 
ATOM    104  Br  UNL A   1      32.272  23.009  27.220  1.00  0.00    -0.051 Br
ENDBRANCH  89  98
ENDBRANCH  86  87
ENDBRANCH  85  86
ENDBRANCH  83  85
ENDBRANCH  79  80
ENDBRANCH  72  74
ENDBRANCH  71  72
ENDBRANCH   1  71
TORSDOF 19
ENDMDL
MODEL 3
REMARK VINA RESULT:     -11.9      3.183      8.911
REMARK SMILES O=C(OCCOC(=O)c1ccc(-n2cc(CSc3nc4ccccc4c(=O)n3-c3ccc(Br)cc3)nn2)cc1)c1ccc(-c2c3nc(c(-c4cccc(S(=O)(=O)[O-])c4F)c4ccc([nH]4)c(-c4cccc(S(=O)(=O)[O-])c4F)c4nc(c(-c5cccc(S(=O)(=O)[O-])c5F)c5ccc2[nH]5)C=C4)C=C3)cc1
REMARK SMILES IDX 5 1 4 2 3 3 2 4 1 5 40 6 41 7 102 8 42 9 101 10 43 11 44 12
REMARK SMILES IDX 45 13 95 14 46 15 100 16 94 17 96 18 47 19 99 20 93 21 92 22
REMARK SMILES IDX 48 24 80 25 60 26 79 27 61 28 64 29 78 30 97 31 62 32 63 33
REMARK SMILES IDX 77 35 98 36 65 37 49 38 50 39 58 40 51 41 53 42 59 43 52 44
REMARK SMILES IDX 54 45 55 46 56 47 57 48 81 49 82 50 90 51 83 52 85 53 91 54
REMARK SMILES IDX 84 55 86 56 87 57 88 58 89 59 66 60 67 61 75 62 68 63 70 64
REMARK SMILES IDX 76 65 69 66 71 67 72 68 73 69 74 70 6 71 7 72 8 73 9 74
REMARK SMILES IDX 10 75 39 76 11 77 38 78 12 79 13 80 14 81 37 82 15 83 36 84
REMARK SMILES IDX 16 85 17 86 18 87 19 88 28 89 20 90 26 91 21 92 25 93 27 94
REMARK SMILES IDX 22 95 24 96 23 97 29 98 30 99 35 100 31 101 34 102 32 103
REMARK SMILES IDX 33 104
REMARK H PARENT 96 23 64 34
REMARK Flexibility Score: inf
ROOT
ATOM      1  C   UNL A   1      40.376  20.882  26.881  1.00  0.00     0.275 C 
ENDROOT
BRANCH   1   2
ATOM      2  C   UNL A   1      40.987  22.035  27.677  1.00  0.00     0.275 C 
BRANCH   2   3
ATOM      3  O   UNL A   1      42.383  22.324  27.463  1.00  0.00    -0.458 OA
BRANCH   3   4
ATOM      4  C   UNL A   1      42.726  23.398  26.718  1.00  0.00     0.338 C 
ATOM      5  O   UNL A   1      43.068  23.327  25.549  1.00  0.00    -0.246 OA
BRANCH   4   6
ATOM      6  C   UNL A   1      42.422  24.680  27.396  1.00  0.00     0.060 A 
ATOM      7  C   UNL A   1      41.402  25.538  26.968  1.00  0.00     0.016 A 
ATOM      8  C   UNL A   1      43.201  25.019  28.511  1.00  0.00     0.016 A 
ATOM      9  C   UNL A   1      41.221  26.760  27.590  1.00  0.00     0.010 A 
ATOM     10  C   UNL A   1      42.994  26.223  29.160  1.00  0.00     0.010 A 
ATOM     11  C   UNL A   1      42.051  27.116  28.653  1.00  0.00    -0.014 A 
BRANCH  11  12
ATOM     12  C   UNL A   1      41.886  28.435  29.244  1.00  0.00     0.031 A 
ATOM     13  C   UNL A   1      42.830  29.469  28.742  1.00  0.00     0.074 A 
ATOM     14  C   UNL A   1      40.872  28.709  30.089  1.00  0.00     0.049 A 
ATOM     15  N   UNL A   1      43.787  30.058  29.385  1.00  0.00    -0.248 NA
ATOM     16  C   UNL A   1      42.809  29.768  27.306  1.00  0.00     0.031 C 
ATOM     17  C   UNL A   1      39.730  27.849  30.422  1.00  0.00     0.029 A 
ATOM     18  N   UNL A   1      40.563  29.878  30.713  1.00  0.00    -0.354 N 
ATOM     19  C   UNL A   1      44.317  30.993  28.491  1.00  0.00     0.074 A 
ATOM     20  C   UNL A   1      43.835  30.611  27.192  1.00  0.00     0.031 C 
ATOM     21  C   UNL A   1      38.740  28.608  30.941  1.00  0.00     0.029 A 
ATOM     22  C   UNL A   1      39.233  29.960  31.120  1.00  0.00     0.049 A 
ATOM     23  H   UNL A   1      41.218  30.598  30.864  1.00  0.00     0.167 HD
ATOM     24  C   UNL A   1      44.879  32.154  28.937  1.00  0.00     0.034 A 
ATOM     25  C   UNL A   1      38.571  31.081  31.496  1.00  0.00     0.034 A 
ATOM     26  C   UNL A   1      45.171  32.070  30.351  1.00  0.00     0.049 A 
ATOM     27  C   UNL A   1      39.588  32.087  31.873  1.00  0.00     0.074 A 
ATOM     28  C   UNL A   1      45.943  31.257  31.157  1.00  0.00     0.029 A 
ATOM     29  N   UNL A   1      44.305  32.723  31.194  1.00  0.00    -0.354 N 
ATOM     30  N   UNL A   1      40.374  31.960  32.905  1.00  0.00    -0.248 NA
ATOM     31  C   UNL A   1      40.037  33.019  30.851  1.00  0.00     0.031 C 
ATOM     32  C   UNL A   1      45.186  31.110  32.359  1.00  0.00     0.029 A 
ATOM     33  C   UNL A   1      44.037  31.894  32.246  1.00  0.00     0.049 A 
ATOM     34  H   UNL A   1      43.943  33.629  31.065  1.00  0.00     0.167 HD
ATOM     35  C   UNL A   1      41.607  32.408  32.450  1.00  0.00     0.074 A 
ATOM     36  C   UNL A   1      41.312  33.153  31.226  1.00  0.00     0.031 C 
ATOM     37  C   UNL A   1      42.768  31.879  32.939  1.00  0.00     0.034 A 
BRANCH  24  38
ATOM     38  C   UNL A   1      44.765  33.516  28.256  1.00  0.00     0.023 A 
ATOM     39  C   UNL A   1      43.818  33.612  27.204  1.00  0.00     0.012 A 
ATOM     40  C   UNL A   1      45.705  34.569  28.350  1.00  0.00     0.148 A 
ATOM     41  C   UNL A   1      43.898  34.603  26.221  1.00  0.00     0.002 A 
ATOM     42  C   UNL A   1      45.743  35.588  27.401  1.00  0.00     0.091 A 
ATOM     43  F   UNL A   1      46.639  34.562  29.298  1.00  0.00    -0.205 F 
ATOM     44  C   UNL A   1      44.872  35.583  26.312  1.00  0.00     0.022 A 
BRANCH  42  45
ATOM     45  S   UNL A   1      46.946  36.925  27.481  1.00  0.00     0.127 S 
ATOM     46  O   UNL A   1      46.494  37.650  28.664  1.00  0.00    -0.237 OA
ATOM     47  O   UNL A   1      48.198  36.184  27.649  1.00  0.00    -0.237 OA
ATOM     48  O   UNL A   1      46.843  37.632  26.213  1.00  0.00    -0.744 OA
ENDBRANCH  42  45
ENDBRANCH  24  38
BRANCH  25  49
ATOM     49  C   UNL A   1      37.149  31.445  31.293  1.00  0.00     0.023 A 
ATOM     50  C   UNL A   1      36.388  31.921  32.380  1.00  0.00     0.012 A 
ATOM     51  C   UNL A   1      36.617  31.594  29.992  1.00  0.00     0.148 A 
ATOM     52  C   UNL A   1      35.155  32.553  32.176  1.00  0.00     0.002 A 
ATOM     53  C   UNL A   1      35.388  32.217  29.794  1.00  0.00     0.091 A 
ATOM     54  F   UNL A   1      37.357  31.209  28.944  1.00  0.00    -0.205 F 
ATOM     55  C   UNL A   1      34.659  32.710  30.884  1.00  0.00     0.022 A 
BRANCH  53  56
ATOM     56  S   UNL A   1      34.693  32.472  28.156  1.00  0.00     0.127 S 
ATOM     57  O   UNL A   1      33.504  33.273  28.453  1.00  0.00    -0.237 OA
ATOM     58  O   UNL A   1      35.766  33.200  27.483  1.00  0.00    -0.237 OA
ATOM     59  O   UNL A   1      34.403  31.144  27.633  1.00  0.00    -0.744 OA
ENDBRANCH  53  56
ENDBRANCH  25  49
BRANCH  37  60
ATOM     60  C   UNL A   1      42.695  31.003  34.161  1.00  0.00     0.023 A 
ATOM     61  C   UNL A   1      42.731  31.524  35.471  1.00  0.00     0.012 A 
ATOM     62  C   UNL A   1      42.399  29.643  33.978  1.00  0.00     0.148 A 
ATOM     63  C   UNL A   1      42.494  30.699  36.575  1.00  0.00     0.002 A 
ATOM     64  C   UNL A   1      42.117  28.837  35.072  1.00  0.00     0.091 A 
ATOM     65  F   UNL A   1      42.365  29.166  32.723  1.00  0.00    -0.205 F 
ATOM     66  C   UNL A   1      42.173  29.358  36.375  1.00  0.00     0.022 A 
BRANCH  64  67
ATOM     67  S   UNL A   1      41.568  27.142  34.866  1.00  0.00     0.127 S 
ATOM     68  O   UNL A   1      40.421  27.298  33.976  1.00  0.00    -0.237 OA
ATOM     69  O   UNL A   1      42.736  26.505  34.254  1.00  0.00    -0.237 OA
ATOM     70  O   UNL A   1      41.262  26.655  36.206  1.00  0.00    -0.744 OA
ENDBRANCH  64  67
ENDBRANCH  37  60
ENDBRANCH  11  12
ENDBRANCH   4   6
ENDBRANCH   3   4
ENDBRANCH   2   3
ENDBRANCH   1   2
BRANCH   1  71
ATOM     71  O   UNL A   1      39.260  21.341  26.101  1.00  0.00    -0.458 OA
BRANCH  71  72
ATOM     72  C   UNL A   1      38.601  20.377  25.405  1.00  0.00     0.338 C 
ATOM     73  O   UNL A   1      38.923  19.221  25.239  1.00  0.00    -0.246 OA
BRANCH  72  74
ATOM     74  C   UNL A   1      37.361  20.974  24.883  1.00  0.00     0.060 A 
ATOM     75  C   UNL A   1      37.434  22.187  24.193  1.00  0.00     0.018 A 
ATOM     76  C   UNL A   1      36.133  20.346  25.108  1.00  0.00     0.018 A 
ATOM     77  C   UNL A   1      36.283  22.743  23.644  1.00  0.00     0.029 A 
ATOM     78  C   UNL A   1      34.963  20.953  24.650  1.00  0.00     0.029 A 
ATOM     79  C   UNL A   1      35.052  22.137  23.901  1.00  0.00     0.066 A 
BRANCH  79  80
ATOM     80  N   UNL A   1      33.895  22.853  23.556  1.00  0.00    -0.220 N 
ATOM     81  C   UNL A   1      33.859  23.898  22.673  1.00  0.00     0.141 A 
ATOM     82  N   UNL A   1      32.649  22.444  23.832  1.00  0.00    -0.062 NA
ATOM     83  C   UNL A   1      32.524  24.107  22.407  1.00  0.00     0.093 A 
ATOM     84  N   UNL A   1      31.804  23.249  23.197  1.00  0.00    -0.134 NA
BRANCH  83  85
ATOM     85  C   UNL A   1      31.864  25.190  21.641  1.00  0.00     0.138 C 
BRANCH  85  86
ATOM     86  S   UNL A   1      32.354  26.921  21.700  1.00  0.00    -0.081 SA
BRANCH  86  87
ATOM     87  C   UNL A   1      31.269  27.941  22.604  1.00  0.00     0.176 A 
ATOM     88  N   UNL A   1      30.435  28.591  21.841  1.00  0.00    -0.223 NA
ATOM     89  N   UNL A   1      31.214  28.056  23.983  1.00  0.00    -0.255 N 
ATOM     90  C   UNL A   1      29.601  29.550  22.429  1.00  0.00     0.079 A 
ATOM     91  C   UNL A   1      30.942  29.355  24.435  1.00  0.00     0.266 A 
ATOM     92  C   UNL A   1      28.485  30.054  21.760  1.00  0.00     0.029 A 
ATOM     93  C   UNL A   1      29.941  30.098  23.656  1.00  0.00     0.066 A 
ATOM     94  O   UNL A   1      31.431  29.896  25.425  1.00  0.00    -0.268 OA
ATOM     95  C   UNL A   1      27.772  31.137  22.291  1.00  0.00     0.002 A 
ATOM     96  C   UNL A   1      29.281  31.218  24.171  1.00  0.00     0.016 A 
ATOM     97  C   UNL A   1      28.195  31.745  23.475  1.00  0.00     0.001 A 
BRANCH  89  98
ATOM     98  C   UNL A   1      31.406  27.008  24.965  1.00  0.00     0.051 A 
ATOM     99  C   UNL A   1      32.706  26.705  25.422  1.00  0.00     0.028 A 
ATOM    100  C   UNL A   1      30.376  26.238  25.519  1.00  0.00     0.028 A 
ATOM    101  C   UNL A   1      32.992  25.545  26.147  1.00  0.00     0.018 A 
ATOM    102  C   UNL A   1      30.651  25.037  26.194  1.00  0.00     0.018 A 
ATOM    103  C   UNL A   1      31.964  24.671  26.458  1.00  0.00     0.018 A 
ATOM    104  Br  UNL A   1      32.357  22.978  27.190  1.00  0.00    -0.051 Br
ENDBRANCH  89  98
ENDBRANCH  86  87
ENDBRANCH  85  86
ENDBRANCH  83  85
ENDBRANCH  79  80
ENDBRANCH  72  74
ENDBRANCH  71  72
ENDBRANCH   1  71
TORSDOF 19
ENDMDL
