MODEL 1
REMARK VINA RESULT:     -11.8      0.000      0.000
REMARK SMILES CC(C)n1cc(C(=O)OCCOC(=O)c2ccc(-c3c4nc(c(-c5cccc(S(=O)(=O)[O-])c5F)c5ccc([nH]5)c(-c5cccc(S(=O)(=O)[O-])c5F)c5nc(c(-c6cccc(S(=O)(=O)[O-])c6F)c6ccc3[nH]6)C=C5)C=C4)cc2)c2ccccc2c1=O
REMARK SMILES IDX 11 1 10 2 9 3 7 4 8 5 6 6 4 7 5 8 84 9 83 10 85 11 78 12
REMARK SMILES IDX 82 13 79 14 81 15 80 16 2 17 1 18 3 19 12 20 13 21 14 22
REMARK SMILES IDX 15 23 16 24 77 25 17 26 76 27 18 28 19 29 20 30 70 31 21 32
REMARK SMILES IDX 75 33 69 34 71 35 22 36 74 37 68 38 67 39 23 41 55 42 35 43
REMARK SMILES IDX 54 44 36 45 39 46 53 47 72 48 37 49 38 50 52 52 73 53 40 54
REMARK SMILES IDX 24 55 25 56 33 57 26 58 28 59 34 60 27 61 29 62 30 63 31 64
REMARK SMILES IDX 32 65 56 66 57 67 65 68 58 69 60 70 66 71 59 72 61 73 62 74
REMARK SMILES IDX 63 75 64 76 41 77 42 78 50 79 43 80 45 81 51 82 44 83 46 84
REMARK SMILES IDX 47 85 48 86 49 87
REMARK H PARENT 71 40 39 51
REMARK Flexibility Score: inf
ROOT
ATOM      1  C   UNL A   1      31.940  29.733  25.469  1.00  0.00     0.275 C 
ENDROOT
BRANCH   1   2
ATOM      2  C   UNL A   1      33.096  29.218  24.614  1.00  0.00     0.275 C 
BRANCH   2   3
ATOM      3  O   UNL A   1      33.415  27.858  24.986  1.00  0.00    -0.458 OA
BRANCH   3   4
ATOM      4  C   UNL A   1      33.381  26.907  24.009  1.00  0.00     0.340 C 
ATOM      5  O   UNL A   1      33.317  27.120  22.810  1.00  0.00    -0.246 OA
BRANCH   4   6
ATOM      6  C   UNL A   1      33.468  25.550  24.624  1.00  0.00     0.084 A 
ATOM      7  N   UNL A   1      34.857  23.612  24.926  1.00  0.00    -0.312 N 
ATOM      8  C   UNL A   1      34.629  24.898  24.462  1.00  0.00     0.105 A 
ATOM      9  C   UNL A   1      33.845  22.857  25.535  1.00  0.00     0.258 A 
ATOM     10  C   UNL A   1      32.542  23.542  25.751  1.00  0.00     0.048 A 
ATOM     11  O   UNL A   1      33.995  21.699  25.915  1.00  0.00    -0.269 OA
ATOM     12  C   UNL A   1      32.397  24.894  25.396  1.00  0.00     0.003 A 
ATOM     13  C   UNL A   1      31.496  22.835  26.365  1.00  0.00     0.014 A 
ATOM     14  C   UNL A   1      31.215  25.538  25.779  1.00  0.00     0.010 A 
ATOM     15  C   UNL A   1      30.302  23.480  26.665  1.00  0.00     0.001 A 
ATOM     16  C   UNL A   1      30.171  24.836  26.397  1.00  0.00     0.001 A 
BRANCH   7  17
ATOM     17  C   UNL A   1      36.202  23.019  24.808  1.00  0.00     0.084 C 
ATOM     18  C   UNL A   1      36.682  22.941  23.358  1.00  0.00     0.031 C 
ATOM     19  C   UNL A   1      37.208  23.756  25.698  1.00  0.00     0.031 C 
ENDBRANCH   7  17
ENDBRANCH   4   6
ENDBRANCH   3   4
ENDBRANCH   2   3
ENDBRANCH   1   2
BRANCH   1  20
ATOM     20  O   UNL A   1      32.448  29.921  26.795  1.00  0.00    -0.458 OA
BRANCH  20  21
ATOM     21  C   UNL A   1      32.978  31.131  27.093  1.00  0.00     0.338 C 
ATOM     22  O   UNL A   1      32.471  32.223  26.927  1.00  0.00    -0.246 OA
BRANCH  21  23
ATOM     23  C   UNL A   1      34.306  30.881  27.691  1.00  0.00     0.060 A 
ATOM     24  C   UNL A   1      35.173  31.925  27.995  1.00  0.00     0.016 A 
ATOM     25  C   UNL A   1      34.671  29.569  27.989  1.00  0.00     0.016 A 
ATOM     26  C   UNL A   1      36.425  31.634  28.558  1.00  0.00     0.010 A 
ATOM     27  C   UNL A   1      35.878  29.295  28.625  1.00  0.00     0.010 A 
ATOM     28  C   UNL A   1      36.786  30.315  28.908  1.00  0.00    -0.014 A 
BRANCH  28  29
ATOM     29  C   UNL A   1      38.059  30.005  29.628  1.00  0.00     0.031 A 
ATOM     30  C   UNL A   1      38.337  30.494  31.034  1.00  0.00     0.074 A 
ATOM     31  C   UNL A   1      39.040  29.355  28.967  1.00  0.00     0.049 A 
ATOM     32  N   UNL A   1      39.398  30.292  31.776  1.00  0.00    -0.248 NA
ATOM     33  C   UNL A   1      37.337  31.366  31.673  1.00  0.00     0.031 C 
ATOM     34  C   UNL A   1      39.006  28.984  27.551  1.00  0.00     0.029 A 
ATOM     35  N   UNL A   1      40.257  28.887  29.398  1.00  0.00    -0.354 N 
ATOM     36  C   UNL A   1      39.225  31.057  32.925  1.00  0.00     0.074 A 
ATOM     37  C   UNL A   1      37.969  31.759  32.772  1.00  0.00     0.031 C 
ATOM     38  C   UNL A   1      40.104  28.273  27.253  1.00  0.00     0.029 A 
ATOM     39  C   UNL A   1      40.932  28.156  28.447  1.00  0.00     0.049 A 
ATOM     40  H   UNL A   1      40.612  29.057  30.301  1.00  0.00     0.167 HD
ATOM     41  C   UNL A   1      40.006  31.134  34.030  1.00  0.00     0.034 A 
ATOM     42  C   UNL A   1      42.066  27.434  28.532  1.00  0.00     0.034 A 
ATOM     43  C   UNL A   1      41.174  30.325  34.250  1.00  0.00     0.049 A 
ATOM     44  C   UNL A   1      42.800  27.354  29.839  1.00  0.00     0.074 A 
ATOM     45  C   UNL A   1      41.928  30.203  35.405  1.00  0.00     0.029 A 
ATOM     46  N   UNL A   1      41.741  29.481  33.312  1.00  0.00    -0.354 N 
ATOM     47  N   UNL A   1      42.515  27.940  30.975  1.00  0.00    -0.248 NA
ATOM     48  C   UNL A   1      43.989  26.490  29.888  1.00  0.00     0.031 C 
ATOM     49  C   UNL A   1      42.939  29.266  35.171  1.00  0.00     0.029 A 
ATOM     50  C   UNL A   1      42.819  28.815  33.867  1.00  0.00     0.049 A 
ATOM     51  H   UNL A   1      41.423  29.369  32.386  1.00  0.00     0.167 HD
ATOM     52  C   UNL A   1      43.477  27.504  31.878  1.00  0.00     0.074 A 
ATOM     53  C   UNL A   1      44.341  26.587  31.165  1.00  0.00     0.031 C 
ATOM     54  C   UNL A   1      43.637  27.855  33.175  1.00  0.00     0.034 A 
BRANCH  41  55
ATOM     55  C   UNL A   1      39.561  32.024  35.163  1.00  0.00     0.023 A 
ATOM     56  C   UNL A   1      39.800  33.411  35.071  1.00  0.00     0.012 A 
ATOM     57  C   UNL A   1      38.809  31.521  36.245  1.00  0.00     0.148 A 
ATOM     58  C   UNL A   1      39.322  34.281  36.047  1.00  0.00     0.002 A 
ATOM     59  C   UNL A   1      38.305  32.401  37.197  1.00  0.00     0.091 A 
ATOM     60  F   UNL A   1      38.593  30.201  36.314  1.00  0.00    -0.205 F 
ATOM     61  C   UNL A   1      38.567  33.779  37.105  1.00  0.00     0.022 A 
BRANCH  59  62
ATOM     62  S   UNL A   1      37.258  31.876  38.561  1.00  0.00     0.127 S 
ATOM     63  O   UNL A   1      37.003  30.478  38.216  1.00  0.00    -0.237 OA
ATOM     64  O   UNL A   1      38.139  32.067  39.714  1.00  0.00    -0.237 OA
ATOM     65  O   UNL A   1      36.090  32.745  38.533  1.00  0.00    -0.744 OA
ENDBRANCH  59  62
ENDBRANCH  41  55
BRANCH  42  66
ATOM     66  C   UNL A   1      42.474  26.596  27.373  1.00  0.00     0.023 A 
ATOM     67  C   UNL A   1      43.297  27.174  26.386  1.00  0.00     0.012 A 
ATOM     68  C   UNL A   1      42.135  25.234  27.283  1.00  0.00     0.148 A 
ATOM     69  C   UNL A   1      43.764  26.412  25.317  1.00  0.00     0.002 A 
ATOM     70  C   UNL A   1      42.633  24.472  26.233  1.00  0.00     0.091 A 
ATOM     71  F   UNL A   1      41.356  24.711  28.240  1.00  0.00    -0.205 F 
ATOM     72  C   UNL A   1      43.440  25.060  25.245  1.00  0.00     0.022 A 
BRANCH  70  73
ATOM     73  S   UNL A   1      42.359  22.702  26.102  1.00  0.00     0.127 S 
ATOM     74  O   UNL A   1      43.048  22.205  27.290  1.00  0.00    -0.237 OA
ATOM     75  O   UNL A   1      40.900  22.620  26.157  1.00  0.00    -0.237 OA
ATOM     76  O   UNL A   1      42.941  22.305  24.828  1.00  0.00    -0.744 OA
ENDBRANCH  70  73
ENDBRANCH  42  66
BRANCH  54  77
ATOM     77  C   UNL A   1      44.779  27.251  33.941  1.00  0.00     0.023 A 
ATOM     78  C   UNL A   1      46.021  27.912  33.952  1.00  0.00     0.012 A 
ATOM     79  C   UNL A   1      44.585  26.115  34.752  1.00  0.00     0.148 A 
ATOM     80  C   UNL A   1      47.060  27.450  34.758  1.00  0.00     0.002 A 
ATOM     81  C   UNL A   1      45.615  25.679  35.577  1.00  0.00     0.091 A 
ATOM     82  F   UNL A   1      43.394  25.500  34.715  1.00  0.00    -0.205 F 
ATOM     83  C   UNL A   1      46.854  26.342  35.578  1.00  0.00     0.022 A 
BRANCH  81  84
ATOM     84  S   UNL A   1      45.425  24.308  36.722  1.00  0.00     0.127 S 
ATOM     85  O   UNL A   1      45.040  23.220  35.825  1.00  0.00    -0.237 OA
ATOM     86  O   UNL A   1      46.770  24.188  37.285  1.00  0.00    -0.237 OA
ATOM     87  O   UNL A   1      44.403  24.716  37.676  1.00  0.00    -0.744 OA
ENDBRANCH  81  84
ENDBRANCH  54  77
ENDBRANCH  28  29
ENDBRANCH  21  23
ENDBRANCH  20  21
ENDBRANCH   1  20
TORSDOF 15
ENDMDL
MODEL 2
REMARK VINA RESULT:     -11.7      1.101      1.816
REMARK SMILES CC(C)n1cc(C(=O)OCCOC(=O)c2ccc(-c3c4nc(c(-c5cccc(S(=O)(=O)[O-])c5F)c5ccc([nH]5)c(-c5cccc(S(=O)(=O)[O-])c5F)c5nc(c(-c6cccc(S(=O)(=O)[O-])c6F)c6ccc3[nH]6)C=C5)C=C4)cc2)c2ccccc2c1=O
REMARK SMILES IDX 11 1 10 2 9 3 7 4 8 5 6 6 4 7 5 8 84 9 83 10 85 11 78 12
REMARK SMILES IDX 82 13 79 14 81 15 80 16 2 17 1 18 3 19 12 20 13 21 14 22
REMARK SMILES IDX 15 23 16 24 77 25 17 26 76 27 18 28 19 29 20 30 70 31 21 32
REMARK SMILES IDX 75 33 69 34 71 35 22 36 74 37 68 38 67 39 23 41 55 42 35 43
REMARK SMILES IDX 54 44 36 45 39 46 53 47 72 48 37 49 38 50 52 52 73 53 40 54
REMARK SMILES IDX 24 55 25 56 33 57 26 58 28 59 34 60 27 61 29 62 30 63 31 64
REMARK SMILES IDX 32 65 56 66 57 67 65 68 58 69 60 70 66 71 59 72 61 73 62 74
REMARK SMILES IDX 63 75 64 76 41 77 42 78 50 79 43 80 45 81 51 82 44 83 46 84
REMARK SMILES IDX 47 85 48 86 49 87
REMARK H PARENT 71 40 39 51
REMARK Flexibility Score: inf
ROOT
ATOM      1  C   UNL A   1      31.771  29.765  26.271  1.00  0.00     0.275 C 
ENDROOT
BRANCH   1   2
ATOM      2  C   UNL A   1      31.718  28.599  27.255  1.00  0.00     0.275 C 
BRANCH   2   3
ATOM      3  O   UNL A   1      32.291  27.418  26.649  1.00  0.00    -0.458 OA
BRANCH   3   4
ATOM      4  C   UNL A   1      31.456  26.376  26.371  1.00  0.00     0.340 C 
ATOM      5  O   UNL A   1      30.317  26.246  26.788  1.00  0.00    -0.246 OA
BRANCH   4   6
ATOM      6  C   UNL A   1      32.131  25.422  25.445  1.00  0.00     0.084 A 
ATOM      7  N   UNL A   1      33.483  23.439  25.303  1.00  0.00    -0.312 N 
ATOM      8  C   UNL A   1      32.766  24.387  26.017  1.00  0.00     0.105 A 
ATOM      9  C   UNL A   1      33.669  23.543  23.918  1.00  0.00     0.258 A 
ATOM     10  C   UNL A   1      32.972  24.666  23.235  1.00  0.00     0.048 A 
ATOM     11  O   UNL A   1      34.337  22.750  23.260  1.00  0.00    -0.269 OA
ATOM     12  C   UNL A   1      32.137  25.521  23.973  1.00  0.00     0.003 A 
ATOM     13  C   UNL A   1      33.118  24.811  21.847  1.00  0.00     0.014 A 
ATOM     14  C   UNL A   1      31.370  26.449  23.259  1.00  0.00     0.010 A 
ATOM     15  C   UNL A   1      32.402  25.793  21.170  1.00  0.00     0.001 A 
ATOM     16  C   UNL A   1      31.509  26.593  21.872  1.00  0.00     0.001 A 
BRANCH   7  17
ATOM     17  C   UNL A   1      34.047  22.270  26.003  1.00  0.00     0.084 C 
ATOM     18  C   UNL A   1      34.416  22.579  27.456  1.00  0.00     0.031 C 
ATOM     19  C   UNL A   1      33.109  21.063  25.903  1.00  0.00     0.031 C 
ENDBRANCH   7  17
ENDBRANCH   4   6
ENDBRANCH   3   4
ENDBRANCH   2   3
ENDBRANCH   1   2
BRANCH   1  20
ATOM     20  O   UNL A   1      33.122  30.243  26.257  1.00  0.00    -0.458 OA
BRANCH  20  21
ATOM     21  C   UNL A   1      33.426  31.276  27.078  1.00  0.00     0.338 C 
ATOM     22  O   UNL A   1      32.755  32.263  27.307  1.00  0.00    -0.246 OA
BRANCH  21  23
ATOM     23  C   UNL A   1      34.741  30.972  27.679  1.00  0.00     0.060 A 
ATOM     24  C   UNL A   1      35.651  31.979  27.982  1.00  0.00     0.016 A 
ATOM     25  C   UNL A   1      35.051  29.646  27.980  1.00  0.00     0.016 A 
ATOM     26  C   UNL A   1      36.889  31.637  28.548  1.00  0.00     0.010 A 
ATOM     27  C   UNL A   1      36.245  29.324  28.619  1.00  0.00     0.010 A 
ATOM     28  C   UNL A   1      37.194  30.305  28.901  1.00  0.00    -0.014 A 
BRANCH  28  29
ATOM     29  C   UNL A   1      38.452  29.943  29.624  1.00  0.00     0.031 A 
ATOM     30  C   UNL A   1      38.747  30.422  31.031  1.00  0.00     0.074 A 
ATOM     31  C   UNL A   1      39.406  29.254  28.966  1.00  0.00     0.049 A 
ATOM     32  N   UNL A   1      39.797  30.176  31.775  1.00  0.00    -0.248 NA
ATOM     33  C   UNL A   1      37.782  31.335  31.667  1.00  0.00     0.031 C 
ATOM     34  C   UNL A   1      39.360  28.883  27.549  1.00  0.00     0.029 A 
ATOM     35  N   UNL A   1      40.602  28.736  29.400  1.00  0.00    -0.354 N 
ATOM     36  C   UNL A   1      39.653  30.949  32.922  1.00  0.00     0.074 A 
ATOM     37  C   UNL A   1      38.428  31.701  32.767  1.00  0.00     0.031 C 
ATOM     38  C   UNL A   1      40.428  28.127  27.254  1.00  0.00     0.029 A 
ATOM     39  C   UNL A   1      41.248  27.977  28.450  1.00  0.00     0.049 A 
ATOM     40  H   UNL A   1      40.962  28.892  30.303  1.00  0.00     0.167 HD
ATOM     41  C   UNL A   1      40.434  30.994  34.030  1.00  0.00     0.034 A 
ATOM     42  C   UNL A   1      42.351  27.209  28.538  1.00  0.00     0.034 A 
ATOM     43  C   UNL A   1      41.568  30.139  34.252  1.00  0.00     0.049 A 
ATOM     44  C   UNL A   1      43.079  27.101  29.846  1.00  0.00     0.074 A 
ATOM     45  C   UNL A   1      42.314  29.987  35.409  1.00  0.00     0.029 A 
ATOM     46  N   UNL A   1      42.101  29.271  33.316  1.00  0.00    -0.354 N 
ATOM     47  N   UNL A   1      42.816  27.699  30.981  1.00  0.00    -0.248 NA
ATOM     48  C   UNL A   1      44.232  26.189  29.898  1.00  0.00     0.031 C 
ATOM     49  C   UNL A   1      43.286  29.009  35.177  1.00  0.00     0.029 A 
ATOM     50  C   UNL A   1      43.150  28.562  33.874  1.00  0.00     0.049 A 
ATOM     51  H   UNL A   1      41.781  29.172  32.389  1.00  0.00     0.167 HD
ATOM     52  C   UNL A   1      43.758  27.223  31.887  1.00  0.00     0.074 A 
ATOM     53  C   UNL A   1      44.585  26.272  31.176  1.00  0.00     0.031 C 
ATOM     54  C   UNL A   1      43.929  27.569  33.184  1.00  0.00     0.034 A 
BRANCH  41  55
ATOM     55  C   UNL A   1      40.024  31.903  35.161  1.00  0.00     0.023 A 
ATOM     56  C   UNL A   1      40.448  33.248  35.140  1.00  0.00     0.012 A 
ATOM     57  C   UNL A   1      39.133  31.474  36.165  1.00  0.00     0.148 A 
ATOM     58  C   UNL A   1      40.014  34.146  36.112  1.00  0.00     0.002 A 
ATOM     59  C   UNL A   1      38.676  32.385  37.112  1.00  0.00     0.091 A 
ATOM     60  F   UNL A   1      38.742  30.192  36.168  1.00  0.00    -0.205 F 
ATOM     61  C   UNL A   1      39.122  33.718  37.092  1.00  0.00     0.022 A 
BRANCH  59  62
ATOM     62  S   UNL A   1      37.469  31.965  38.377  1.00  0.00     0.127 S 
ATOM     63  O   UNL A   1      37.158  30.577  38.037  1.00  0.00    -0.237 OA
ATOM     64  O   UNL A   1      38.243  32.131  39.606  1.00  0.00    -0.237 OA
ATOM     65  O   UNL A   1      36.369  32.905  38.214  1.00  0.00    -0.744 OA
ENDBRANCH  59  62
ENDBRANCH  41  55
BRANCH  42  66
ATOM     66  C   UNL A   1      42.728  26.354  27.380  1.00  0.00     0.023 A 
ATOM     67  C   UNL A   1      43.619  26.878  26.423  1.00  0.00     0.012 A 
ATOM     68  C   UNL A   1      42.288  25.024  27.264  1.00  0.00     0.148 A 
ATOM     69  C   UNL A   1      44.057  26.094  25.358  1.00  0.00     0.002 A 
ATOM     70  C   UNL A   1      42.756  24.237  26.219  1.00  0.00     0.091 A 
ATOM     71  F   UNL A   1      41.445  24.552  28.193  1.00  0.00    -0.205 F 
ATOM     72  C   UNL A   1      43.634  24.771  25.260  1.00  0.00     0.022 A 
BRANCH  70  73
ATOM     73  S   UNL A   1      42.352  22.494  26.058  1.00  0.00     0.127 S 
ATOM     74  O   UNL A   1      42.991  22.156  24.789  1.00  0.00    -0.237 OA
ATOM     75  O   UNL A   1      42.997  21.927  27.242  1.00  0.00    -0.237 OA
ATOM     76  O   UNL A   1      40.898  22.423  26.067  1.00  0.00    -0.744 OA
ENDBRANCH  70  73
ENDBRANCH  42  66
BRANCH  54  77
ATOM     77  C   UNL A   1      45.044  26.919  33.953  1.00  0.00     0.023 A 
ATOM     78  C   UNL A   1      46.312  27.531  33.969  1.00  0.00     0.012 A 
ATOM     79  C   UNL A   1      44.803  25.790  34.760  1.00  0.00     0.148 A 
ATOM     80  C   UNL A   1      47.328  27.027  34.777  1.00  0.00     0.002 A 
ATOM     81  C   UNL A   1      45.812  25.312  35.587  1.00  0.00     0.091 A 
ATOM     82  F   UNL A   1      43.589  25.222  34.718  1.00  0.00    -0.205 F 
ATOM     83  C   UNL A   1      47.076  25.926  35.595  1.00  0.00     0.022 A 
BRANCH  81  84
ATOM     84  S   UNL A   1      45.565  23.947  36.729  1.00  0.00     0.127 S 
ATOM     85  O   UNL A   1      46.920  23.728  37.232  1.00  0.00    -0.237 OA
ATOM     86  O   UNL A   1      44.638  24.523  37.704  1.00  0.00    -0.237 OA
ATOM     87  O   UNL A   1      45.013  22.854  35.940  1.00  0.00    -0.744 OA
ENDBRANCH  81  84
ENDBRANCH  54  77
ENDBRANCH  28  29
ENDBRANCH  21  23
ENDBRANCH  20  21
ENDBRANCH   1  20
TORSDOF 15
ENDMDL
MODEL 3
REMARK VINA RESULT:     -11.7      5.100      9.987
REMARK SMILES CC(C)n1cc(C(=O)OCCOC(=O)c2ccc(-c3c4nc(c(-c5cccc(S(=O)(=O)[O-])c5F)c5ccc([nH]5)c(-c5cccc(S(=O)(=O)[O-])c5F)c5nc(c(-c6cccc(S(=O)(=O)[O-])c6F)c6ccc3[nH]6)C=C5)C=C4)cc2)c2ccccc2c1=O
REMARK SMILES IDX 11 1 10 2 9 3 7 4 8 5 6 6 4 7 5 8 84 9 83 10 85 11 78 12
REMARK SMILES IDX 82 13 79 14 81 15 80 16 2 17 1 18 3 19 12 20 13 21 14 22
REMARK SMILES IDX 15 23 16 24 77 25 17 26 76 27 18 28 19 29 20 30 70 31 21 32
REMARK SMILES IDX 75 33 69 34 71 35 22 36 74 37 68 38 67 39 23 41 55 42 35 43
REMARK SMILES IDX 54 44 36 45 39 46 53 47 72 48 37 49 38 50 52 52 73 53 40 54
REMARK SMILES IDX 24 55 25 56 33 57 26 58 28 59 34 60 27 61 29 62 30 63 31 64
REMARK SMILES IDX 32 65 56 66 57 67 65 68 58 69 60 70 66 71 59 72 61 73 62 74
REMARK SMILES IDX 63 75 64 76 41 77 42 78 50 79 43 80 45 81 51 82 44 83 46 84
REMARK SMILES IDX 47 85 48 86 49 87
REMARK H PARENT 71 40 39 51
REMARK Flexibility Score: inf
ROOT
ATOM      1  C   UNL A   1      35.760  20.913  25.232  1.00  0.00     0.275 C 
ENDROOT
BRANCH   1   2
ATOM      2  C   UNL A   1      34.759  21.483  26.235  1.00  0.00     0.275 C 
BRANCH   2   3
ATOM      3  O   UNL A   1      34.589  22.900  26.008  1.00  0.00    -0.458 OA
BRANCH   3   4
ATOM      4  C   UNL A   1      33.364  23.443  26.261  1.00  0.00     0.340 C 
ATOM      5  O   UNL A   1      32.532  22.994  27.032  1.00  0.00    -0.246 OA
BRANCH   4   6
ATOM      6  C   UNL A   1      33.197  24.700  25.475  1.00  0.00     0.084 A 
ATOM      7  N   UNL A   1      32.878  27.078  25.611  1.00  0.00    -0.312 N 
ATOM      8  C   UNL A   1      33.087  25.834  26.184  1.00  0.00     0.105 A 
ATOM      9  C   UNL A   1      32.679  27.232  24.232  1.00  0.00     0.258 A 
ATOM     10  C   UNL A   1      32.806  26.005  23.400  1.00  0.00     0.048 A 
ATOM     11  O   UNL A   1      32.443  28.311  23.694  1.00  0.00    -0.269 OA
ATOM     12  C   UNL A   1      33.162  24.787  24.003  1.00  0.00     0.003 A 
ATOM     13  C   UNL A   1      32.625  26.104  22.012  1.00  0.00     0.014 A 
ATOM     14  C   UNL A   1      33.440  23.706  23.158  1.00  0.00     0.010 A 
ATOM     15  C   UNL A   1      32.832  24.993  21.201  1.00  0.00     0.001 A 
ATOM     16  C   UNL A   1      33.264  23.803  21.772  1.00  0.00     0.001 A 
BRANCH   7  17
ATOM     17  C   UNL A   1      32.890  28.286  26.458  1.00  0.00     0.084 C 
ATOM     18  C   UNL A   1      31.906  28.190  27.626  1.00  0.00     0.031 C 
ATOM     19  C   UNL A   1      34.308  28.606  26.939  1.00  0.00     0.031 C 
ENDBRANCH   7  17
ENDBRANCH   4   6
ENDBRANCH   3   4
ENDBRANCH   2   3
ENDBRANCH   1   2
BRANCH   1  20
ATOM     20  O   UNL A   1      36.874  21.814  25.190  1.00  0.00    -0.458 OA
BRANCH  20  21
ATOM     21  C   UNL A   1      38.080  21.331  25.571  1.00  0.00     0.338 C 
ATOM     22  O   UNL A   1      38.494  20.194  25.454  1.00  0.00    -0.246 OA
BRANCH  21  23
ATOM     23  C   UNL A   1      38.833  22.464  26.148  1.00  0.00     0.060 A 
ATOM     24  C   UNL A   1      40.053  22.274  26.788  1.00  0.00     0.016 A 
ATOM     25  C   UNL A   1      38.317  23.752  26.009  1.00  0.00     0.016 A 
ATOM     26  C   UNL A   1      40.726  23.384  27.323  1.00  0.00     0.010 A 
ATOM     27  C   UNL A   1      39.031  24.856  26.467  1.00  0.00     0.010 A 
ATOM     28  C   UNL A   1      40.238  24.696  27.146  1.00  0.00    -0.014 A 
BRANCH  28  29
ATOM     29  C   UNL A   1      41.008  25.897  27.594  1.00  0.00     0.031 A 
ATOM     30  C   UNL A   1      42.443  26.143  27.177  1.00  0.00     0.074 A 
ATOM     31  C   UNL A   1      40.443  26.739  28.485  1.00  0.00     0.049 A 
ATOM     32  N   UNL A   1      43.225  27.148  27.490  1.00  0.00    -0.248 NA
ATOM     33  C   UNL A   1      43.112  25.117  26.360  1.00  0.00     0.031 C 
ATOM     34  C   UNL A   1      39.143  26.541  29.131  1.00  0.00     0.029 A 
ATOM     35  N   UNL A   1      40.886  27.933  29.000  1.00  0.00    -0.354 N 
ATOM     36  C   UNL A   1      44.480  26.843  26.972  1.00  0.00     0.074 A 
ATOM     37  C   UNL A   1      44.369  25.542  26.351  1.00  0.00     0.031 C 
ATOM     38  C   UNL A   1      38.856  27.613  29.884  1.00  0.00     0.029 A 
ATOM     39  C   UNL A   1      39.958  28.564  29.795  1.00  0.00     0.049 A 
ATOM     40  H   UNL A   1      41.780  28.301  28.816  1.00  0.00     0.167 HD
ATOM     41  C   UNL A   1      45.609  27.594  26.964  1.00  0.00     0.034 A 
ATOM     42  C   UNL A   1      39.967  29.789  30.357  1.00  0.00     0.034 A 
ATOM     43  C   UNL A   1      45.682  28.946  27.446  1.00  0.00     0.049 A 
ATOM     44  C   UNL A   1      41.146  30.694  30.147  1.00  0.00     0.074 A 
ATOM     45  C   UNL A   1      46.728  29.846  27.322  1.00  0.00     0.029 A 
ATOM     46  N   UNL A   1      44.666  29.605  28.114  1.00  0.00    -0.354 N 
ATOM     47  N   UNL A   1      42.254  30.455  29.491  1.00  0.00    -0.248 NA
ATOM     48  C   UNL A   1      41.064  32.045  30.722  1.00  0.00     0.031 C 
ATOM     49  C   UNL A   1      46.333  31.057  27.896  1.00  0.00     0.029 A 
ATOM     50  C   UNL A   1      45.047  30.907  28.387  1.00  0.00     0.049 A 
ATOM     51  H   UNL A   1      43.798  29.207  28.358  1.00  0.00     0.167 HD
ATOM     52  C   UNL A   1      42.995  31.630  29.559  1.00  0.00     0.074 A 
ATOM     53  C   UNL A   1      42.201  32.587  30.300  1.00  0.00     0.031 C 
ATOM     54  C   UNL A   1      44.231  31.876  29.068  1.00  0.00     0.034 A 
BRANCH  41  55
ATOM     55  C   UNL A   1      46.837  27.034  26.293  1.00  0.00     0.023 A 
ATOM     56  C   UNL A   1      47.011  27.243  24.909  1.00  0.00     0.012 A 
ATOM     57  C   UNL A   1      47.867  26.419  27.034  1.00  0.00     0.148 A 
ATOM     58  C   UNL A   1      48.175  26.828  24.267  1.00  0.00     0.002 A 
ATOM     59  C   UNL A   1      49.042  26.038  26.392  1.00  0.00     0.091 A 
ATOM     60  F   UNL A   1      47.683  26.229  28.348  1.00  0.00    -0.205 F 
ATOM     61  C   UNL A   1      49.193  26.234  25.009  1.00  0.00     0.022 A 
BRANCH  59  62
ATOM     62  S   UNL A   1      50.449  25.333  27.259  1.00  0.00     0.127 S 
ATOM     63  O   UNL A   1      50.850  26.442  28.124  1.00  0.00    -0.237 OA
ATOM     64  O   UNL A   1      49.841  24.203  27.962  1.00  0.00    -0.237 OA
ATOM     65  O   UNL A   1      51.415  24.967  26.233  1.00  0.00    -0.744 OA
ENDBRANCH  59  62
ENDBRANCH  41  55
BRANCH  42  66
ATOM     66  C   UNL A   1      38.737  30.280  31.033  1.00  0.00     0.023 A 
ATOM     67  C   UNL A   1      38.630  30.120  32.429  1.00  0.00     0.012 A 
ATOM     68  C   UNL A   1      37.729  30.968  30.335  1.00  0.00     0.148 A 
ATOM     69  C   UNL A   1      37.531  30.625  33.119  1.00  0.00     0.002 A 
ATOM     70  C   UNL A   1      36.652  31.500  31.035  1.00  0.00     0.091 A 
ATOM     71  F   UNL A   1      37.860  31.110  29.009  1.00  0.00    -0.205 F 
ATOM     72  C   UNL A   1      36.546  31.322  32.425  1.00  0.00     0.022 A 
BRANCH  70  73
ATOM     73  S   UNL A   1      35.382  32.500  30.251  1.00  0.00     0.127 S 
ATOM     74  O   UNL A   1      36.141  33.679  29.844  1.00  0.00    -0.237 OA
ATOM     75  O   UNL A   1      34.954  31.634  29.153  1.00  0.00    -0.237 OA
ATOM     76  O   UNL A   1      34.371  32.728  31.274  1.00  0.00    -0.744 OA
ENDBRANCH  70  73
ENDBRANCH  42  66
BRANCH  54  77
ATOM     77  C   UNL A   1      44.829  33.236  29.291  1.00  0.00     0.023 A 
ATOM     78  C   UNL A   1      45.658  33.444  30.409  1.00  0.00     0.012 A 
ATOM     79  C   UNL A   1      44.680  34.257  28.332  1.00  0.00     0.148 A 
ATOM     80  C   UNL A   1      46.332  34.652  30.573  1.00  0.00     0.002 A 
ATOM     81  C   UNL A   1      45.380  35.448  28.486  1.00  0.00     0.091 A 
ATOM     82  F   UNL A   1      43.877  34.036  27.282  1.00  0.00    -0.205 F 
ATOM     83  C   UNL A   1      46.203  35.649  29.607  1.00  0.00     0.022 A 
BRANCH  81  84
ATOM     84  S   UNL A   1      45.338  36.763  27.263  1.00  0.00     0.127 S 
ATOM     85  O   UNL A   1      46.088  36.168  26.158  1.00  0.00    -0.237 OA
ATOM     86  O   UNL A   1      43.904  36.911  27.017  1.00  0.00    -0.237 OA
ATOM     87  O   UNL A   1      45.969  37.918  27.888  1.00  0.00    -0.744 OA
ENDBRANCH  81  84
ENDBRANCH  54  77
ENDBRANCH  28  29
ENDBRANCH  21  23
ENDBRANCH  20  21
ENDBRANCH   1  20
TORSDOF 15
ENDMDL
