MODEL 1
REMARK VINA RESULT:     -12.4      0.000      0.000
REMARK SMILES CC(C)c1cc2c(cc1Cl)C=C(C(=O)OCCOC(=O)c1ccc(-c3c4nc(c(-c5cccc(S(=O)(=O)[O-])c5F)c5ccc([nH]5)c(-c5cccc(S(=O)(=O)[O-])c5F)c5nc(c(-c6cccc(S(=O)(=O)[O-])c6F)c6ccc3[nH]6)C=C5)C=C4)cc1)[C@@H](C(F)(F)F)O2
REMARK SMILES IDX 17 1 16 2 15 3 13 4 14 5 12 6 4 7 5 8 9 9 6 10 8 11 10 12
REMARK SMILES IDX 7 13 89 14 11 15 84 16 2 17 1 18 3 19 85 20 86 21 87 22
REMARK SMILES IDX 88 23 18 24 19 25 20 26 21 27 22 28 83 29 23 30 82 31 24 32
REMARK SMILES IDX 25 33 26 34 76 35 27 36 81 37 75 38 77 39 28 40 80 41 74 42
REMARK SMILES IDX 73 43 29 45 61 46 41 47 60 48 42 49 45 50 59 51 78 52 43 53
REMARK SMILES IDX 44 54 58 56 79 57 46 58 30 59 31 60 39 61 32 62 34 63 40 64
REMARK SMILES IDX 33 65 35 66 36 67 37 68 38 69 62 70 63 71 71 72 64 73 66 74
REMARK SMILES IDX 72 75 65 76 67 77 68 78 69 79 70 80 47 81 48 82 56 83 49 84
REMARK SMILES IDX 51 85 57 86 50 87 52 88 53 89 54 90 55 91
REMARK H PARENT 77 44 45 55
REMARK Flexibility Score: inf
ROOT
ATOM      1  C   UNL A   1      37.023  20.125  24.844  1.00  0.00     0.275 C 
ENDROOT
BRANCH   1   2
ATOM      2  C   UNL A   1      35.507  20.208  25.022  1.00  0.00     0.275 C 
BRANCH   2   3
ATOM      3  O   UNL A   1      34.947  21.324  24.293  1.00  0.00    -0.459 OA
BRANCH   3   4
ATOM      4  C   UNL A   1      33.607  21.474  24.406  1.00  0.00     0.338 C 
ATOM      5  O   UNL A   1      32.763  20.612  24.218  1.00  0.00    -0.246 OA
BRANCH   4   6
ATOM      6  C   UNL A   1      33.270  22.841  24.844  1.00  0.00     0.087 C 
ATOM      7  C   UNL A   1      33.182  27.864  25.324  1.00  0.00    -0.023 A 
ATOM      8  C   UNL A   1      32.785  26.778  26.145  1.00  0.00     0.052 A 
ATOM      9  C   UNL A   1      33.649  27.573  24.031  1.00  0.00     0.045 A 
ATOM     10  C   UNL A   1      32.892  25.455  25.713  1.00  0.00     0.128 A 
ATOM     11  C   UNL A   1      33.763  26.251  23.605  1.00  0.00     0.032 A 
ATOM     12  Cl  UNL A   1      34.116  28.773  22.883  1.00  0.00    -0.084 Cl
ATOM     13  C   UNL A   1      33.406  25.199  24.451  1.00  0.00     0.019 A 
ATOM     14  O   UNL A   1      32.482  24.474  26.573  1.00  0.00    -0.475 OA
ATOM     15  C   UNL A   1      33.614  23.837  24.022  1.00  0.00     0.027 C 
ATOM     16  C   UNL A   1      32.692  23.074  26.209  1.00  0.00     0.316 C 
BRANCH   7  17
ATOM     17  C   UNL A   1      33.075  29.266  25.910  1.00  0.00     0.014 C 
ATOM     18  C   UNL A   1      31.816  30.021  25.470  1.00  0.00     0.012 C 
ATOM     19  C   UNL A   1      33.247  29.275  27.429  1.00  0.00     0.012 C 
ENDBRANCH   7  17
BRANCH  16  20
ATOM     20  C   UNL A   1      33.553  22.417  27.301  1.00  0.00     0.430 C 
ATOM     21  F   UNL A   1      34.864  22.722  27.145  1.00  0.00    -0.167 F 
ATOM     22  F   UNL A   1      33.207  22.850  28.539  1.00  0.00    -0.167 F 
ATOM     23  F   UNL A   1      33.448  21.069  27.299  1.00  0.00    -0.167 F 
ENDBRANCH  16  20
ENDBRANCH   4   6
ENDBRANCH   3   4
ENDBRANCH   2   3
ENDBRANCH   1   2
BRANCH   1  24
ATOM     24  O   UNL A   1      37.664  21.226  25.510  1.00  0.00    -0.458 OA
BRANCH  24  25
ATOM     25  C   UNL A   1      38.922  20.990  25.950  1.00  0.00     0.338 C 
ATOM     26  O   UNL A   1      39.567  19.964  25.830  1.00  0.00    -0.246 OA
BRANCH  25  27
ATOM     27  C   UNL A   1      39.464  22.214  26.559  1.00  0.00     0.060 A 
ATOM     28  C   UNL A   1      40.593  22.185  27.367  1.00  0.00     0.016 A 
ATOM     29  C   UNL A   1      38.910  23.433  26.189  1.00  0.00     0.016 A 
ATOM     30  C   UNL A   1      41.146  23.394  27.811  1.00  0.00     0.010 A 
ATOM     31  C   UNL A   1      39.562  24.626  26.484  1.00  0.00     0.010 A 
ATOM     32  C   UNL A   1      40.666  24.636  27.343  1.00  0.00    -0.014 A 
BRANCH  32  33
ATOM     33  C   UNL A   1      41.287  25.931  27.757  1.00  0.00     0.031 A 
ATOM     34  C   UNL A   1      42.693  26.301  27.324  1.00  0.00     0.074 A 
ATOM     35  C   UNL A   1      40.615  26.771  28.572  1.00  0.00     0.049 A 
ATOM     36  N   UNL A   1      43.386  27.376  27.609  1.00  0.00    -0.248 NA
ATOM     37  C   UNL A   1      43.440  25.326  26.508  1.00  0.00     0.031 C 
ATOM     38  C   UNL A   1      39.309  26.502  29.181  1.00  0.00     0.029 A 
ATOM     39  N   UNL A   1      40.933  28.029  29.028  1.00  0.00    -0.354 N 
ATOM     40  C   UNL A   1      44.652  27.174  27.068  1.00  0.00     0.074 A 
ATOM     41  C   UNL A   1      44.653  25.855  26.479  1.00  0.00     0.031 C 
ATOM     42  C   UNL A   1      38.906  27.584  29.864  1.00  0.00     0.029 A 
ATOM     43  C   UNL A   1      39.936  28.614  29.776  1.00  0.00     0.049 A 
ATOM     44  H   UNL A   1      41.791  28.470  28.836  1.00  0.00     0.167 HD
ATOM     45  C   UNL A   1      45.705  28.024  27.005  1.00  0.00     0.034 A 
ATOM     46  C   UNL A   1      39.845  29.848  30.312  1.00  0.00     0.034 A 
ATOM     47  C   UNL A   1      45.669  29.382  27.465  1.00  0.00     0.049 A 
ATOM     48  C   UNL A   1      40.970  30.823  30.118  1.00  0.00     0.074 A 
ATOM     49  C   UNL A   1      46.634  30.362  27.320  1.00  0.00     0.029 A 
ATOM     50  N   UNL A   1      44.603  29.960  28.135  1.00  0.00    -0.354 N 
ATOM     51  N   UNL A   1      42.100  30.654  29.475  1.00  0.00    -0.248 NA
ATOM     52  C   UNL A   1      40.802  32.165  30.698  1.00  0.00     0.031 C 
ATOM     53  C   UNL A   1      46.148  31.539  27.897  1.00  0.00     0.029 A 
ATOM     54  C   UNL A   1      44.883  31.287  28.402  1.00  0.00     0.049 A 
ATOM     55  H   UNL A   1      43.772  29.494  28.384  1.00  0.00     0.167 HD
ATOM     56  C   UNL A   1      42.773  31.866  29.564  1.00  0.00     0.074 A 
ATOM     57  C   UNL A   1      41.915  32.771  30.301  1.00  0.00     0.031 C 
ATOM     58  C   UNL A   1      44.001  32.190  29.094  1.00  0.00     0.034 A 
BRANCH  45  59
ATOM     59  C   UNL A   1      46.953  27.551  26.306  1.00  0.00     0.023 A 
ATOM     60  C   UNL A   1      47.876  26.757  27.017  1.00  0.00     0.012 A 
ATOM     61  C   UNL A   1      47.176  27.817  24.941  1.00  0.00     0.148 A 
ATOM     62  C   UNL A   1      49.016  26.259  26.390  1.00  0.00     0.002 A 
ATOM     63  C   UNL A   1      48.296  27.287  24.313  1.00  0.00     0.091 A 
ATOM     64  F   UNL A   1      46.289  28.581  24.285  1.00  0.00    -0.205 F 
ATOM     65  C   UNL A   1      49.222  26.515  25.038  1.00  0.00     0.022 A 
BRANCH  63  66
ATOM     66  S   UNL A   1      48.630  27.499  22.559  1.00  0.00     0.127 S 
ATOM     67  O   UNL A   1      49.926  28.178  22.585  1.00  0.00    -0.237 OA
ATOM     68  O   UNL A   1      48.676  26.116  22.087  1.00  0.00    -0.237 OA
ATOM     69  O   UNL A   1      47.528  28.290  22.031  1.00  0.00    -0.744 OA
ENDBRANCH  63  66
ENDBRANCH  45  59
BRANCH  46  70
ATOM     70  C   UNL A   1      38.579  30.253  30.984  1.00  0.00     0.023 A 
ATOM     71  C   UNL A   1      38.411  29.956  32.350  1.00  0.00     0.012 A 
ATOM     72  C   UNL A   1      37.594  31.001  30.313  1.00  0.00     0.148 A 
ATOM     73  C   UNL A   1      37.281  30.394  33.039  1.00  0.00     0.002 A 
ATOM     74  C   UNL A   1      36.487  31.467  31.015  1.00  0.00     0.091 A 
ATOM     75  F   UNL A   1      37.779  31.271  29.014  1.00  0.00    -0.205 F 
ATOM     76  C   UNL A   1      36.325  31.158  32.375  1.00  0.00     0.022 A 
BRANCH  74  77
ATOM     77  S   UNL A   1      35.253  32.548  30.282  1.00  0.00     0.127 S 
ATOM     78  O   UNL A   1      34.332  32.750  31.398  1.00  0.00    -0.237 OA
ATOM     79  O   UNL A   1      36.056  33.717  29.925  1.00  0.00    -0.237 OA
ATOM     80  O   UNL A   1      34.707  31.816  29.147  1.00  0.00    -0.744 OA
ENDBRANCH  74  77
ENDBRANCH  46  70
BRANCH  58  81
ATOM     81  C   UNL A   1      44.519  33.576  29.355  1.00  0.00     0.023 A 
ATOM     82  C   UNL A   1      45.210  33.832  30.554  1.00  0.00     0.012 A 
ATOM     83  C   UNL A   1      44.446  34.572  28.363  1.00  0.00     0.148 A 
ATOM     84  C   UNL A   1      45.822  35.068  30.765  1.00  0.00     0.002 A 
ATOM     85  C   UNL A   1      45.086  35.789  28.567  1.00  0.00     0.091 A 
ATOM     86  F   UNL A   1      43.775  34.302  27.234  1.00  0.00    -0.205 F 
ATOM     87  C   UNL A   1      45.770  36.039  29.768  1.00  0.00     0.022 A 
BRANCH  85  88
ATOM     88  S   UNL A   1      45.143  37.076  27.314  1.00  0.00     0.127 S 
ATOM     89  O   UNL A   1      45.818  38.158  28.029  1.00  0.00    -0.237 OA
ATOM     90  O   UNL A   1      45.942  36.447  26.261  1.00  0.00    -0.237 OA
ATOM     91  O   UNL A   1      43.759  37.345  26.947  1.00  0.00    -0.744 OA
ENDBRANCH  85  88
ENDBRANCH  58  81
ENDBRANCH  32  33
ENDBRANCH  25  27
ENDBRANCH  24  25
ENDBRANCH   1  24
TORSDOF 16
ENDMDL
MODEL 2
REMARK VINA RESULT:     -12.2      5.515     11.763
REMARK SMILES CC(C)c1cc2c(cc1Cl)C=C(C(=O)OCCOC(=O)c1ccc(-c3c4nc(c(-c5cccc(S(=O)(=O)[O-])c5F)c5ccc([nH]5)c(-c5cccc(S(=O)(=O)[O-])c5F)c5nc(c(-c6cccc(S(=O)(=O)[O-])c6F)c6ccc3[nH]6)C=C5)C=C4)cc1)[C@@H](C(F)(F)F)O2
REMARK SMILES IDX 17 1 16 2 15 3 13 4 14 5 12 6 4 7 5 8 9 9 6 10 8 11 10 12
REMARK SMILES IDX 7 13 89 14 11 15 84 16 2 17 1 18 3 19 85 20 86 21 87 22
REMARK SMILES IDX 88 23 18 24 19 25 20 26 21 27 22 28 83 29 23 30 82 31 24 32
REMARK SMILES IDX 25 33 26 34 76 35 27 36 81 37 75 38 77 39 28 40 80 41 74 42
REMARK SMILES IDX 73 43 29 45 61 46 41 47 60 48 42 49 45 50 59 51 78 52 43 53
REMARK SMILES IDX 44 54 58 56 79 57 46 58 30 59 31 60 39 61 32 62 34 63 40 64
REMARK SMILES IDX 33 65 35 66 36 67 37 68 38 69 62 70 63 71 71 72 64 73 66 74
REMARK SMILES IDX 72 75 65 76 67 77 68 78 69 79 70 80 47 81 48 82 56 83 49 84
REMARK SMILES IDX 51 85 57 86 50 87 52 88 53 89 54 90 55 91
REMARK H PARENT 77 44 45 55
REMARK Flexibility Score: inf
ROOT
ATOM      1  C   UNL A   1      32.947  33.542  27.985  1.00  0.00     0.275 C 
ENDROOT
BRANCH   1   2
ATOM      2  C   UNL A   1      33.507  34.458  29.073  1.00  0.00     0.275 C 
BRANCH   2   3
ATOM      3  O   UNL A   1      34.322  33.726  30.015  1.00  0.00    -0.459 OA
BRANCH   3   4
ATOM      4  C   UNL A   1      34.424  34.281  31.246  1.00  0.00     0.338 C 
ATOM      5  O   UNL A   1      33.499  34.582  31.983  1.00  0.00    -0.246 OA
BRANCH   4   6
ATOM      6  C   UNL A   1      35.837  34.447  31.628  1.00  0.00     0.087 C 
ATOM      7  C   UNL A   1      40.883  34.491  31.534  1.00  0.00    -0.023 A 
ATOM      8  C   UNL A   1      39.907  34.467  32.561  1.00  0.00     0.052 A 
ATOM      9  C   UNL A   1      40.437  34.606  30.206  1.00  0.00     0.045 A 
ATOM     10  C   UNL A   1      38.541  34.509  32.276  1.00  0.00     0.128 A 
ATOM     11  C   UNL A   1      39.072  34.639  29.923  1.00  0.00     0.032 A 
ATOM     12  Cl  UNL A   1      41.488  34.709  28.842  1.00  0.00    -0.084 Cl
ATOM     13  C   UNL A   1      38.132  34.569  30.953  1.00  0.00     0.019 A 
ATOM     14  O   UNL A   1      37.674  34.483  33.333  1.00  0.00    -0.475 OA
ATOM     15  C   UNL A   1      36.726  34.516  30.632  1.00  0.00     0.027 C 
ATOM     16  C   UNL A   1      36.237  34.400  33.074  1.00  0.00     0.316 C 
BRANCH   7  17
ATOM     17  C   UNL A   1      42.345  34.388  31.948  1.00  0.00     0.014 C 
ATOM     18  C   UNL A   1      42.678  35.159  33.230  1.00  0.00     0.012 C 
ATOM     19  C   UNL A   1      42.830  32.939  32.009  1.00  0.00     0.012 C 
ENDBRANCH   7  17
BRANCH  16  20
ATOM     20  C   UNL A   1      35.697  33.137  33.764  1.00  0.00     0.430 C 
ATOM     21  F   UNL A   1      36.574  32.663  34.683  1.00  0.00    -0.167 F 
ATOM     22  F   UNL A   1      34.544  33.386  34.433  1.00  0.00    -0.167 F 
ATOM     23  F   UNL A   1      35.449  32.136  32.888  1.00  0.00    -0.167 F 
ENDBRANCH  16  20
ENDBRANCH   4   6
ENDBRANCH   3   4
ENDBRANCH   2   3
ENDBRANCH   1   2
BRANCH   1  24
ATOM     24  O   UNL A   1      34.016  32.840  27.326  1.00  0.00    -0.458 OA
BRANCH  24  25
ATOM     25  C   UNL A   1      33.991  31.493  27.448  1.00  0.00     0.338 C 
ATOM     26  O   UNL A   1      33.068  30.743  27.182  1.00  0.00    -0.246 OA
BRANCH  25  27
ATOM     27  C   UNL A   1      35.309  31.019  27.897  1.00  0.00     0.060 A 
ATOM     28  C   UNL A   1      36.379  31.890  28.055  1.00  0.00     0.016 A 
ATOM     29  C   UNL A   1      35.428  29.696  28.304  1.00  0.00     0.016 A 
ATOM     30  C   UNL A   1      37.572  31.411  28.613  1.00  0.00     0.010 A 
ATOM     31  C   UNL A   1      36.547  29.272  29.015  1.00  0.00     0.010 A 
ATOM     32  C   UNL A   1      37.662  30.106  29.141  1.00  0.00    -0.014 A 
BRANCH  32  33
ATOM     33  C   UNL A   1      38.909  29.603  29.797  1.00  0.00     0.031 A 
ATOM     34  C   UNL A   1      39.294  30.050  31.195  1.00  0.00     0.074 A 
ATOM     35  C   UNL A   1      39.738  28.777  29.125  1.00  0.00     0.049 A 
ATOM     36  N   UNL A   1      40.349  29.722  31.901  1.00  0.00    -0.248 NA
ATOM     37  C   UNL A   1      38.418  31.021  31.872  1.00  0.00     0.031 C 
ATOM     38  C   UNL A   1      39.575  28.360  27.729  1.00  0.00     0.029 A 
ATOM     39  N   UNL A   1      40.884  28.132  29.526  1.00  0.00    -0.354 N 
ATOM     40  C   UNL A   1      40.290  30.491  33.060  1.00  0.00     0.074 A 
ATOM     41  C   UNL A   1      39.126  31.337  32.945  1.00  0.00     0.031 C 
ATOM     42  C   UNL A   1      40.536  27.477  27.415  1.00  0.00     0.029 A 
ATOM     43  C   UNL A   1      41.406  27.288  28.572  1.00  0.00     0.049 A 
ATOM     44  H   UNL A   1      41.292  28.260  30.412  1.00  0.00     0.167 HD
ATOM     45  C   UNL A   1      41.089  30.458  34.152  1.00  0.00     0.034 A 
ATOM     46  C   UNL A   1      42.451  26.438  28.623  1.00  0.00     0.034 A 
ATOM     47  C   UNL A   1      42.165  29.527  34.333  1.00  0.00     0.049 A 
ATOM     48  C   UNL A   1      43.246  26.319  29.891  1.00  0.00     0.074 A 
ATOM     49  C   UNL A   1      42.942  29.323  35.459  1.00  0.00     0.029 A 
ATOM     50  N   UNL A   1      42.599  28.627  33.375  1.00  0.00    -0.354 N 
ATOM     51  N   UNL A   1      43.079  26.954  31.025  1.00  0.00    -0.248 NA
ATOM     52  C   UNL A   1      44.356  25.353  29.899  1.00  0.00     0.031 C 
ATOM     53  C   UNL A   1      43.843  28.290  35.184  1.00  0.00     0.029 A 
ATOM     54  C   UNL A   1      43.627  27.857  33.886  1.00  0.00     0.049 A 
ATOM     55  H   UNL A   1      42.230  28.549  32.465  1.00  0.00     0.167 HD
ATOM     56  C   UNL A   1      44.053  26.461  31.885  1.00  0.00     0.074 A 
ATOM     57  C   UNL A   1      44.792  25.455  31.149  1.00  0.00     0.031 C 
ATOM     58  C   UNL A   1      44.322  26.826  33.160  1.00  0.00     0.034 A 
BRANCH  45  59
ATOM     59  C   UNL A   1      40.757  31.380  35.297  1.00  0.00     0.023 A 
ATOM     60  C   UNL A   1      41.573  32.506  35.527  1.00  0.00     0.012 A 
ATOM     61  C   UNL A   1      39.608  31.184  36.088  1.00  0.00     0.148 A 
ATOM     62  C   UNL A   1      41.269  33.409  36.544  1.00  0.00     0.002 A 
ATOM     63  C   UNL A   1      39.291  32.109  37.077  1.00  0.00     0.091 A 
ATOM     64  F   UNL A   1      38.850  30.102  35.858  1.00  0.00    -0.205 F 
ATOM     65  C   UNL A   1      40.125  33.216  37.312  1.00  0.00     0.022 A 
BRANCH  63  66
ATOM     66  S   UNL A   1      37.807  31.996  38.084  1.00  0.00     0.127 S 
ATOM     67  O   UNL A   1      37.360  30.632  37.800  1.00  0.00    -0.237 OA
ATOM     68  O   UNL A   1      38.337  32.194  39.433  1.00  0.00    -0.237 OA
ATOM     69  O   UNL A   1      36.918  33.049  37.614  1.00  0.00    -0.744 OA
ENDBRANCH  63  66
ENDBRANCH  45  59
BRANCH  46  70
ATOM     70  C   UNL A   1      42.719  25.549  27.457  1.00  0.00     0.023 A 
ATOM     71  C   UNL A   1      43.571  26.010  26.435  1.00  0.00     0.012 A 
ATOM     72  C   UNL A   1      42.218  24.236  27.399  1.00  0.00     0.148 A 
ATOM     73  C   UNL A   1      43.918  25.179  25.371  1.00  0.00     0.002 A 
ATOM     74  C   UNL A   1      42.598  23.399  26.356  1.00  0.00     0.091 A 
ATOM     75  F   UNL A   1      41.411  23.822  28.386  1.00  0.00    -0.205 F 
ATOM     76  C   UNL A   1      43.441  23.871  25.337  1.00  0.00     0.022 A 
BRANCH  74  77
ATOM     77  S   UNL A   1      42.127  21.668  26.274  1.00  0.00     0.127 S 
ATOM     78  O   UNL A   1      40.718  21.759  25.899  1.00  0.00    -0.237 OA
ATOM     79  O   UNL A   1      43.013  21.167  25.223  1.00  0.00    -0.237 OA
ATOM     80  O   UNL A   1      42.386  21.121  27.599  1.00  0.00    -0.744 OA
ENDBRANCH  74  77
ENDBRANCH  46  70
BRANCH  58  81
ATOM     81  C   UNL A   1      45.463  26.152  33.867  1.00  0.00     0.023 A 
ATOM     82  C   UNL A   1      46.732  26.762  33.850  1.00  0.00     0.012 A 
ATOM     83  C   UNL A   1      45.248  25.006  34.656  1.00  0.00     0.148 A 
ATOM     84  C   UNL A   1      47.777  26.236  34.609  1.00  0.00     0.002 A 
ATOM     85  C   UNL A   1      46.286  24.507  35.435  1.00  0.00     0.091 A 
ATOM     86  F   UNL A   1      44.032  24.443  34.647  1.00  0.00    -0.205 F 
ATOM     87  C   UNL A   1      47.551  25.119  35.409  1.00  0.00     0.022 A 
BRANCH  85  88
ATOM     88  S   UNL A   1      46.074  23.120  36.557  1.00  0.00     0.127 S 
ATOM     89  O   UNL A   1      45.419  23.757  37.698  1.00  0.00    -0.237 OA
ATOM     90  O   UNL A   1      45.217  22.224  35.781  1.00  0.00    -0.237 OA
ATOM     91  O   UNL A   1      47.412  22.605  36.820  1.00  0.00    -0.744 OA
ENDBRANCH  85  88
ENDBRANCH  58  81
ENDBRANCH  32  33
ENDBRANCH  25  27
ENDBRANCH  24  25
ENDBRANCH   1  24
TORSDOF 16
ENDMDL
MODEL 3
REMARK VINA RESULT:     -12.2      1.365      1.743
REMARK SMILES CC(C)c1cc2c(cc1Cl)C=C(C(=O)OCCOC(=O)c1ccc(-c3c4nc(c(-c5cccc(S(=O)(=O)[O-])c5F)c5ccc([nH]5)c(-c5cccc(S(=O)(=O)[O-])c5F)c5nc(c(-c6cccc(S(=O)(=O)[O-])c6F)c6ccc3[nH]6)C=C5)C=C4)cc1)[C@@H](C(F)(F)F)O2
REMARK SMILES IDX 17 1 16 2 15 3 13 4 14 5 12 6 4 7 5 8 9 9 6 10 8 11 10 12
REMARK SMILES IDX 7 13 89 14 11 15 84 16 2 17 1 18 3 19 85 20 86 21 87 22
REMARK SMILES IDX 88 23 18 24 19 25 20 26 21 27 22 28 83 29 23 30 82 31 24 32
REMARK SMILES IDX 25 33 26 34 76 35 27 36 81 37 75 38 77 39 28 40 80 41 74 42
REMARK SMILES IDX 73 43 29 45 61 46 41 47 60 48 42 49 45 50 59 51 78 52 43 53
REMARK SMILES IDX 44 54 58 56 79 57 46 58 30 59 31 60 39 61 32 62 34 63 40 64
REMARK SMILES IDX 33 65 35 66 36 67 37 68 38 69 62 70 63 71 71 72 64 73 66 74
REMARK SMILES IDX 72 75 65 76 67 77 68 78 69 79 70 80 47 81 48 82 56 83 49 84
REMARK SMILES IDX 51 85 57 86 50 87 52 88 53 89 54 90 55 91
REMARK H PARENT 77 44 45 55
REMARK Flexibility Score: inf
ROOT
ATOM      1  C   UNL A   1      37.779  20.140  24.954  1.00  0.00     0.275 C 
ENDROOT
BRANCH   1   2
ATOM      2  C   UNL A   1      36.271  20.374  25.046  1.00  0.00     0.275 C 
BRANCH   2   3
ATOM      3  O   UNL A   1      35.964  21.765  25.291  1.00  0.00    -0.459 OA
BRANCH   3   4
ATOM      4  C   UNL A   1      34.787  21.995  25.919  1.00  0.00     0.338 C 
ATOM      5  O   UNL A   1      34.384  21.439  26.928  1.00  0.00    -0.246 OA
BRANCH   4   6
ATOM      6  C   UNL A   1      34.036  23.068  25.243  1.00  0.00     0.087 C 
ATOM      7  C   UNL A   1      31.273  27.198  24.359  1.00  0.00    -0.023 A 
ATOM      8  C   UNL A   1      31.551  26.012  23.633  1.00  0.00     0.052 A 
ATOM      9  C   UNL A   1      31.933  27.389  25.584  1.00  0.00     0.045 A 
ATOM     10  C   UNL A   1      32.417  25.036  24.129  1.00  0.00     0.128 A 
ATOM     11  C   UNL A   1      32.792  26.408  26.081  1.00  0.00     0.032 A 
ATOM     12  Cl  UNL A   1      31.757  28.797  26.564  1.00  0.00    -0.084 Cl
ATOM     13  C   UNL A   1      33.013  25.230  25.365  1.00  0.00     0.019 A 
ATOM     14  O   UNL A   1      32.626  23.926  23.357  1.00  0.00    -0.475 OA
ATOM     15  C   UNL A   1      33.835  24.191  25.938  1.00  0.00     0.027 C 
ATOM     16  C   UNL A   1      33.426  22.826  23.893  1.00  0.00     0.316 C 
BRANCH   7  17
ATOM     17  C   UNL A   1      30.273  28.175  23.755  1.00  0.00     0.014 C 
ATOM     18  C   UNL A   1      30.830  28.972  22.570  1.00  0.00     0.012 C 
ATOM     19  C   UNL A   1      28.939  27.507  23.418  1.00  0.00     0.012 C 
ENDBRANCH   7  17
BRANCH  16  20
ATOM     20  C   UNL A   1      32.560  21.555  23.890  1.00  0.00     0.430 C 
ATOM     21  F   UNL A   1      31.743  21.519  22.808  1.00  0.00    -0.167 F 
ATOM     22  F   UNL A   1      33.318  20.433  23.831  1.00  0.00    -0.167 F 
ATOM     23  F   UNL A   1      31.780  21.461  24.990  1.00  0.00    -0.167 F 
ENDBRANCH  16  20
ENDBRANCH   4   6
ENDBRANCH   3   4
ENDBRANCH   2   3
ENDBRANCH   1   2
BRANCH   1  24
ATOM     24  O   UNL A   1      38.492  21.311  25.389  1.00  0.00    -0.458 OA
BRANCH  24  25
ATOM     25  C   UNL A   1      39.560  21.081  26.188  1.00  0.00     0.338 C 
ATOM     26  O   UNL A   1      40.135  20.022  26.368  1.00  0.00    -0.246 OA
BRANCH  25  27
ATOM     27  C   UNL A   1      40.003  22.349  26.788  1.00  0.00     0.060 A 
ATOM     28  C   UNL A   1      41.047  22.394  27.703  1.00  0.00     0.016 A 
ATOM     29  C   UNL A   1      39.451  23.530  26.308  1.00  0.00     0.016 A 
ATOM     30  C   UNL A   1      41.517  23.640  28.140  1.00  0.00     0.010 A 
ATOM     31  C   UNL A   1      40.036  24.757  26.608  1.00  0.00     0.010 A 
ATOM     32  C   UNL A   1      41.049  24.842  27.568  1.00  0.00    -0.014 A 
BRANCH  32  33
ATOM     33  C   UNL A   1      41.588  26.175  27.979  1.00  0.00     0.031 A 
ATOM     34  C   UNL A   1      43.000  26.596  27.616  1.00  0.00     0.074 A 
ATOM     35  C   UNL A   1      40.834  27.006  28.729  1.00  0.00     0.049 A 
ATOM     36  N   UNL A   1      43.627  27.710  27.908  1.00  0.00    -0.248 NA
ATOM     37  C   UNL A   1      43.834  25.635  26.873  1.00  0.00     0.031 C 
ATOM     38  C   UNL A   1      39.507  26.694  29.270  1.00  0.00     0.029 A 
ATOM     39  N   UNL A   1      41.069  28.288  29.164  1.00  0.00    -0.354 N 
ATOM     40  C   UNL A   1      44.930  27.550  27.446  1.00  0.00     0.074 A 
ATOM     41  C   UNL A   1      45.023  26.217  26.898  1.00  0.00     0.031 C 
ATOM     42  C   UNL A   1      39.018  27.775  29.897  1.00  0.00     0.029 A 
ATOM     43  C   UNL A   1      40.006  28.848  29.837  1.00  0.00     0.049 A 
ATOM     44  H   UNL A   1      41.917  28.763  29.009  1.00  0.00     0.167 HD
ATOM     45  C   UNL A   1      45.946  28.445  27.419  1.00  0.00     0.034 A 
ATOM     46  C   UNL A   1      39.829  30.091  30.330  1.00  0.00     0.034 A 
ATOM     47  C   UNL A   1      45.824  29.812  27.835  1.00  0.00     0.049 A 
ATOM     48  C   UNL A   1      40.920  31.110  30.172  1.00  0.00     0.074 A 
ATOM     49  C   UNL A   1      46.753  30.830  27.717  1.00  0.00     0.029 A 
ATOM     50  N   UNL A   1      44.697  30.359  28.425  1.00  0.00    -0.354 N 
ATOM     51  N   UNL A   1      42.092  30.975  29.600  1.00  0.00    -0.248 NA
ATOM     52  C   UNL A   1      40.660  32.458  30.701  1.00  0.00     0.031 C 
ATOM     53  C   UNL A   1      46.183  32.000  28.230  1.00  0.00     0.029 A 
ATOM     54  C   UNL A   1      44.902  31.704  28.669  1.00  0.00     0.049 A 
ATOM     55  H   UNL A   1      43.874  29.863  28.640  1.00  0.00     0.167 HD
ATOM     56  C   UNL A   1      42.705  32.219  29.691  1.00  0.00     0.074 A 
ATOM     57  C   UNL A   1      41.767  33.103  30.351  1.00  0.00     0.031 C 
ATOM     58  C   UNL A   1      43.943  32.585  29.282  1.00  0.00     0.034 A 
BRANCH  45  59
ATOM     59  C   UNL A   1      47.253  28.010  26.806  1.00  0.00     0.023 A 
ATOM     60  C   UNL A   1      48.312  27.630  27.654  1.00  0.00     0.012 A 
ATOM     61  C   UNL A   1      47.409  27.901  25.411  1.00  0.00     0.148 A 
ATOM     62  C   UNL A   1      49.518  27.173  27.125  1.00  0.00     0.002 A 
ATOM     63  C   UNL A   1      48.601  27.410  24.891  1.00  0.00     0.091 A 
ATOM     64  F   UNL A   1      46.391  28.275  24.621  1.00  0.00    -0.205 F 
ATOM     65  C   UNL A   1      49.660  27.055  25.746  1.00  0.00     0.022 A 
BRANCH  63  66
ATOM     66  S   UNL A   1      48.873  27.155  23.133  1.00  0.00     0.127 S 
ATOM     67  O   UNL A   1      50.334  27.153  23.057  1.00  0.00    -0.237 OA
ATOM     68  O   UNL A   1      48.248  25.851  22.913  1.00  0.00    -0.237 OA
ATOM     69  O   UNL A   1      48.220  28.268  22.457  1.00  0.00    -0.744 OA
ENDBRANCH  63  66
ENDBRANCH  45  59
BRANCH  46  70
ATOM     70  C   UNL A   1      38.510  30.456  30.916  1.00  0.00     0.023 A 
ATOM     71  C   UNL A   1      38.285  30.214  32.285  1.00  0.00     0.012 A 
ATOM     72  C   UNL A   1      37.523  31.116  30.160  1.00  0.00     0.148 A 
ATOM     73  C   UNL A   1      37.098  30.621  32.893  1.00  0.00     0.002 A 
ATOM     74  C   UNL A   1      36.358  31.553  30.781  1.00  0.00     0.091 A 
ATOM     75  F   UNL A   1      37.763  31.335  28.860  1.00  0.00    -0.205 F 
ATOM     76  C   UNL A   1      36.140  31.299  32.144  1.00  0.00     0.022 A 
BRANCH  74  77
ATOM     77  S   UNL A   1      35.109  32.527  29.934  1.00  0.00     0.127 S 
ATOM     78  O   UNL A   1      34.168  32.812  31.014  1.00  0.00    -0.237 OA
ATOM     79  O   UNL A   1      35.889  33.677  29.476  1.00  0.00    -0.237 OA
ATOM     80  O   UNL A   1      34.596  31.677  28.868  1.00  0.00    -0.744 OA
ENDBRANCH  74  77
ENDBRANCH  46  70
BRANCH  58  81
ATOM     81  C   UNL A   1      44.384  33.999  29.531  1.00  0.00     0.023 A 
ATOM     82  C   UNL A   1      44.961  34.327  30.772  1.00  0.00     0.012 A 
ATOM     83  C   UNL A   1      44.357  34.956  28.498  1.00  0.00     0.148 A 
ATOM     84  C   UNL A   1      45.505  35.593  30.985  1.00  0.00     0.002 A 
ATOM     85  C   UNL A   1      44.930  36.205  28.707  1.00  0.00     0.091 A 
ATOM     86  F   UNL A   1      43.794  34.618  27.329  1.00  0.00    -0.205 F 
ATOM     87  C   UNL A   1      45.501  36.525  29.950  1.00  0.00     0.022 A 
BRANCH  85  88
ATOM     88  S   UNL A   1      45.044  37.447  27.414  1.00  0.00     0.127 S 
ATOM     89  O   UNL A   1      43.644  37.590  27.015  1.00  0.00    -0.237 OA
ATOM     90  O   UNL A   1      45.594  38.594  28.136  1.00  0.00    -0.237 OA
ATOM     91  O   UNL A   1      45.924  36.891  26.395  1.00  0.00    -0.744 OA
ENDBRANCH  85  88
ENDBRANCH  58  81
ENDBRANCH  32  33
ENDBRANCH  25  27
ENDBRANCH  24  25
ENDBRANCH   1  24
TORSDOF 16
ENDMDL
