MODEL 1
REMARK VINA RESULT:     -12.4      0.000      0.000
REMARK SMILES C[C@](Nc1ccc(C(N)=O)nn1)(C(=O)OCCOC(=O)c1ccc(-c2c3nc(c(-c4cccc(S(=O)(=O)[O-])c4F)c4ccc([nH]4)c(-c4cccc(S(=O)(=O)[O-])c4F)c4nc(c(-c5cccc(S(=O)(=O)[O-])c5F)c5ccc2[nH]5)C=C4)C=C3)cc1)c1ccccc1
REMARK SMILES IDX 16 1 15 2 13 3 14 4 2 5 1 6 84 7 85 8 89 9 86 10 88 11 87 12
REMARK SMILES IDX 3 13 4 15 5 16 12 17 6 18 11 19 7 20 8 21 9 22 10 23 17 26
REMARK SMILES IDX 18 27 19 28 20 29 21 30 22 31 83 32 23 33 82 34 24 35 25 36
REMARK SMILES IDX 26 37 76 38 27 39 81 40 75 41 77 42 28 43 80 44 74 45 73 46
REMARK SMILES IDX 29 48 61 49 41 50 60 51 42 52 45 53 59 54 78 55 43 56 44 57
REMARK SMILES IDX 58 59 79 60 46 61 30 62 31 63 39 64 32 65 34 66 40 67 33 68
REMARK SMILES IDX 35 69 36 70 37 71 38 72 62 73 63 74 71 75 64 76 66 77 72 78
REMARK SMILES IDX 65 79 67 80 68 81 69 82 70 83 47 84 48 85 56 86 49 87 51 88
REMARK SMILES IDX 57 89 50 90 52 91 53 92 54 93 55 94
REMARK H PARENT 3 14 9 24 9 25 77 47 45 58
REMARK Flexibility Score: inf
ROOT
ATOM      1  C   UNL A   1      35.926  20.142  25.127  1.00  0.00     0.274 C 
ENDROOT
BRANCH   1   2
ATOM      2  O   UNL A   1      35.147  21.292  24.721  1.00  0.00    -0.460 OA
BRANCH   2   3
ATOM      3  C   UNL A   1      34.111  21.620  25.558  1.00  0.00     0.336 C 
ATOM      4  O   UNL A   1      34.170  21.517  26.780  1.00  0.00    -0.249 OA
BRANCH   3   5
ATOM      5  C   UNL A   1      32.804  22.006  24.786  1.00  0.00     0.160 C 
ATOM      6  C   UNL A   1      31.787  22.272  25.926  1.00  0.00     0.053 C 
BRANCH   5   7
ATOM      7  C   UNL A   1      33.076  23.240  23.899  1.00  0.00    -0.012 A 
ATOM      8  C   UNL A   1      32.890  23.198  22.499  1.00  0.00     0.007 A 
ATOM      9  C   UNL A   1      33.499  24.462  24.455  1.00  0.00     0.007 A 
ATOM     10  C   UNL A   1      33.006  24.351  21.715  1.00  0.00     0.000 A 
ATOM     11  C   UNL A   1      33.644  25.607  23.665  1.00  0.00     0.000 A 
ATOM     12  C   UNL A   1      33.374  25.557  22.301  1.00  0.00     0.000 A 
ENDBRANCH   5   7
BRANCH   5  13
ATOM     13  N   UNL A   1      32.278  20.872  23.994  1.00  0.00    -0.350 N 
ATOM     14  H   UNL A   1      31.730  21.112  23.212  1.00  0.00     0.163 HD
BRANCH  13  15
ATOM     15  C   UNL A   1      32.457  19.528  24.207  1.00  0.00     0.149 A 
ATOM     16  C   UNL A   1      32.897  18.630  23.238  1.00  0.00     0.051 A 
ATOM     17  N   UNL A   1      32.215  19.064  25.453  1.00  0.00    -0.132 NA
ATOM     18  C   UNL A   1      33.122  17.293  23.549  1.00  0.00     0.040 A 
ATOM     19  N   UNL A   1      32.394  17.727  25.775  1.00  0.00    -0.143 NA
ATOM     20  C   UNL A   1      32.854  16.875  24.832  1.00  0.00     0.150 A 
BRANCH  20  21
ATOM     21  C   UNL A   1      33.026  15.448  25.210  1.00  0.00     0.269 C 
ATOM     22  N   UNL A   1      31.884  14.757  25.511  1.00  0.00    -0.364 N 
ATOM     23  O   UNL A   1      34.123  14.901  25.230  1.00  0.00    -0.268 OA
ATOM     24  H   UNL A   1      31.012  15.214  25.489  1.00  0.00     0.160 HD
ATOM     25  H   UNL A   1      31.934  13.802  25.748  1.00  0.00     0.160 HD
ENDBRANCH  20  21
ENDBRANCH  13  15
ENDBRANCH   5  13
ENDBRANCH   3   5
ENDBRANCH   2   3
ENDBRANCH   1   2
BRANCH   1  26
ATOM     26  C   UNL A   1      37.343  20.201  24.561  1.00  0.00     0.275 C 
BRANCH  26  27
ATOM     27  O   UNL A   1      38.027  21.325  25.124  1.00  0.00    -0.458 OA
BRANCH  27  28
ATOM     28  C   UNL A   1      39.088  21.043  25.915  1.00  0.00     0.338 C 
ATOM     29  O   UNL A   1      39.622  19.948  26.063  1.00  0.00    -0.246 OA
BRANCH  28  30
ATOM     30  C   UNL A   1      39.561  22.273  26.570  1.00  0.00     0.060 A 
ATOM     31  C   UNL A   1      39.068  23.505  26.157  1.00  0.00     0.016 A 
ATOM     32  C   UNL A   1      40.587  22.220  27.511  1.00  0.00     0.016 A 
ATOM     33  C   UNL A   1      39.670  24.680  26.595  1.00  0.00     0.010 A 
ATOM     34  C   UNL A   1      41.132  23.410  28.016  1.00  0.00     0.010 A 
ATOM     35  C   UNL A   1      40.723  24.659  27.515  1.00  0.00    -0.014 A 
BRANCH  35  36
ATOM     36  C   UNL A   1      41.450  25.920  27.858  1.00  0.00     0.031 A 
ATOM     37  C   UNL A   1      40.772  26.974  28.701  1.00  0.00     0.074 A 
ATOM     38  C   UNL A   1      42.730  26.121  27.481  1.00  0.00     0.049 A 
ATOM     39  N   UNL A   1      41.150  28.200  28.956  1.00  0.00    -0.248 NA
ATOM     40  C   UNL A   1      39.495  26.602  29.336  1.00  0.00     0.031 C 
ATOM     41  C   UNL A   1      43.554  25.177  26.725  1.00  0.00     0.029 A 
ATOM     42  N   UNL A   1      43.570  27.190  27.693  1.00  0.00    -0.354 N 
ATOM     43  C   UNL A   1      40.116  28.775  29.687  1.00  0.00     0.074 A 
ATOM     44  C   UNL A   1      39.106  27.754  29.862  1.00  0.00     0.031 C 
ATOM     45  C   UNL A   1      44.788  25.681  26.583  1.00  0.00     0.029 A 
ATOM     46  C   UNL A   1      44.820  27.028  27.141  1.00  0.00     0.049 A 
ATOM     47  H   UNL A   1      43.302  27.995  28.193  1.00  0.00     0.167 HD
ATOM     48  C   UNL A   1      40.013  30.035  30.174  1.00  0.00     0.034 A 
ATOM     49  C   UNL A   1      45.863  27.878  27.049  1.00  0.00     0.034 A 
ATOM     50  C   UNL A   1      41.055  31.022  30.095  1.00  0.00     0.049 A 
ATOM     51  C   UNL A   1      45.728  29.272  27.595  1.00  0.00     0.074 A 
ATOM     52  C   UNL A   1      41.045  32.323  30.570  1.00  0.00     0.029 A 
ATOM     53  N   UNL A   1      42.303  30.812  29.532  1.00  0.00    -0.354 N 
ATOM     54  N   UNL A   1      44.735  29.805  28.264  1.00  0.00    -0.248 NA
ATOM     55  C   UNL A   1      46.858  30.187  27.365  1.00  0.00     0.031 C 
ATOM     56  C   UNL A   1      42.289  32.900  30.291  1.00  0.00     0.029 A 
ATOM     57  C   UNL A   1      43.074  31.957  29.650  1.00  0.00     0.049 A 
ATOM     58  H   UNL A   1      42.598  29.974  29.109  1.00  0.00     0.167 HD
ATOM     59  C   UNL A   1      45.121  31.111  28.542  1.00  0.00     0.074 A 
ATOM     60  C   UNL A   1      46.454  31.279  28.002  1.00  0.00     0.031 C 
ATOM     61  C   UNL A   1      44.421  32.095  29.160  1.00  0.00     0.034 A 
BRANCH  48  62
ATOM     62  C   UNL A   1      38.723  30.418  30.847  1.00  0.00     0.023 A 
ATOM     63  C   UNL A   1      38.522  30.120  32.208  1.00  0.00     0.012 A 
ATOM     64  C   UNL A   1      37.725  31.111  30.134  1.00  0.00     0.148 A 
ATOM     65  C   UNL A   1      37.333  30.481  32.843  1.00  0.00     0.002 A 
ATOM     66  C   UNL A   1      36.558  31.500  30.783  1.00  0.00     0.091 A 
ATOM     67  F   UNL A   1      37.921  31.359  28.831  1.00  0.00    -0.205 F 
ATOM     68  C   UNL A   1      36.357  31.179  32.135  1.00  0.00     0.022 A 
BRANCH  66  69
ATOM     69  S   UNL A   1      35.286  32.463  29.957  1.00  0.00     0.127 S 
ATOM     70  O   UNL A   1      36.048  33.619  29.487  1.00  0.00    -0.237 OA
ATOM     71  O   UNL A   1      34.841  31.556  28.898  1.00  0.00    -0.237 OA
ATOM     72  O   UNL A   1      34.281  32.737  30.974  1.00  0.00    -0.744 OA
ENDBRANCH  66  69
ENDBRANCH  48  62
BRANCH  49  73
ATOM     73  C   UNL A   1      47.133  27.430  26.407  1.00  0.00     0.023 A 
ATOM     74  C   UNL A   1      47.416  27.828  25.086  1.00  0.00     0.012 A 
ATOM     75  C   UNL A   1      48.078  26.654  27.105  1.00  0.00     0.148 A 
ATOM     76  C   UNL A   1      48.611  27.451  24.470  1.00  0.00     0.002 A 
ATOM     77  C   UNL A   1      49.294  26.339  26.511  1.00  0.00     0.091 A 
ATOM     78  F   UNL A   1      47.778  26.251  28.348  1.00  0.00    -0.205 F 
ATOM     79  C   UNL A   1      49.556  26.723  25.187  1.00  0.00     0.022 A 
BRANCH  77  80
ATOM     80  S   UNL A   1      50.622  25.546  27.423  1.00  0.00     0.127 S 
ATOM     81  O   UNL A   1      51.700  25.536  26.438  1.00  0.00    -0.237 OA
ATOM     82  O   UNL A   1      50.818  26.469  28.543  1.00  0.00    -0.237 OA
ATOM     83  O   UNL A   1      50.100  24.242  27.812  1.00  0.00    -0.744 OA
ENDBRANCH  77  80
ENDBRANCH  49  73
BRANCH  61  84
ATOM     84  C   UNL A   1      45.082  33.439  29.301  1.00  0.00     0.023 A 
ATOM     85  C   UNL A   1      45.961  33.668  30.377  1.00  0.00     0.012 A 
ATOM     86  C   UNL A   1      44.895  34.445  28.333  1.00  0.00     0.148 A 
ATOM     87  C   UNL A   1      46.626  34.886  30.503  1.00  0.00     0.002 A 
ATOM     88  C   UNL A   1      45.593  35.643  28.443  1.00  0.00     0.091 A 
ATOM     89  F   UNL A   1      44.037  34.217  27.328  1.00  0.00    -0.205 F 
ATOM     90  C   UNL A   1      46.452  35.868  29.530  1.00  0.00     0.022 A 
BRANCH  88  91
ATOM     91  S   UNL A   1      45.490  36.927  27.190  1.00  0.00     0.127 S 
ATOM     92  O   UNL A   1      46.070  38.072  27.887  1.00  0.00    -0.237 OA
ATOM     93  O   UNL A   1      46.319  36.384  26.113  1.00  0.00    -0.237 OA
ATOM     94  O   UNL A   1      44.076  37.041  26.857  1.00  0.00    -0.744 OA
ENDBRANCH  88  91
ENDBRANCH  61  84
ENDBRANCH  35  36
ENDBRANCH  28  30
ENDBRANCH  27  28
ENDBRANCH  26  27
ENDBRANCH   1  26
TORSDOF 18
ENDMDL
MODEL 2
REMARK VINA RESULT:     -12.2      1.805      2.124
REMARK SMILES C[C@](Nc1ccc(C(N)=O)nn1)(C(=O)OCCOC(=O)c1ccc(-c2c3nc(c(-c4cccc(S(=O)(=O)[O-])c4F)c4ccc([nH]4)c(-c4cccc(S(=O)(=O)[O-])c4F)c4nc(c(-c5cccc(S(=O)(=O)[O-])c5F)c5ccc2[nH]5)C=C4)C=C3)cc1)c1ccccc1
REMARK SMILES IDX 16 1 15 2 13 3 14 4 2 5 1 6 84 7 85 8 89 9 86 10 88 11 87 12
REMARK SMILES IDX 3 13 4 15 5 16 12 17 6 18 11 19 7 20 8 21 9 22 10 23 17 26
REMARK SMILES IDX 18 27 19 28 20 29 21 30 22 31 83 32 23 33 82 34 24 35 25 36
REMARK SMILES IDX 26 37 76 38 27 39 81 40 75 41 77 42 28 43 80 44 74 45 73 46
REMARK SMILES IDX 29 48 61 49 41 50 60 51 42 52 45 53 59 54 78 55 43 56 44 57
REMARK SMILES IDX 58 59 79 60 46 61 30 62 31 63 39 64 32 65 34 66 40 67 33 68
REMARK SMILES IDX 35 69 36 70 37 71 38 72 62 73 63 74 71 75 64 76 66 77 72 78
REMARK SMILES IDX 65 79 67 80 68 81 69 82 70 83 47 84 48 85 56 86 49 87 51 88
REMARK SMILES IDX 57 89 50 90 52 91 53 92 54 93 55 94
REMARK H PARENT 3 14 9 24 9 25 77 47 45 58
REMARK Flexibility Score: inf
ROOT
ATOM      1  C   UNL A   1      36.114  20.315  25.090  1.00  0.00     0.274 C 
ENDROOT
BRANCH   1   2
ATOM      2  O   UNL A   1      35.220  21.376  24.679  1.00  0.00    -0.460 OA
BRANCH   2   3
ATOM      3  C   UNL A   1      34.195  21.646  25.550  1.00  0.00     0.336 C 
ATOM      4  O   UNL A   1      34.283  21.497  26.766  1.00  0.00    -0.249 OA
BRANCH   3   5
ATOM      5  C   UNL A   1      32.863  22.031  24.821  1.00  0.00     0.160 C 
ATOM      6  C   UNL A   1      31.881  22.285  25.994  1.00  0.00     0.053 C 
BRANCH   5   7
ATOM      7  C   UNL A   1      33.101  23.271  23.934  1.00  0.00    -0.012 A 
ATOM      8  C   UNL A   1      32.843  23.246  22.545  1.00  0.00     0.007 A 
ATOM      9  C   UNL A   1      33.565  24.483  24.480  1.00  0.00     0.007 A 
ATOM     10  C   UNL A   1      32.930  24.405  21.767  1.00  0.00     0.000 A 
ATOM     11  C   UNL A   1      33.681  25.634  23.694  1.00  0.00     0.000 A 
ATOM     12  C   UNL A   1      33.340  25.602  22.345  1.00  0.00     0.000 A 
ENDBRANCH   5   7
BRANCH   5  13
ATOM     13  N   UNL A   1      32.318  20.899  24.039  1.00  0.00    -0.350 N 
ATOM     14  H   UNL A   1      31.751  21.141  23.272  1.00  0.00     0.163 HD
BRANCH  13  15
ATOM     15  C   UNL A   1      32.503  19.554  24.245  1.00  0.00     0.149 A 
ATOM     16  C   UNL A   1      33.049  18.684  23.305  1.00  0.00     0.051 A 
ATOM     17  N   UNL A   1      32.153  19.061  25.454  1.00  0.00    -0.132 NA
ATOM     18  C   UNL A   1      33.269  17.344  23.612  1.00  0.00     0.040 A 
ATOM     19  N   UNL A   1      32.327  17.722  25.767  1.00  0.00    -0.143 NA
ATOM     20  C   UNL A   1      32.890  16.897  24.857  1.00  0.00     0.150 A 
BRANCH  20  21
ATOM     21  C   UNL A   1      33.054  15.466  25.224  1.00  0.00     0.269 C 
ATOM     22  N   UNL A   1      31.908  14.779  25.518  1.00  0.00    -0.364 N 
ATOM     23  O   UNL A   1      34.147  14.912  25.241  1.00  0.00    -0.268 OA
ATOM     24  H   UNL A   1      31.038  15.240  25.498  1.00  0.00     0.160 HD
ATOM     25  H   UNL A   1      31.952  13.822  25.747  1.00  0.00     0.160 HD
ENDBRANCH  20  21
ENDBRANCH  13  15
ENDBRANCH   5  13
ENDBRANCH   3   5
ENDBRANCH   2   3
ENDBRANCH   1   2
BRANCH   1  26
ATOM     26  C   UNL A   1      37.564  20.639  24.738  1.00  0.00     0.275 C 
BRANCH  26  27
ATOM     27  O   UNL A   1      38.035  21.678  25.603  1.00  0.00    -0.458 OA
BRANCH  27  28
ATOM     28  C   UNL A   1      39.255  21.485  26.156  1.00  0.00     0.338 C 
ATOM     29  O   UNL A   1      39.933  20.463  26.102  1.00  0.00    -0.246 OA
BRANCH  28  30
ATOM     30  C   UNL A   1      39.700  22.720  26.823  1.00  0.00     0.060 A 
ATOM     31  C   UNL A   1      39.127  23.936  26.469  1.00  0.00     0.016 A 
ATOM     32  C   UNL A   1      40.772  22.694  27.711  1.00  0.00     0.016 A 
ATOM     33  C   UNL A   1      39.692  25.128  26.911  1.00  0.00     0.010 A 
ATOM     34  C   UNL A   1      41.283  23.896  28.224  1.00  0.00     0.010 A 
ATOM     35  C   UNL A   1      40.789  25.135  27.778  1.00  0.00    -0.014 A 
BRANCH  35  36
ATOM     36  C   UNL A   1      41.470  26.422  28.122  1.00  0.00     0.031 A 
ATOM     37  C   UNL A   1      40.735  27.471  28.923  1.00  0.00     0.074 A 
ATOM     38  C   UNL A   1      42.756  26.652  27.784  1.00  0.00     0.049 A 
ATOM     39  N   UNL A   1      41.071  28.712  29.167  1.00  0.00    -0.248 NA
ATOM     40  C   UNL A   1      39.448  27.076  29.521  1.00  0.00     0.031 C 
ATOM     41  C   UNL A   1      43.630  25.717  27.075  1.00  0.00     0.029 A 
ATOM     42  N   UNL A   1      43.559  27.747  28.005  1.00  0.00    -0.354 N 
ATOM     43  C   UNL A   1      39.998  29.271  29.852  1.00  0.00     0.074 A 
ATOM     44  C   UNL A   1      39.010  28.226  30.012  1.00  0.00     0.031 C 
ATOM     45  C   UNL A   1      44.854  26.253  26.965  1.00  0.00     0.029 A 
ATOM     46  C   UNL A   1      44.831  27.610  27.499  1.00  0.00     0.049 A 
ATOM     47  H   UNL A   1      43.253  28.553  28.481  1.00  0.00     0.167 HD
ATOM     48  C   UNL A   1      39.845  30.536  30.311  1.00  0.00     0.034 A 
ATOM     49  C   UNL A   1      45.853  28.486  27.425  1.00  0.00     0.034 A 
ATOM     50  C   UNL A   1      40.862  31.550  30.249  1.00  0.00     0.049 A 
ATOM     51  C   UNL A   1      45.662  29.886  27.941  1.00  0.00     0.074 A 
ATOM     52  C   UNL A   1      40.801  32.858  30.699  1.00  0.00     0.029 A 
ATOM     53  N   UNL A   1      42.133  31.365  29.732  1.00  0.00    -0.354 N 
ATOM     54  N   UNL A   1      44.634  30.403  28.566  1.00  0.00    -0.248 NA
ATOM     55  C   UNL A   1      46.774  30.826  27.732  1.00  0.00     0.031 C 
ATOM     56  C   UNL A   1      42.038  33.464  30.452  1.00  0.00     0.029 A 
ATOM     57  C   UNL A   1      42.869  32.532  29.855  1.00  0.00     0.049 A 
ATOM     58  H   UNL A   1      42.465  30.528  29.335  1.00  0.00     0.167 HD
ATOM     59  C   UNL A   1      44.974  31.724  28.832  1.00  0.00     0.074 A 
ATOM     60  C   UNL A   1      46.320  31.918  28.335  1.00  0.00     0.031 C 
ATOM     61  C   UNL A   1      44.228  32.698  29.408  1.00  0.00     0.034 A 
BRANCH  48  62
ATOM     62  C   UNL A   1      38.523  30.895  30.934  1.00  0.00     0.023 A 
ATOM     63  C   UNL A   1      38.289  30.629  32.296  1.00  0.00     0.012 A 
ATOM     64  C   UNL A   1      37.526  31.535  30.171  1.00  0.00     0.148 A 
ATOM     65  C   UNL A   1      37.070  30.969  32.884  1.00  0.00     0.002 A 
ATOM     66  C   UNL A   1      36.328  31.903  30.772  1.00  0.00     0.091 A 
ATOM     67  F   UNL A   1      37.755  31.753  28.868  1.00  0.00    -0.205 F 
ATOM     68  C   UNL A   1      36.094  31.614  32.126  1.00  0.00     0.022 A 
BRANCH  66  69
ATOM     69  S   UNL A   1      35.052  32.801  29.881  1.00  0.00     0.127 S 
ATOM     70  O   UNL A   1      34.120  33.137  30.956  1.00  0.00    -0.237 OA
ATOM     71  O   UNL A   1      35.790  33.942  29.337  1.00  0.00    -0.237 OA
ATOM     72  O   UNL A   1      34.552  31.875  28.874  1.00  0.00    -0.744 OA
ENDBRANCH  66  69
ENDBRANCH  48  62
BRANCH  49  73
ATOM     73  C   UNL A   1      47.156  28.062  26.835  1.00  0.00     0.023 A 
ATOM     74  C   UNL A   1      48.208  27.677  27.689  1.00  0.00     0.012 A 
ATOM     75  C   UNL A   1      47.347  27.996  25.441  1.00  0.00     0.148 A 
ATOM     76  C   UNL A   1      49.427  27.246  27.165  1.00  0.00     0.002 A 
ATOM     77  C   UNL A   1      48.540  27.502  24.926  1.00  0.00     0.091 A 
ATOM     78  F   UNL A   1      46.350  28.401  24.641  1.00  0.00    -0.205 F 
ATOM     79  C   UNL A   1      49.588  27.141  25.786  1.00  0.00     0.022 A 
BRANCH  77  80
ATOM     80  S   UNL A   1      48.760  27.186  23.172  1.00  0.00     0.127 S 
ATOM     81  O   UNL A   1      48.060  28.319  22.573  1.00  0.00    -0.237 OA
ATOM     82  O   UNL A   1      50.217  27.219  23.035  1.00  0.00    -0.237 OA
ATOM     83  O   UNL A   1      48.171  25.874  22.938  1.00  0.00    -0.744 OA
ENDBRANCH  77  80
ENDBRANCH  49  73
BRANCH  61  84
ATOM     84  C   UNL A   1      44.847  34.062  29.546  1.00  0.00     0.023 A 
ATOM     85  C   UNL A   1      44.667  35.010  28.520  1.00  0.00     0.012 A 
ATOM     86  C   UNL A   1      45.540  34.430  30.716  1.00  0.00     0.148 A 
ATOM     87  C   UNL A   1      45.186  36.298  28.645  1.00  0.00     0.002 A 
ATOM     88  C   UNL A   1      46.020  35.728  30.850  1.00  0.00     0.091 A 
ATOM     89  F   UNL A   1      45.722  33.507  31.671  1.00  0.00    -0.205 F 
ATOM     90  C   UNL A   1      45.851  36.660  29.814  1.00  0.00     0.022 A 
BRANCH  88  91
ATOM     91  S   UNL A   1      46.815  36.301  32.357  1.00  0.00     0.127 S 
ATOM     92  O   UNL A   1      47.078  37.704  32.042  1.00  0.00    -0.237 OA
ATOM     93  O   UNL A   1      45.775  36.086  33.364  1.00  0.00    -0.237 OA
ATOM     94  O   UNL A   1      47.994  35.461  32.525  1.00  0.00    -0.744 OA
ENDBRANCH  88  91
ENDBRANCH  61  84
ENDBRANCH  35  36
ENDBRANCH  28  30
ENDBRANCH  27  28
ENDBRANCH  26  27
ENDBRANCH   1  26
TORSDOF 18
ENDMDL
MODEL 3
REMARK VINA RESULT:     -11.9      1.986      4.037
REMARK SMILES C[C@](Nc1ccc(C(N)=O)nn1)(C(=O)OCCOC(=O)c1ccc(-c2c3nc(c(-c4cccc(S(=O)(=O)[O-])c4F)c4ccc([nH]4)c(-c4cccc(S(=O)(=O)[O-])c4F)c4nc(c(-c5cccc(S(=O)(=O)[O-])c5F)c5ccc2[nH]5)C=C4)C=C3)cc1)c1ccccc1
REMARK SMILES IDX 16 1 15 2 13 3 14 4 2 5 1 6 84 7 85 8 89 9 86 10 88 11 87 12
REMARK SMILES IDX 3 13 4 15 5 16 12 17 6 18 11 19 7 20 8 21 9 22 10 23 17 26
REMARK SMILES IDX 18 27 19 28 20 29 21 30 22 31 83 32 23 33 82 34 24 35 25 36
REMARK SMILES IDX 26 37 76 38 27 39 81 40 75 41 77 42 28 43 80 44 74 45 73 46
REMARK SMILES IDX 29 48 61 49 41 50 60 51 42 52 45 53 59 54 78 55 43 56 44 57
REMARK SMILES IDX 58 59 79 60 46 61 30 62 31 63 39 64 32 65 34 66 40 67 33 68
REMARK SMILES IDX 35 69 36 70 37 71 38 72 62 73 63 74 71 75 64 76 66 77 72 78
REMARK SMILES IDX 65 79 67 80 68 81 69 82 70 83 47 84 48 85 56 86 49 87 51 88
REMARK SMILES IDX 57 89 50 90 52 91 53 92 54 93 55 94
REMARK H PARENT 3 14 9 24 9 25 77 47 45 58
REMARK Flexibility Score: inf
ROOT
ATOM      1  C   UNL A   1      36.917  22.843  23.386  1.00  0.00     0.274 C 
ENDROOT
BRANCH   1   2
ATOM      2  O   UNL A   1      35.616  23.203  22.867  1.00  0.00    -0.460 OA
BRANCH   2   3
ATOM      3  C   UNL A   1      34.788  23.840  23.756  1.00  0.00     0.336 C 
ATOM      4  O   UNL A   1      35.193  24.588  24.641  1.00  0.00    -0.249 OA
BRANCH   3   5
ATOM      5  C   UNL A   1      33.290  23.405  23.611  1.00  0.00     0.160 C 
ATOM      6  C   UNL A   1      33.027  23.546  22.090  1.00  0.00     0.053 C 
BRANCH   5   7
ATOM      7  C   UNL A   1      33.120  21.964  24.137  1.00  0.00    -0.012 A 
ATOM      8  C   UNL A   1      33.448  21.619  25.467  1.00  0.00     0.007 A 
ATOM      9  C   UNL A   1      32.610  20.941  23.315  1.00  0.00     0.007 A 
ATOM     10  C   UNL A   1      33.168  20.349  25.980  1.00  0.00     0.000 A 
ATOM     11  C   UNL A   1      32.358  19.661  23.822  1.00  0.00     0.000 A 
ATOM     12  C   UNL A   1      32.613  19.373  25.159  1.00  0.00     0.000 A 
ENDBRANCH   5   7
BRANCH   5  13
ATOM     13  N   UNL A   1      32.377  24.346  24.297  1.00  0.00    -0.350 N 
ATOM     14  H   UNL A   1      32.093  24.085  25.203  1.00  0.00     0.163 HD
BRANCH  13  15
ATOM     15  C   UNL A   1      31.874  25.536  23.834  1.00  0.00     0.149 A 
ATOM     16  C   UNL A   1      32.648  26.658  23.552  1.00  0.00     0.051 A 
ATOM     17  N   UNL A   1      30.542  25.599  23.614  1.00  0.00    -0.132 NA
ATOM     18  C   UNL A   1      32.075  27.809  23.017  1.00  0.00     0.040 A 
ATOM     19  N   UNL A   1      29.944  26.748  23.120  1.00  0.00    -0.143 NA
ATOM     20  C   UNL A   1      30.714  27.818  22.818  1.00  0.00     0.150 A 
BRANCH  20  21
ATOM     21  C   UNL A   1      30.038  29.035  22.298  1.00  0.00     0.269 C 
ATOM     22  N   UNL A   1      30.830  29.932  21.632  1.00  0.00    -0.364 N 
ATOM     23  O   UNL A   1      28.835  29.227  22.429  1.00  0.00    -0.268 OA
ATOM     24  H   UNL A   1      31.794  29.760  21.536  1.00  0.00     0.160 HD
ATOM     25  H   UNL A   1      30.434  30.747  21.247  1.00  0.00     0.160 HD
ENDBRANCH  20  21
ENDBRANCH  13  15
ENDBRANCH   5  13
ENDBRANCH   3   5
ENDBRANCH   2   3
ENDBRANCH   1   2
BRANCH   1  26
ATOM     26  C   UNL A   1      36.871  21.514  24.135  1.00  0.00     0.275 C 
BRANCH  26  27
ATOM     27  O   UNL A   1      37.217  21.736  25.506  1.00  0.00    -0.458 OA
BRANCH  27  28
ATOM     28  C   UNL A   1      38.499  21.470  25.848  1.00  0.00     0.338 C 
ATOM     29  O   UNL A   1      39.123  20.439  25.614  1.00  0.00    -0.246 OA
BRANCH  28  30
ATOM     30  C   UNL A   1      39.084  22.637  26.528  1.00  0.00     0.060 A 
ATOM     31  C   UNL A   1      38.563  23.903  26.290  1.00  0.00     0.016 A 
ATOM     32  C   UNL A   1      40.231  22.497  27.306  1.00  0.00     0.016 A 
ATOM     33  C   UNL A   1      39.244  25.033  26.733  1.00  0.00     0.010 A 
ATOM     34  C   UNL A   1      40.866  23.636  27.825  1.00  0.00     0.010 A 
ATOM     35  C   UNL A   1      40.415  24.925  27.490  1.00  0.00    -0.014 A 
BRANCH  35  36
ATOM     36  C   UNL A   1      41.209  26.147  27.829  1.00  0.00     0.031 A 
ATOM     37  C   UNL A   1      40.610  27.210  28.719  1.00  0.00     0.074 A 
ATOM     38  C   UNL A   1      42.480  26.302  27.405  1.00  0.00     0.049 A 
ATOM     39  N   UNL A   1      41.051  28.414  28.983  1.00  0.00    -0.248 NA
ATOM     40  C   UNL A   1      39.344  26.879  29.396  1.00  0.00     0.031 C 
ATOM     41  C   UNL A   1      43.233  25.340  26.599  1.00  0.00     0.029 A 
ATOM     42  N   UNL A   1      43.374  27.330  27.604  1.00  0.00    -0.354 N 
ATOM     43  C   UNL A   1      40.071  29.016  29.766  1.00  0.00     0.074 A 
ATOM     44  C   UNL A   1      39.026  28.035  29.960  1.00  0.00     0.031 C 
ATOM     45  C   UNL A   1      44.481  25.795  26.417  1.00  0.00     0.029 A 
ATOM     46  C   UNL A   1      44.593  27.128  27.000  1.00  0.00     0.049 A 
ATOM     47  H   UNL A   1      43.160  28.134  28.131  1.00  0.00     0.167 HD
ATOM     48  C   UNL A   1      40.042  30.268  30.280  1.00  0.00     0.034 A 
ATOM     49  C   UNL A   1      45.667  27.934  26.883  1.00  0.00     0.034 A 
ATOM     50  C   UNL A   1      41.122  31.213  30.180  1.00  0.00     0.049 A 
ATOM     51  C   UNL A   1      45.613  29.321  27.461  1.00  0.00     0.074 A 
ATOM     52  C   UNL A   1      41.186  32.502  30.680  1.00  0.00     0.029 A 
ATOM     53  N   UNL A   1      42.336  30.962  29.563  1.00  0.00    -0.354 N 
ATOM     54  N   UNL A   1      44.672  29.881  28.180  1.00  0.00    -0.248 NA
ATOM     55  C   UNL A   1      46.772  30.191  27.205  1.00  0.00     0.031 C 
ATOM     56  C   UNL A   1      42.442  33.032  30.363  1.00  0.00     0.029 A 
ATOM     57  C   UNL A   1      43.160  32.070  29.673  1.00  0.00     0.049 A 
ATOM     58  H   UNL A   1      42.578  30.122  29.112  1.00  0.00     0.167 HD
ATOM     59  C   UNL A   1      45.123  31.163  28.467  1.00  0.00     0.074 A 
ATOM     60  C   UNL A   1      46.441  31.286  27.879  1.00  0.00     0.031 C 
ATOM     61  C   UNL A   1      44.491  32.162  29.132  1.00  0.00     0.034 A 
BRANCH  48  62
ATOM     62  C   UNL A   1      38.797  30.691  31.012  1.00  0.00     0.023 A 
ATOM     63  C   UNL A   1      38.705  30.520  32.407  1.00  0.00     0.012 A 
ATOM     64  C   UNL A   1      37.732  31.297  30.316  1.00  0.00     0.148 A 
ATOM     65  C   UNL A   1      37.559  30.918  33.094  1.00  0.00     0.002 A 
ATOM     66  C   UNL A   1      36.608  31.725  31.014  1.00  0.00     0.091 A 
ATOM     67  F   UNL A   1      37.824  31.425  28.985  1.00  0.00    -0.205 F 
ATOM     68  C   UNL A   1      36.516  31.530  32.401  1.00  0.00     0.022 A 
BRANCH  66  69
ATOM     69  S   UNL A   1      35.255  32.585  30.202  1.00  0.00     0.127 S 
ATOM     70  O   UNL A   1      34.276  32.684  31.284  1.00  0.00    -0.237 OA
ATOM     71  O   UNL A   1      35.871  33.857  29.822  1.00  0.00    -0.237 OA
ATOM     72  O   UNL A   1      34.875  31.743  29.077  1.00  0.00    -0.744 OA
ENDBRANCH  66  69
ENDBRANCH  48  62
BRANCH  49  73
ATOM     73  C   UNL A   1      46.890  27.447  26.182  1.00  0.00     0.023 A 
ATOM     74  C   UNL A   1      47.101  27.800  24.835  1.00  0.00     0.012 A 
ATOM     75  C   UNL A   1      47.864  26.677  26.848  1.00  0.00     0.148 A 
ATOM     76  C   UNL A   1      48.252  27.385  24.163  1.00  0.00     0.002 A 
ATOM     77  C   UNL A   1      49.039  26.325  26.193  1.00  0.00     0.091 A 
ATOM     78  F   UNL A   1      47.633  26.318  28.118  1.00  0.00    -0.205 F 
ATOM     79  C   UNL A   1      49.227  26.664  24.845  1.00  0.00     0.022 A 
BRANCH  77  80
ATOM     80  S   UNL A   1      50.407  25.540  27.051  1.00  0.00     0.127 S 
ATOM     81  O   UNL A   1      51.372  25.355  25.971  1.00  0.00    -0.237 OA
ATOM     82  O   UNL A   1      50.774  26.556  28.039  1.00  0.00    -0.237 OA
ATOM     83  O   UNL A   1      49.853  24.322  27.629  1.00  0.00    -0.744 OA
ENDBRANCH  77  80
ENDBRANCH  49  73
BRANCH  61  84
ATOM     84  C   UNL A   1      45.215  33.474  29.273  1.00  0.00     0.023 A 
ATOM     85  C   UNL A   1      46.006  33.708  30.414  1.00  0.00     0.012 A 
ATOM     86  C   UNL A   1      45.173  34.439  28.248  1.00  0.00     0.148 A 
ATOM     87  C   UNL A   1      46.728  34.893  30.546  1.00  0.00     0.002 A 
ATOM     88  C   UNL A   1      45.928  35.601  28.368  1.00  0.00     0.091 A 
ATOM     89  F   UNL A   1      44.396  34.208  27.180  1.00  0.00    -0.205 F 
ATOM     90  C   UNL A   1      46.698  35.834  29.518  1.00  0.00     0.022 A 
BRANCH  88  91
ATOM     91  S   UNL A   1      46.011  36.825  27.055  1.00  0.00     0.127 S 
ATOM     92  O   UNL A   1      46.249  35.989  25.881  1.00  0.00    -0.237 OA
ATOM     93  O   UNL A   1      44.683  37.438  27.110  1.00  0.00    -0.237 OA
ATOM     94  O   UNL A   1      47.100  37.723  27.420  1.00  0.00    -0.744 OA
ENDBRANCH  88  91
ENDBRANCH  61  84
ENDBRANCH  35  36
ENDBRANCH  28  30
ENDBRANCH  27  28
ENDBRANCH  26  27
ENDBRANCH   1  26
TORSDOF 18
ENDMDL
