MODEL 1
REMARK VINA RESULT:     -12.3      0.000      0.000
REMARK SMILES CC[NH2+][C@]1(C(=O)OCCOC(=O)c2ccc(-c3c4nc(c(-c5cccc(S(=O)(=O)[O-])c5F)c5ccc([nH]5)c(-c5cccc(S(=O)(=O)[O-])c5F)c5nc(c(-c6cccc(S(=O)(=O)[O-])c6F)c6ccc3[nH]6)C=C5)C=C4)cc2)CCC[C@@H]1CCSc1ccc(C)cc1
REMARK SMILES IDX 8 1 7 2 5 3 6 4 4 5 76 6 79 7 77 8 78 9 3 10 2 13 1 14 80 15
REMARK SMILES IDX 81 16 82 17 83 18 84 19 89 20 85 21 88 22 86 23 87 24 9 25
REMARK SMILES IDX 10 26 11 27 12 28 13 29 14 30 75 31 15 32 74 33 16 34 17 35
REMARK SMILES IDX 18 36 68 37 19 38 73 39 67 40 69 41 20 42 72 43 66 44 65 45
REMARK SMILES IDX 21 47 53 48 33 49 52 50 34 51 37 52 51 53 70 54 35 55 36 56
REMARK SMILES IDX 50 58 71 59 38 60 22 61 23 62 31 63 24 64 26 65 32 66 25 67
REMARK SMILES IDX 27 68 28 69 29 70 30 71 54 72 55 73 63 74 56 75 58 76 64 77
REMARK SMILES IDX 57 78 59 79 60 80 61 81 62 82 39 83 40 84 48 85 41 86 43 87
REMARK SMILES IDX 49 88 42 89 44 90 45 91 46 92 47 93
REMARK H PARENT 3 11 3 12 69 46 37 57
REMARK Flexibility Score: inf
ROOT
ATOM      1  C   UNL A   1      31.432  29.553  25.251  1.00  0.00     0.274 C 
ENDROOT
BRANCH   1   2
ATOM      2  O   UNL A   1      30.981  28.294  24.680  1.00  0.00    -0.457 OA
BRANCH   2   3
ATOM      3  C   UNL A   1      31.267  27.103  25.310  1.00  0.00     0.368 C 
ATOM      4  O   UNL A   1      31.047  26.948  26.484  1.00  0.00    -0.245 OA
BRANCH   3   5
ATOM      5  C   UNL A   1      31.831  25.955  24.385  1.00  0.00     0.197 C 
ATOM      6  C   UNL A   1      31.111  26.072  23.051  1.00  0.00     0.081 C 
ATOM      7  C   UNL A   1      33.248  26.319  24.132  1.00  0.00     0.063 C 
ATOM      8  C   UNL A   1      32.093  25.440  22.092  1.00  0.00     0.008 C 
ATOM      9  C   UNL A   1      33.495  25.700  22.722  1.00  0.00     0.011 C 
BRANCH   5  10
ATOM     10  N   UNL A   1      31.750  24.504  24.825  1.00  0.00    -0.332 N 
ATOM     11  H   UNL A   1      32.158  23.974  24.056  1.00  0.00     0.347 HD
ATOM     12  H   UNL A   1      32.183  24.587  25.744  1.00  0.00     0.347 HD
BRANCH  10  13
ATOM     13  C   UNL A   1      30.534  23.758  25.201  1.00  0.00     0.257 C 
ATOM     14  C   UNL A   1      30.487  23.394  26.698  1.00  0.00     0.071 C 
ENDBRANCH  10  13
ENDBRANCH   5  10
BRANCH   7  15
ATOM     15  C   UNL A   1      34.006  26.005  25.474  1.00  0.00     0.022 C 
BRANCH  15  16
ATOM     16  C   UNL A   1      35.327  24.950  25.590  1.00  0.00     0.075 C 
BRANCH  16  17
ATOM     17  S   UNL A   1      35.912  22.882  25.679  1.00  0.00    -0.126 SA
BRANCH  17  18
ATOM     18  C   UNL A   1      34.943  21.481  24.882  1.00  0.00     0.007 A 
ATOM     19  C   UNL A   1      33.690  21.614  24.254  1.00  0.00     0.015 A 
ATOM     20  C   UNL A   1      35.460  20.179  24.903  1.00  0.00     0.015 A 
ATOM     21  C   UNL A   1      32.834  20.502  24.075  1.00  0.00     0.004 A 
ATOM     22  C   UNL A   1      34.621  19.055  24.687  1.00  0.00     0.004 A 
ATOM     23  C   UNL A   1      33.266  19.215  24.388  1.00  0.00    -0.051 A 
ATOM     24  C   UNL A   1      32.283  18.077  24.498  1.00  0.00     0.044 C 
ENDBRANCH  17  18
ENDBRANCH  16  17
ENDBRANCH  15  16
ENDBRANCH   7  15
ENDBRANCH   3   5
ENDBRANCH   2   3
ENDBRANCH   1   2
BRANCH   1  25
ATOM     25  C   UNL A   1      32.939  29.630  25.483  1.00  0.00     0.275 C 
BRANCH  25  26
ATOM     26  O   UNL A   1      33.186  29.664  26.891  1.00  0.00    -0.458 OA
BRANCH  26  27
ATOM     27  C   UNL A   1      33.649  30.841  27.360  1.00  0.00     0.338 C 
ATOM     28  O   UNL A   1      32.998  31.829  27.655  1.00  0.00    -0.246 OA
BRANCH  27  29
ATOM     29  C   UNL A   1      35.086  30.707  27.632  1.00  0.00     0.060 A 
ATOM     30  C   UNL A   1      35.566  29.436  27.907  1.00  0.00     0.016 A 
ATOM     31  C   UNL A   1      35.896  31.812  27.844  1.00  0.00     0.016 A 
ATOM     32  C   UNL A   1      36.711  29.270  28.656  1.00  0.00     0.010 A 
ATOM     33  C   UNL A   1      37.178  31.611  28.366  1.00  0.00     0.010 A 
ATOM     34  C   UNL A   1      37.574  30.343  28.838  1.00  0.00    -0.014 A 
BRANCH  34  35
ATOM     35  C   UNL A   1      38.871  30.142  29.533  1.00  0.00     0.031 A 
ATOM     36  C   UNL A   1      39.881  29.212  28.928  1.00  0.00     0.074 A 
ATOM     37  C   UNL A   1      39.150  30.770  30.695  1.00  0.00     0.049 A 
ATOM     38  N   UNL A   1      40.880  28.597  29.497  1.00  0.00    -0.248 NA
ATOM     39  C   UNL A   1      39.732  28.919  27.491  1.00  0.00     0.031 C 
ATOM     40  C   UNL A   1      38.325  31.795  31.344  1.00  0.00     0.029 A 
ATOM     41  N   UNL A   1      40.209  30.620  31.558  1.00  0.00    -0.354 N 
ATOM     42  C   UNL A   1      41.407  27.759  28.523  1.00  0.00     0.074 A 
ATOM     43  C   UNL A   1      40.644  27.976  27.314  1.00  0.00     0.031 C 
ATOM     44  C   UNL A   1      38.914  32.196  32.477  1.00  0.00     0.029 A 
ATOM     45  C   UNL A   1      40.065  31.344  32.720  1.00  0.00     0.049 A 
ATOM     46  H   UNL A   1      40.991  30.053  31.364  1.00  0.00     0.167 HD
ATOM     47  C   UNL A   1      42.422  26.874  28.649  1.00  0.00     0.034 A 
ATOM     48  C   UNL A   1      40.713  31.258  33.896  1.00  0.00     0.034 A 
ATOM     49  C   UNL A   1      43.192  26.720  29.853  1.00  0.00     0.049 A 
ATOM     50  C   UNL A   1      41.781  30.213  34.041  1.00  0.00     0.074 A 
ATOM     51  C   UNL A   1      44.228  25.843  30.110  1.00  0.00     0.029 A 
ATOM     52  N   UNL A   1      43.008  27.472  31.004  1.00  0.00    -0.354 N 
ATOM     53  N   UNL A   1      42.243  29.376  33.144  1.00  0.00    -0.248 NA
ATOM     54  C   UNL A   1      42.411  30.090  35.362  1.00  0.00     0.031 C 
ATOM     55  C   UNL A   1      44.649  26.042  31.427  1.00  0.00     0.029 A 
ATOM     56  C   UNL A   1      43.907  27.078  31.976  1.00  0.00     0.049 A 
ATOM     57  H   UNL A   1      42.335  28.184  31.113  1.00  0.00     0.167 HD
ATOM     58  C   UNL A   1      43.244  28.653  33.780  1.00  0.00     0.074 A 
ATOM     59  C   UNL A   1      43.330  29.163  35.134  1.00  0.00     0.031 C 
ATOM     60  C   UNL A   1      44.012  27.648  33.295  1.00  0.00     0.034 A 
BRANCH  47  61
ATOM     61  C   UNL A   1      42.717  25.978  27.477  1.00  0.00     0.023 A 
ATOM     62  C   UNL A   1      43.522  26.427  26.414  1.00  0.00     0.012 A 
ATOM     63  C   UNL A   1      42.198  24.667  27.447  1.00  0.00     0.148 A 
ATOM     64  C   UNL A   1      43.774  25.601  25.318  1.00  0.00     0.002 A 
ATOM     65  C   UNL A   1      42.494  23.832  26.378  1.00  0.00     0.091 A 
ATOM     66  F   UNL A   1      41.413  24.267  28.458  1.00  0.00    -0.205 F 
ATOM     67  C   UNL A   1      43.268  24.302  25.305  1.00  0.00     0.022 A 
BRANCH  65  68
ATOM     68  S   UNL A   1      41.952  22.122  26.305  1.00  0.00     0.127 S 
ATOM     69  O   UNL A   1      42.695  21.625  25.148  1.00  0.00    -0.237 OA
ATOM     70  O   UNL A   1      42.411  21.602  27.593  1.00  0.00    -0.237 OA
ATOM     71  O   UNL A   1      40.505  22.162  26.144  1.00  0.00    -0.744 OA
ENDBRANCH  65  68
ENDBRANCH  47  61
BRANCH  48  72
ATOM     72  C   UNL A   1      40.327  32.131  35.044  1.00  0.00     0.023 A 
ATOM     73  C   UNL A   1      41.006  33.348  35.242  1.00  0.00     0.012 A 
ATOM     74  C   UNL A   1      39.297  31.769  35.936  1.00  0.00     0.148 A 
ATOM     75  C   UNL A   1      40.695  34.168  36.329  1.00  0.00     0.002 A 
ATOM     76  C   UNL A   1      38.948  32.620  36.977  1.00  0.00     0.091 A 
ATOM     77  F   UNL A   1      38.670  30.600  35.745  1.00  0.00    -0.205 F 
ATOM     78  C   UNL A   1      39.661  33.810  37.189  1.00  0.00     0.022 A 
BRANCH  76  79
ATOM     79  S   UNL A   1      37.545  32.304  38.054  1.00  0.00     0.127 S 
ATOM     80  O   UNL A   1      38.015  32.853  39.324  1.00  0.00    -0.237 OA
ATOM     81  O   UNL A   1      36.485  33.075  37.404  1.00  0.00    -0.237 OA
ATOM     82  O   UNL A   1      37.342  30.862  38.026  1.00  0.00    -0.744 OA
ENDBRANCH  76  79
ENDBRANCH  48  72
BRANCH  60  83
ATOM     83  C   UNL A   1      45.067  27.082  34.204  1.00  0.00     0.023 A 
ATOM     84  C   UNL A   1      46.311  27.728  34.337  1.00  0.00     0.012 A 
ATOM     85  C   UNL A   1      44.777  25.954  34.997  1.00  0.00     0.148 A 
ATOM     86  C   UNL A   1      47.262  27.244  35.234  1.00  0.00     0.002 A 
ATOM     87  C   UNL A   1      45.707  25.514  35.928  1.00  0.00     0.091 A 
ATOM     88  F   UNL A   1      43.593  25.347  34.835  1.00  0.00    -0.205 F 
ATOM     89  C   UNL A   1      46.954  26.149  36.040  1.00  0.00     0.022 A 
BRANCH  87  90
ATOM     90  S   UNL A   1      45.356  24.182  37.080  1.00  0.00     0.127 S 
ATOM     91  O   UNL A   1      44.391  24.813  37.979  1.00  0.00    -0.237 OA
ATOM     92  O   UNL A   1      44.793  23.157  36.202  1.00  0.00    -0.237 OA
ATOM     93  O   UNL A   1      46.631  23.826  37.690  1.00  0.00    -0.744 OA
ENDBRANCH  87  90
ENDBRANCH  60  83
ENDBRANCH  34  35
ENDBRANCH  27  29
ENDBRANCH  26  27
ENDBRANCH  25  26
ENDBRANCH   1  25
TORSDOF 20
ENDMDL
MODEL 2
REMARK VINA RESULT:     -11.7      5.074      9.542
REMARK SMILES CC[NH2+][C@]1(C(=O)OCCOC(=O)c2ccc(-c3c4nc(c(-c5cccc(S(=O)(=O)[O-])c5F)c5ccc([nH]5)c(-c5cccc(S(=O)(=O)[O-])c5F)c5nc(c(-c6cccc(S(=O)(=O)[O-])c6F)c6ccc3[nH]6)C=C5)C=C4)cc2)CCC[C@@H]1CCSc1ccc(C)cc1
REMARK SMILES IDX 8 1 7 2 5 3 6 4 4 5 76 6 79 7 77 8 78 9 3 10 2 13 1 14 80 15
REMARK SMILES IDX 81 16 82 17 83 18 84 19 89 20 85 21 88 22 86 23 87 24 9 25
REMARK SMILES IDX 10 26 11 27 12 28 13 29 14 30 75 31 15 32 74 33 16 34 17 35
REMARK SMILES IDX 18 36 68 37 19 38 73 39 67 40 69 41 20 42 72 43 66 44 65 45
REMARK SMILES IDX 21 47 53 48 33 49 52 50 34 51 37 52 51 53 70 54 35 55 36 56
REMARK SMILES IDX 50 58 71 59 38 60 22 61 23 62 31 63 24 64 26 65 32 66 25 67
REMARK SMILES IDX 27 68 28 69 29 70 30 71 54 72 55 73 63 74 56 75 58 76 64 77
REMARK SMILES IDX 57 78 59 79 60 80 61 81 62 82 39 83 40 84 48 85 41 86 43 87
REMARK SMILES IDX 49 88 42 89 44 90 45 91 46 92 47 93
REMARK H PARENT 3 11 3 12 69 46 37 57
REMARK Flexibility Score: inf
ROOT
ATOM      1  C   UNL A   1      35.000  22.732  24.362  1.00  0.00     0.274 C 
ENDROOT
BRANCH   1   2
ATOM      2  O   UNL A   1      34.930  23.990  25.087  1.00  0.00    -0.457 OA
BRANCH   2   3
ATOM      3  C   UNL A   1      33.716  24.478  25.517  1.00  0.00     0.368 C 
ATOM      4  O   UNL A   1      33.253  24.154  26.580  1.00  0.00    -0.245 OA
BRANCH   3   5
ATOM      5  C   UNL A   1      33.019  25.524  24.562  1.00  0.00     0.197 C 
ATOM      6  C   UNL A   1      34.097  26.502  24.121  1.00  0.00     0.081 C 
ATOM      7  C   UNL A   1      32.631  24.752  23.354  1.00  0.00     0.063 C 
ATOM      8  C   UNL A   1      33.558  27.012  22.805  1.00  0.00     0.008 C 
ATOM      9  C   UNL A   1      32.702  25.838  22.238  1.00  0.00     0.011 C 
BRANCH   5  10
ATOM     10  N   UNL A   1      31.833  26.337  25.048  1.00  0.00    -0.332 N 
ATOM     11  H   UNL A   1      32.019  27.288  24.730  1.00  0.00     0.347 HD
ATOM     12  H   UNL A   1      31.077  25.759  24.682  1.00  0.00     0.347 HD
BRANCH  10  13
ATOM     13  C   UNL A   1      31.369  26.483  26.440  1.00  0.00     0.257 C 
ATOM     14  C   UNL A   1      31.548  27.913  26.989  1.00  0.00     0.071 C 
ENDBRANCH  10  13
ENDBRANCH   5  10
BRANCH   7  15
ATOM     15  C   UNL A   1      31.390  23.891  23.790  1.00  0.00     0.022 C 
BRANCH  15  16
ATOM     16  C   UNL A   1      31.296  22.208  23.613  1.00  0.00     0.075 C 
BRANCH  16  17
ATOM     17  S   UNL A   1      32.116  20.510  22.578  1.00  0.00    -0.126 SA
BRANCH  17  18
ATOM     18  C   UNL A   1      32.568  18.887  23.415  1.00  0.00     0.007 A 
ATOM     19  C   UNL A   1      32.436  18.618  24.791  1.00  0.00     0.015 A 
ATOM     20  C   UNL A   1      33.099  17.837  22.654  1.00  0.00     0.015 A 
ATOM     21  C   UNL A   1      33.177  17.587  25.414  1.00  0.00     0.004 A 
ATOM     22  C   UNL A   1      33.812  16.775  23.269  1.00  0.00     0.004 A 
ATOM     23  C   UNL A   1      33.955  16.713  24.657  1.00  0.00    -0.051 A 
ATOM     24  C   UNL A   1      34.978  15.823  25.316  1.00  0.00     0.044 C 
ENDBRANCH  17  18
ENDBRANCH  16  17
ENDBRANCH  15  16
ENDBRANCH   7  15
ENDBRANCH   3   5
ENDBRANCH   2   3
ENDBRANCH   1   2
BRANCH   1  25
ATOM     25  C   UNL A   1      35.484  21.552  25.201  1.00  0.00     0.275 C 
BRANCH  25  26
ATOM     26  O   UNL A   1      36.494  22.012  26.103  1.00  0.00    -0.458 OA
BRANCH  26  27
ATOM     27  C   UNL A   1      37.729  21.525  25.870  1.00  0.00     0.338 C 
ATOM     28  O   UNL A   1      38.023  20.416  25.455  1.00  0.00    -0.246 OA
BRANCH  27  29
ATOM     29  C   UNL A   1      38.704  22.611  26.036  1.00  0.00     0.060 A 
ATOM     30  C   UNL A   1      39.877  22.314  26.712  1.00  0.00     0.016 A 
ATOM     31  C   UNL A   1      38.384  23.930  25.753  1.00  0.00     0.016 A 
ATOM     32  C   UNL A   1      40.579  23.308  27.359  1.00  0.00     0.010 A 
ATOM     33  C   UNL A   1      39.251  24.936  26.189  1.00  0.00     0.010 A 
ATOM     34  C   UNL A   1      40.325  24.640  27.054  1.00  0.00    -0.014 A 
BRANCH  34  35
ATOM     35  C   UNL A   1      41.163  25.711  27.650  1.00  0.00     0.031 A 
ATOM     36  C   UNL A   1      40.512  26.734  28.534  1.00  0.00     0.074 A 
ATOM     37  C   UNL A   1      42.489  25.783  27.405  1.00  0.00     0.049 A 
ATOM     38  N   UNL A   1      40.923  27.929  28.851  1.00  0.00    -0.248 NA
ATOM     39  C   UNL A   1      39.211  26.366  29.122  1.00  0.00     0.031 C 
ATOM     40  C   UNL A   1      43.288  24.796  26.669  1.00  0.00     0.029 A 
ATOM     41  N   UNL A   1      43.404  26.753  27.734  1.00  0.00    -0.354 N 
ATOM     42  C   UNL A   1      39.887  28.500  29.578  1.00  0.00     0.074 A 
ATOM     43  C   UNL A   1      38.844  27.505  29.691  1.00  0.00     0.031 C 
ATOM     44  C   UNL A   1      44.564  25.194  26.625  1.00  0.00     0.029 A 
ATOM     45  C   UNL A   1      44.645  26.534  27.179  1.00  0.00     0.049 A 
ATOM     46  H   UNL A   1      43.195  27.525  28.309  1.00  0.00     0.167 HD
ATOM     47  C   UNL A   1      39.815  29.755  30.078  1.00  0.00     0.034 A 
ATOM     48  C   UNL A   1      45.699  27.358  27.028  1.00  0.00     0.034 A 
ATOM     49  C   UNL A   1      40.891  30.704  29.990  1.00  0.00     0.049 A 
ATOM     50  C   UNL A   1      45.569  28.771  27.516  1.00  0.00     0.074 A 
ATOM     51  C   UNL A   1      40.930  32.010  30.438  1.00  0.00     0.029 A 
ATOM     52  N   UNL A   1      42.126  30.439  29.416  1.00  0.00    -0.354 N 
ATOM     53  N   UNL A   1      44.569  29.336  28.150  1.00  0.00    -0.248 NA
ATOM     54  C   UNL A   1      46.705  29.666  27.262  1.00  0.00     0.031 C 
ATOM     55  C   UNL A   1      42.177  32.546  30.106  1.00  0.00     0.029 A 
ATOM     56  C   UNL A   1      42.933  31.557  29.494  1.00  0.00     0.049 A 
ATOM     57  H   UNL A   1      42.389  29.579  29.013  1.00  0.00     0.167 HD
ATOM     58  C   UNL A   1      44.970  30.641  28.403  1.00  0.00     0.074 A 
ATOM     59  C   UNL A   1      46.310  30.777  27.868  1.00  0.00     0.031 C 
ATOM     60  C   UNL A   1      44.287  31.642  29.009  1.00  0.00     0.034 A 
BRANCH  47  61
ATOM     61  C   UNL A   1      38.519  30.181  30.712  1.00  0.00     0.023 A 
ATOM     62  C   UNL A   1      38.236  29.860  32.053  1.00  0.00     0.012 A 
ATOM     63  C   UNL A   1      37.582  30.925  29.966  1.00  0.00     0.148 A 
ATOM     64  C   UNL A   1      37.023  30.238  32.631  1.00  0.00     0.002 A 
ATOM     65  C   UNL A   1      36.399  31.341  30.561  1.00  0.00     0.091 A 
ATOM     66  F   UNL A   1      37.861  31.200  28.683  1.00  0.00    -0.205 F 
ATOM     67  C   UNL A   1      36.111  30.986  31.888  1.00  0.00     0.022 A 
BRANCH  65  68
ATOM     68  S   UNL A   1      35.196  32.370  29.712  1.00  0.00     0.127 S 
ATOM     69  O   UNL A   1      34.257  32.676  30.790  1.00  0.00    -0.237 OA
ATOM     70  O   UNL A   1      36.016  33.502  29.278  1.00  0.00    -0.237 OA
ATOM     71  O   UNL A   1      34.659  31.556  28.631  1.00  0.00    -0.744 OA
ENDBRANCH  65  68
ENDBRANCH  47  61
BRANCH  48  72
ATOM     72  C   UNL A   1      46.933  26.894  26.328  1.00  0.00     0.023 A 
ATOM     73  C   UNL A   1      47.034  27.051  24.933  1.00  0.00     0.012 A 
ATOM     74  C   UNL A   1      48.003  26.301  27.029  1.00  0.00     0.148 A 
ATOM     75  C   UNL A   1      48.158  26.590  24.244  1.00  0.00     0.002 A 
ATOM     76  C   UNL A   1      49.147  25.904  26.347  1.00  0.00     0.091 A 
ATOM     77  F   UNL A   1      47.887  26.143  28.355  1.00  0.00    -0.205 F 
ATOM     78  C   UNL A   1      49.217  26.027  24.951  1.00  0.00     0.022 A 
BRANCH  76  79
ATOM     79  S   UNL A   1      50.610  25.291  27.189  1.00  0.00     0.127 S 
ATOM     80  O   UNL A   1      51.476  24.940  26.066  1.00  0.00    -0.237 OA
ATOM     81  O   UNL A   1      51.035  26.466  27.950  1.00  0.00    -0.237 OA
ATOM     82  O   UNL A   1      50.156  24.177  28.009  1.00  0.00    -0.744 OA
ENDBRANCH  76  79
ENDBRANCH  48  72
BRANCH  60  83
ATOM     83  C   UNL A   1      45.002  32.952  29.199  1.00  0.00     0.023 A 
ATOM     84  C   UNL A   1      45.800  33.167  30.337  1.00  0.00     0.012 A 
ATOM     85  C   UNL A   1      44.948  33.932  28.188  1.00  0.00     0.148 A 
ATOM     86  C   UNL A   1      46.520  34.352  30.478  1.00  0.00     0.002 A 
ATOM     87  C   UNL A   1      45.712  35.084  28.309  1.00  0.00     0.091 A 
ATOM     88  F   UNL A   1      44.163  33.710  27.124  1.00  0.00    -0.205 F 
ATOM     89  C   UNL A   1      46.489  35.302  29.458  1.00  0.00     0.022 A 
BRANCH  87  90
ATOM     90  S   UNL A   1      45.818  36.309  27.001  1.00  0.00     0.127 S 
ATOM     91  O   UNL A   1      44.445  36.810  26.952  1.00  0.00    -0.237 OA
ATOM     92  O   UNL A   1      46.794  37.254  27.544  1.00  0.00    -0.237 OA
ATOM     93  O   UNL A   1      46.260  35.595  25.810  1.00  0.00    -0.744 OA
ENDBRANCH  87  90
ENDBRANCH  60  83
ENDBRANCH  34  35
ENDBRANCH  27  29
ENDBRANCH  26  27
ENDBRANCH  25  26
ENDBRANCH   1  25
TORSDOF 20
ENDMDL
MODEL 3
REMARK VINA RESULT:     -11.6      5.196     10.095
REMARK SMILES CC[NH2+][C@]1(C(=O)OCCOC(=O)c2ccc(-c3c4nc(c(-c5cccc(S(=O)(=O)[O-])c5F)c5ccc([nH]5)c(-c5cccc(S(=O)(=O)[O-])c5F)c5nc(c(-c6cccc(S(=O)(=O)[O-])c6F)c6ccc3[nH]6)C=C5)C=C4)cc2)CCC[C@@H]1CCSc1ccc(C)cc1
REMARK SMILES IDX 8 1 7 2 5 3 6 4 4 5 76 6 79 7 77 8 78 9 3 10 2 13 1 14 80 15
REMARK SMILES IDX 81 16 82 17 83 18 84 19 89 20 85 21 88 22 86 23 87 24 9 25
REMARK SMILES IDX 10 26 11 27 12 28 13 29 14 30 75 31 15 32 74 33 16 34 17 35
REMARK SMILES IDX 18 36 68 37 19 38 73 39 67 40 69 41 20 42 72 43 66 44 65 45
REMARK SMILES IDX 21 47 53 48 33 49 52 50 34 51 37 52 51 53 70 54 35 55 36 56
REMARK SMILES IDX 50 58 71 59 38 60 22 61 23 62 31 63 24 64 26 65 32 66 25 67
REMARK SMILES IDX 27 68 28 69 29 70 30 71 54 72 55 73 63 74 56 75 58 76 64 77
REMARK SMILES IDX 57 78 59 79 60 80 61 81 62 82 39 83 40 84 48 85 41 86 43 87
REMARK SMILES IDX 49 88 42 89 44 90 45 91 46 92 47 93
REMARK H PARENT 3 11 3 12 69 46 37 57
REMARK Flexibility Score: inf
ROOT
ATOM      1  C   UNL A   1      36.094  20.631  24.942  1.00  0.00     0.274 C 
ENDROOT
BRANCH   1   2
ATOM      2  O   UNL A   1      34.786  21.087  24.505  1.00  0.00    -0.457 OA
BRANCH   2   3
ATOM      3  C   UNL A   1      33.855  21.515  25.426  1.00  0.00     0.368 C 
ATOM      4  O   UNL A   1      33.435  20.776  26.280  1.00  0.00    -0.245 OA
BRANCH   3   5
ATOM      5  C   UNL A   1      33.436  23.033  25.325  1.00  0.00     0.197 C 
ATOM      6  C   UNL A   1      33.862  23.694  26.626  1.00  0.00     0.081 C 
ATOM      7  C   UNL A   1      34.299  23.605  24.260  1.00  0.00     0.063 C 
ATOM      8  C   UNL A   1      34.030  25.140  26.220  1.00  0.00     0.008 C 
ATOM      9  C   UNL A   1      34.433  25.091  24.715  1.00  0.00     0.011 C 
BRANCH   5  10
ATOM     10  N   UNL A   1      31.990  23.416  25.068  1.00  0.00    -0.332 N 
ATOM     11  H   UNL A   1      31.891  24.350  25.465  1.00  0.00     0.347 HD
ATOM     12  H   UNL A   1      31.944  23.222  24.068  1.00  0.00     0.347 HD
BRANCH  10  13
ATOM     13  C   UNL A   1      30.787  22.684  25.509  1.00  0.00     0.257 C 
ATOM     14  C   UNL A   1      30.226  23.198  26.850  1.00  0.00     0.071 C 
ENDBRANCH  10  13
ENDBRANCH   5  10
BRANCH   7  15
ATOM     15  C   UNL A   1      33.713  23.056  22.908  1.00  0.00     0.022 C 
BRANCH  15  16
ATOM     16  C   UNL A   1      33.061  24.038  21.690  1.00  0.00     0.075 C 
BRANCH  16  17
ATOM     17  S   UNL A   1      31.958  25.844  21.303  1.00  0.00    -0.126 SA
BRANCH  17  18
ATOM     18  C   UNL A   1      32.059  27.387  22.373  1.00  0.00     0.007 A 
ATOM     19  C   UNL A   1      33.244  27.932  22.904  1.00  0.00     0.015 A 
ATOM     20  C   UNL A   1      30.887  28.076  22.712  1.00  0.00     0.015 A 
ATOM     21  C   UNL A   1      33.221  28.796  24.024  1.00  0.00     0.004 A 
ATOM     22  C   UNL A   1      30.858  28.976  23.809  1.00  0.00     0.004 A 
ATOM     23  C   UNL A   1      32.011  29.247  24.548  1.00  0.00    -0.051 A 
ATOM     24  C   UNL A   1      31.956  29.903  25.905  1.00  0.00     0.044 C 
ENDBRANCH  17  18
ENDBRANCH  16  17
ENDBRANCH  15  16
ENDBRANCH   7  15
ENDBRANCH   3   5
ENDBRANCH   2   3
ENDBRANCH   1   2
BRANCH   1  25
ATOM     25  C   UNL A   1      37.259  21.449  24.391  1.00  0.00     0.275 C 
BRANCH  25  26
ATOM     26  O   UNL A   1      37.764  22.290  25.431  1.00  0.00    -0.458 OA
BRANCH  26  27
ATOM     27  C   UNL A   1      38.942  21.900  25.958  1.00  0.00     0.338 C 
ATOM     28  O   UNL A   1      39.587  20.904  25.675  1.00  0.00    -0.246 OA
BRANCH  27  29
ATOM     29  C   UNL A   1      39.440  22.964  26.839  1.00  0.00     0.060 A 
ATOM     30  C   UNL A   1      39.028  24.259  26.567  1.00  0.00     0.016 A 
ATOM     31  C   UNL A   1      40.460  22.741  27.751  1.00  0.00     0.016 A 
ATOM     32  C   UNL A   1      39.799  25.333  26.958  1.00  0.00     0.010 A 
ATOM     33  C   UNL A   1      41.071  23.844  28.354  1.00  0.00     0.010 A 
ATOM     34  C   UNL A   1      40.791  25.155  27.914  1.00  0.00    -0.014 A 
BRANCH  34  35
ATOM     35  C   UNL A   1      41.539  26.327  28.435  1.00  0.00     0.031 A 
ATOM     36  C   UNL A   1      40.795  27.375  29.210  1.00  0.00     0.074 A 
ATOM     37  C   UNL A   1      42.863  26.468  28.217  1.00  0.00     0.049 A 
ATOM     38  N   UNL A   1      41.117  28.619  29.432  1.00  0.00    -0.248 NA
ATOM     39  C   UNL A   1      39.504  26.972  29.796  1.00  0.00     0.031 C 
ATOM     40  C   UNL A   1      43.747  25.479  27.590  1.00  0.00     0.029 A 
ATOM     41  N   UNL A   1      43.703  27.523  28.482  1.00  0.00    -0.354 N 
ATOM     42  C   UNL A   1      40.024  29.178  30.081  1.00  0.00     0.074 A 
ATOM     43  C   UNL A   1      39.046  28.127  30.254  1.00  0.00     0.031 C 
ATOM     44  C   UNL A   1      44.996  25.958  27.542  1.00  0.00     0.029 A 
ATOM     45  C   UNL A   1      44.972  27.343  27.979  1.00  0.00     0.049 A 
ATOM     46  H   UNL A   1      43.426  28.325  28.983  1.00  0.00     0.167 HD
ATOM     47  C   UNL A   1      39.855  30.463  30.468  1.00  0.00     0.034 A 
ATOM     48  C   UNL A   1      45.973  28.221  27.782  1.00  0.00     0.034 A 
ATOM     49  C   UNL A   1      40.868  31.472  30.324  1.00  0.00     0.049 A 
ATOM     50  C   UNL A   1      45.735  29.658  28.142  1.00  0.00     0.074 A 
ATOM     51  C   UNL A   1      40.807  32.811  30.657  1.00  0.00     0.029 A 
ATOM     52  N   UNL A   1      42.135  31.243  29.805  1.00  0.00    -0.354 N 
ATOM     53  N   UNL A   1      44.682  30.205  28.700  1.00  0.00    -0.248 NA
ATOM     54  C   UNL A   1      46.817  30.603  27.839  1.00  0.00     0.031 C 
ATOM     55  C   UNL A   1      42.026  33.400  30.310  1.00  0.00     0.029 A 
ATOM     56  C   UNL A   1      42.864  32.417  29.805  1.00  0.00     0.049 A 
ATOM     57  H   UNL A   1      42.466  30.372  29.485  1.00  0.00     0.167 HD
ATOM     58  C   UNL A   1      44.988  31.552  28.848  1.00  0.00     0.074 A 
ATOM     59  C   UNL A   1      46.332  31.732  28.336  1.00  0.00     0.031 C 
ATOM     60  C   UNL A   1      44.224  32.552  29.348  1.00  0.00     0.034 A 
BRANCH  47  61
ATOM     61  C   UNL A   1      38.515  30.852  31.030  1.00  0.00     0.023 A 
ATOM     62  C   UNL A   1      38.213  30.626  32.387  1.00  0.00     0.012 A 
ATOM     63  C   UNL A   1      37.555  31.466  30.200  1.00  0.00     0.148 A 
ATOM     64  C   UNL A   1      36.961  30.968  32.899  1.00  0.00     0.002 A 
ATOM     65  C   UNL A   1      36.330  31.850  30.728  1.00  0.00     0.091 A 
ATOM     66  F   UNL A   1      37.854  31.650  28.906  1.00  0.00    -0.205 F 
ATOM     67  C   UNL A   1      36.025  31.588  32.073  1.00  0.00     0.022 A 
BRANCH  65  68
ATOM     68  S   UNL A   1      35.089  32.720  29.765  1.00  0.00     0.127 S 
ATOM     69  O   UNL A   1      34.676  31.689  28.815  1.00  0.00    -0.237 OA
ATOM     70  O   UNL A   1      34.090  33.049  30.781  1.00  0.00    -0.237 OA
ATOM     71  O   UNL A   1      35.765  33.870  29.179  1.00  0.00    -0.744 OA
ENDBRANCH  65  68
ENDBRANCH  47  61
BRANCH  48  72
ATOM     72  C   UNL A   1      47.256  27.784  27.156  1.00  0.00     0.023 A 
ATOM     73  C   UNL A   1      48.346  27.449  27.980  1.00  0.00     0.012 A 
ATOM     74  C   UNL A   1      47.404  27.697  25.756  1.00  0.00     0.148 A 
ATOM     75  C   UNL A   1      49.571  27.075  27.424  1.00  0.00     0.002 A 
ATOM     76  C   UNL A   1      48.605  27.261  25.210  1.00  0.00     0.091 A 
ATOM     77  F   UNL A   1      46.363  28.034  24.982  1.00  0.00    -0.205 F 
ATOM     78  C   UNL A   1      49.698  26.971  26.042  1.00  0.00     0.022 A 
BRANCH  76  79
ATOM     79  S   UNL A   1      48.817  26.972  23.450  1.00  0.00     0.127 S 
ATOM     80  O   UNL A   1      48.177  28.152  22.874  1.00  0.00    -0.237 OA
ATOM     81  O   UNL A   1      50.274  26.938  23.322  1.00  0.00    -0.237 OA
ATOM     82  O   UNL A   1      48.161  25.701  23.176  1.00  0.00    -0.744 OA
ENDBRANCH  76  79
ENDBRANCH  48  72
BRANCH  60  83
ATOM     83  C   UNL A   1      44.844  33.919  29.440  1.00  0.00     0.023 A 
ATOM     84  C   UNL A   1      45.524  34.313  30.607  1.00  0.00     0.012 A 
ATOM     85  C   UNL A   1      44.827  34.773  28.319  1.00  0.00     0.148 A 
ATOM     86  C   UNL A   1      46.162  35.551  30.666  1.00  0.00     0.002 A 
ATOM     87  C   UNL A   1      45.512  35.978  28.367  1.00  0.00     0.091 A 
ATOM     88  F   UNL A   1      44.155  34.381  27.228  1.00  0.00    -0.205 F 
ATOM     89  C   UNL A   1      46.169  36.375  29.542  1.00  0.00     0.022 A 
BRANCH  87  90
ATOM     90  S   UNL A   1      45.667  37.053  26.936  1.00  0.00     0.127 S 
ATOM     91  O   UNL A   1      44.307  37.572  26.806  1.00  0.00    -0.237 OA
ATOM     92  O   UNL A   1      46.654  38.032  27.393  1.00  0.00    -0.237 OA
ATOM     93  O   UNL A   1      46.115  36.206  25.839  1.00  0.00    -0.744 OA
ENDBRANCH  87  90
ENDBRANCH  60  83
ENDBRANCH  34  35
ENDBRANCH  27  29
ENDBRANCH  26  27
ENDBRANCH  25  26
ENDBRANCH   1  25
TORSDOF 20
ENDMDL
