MODEL 1
REMARK VINA RESULT:     -12.9      0.000      0.000
REMARK SMILES Cc1cccc(O[C@H](C)C(=O)NNC(=O)[C@H]2[C@@H]3CC[C@@H](C3)[C@@H]2C(=O)OCCOC(=O)c2ccc(-c3c4nc(c(-c5cccc(S(=O)(=O)[O-])c5F)c5ccc([nH]5)c(-c5cccc(S(=O)(=O)[O-])c5F)c5nc(c(-c6cccc(S(=O)(=O)[O-])c6F)c6ccc3[nH]6)C=C5)C=C4)cc2)c1
REMARK SMILES IDX 26 1 25 2 23 3 24 4 22 5 16 6 17 7 18 8 21 9 20 10 19 11
REMARK SMILES IDX 14 12 13 13 15 15 12 16 10 17 11 18 8 20 9 21 7 22 6 23 1 24
REMARK SMILES IDX 2 25 3 26 94 27 4 28 5 29 27 30 28 31 29 32 30 33 31 34
REMARK SMILES IDX 32 35 93 36 33 37 92 38 34 39 35 40 36 41 86 42 37 43 91 44
REMARK SMILES IDX 85 45 87 46 38 47 90 48 84 49 83 50 39 52 71 53 51 54 70 55
REMARK SMILES IDX 52 56 55 57 69 58 88 59 53 60 54 61 68 63 89 64 56 65 40 66
REMARK SMILES IDX 41 67 49 68 42 69 44 70 50 71 43 72 45 73 46 74 47 75 48 76
REMARK SMILES IDX 72 77 73 78 81 79 74 80 76 81 82 82 75 83 77 84 78 85 79 86
REMARK SMILES IDX 80 87 57 88 58 89 66 90 59 91 61 92 67 93 60 94 62 95 63 96
REMARK SMILES IDX 64 97 65 98
REMARK H PARENT 13 14 12 19 87 51 55 62
REMARK Flexibility Score: inf
ROOT
ATOM      1  C   UNL A   1      33.531  28.467  27.264  1.00  0.00     0.274 C 
ENDROOT
BRANCH   1   2
ATOM      2  O   UNL A   1      32.262  29.027  26.883  1.00  0.00    -0.462 OA
BRANCH   2   3
ATOM      3  C   UNL A   1      31.366  28.082  26.436  1.00  0.00     0.310 C 
ATOM      4  O   UNL A   1      31.011  27.123  27.109  1.00  0.00    -0.252 OA
BRANCH   3   5
ATOM      5  C   UNL A   1      31.128  28.145  24.948  1.00  0.00     0.115 C 
ATOM      6  C   UNL A   1      31.231  26.892  24.080  1.00  0.00     0.098 C 
ATOM      7  C   UNL A   1      31.429  27.504  22.657  1.00  0.00     0.003 C 
ATOM      8  C   UNL A   1      32.935  27.687  22.466  1.00  0.00     0.005 C 
ATOM      9  C   UNL A   1      31.053  28.992  22.787  1.00  0.00     0.009 C 
ATOM     10  C   UNL A   1      31.873  29.184  24.071  1.00  0.00     0.004 C 
ATOM     11  C   UNL A   1      33.263  28.726  23.561  1.00  0.00     0.005 C 
BRANCH   6  12
ATOM     12  C   UNL A   1      30.132  25.856  24.175  1.00  0.00     0.242 C 
ATOM     13  N   UNL A   1      30.436  24.585  24.570  1.00  0.00    -0.267 N 
ATOM     14  H   UNL A   1      30.189  23.827  23.992  1.00  0.00     0.191 HD
ATOM     15  O   UNL A   1      28.964  26.108  23.879  1.00  0.00    -0.273 OA
BRANCH  13  16
ATOM     16  N   UNL A   1      31.098  24.339  25.789  1.00  0.00    -0.264 N 
ATOM     17  C   UNL A   1      32.449  24.107  25.746  1.00  0.00     0.279 C 
ATOM     18  O   UNL A   1      33.240  24.972  26.130  1.00  0.00    -0.269 OA
ATOM     19  H   UNL A   1      30.608  24.333  26.643  1.00  0.00     0.191 HD
BRANCH  17  20
ATOM     20  C   UNL A   1      32.896  22.645  25.527  1.00  0.00     0.260 C 
ATOM     21  C   UNL A   1      31.660  21.739  25.589  1.00  0.00     0.064 C 
BRANCH  20  22
ATOM     22  O   UNL A   1      33.867  22.210  24.592  1.00  0.00    -0.481 OA
BRANCH  22  23
ATOM     23  C   UNL A   1      35.205  22.263  24.823  1.00  0.00     0.120 A 
ATOM     24  C   UNL A   1      37.923  19.580  24.937  1.00  0.00     0.044 C 
ATOM     25  C   UNL A   1      37.229  20.908  25.003  1.00  0.00    -0.047 A 
ATOM     26  C   UNL A   1      37.955  22.053  25.336  1.00  0.00     0.003 A 
ATOM     27  C   UNL A   1      35.857  21.026  24.741  1.00  0.00     0.049 A 
ATOM     28  C   UNL A   1      37.320  23.290  25.399  1.00  0.00     0.004 A 
ATOM     29  C   UNL A   1      35.953  23.399  25.127  1.00  0.00     0.046 A 
ENDBRANCH  22  23
ENDBRANCH  20  22
ENDBRANCH  17  20
ENDBRANCH  13  16
ENDBRANCH   6  12
ENDBRANCH   3   5
ENDBRANCH   2   3
ENDBRANCH   1   2
BRANCH   1  30
ATOM     30  C   UNL A   1      34.766  29.366  27.050  1.00  0.00     0.275 C 
BRANCH  30  31
ATOM     31  O   UNL A   1      35.209  30.205  28.144  1.00  0.00    -0.458 OA
BRANCH  31  32
ATOM     32  C   UNL A   1      36.450  30.755  28.240  1.00  0.00     0.338 C 
ATOM     33  O   UNL A   1      36.656  31.951  28.391  1.00  0.00    -0.246 OA
BRANCH  32  34
ATOM     34  C   UNL A   1      37.546  29.792  28.168  1.00  0.00     0.060 A 
ATOM     35  C   UNL A   1      38.342  29.771  27.022  1.00  0.00     0.016 A 
ATOM     36  C   UNL A   1      37.873  29.073  29.315  1.00  0.00     0.016 A 
ATOM     37  C   UNL A   1      39.558  29.105  27.059  1.00  0.00     0.010 A 
ATOM     38  C   UNL A   1      39.116  28.487  29.379  1.00  0.00     0.010 A 
ATOM     39  C   UNL A   1      39.961  28.505  28.254  1.00  0.00    -0.014 A 
BRANCH  39  40
ATOM     40  C   UNL A   1      41.067  27.561  28.295  1.00  0.00     0.031 A 
ATOM     41  C   UNL A   1      40.910  26.104  28.146  1.00  0.00     0.074 A 
ATOM     42  C   UNL A   1      42.244  28.171  28.560  1.00  0.00     0.049 A 
ATOM     43  N   UNL A   1      41.621  25.249  28.799  1.00  0.00    -0.248 NA
ATOM     44  C   UNL A   1      39.904  25.472  27.296  1.00  0.00     0.031 C 
ATOM     45  C   UNL A   1      43.599  27.677  28.490  1.00  0.00     0.029 A 
ATOM     46  N   UNL A   1      42.368  29.437  29.158  1.00  0.00    -0.354 N 
ATOM     47  C   UNL A   1      41.374  24.006  28.243  1.00  0.00     0.074 A 
ATOM     48  C   UNL A   1      40.187  24.171  27.446  1.00  0.00     0.031 C 
ATOM     49  C   UNL A   1      44.381  28.488  29.231  1.00  0.00     0.029 A 
ATOM     50  C   UNL A   1      43.511  29.416  29.950  1.00  0.00     0.049 A 
ATOM     51  H   UNL A   1      41.756  30.199  29.038  1.00  0.00     0.167 HD
ATOM     52  C   UNL A   1      42.336  23.042  28.312  1.00  0.00     0.034 A 
ATOM     53  C   UNL A   1      43.455  29.631  31.299  1.00  0.00     0.034 A 
ATOM     54  C   UNL A   1      43.507  23.565  29.025  1.00  0.00     0.049 A 
ATOM     55  C   UNL A   1      43.949  28.401  32.054  1.00  0.00     0.074 A 
ATOM     56  C   UNL A   1      44.655  24.198  28.571  1.00  0.00     0.029 A 
ATOM     57  N   UNL A   1      43.434  23.822  30.384  1.00  0.00    -0.354 N 
ATOM     58  N   UNL A   1      44.151  27.234  31.509  1.00  0.00    -0.248 NA
ATOM     59  C   UNL A   1      44.100  28.370  33.506  1.00  0.00     0.031 C 
ATOM     60  C   UNL A   1      45.264  24.855  29.670  1.00  0.00     0.029 A 
ATOM     61  C   UNL A   1      44.504  24.606  30.797  1.00  0.00     0.049 A 
ATOM     62  H   UNL A   1      42.720  23.494  30.977  1.00  0.00     0.167 HD
ATOM     63  C   UNL A   1      44.374  26.297  32.484  1.00  0.00     0.074 A 
ATOM     64  C   UNL A   1      44.255  27.054  33.718  1.00  0.00     0.031 C 
ATOM     65  C   UNL A   1      44.611  24.978  32.200  1.00  0.00     0.034 A 
BRANCH  52  66
ATOM     66  C   UNL A   1      42.409  21.829  27.391  1.00  0.00     0.023 A 
ATOM     67  C   UNL A   1      41.412  20.839  27.571  1.00  0.00     0.012 A 
ATOM     68  C   UNL A   1      43.392  21.548  26.411  1.00  0.00     0.148 A 
ATOM     69  C   UNL A   1      41.438  19.602  26.925  1.00  0.00     0.002 A 
ATOM     70  C   UNL A   1      43.437  20.292  25.781  1.00  0.00     0.091 A 
ATOM     71  F   UNL A   1      44.258  22.505  26.055  1.00  0.00    -0.205 F 
ATOM     72  C   UNL A   1      42.469  19.316  26.050  1.00  0.00     0.022 A 
BRANCH  70  73
ATOM     73  S   UNL A   1      44.746  19.784  24.648  1.00  0.00     0.127 S 
ATOM     74  O   UNL A   1      44.338  18.420  24.301  1.00  0.00    -0.237 OA
ATOM     75  O   UNL A   1      44.612  20.748  23.557  1.00  0.00    -0.237 OA
ATOM     76  O   UNL A   1      45.990  19.863  25.402  1.00  0.00    -0.744 OA
ENDBRANCH  70  73
ENDBRANCH  52  66
BRANCH  53  77
ATOM     77  C   UNL A   1      42.292  30.476  31.780  1.00  0.00     0.023 A 
ATOM     78  C   UNL A   1      42.056  31.749  31.195  1.00  0.00     0.012 A 
ATOM     79  C   UNL A   1      41.252  29.916  32.530  1.00  0.00     0.148 A 
ATOM     80  C   UNL A   1      40.783  32.340  31.221  1.00  0.00     0.002 A 
ATOM     81  C   UNL A   1      39.986  30.490  32.526  1.00  0.00     0.091 A 
ATOM     82  F   UNL A   1      41.451  28.784  33.212  1.00  0.00    -0.205 F 
ATOM     83  C   UNL A   1      39.732  31.689  31.856  1.00  0.00     0.022 A 
BRANCH  81  84
ATOM     84  S   UNL A   1      38.635  29.489  33.134  1.00  0.00     0.127 S 
ATOM     85  O   UNL A   1      37.472  30.067  32.463  1.00  0.00    -0.237 OA
ATOM     86  O   UNL A   1      38.988  28.157  32.660  1.00  0.00    -0.237 OA
ATOM     87  O   UNL A   1      38.698  29.711  34.574  1.00  0.00    -0.744 OA
ENDBRANCH  81  84
ENDBRANCH  53  77
BRANCH  65  88
ATOM     88  C   UNL A   1      44.996  23.911  33.217  1.00  0.00     0.023 A 
ATOM     89  C   UNL A   1      44.061  22.989  33.721  1.00  0.00     0.012 A 
ATOM     90  C   UNL A   1      46.294  23.857  33.795  1.00  0.00     0.148 A 
ATOM     91  C   UNL A   1      44.411  21.986  34.628  1.00  0.00     0.002 A 
ATOM     92  C   UNL A   1      46.635  22.884  34.728  1.00  0.00     0.091 A 
ATOM     93  F   UNL A   1      47.205  24.787  33.493  1.00  0.00    -0.205 F 
ATOM     94  C   UNL A   1      45.703  21.923  35.121  1.00  0.00     0.022 A 
BRANCH  92  95
ATOM     95  S   UNL A   1      48.246  22.831  35.523  1.00  0.00     0.127 S 
ATOM     96  O   UNL A   1      48.114  21.646  36.369  1.00  0.00    -0.237 OA
ATOM     97  O   UNL A   1      49.141  22.667  34.377  1.00  0.00    -0.237 OA
ATOM     98  O   UNL A   1      48.397  24.089  36.238  1.00  0.00    -0.744 OA
ENDBRANCH  92  95
ENDBRANCH  65  88
ENDBRANCH  39  40
ENDBRANCH  32  34
ENDBRANCH  31  32
ENDBRANCH  30  31
ENDBRANCH   1  30
TORSDOF 19
ENDMDL
MODEL 2
REMARK VINA RESULT:     -12.7      1.776      2.430
REMARK SMILES Cc1cccc(O[C@H](C)C(=O)NNC(=O)[C@H]2[C@@H]3CC[C@@H](C3)[C@@H]2C(=O)OCCOC(=O)c2ccc(-c3c4nc(c(-c5cccc(S(=O)(=O)[O-])c5F)c5ccc([nH]5)c(-c5cccc(S(=O)(=O)[O-])c5F)c5nc(c(-c6cccc(S(=O)(=O)[O-])c6F)c6ccc3[nH]6)C=C5)C=C4)cc2)c1
REMARK SMILES IDX 26 1 25 2 23 3 24 4 22 5 16 6 17 7 18 8 21 9 20 10 19 11
REMARK SMILES IDX 14 12 13 13 15 15 12 16 10 17 11 18 8 20 9 21 7 22 6 23 1 24
REMARK SMILES IDX 2 25 3 26 94 27 4 28 5 29 27 30 28 31 29 32 30 33 31 34
REMARK SMILES IDX 32 35 93 36 33 37 92 38 34 39 35 40 36 41 86 42 37 43 91 44
REMARK SMILES IDX 85 45 87 46 38 47 90 48 84 49 83 50 39 52 71 53 51 54 70 55
REMARK SMILES IDX 52 56 55 57 69 58 88 59 53 60 54 61 68 63 89 64 56 65 40 66
REMARK SMILES IDX 41 67 49 68 42 69 44 70 50 71 43 72 45 73 46 74 47 75 48 76
REMARK SMILES IDX 72 77 73 78 81 79 74 80 76 81 82 82 75 83 77 84 78 85 79 86
REMARK SMILES IDX 80 87 57 88 58 89 66 90 59 91 61 92 67 93 60 94 62 95 63 96
REMARK SMILES IDX 64 97 65 98
REMARK H PARENT 13 14 12 19 87 51 55 62
REMARK Flexibility Score: inf
ROOT
ATOM      1  C   UNL A   1      33.104  29.687  26.113  1.00  0.00     0.274 C 
ENDROOT
BRANCH   1   2
ATOM      2  O   UNL A   1      32.310  28.522  26.397  1.00  0.00    -0.462 OA
BRANCH   2   3
ATOM      3  C   UNL A   1      32.835  27.366  25.865  1.00  0.00     0.310 C 
ATOM      4  O   UNL A   1      33.992  27.010  26.045  1.00  0.00    -0.252 OA
BRANCH   3   5
ATOM      5  C   UNL A   1      31.975  26.764  24.783  1.00  0.00     0.115 C 
ATOM      6  C   UNL A   1      32.362  26.885  23.310  1.00  0.00     0.098 C 
ATOM      7  C   UNL A   1      31.001  26.613  22.596  1.00  0.00     0.003 C 
ATOM      8  C   UNL A   1      30.301  27.965  22.460  1.00  0.00     0.005 C 
ATOM      9  C   UNL A   1      30.080  26.008  23.673  1.00  0.00     0.009 C 
ATOM     10  C   UNL A   1      30.455  27.065  24.722  1.00  0.00     0.004 C 
ATOM     11  C   UNL A   1      30.078  28.350  23.940  1.00  0.00     0.005 C 
BRANCH   6  12
ATOM     12  C   UNL A   1      33.521  26.057  22.799  1.00  0.00     0.242 C 
ATOM     13  N   UNL A   1      34.071  25.098  23.601  1.00  0.00    -0.267 N 
ATOM     14  H   UNL A   1      35.036  25.121  23.790  1.00  0.00     0.191 HD
ATOM     15  O   UNL A   1      34.014  26.233  21.684  1.00  0.00    -0.273 OA
BRANCH  13  16
ATOM     16  N   UNL A   1      33.280  24.075  24.161  1.00  0.00    -0.264 N 
ATOM     17  C   UNL A   1      33.708  23.510  25.335  1.00  0.00     0.279 C 
ATOM     18  O   UNL A   1      33.136  23.772  26.396  1.00  0.00    -0.269 OA
ATOM     19  H   UNL A   1      32.449  23.777  23.726  1.00  0.00     0.191 HD
BRANCH  17  20
ATOM     20  C   UNL A   1      34.678  22.314  25.216  1.00  0.00     0.260 C 
ATOM     21  C   UNL A   1      36.053  22.743  25.744  1.00  0.00     0.064 C 
BRANCH  20  22
ATOM     22  O   UNL A   1      34.362  20.963  25.500  1.00  0.00    -0.481 OA
BRANCH  22  23
ATOM     23  C   UNL A   1      33.707  20.149  24.630  1.00  0.00     0.120 A 
ATOM     24  C   UNL A   1      34.064  16.440  23.785  1.00  0.00     0.044 C 
ATOM     25  C   UNL A   1      33.591  17.863  23.778  1.00  0.00    -0.047 A 
ATOM     26  C   UNL A   1      32.595  18.258  22.883  1.00  0.00     0.003 A 
ATOM     27  C   UNL A   1      34.134  18.815  24.652  1.00  0.00     0.049 A 
ATOM     28  C   UNL A   1      32.149  19.577  22.869  1.00  0.00     0.004 A 
ATOM     29  C   UNL A   1      32.690  20.516  23.752  1.00  0.00     0.046 A 
ENDBRANCH  22  23
ENDBRANCH  20  22
ENDBRANCH  17  20
ENDBRANCH  13  16
ENDBRANCH   6  12
ENDBRANCH   3   5
ENDBRANCH   2   3
ENDBRANCH   1   2
BRANCH   1  30
ATOM     30  C   UNL A   1      33.916  30.263  27.290  1.00  0.00     0.275 C 
BRANCH  30  31
ATOM     31  O   UNL A   1      35.362  30.204  27.227  1.00  0.00    -0.458 OA
BRANCH  31  32
ATOM     32  C   UNL A   1      36.194  30.612  28.225  1.00  0.00     0.338 C 
ATOM     33  O   UNL A   1      35.958  31.555  28.966  1.00  0.00    -0.246 OA
BRANCH  32  34
ATOM     34  C   UNL A   1      37.408  29.812  28.364  1.00  0.00     0.060 A 
ATOM     35  C   UNL A   1      37.470  28.866  29.389  1.00  0.00     0.016 A 
ATOM     36  C   UNL A   1      38.369  29.885  27.360  1.00  0.00     0.016 A 
ATOM     37  C   UNL A   1      38.458  27.893  29.348  1.00  0.00     0.010 A 
ATOM     38  C   UNL A   1      39.293  28.869  27.272  1.00  0.00     0.010 A 
ATOM     39  C   UNL A   1      39.336  27.871  28.263  1.00  0.00    -0.014 A 
BRANCH  39  40
ATOM     40  C   UNL A   1      40.554  27.075  28.288  1.00  0.00     0.031 A 
ATOM     41  C   UNL A   1      40.584  25.614  28.099  1.00  0.00     0.074 A 
ATOM     42  C   UNL A   1      41.641  27.822  28.580  1.00  0.00     0.049 A 
ATOM     43  N   UNL A   1      41.395  24.839  28.735  1.00  0.00    -0.248 NA
ATOM     44  C   UNL A   1      39.672  24.882  27.224  1.00  0.00     0.031 C 
ATOM     45  C   UNL A   1      43.049  27.506  28.508  1.00  0.00     0.029 A 
ATOM     46  N   UNL A   1      41.600  29.076  29.212  1.00  0.00    -0.354 N 
ATOM     47  C   UNL A   1      41.312  23.590  28.144  1.00  0.00     0.074 A 
ATOM     48  C   UNL A   1      40.118  23.624  27.342  1.00  0.00     0.031 C 
ATOM     49  C   UNL A   1      43.717  28.390  29.278  1.00  0.00     0.029 A 
ATOM     50  C   UNL A   1      42.732  29.179  30.013  1.00  0.00     0.049 A 
ATOM     51  H   UNL A   1      40.896  29.757  29.107  1.00  0.00     0.167 HD
ATOM     52  C   UNL A   1      42.389  22.755  28.196  1.00  0.00     0.034 A 
ATOM     53  C   UNL A   1      42.641  29.348  31.368  1.00  0.00     0.034 A 
ATOM     54  C   UNL A   1      43.480  23.404  28.933  1.00  0.00     0.049 A 
ATOM     55  C   UNL A   1      43.284  28.171  32.094  1.00  0.00     0.074 A 
ATOM     56  C   UNL A   1      44.539  24.189  28.507  1.00  0.00     0.029 A 
ATOM     57  N   UNL A   1      43.367  23.611  30.298  1.00  0.00    -0.354 N 
ATOM     58  N   UNL A   1      43.637  27.054  31.519  1.00  0.00    -0.248 NA
ATOM     59  C   UNL A   1      43.431  28.119  33.546  1.00  0.00     0.031 C 
ATOM     60  C   UNL A   1      45.054  24.888  29.628  1.00  0.00     0.029 A 
ATOM     61  C   UNL A   1      44.326  24.513  30.741  1.00  0.00     0.049 A 
ATOM     62  H   UNL A   1      42.697  23.179  30.875  1.00  0.00     0.167 HD
ATOM     63  C   UNL A   1      43.972  26.127  32.471  1.00  0.00     0.074 A 
ATOM     64  C   UNL A   1      43.751  26.828  33.724  1.00  0.00     0.031 C 
ATOM     65  C   UNL A   1      44.377  24.857  32.154  1.00  0.00     0.034 A 
BRANCH  52  66
ATOM     66  C   UNL A   1      42.621  21.587  27.244  1.00  0.00     0.023 A 
ATOM     67  C   UNL A   1      41.880  20.408  27.500  1.00  0.00     0.012 A 
ATOM     68  C   UNL A   1      43.534  21.523  26.163  1.00  0.00     0.148 A 
ATOM     69  C   UNL A   1      42.100  19.206  26.824  1.00  0.00     0.002 A 
ATOM     70  C   UNL A   1      43.779  20.307  25.502  1.00  0.00     0.091 A 
ATOM     71  F   UNL A   1      44.137  22.644  25.745  1.00  0.00    -0.205 F 
ATOM     72  C   UNL A   1      43.072  19.147  25.843  1.00  0.00     0.022 A 
BRANCH  70  73
ATOM     73  S   UNL A   1      45.040  20.092  24.231  1.00  0.00     0.127 S 
ATOM     74  O   UNL A   1      46.247  20.567  24.913  1.00  0.00    -0.237 OA
ATOM     75  O   UNL A   1      45.011  18.649  23.996  1.00  0.00    -0.237 OA
ATOM     76  O   UNL A   1      44.626  20.917  23.103  1.00  0.00    -0.744 OA
ENDBRANCH  70  73
ENDBRANCH  52  66
BRANCH  53  77
ATOM     77  C   UNL A   1      41.377  30.025  31.860  1.00  0.00     0.023 A 
ATOM     78  C   UNL A   1      40.258  29.237  32.240  1.00  0.00     0.012 A 
ATOM     79  C   UNL A   1      41.387  31.362  32.273  1.00  0.00     0.148 A 
ATOM     80  C   UNL A   1      39.290  29.726  33.133  1.00  0.00     0.002 A 
ATOM     81  C   UNL A   1      40.444  31.830  33.182  1.00  0.00     0.091 A 
ATOM     82  F   UNL A   1      42.345  32.190  31.844  1.00  0.00    -0.205 F 
ATOM     83  C   UNL A   1      39.405  31.016  33.637  1.00  0.00     0.022 A 
BRANCH  81  84
ATOM     84  S   UNL A   1      40.788  33.392  33.981  1.00  0.00     0.127 S 
ATOM     85  O   UNL A   1      42.196  33.266  34.353  1.00  0.00    -0.237 OA
ATOM     86  O   UNL A   1      40.545  34.355  32.914  1.00  0.00    -0.237 OA
ATOM     87  O   UNL A   1      39.846  33.394  35.094  1.00  0.00    -0.744 OA
ENDBRANCH  81  84
ENDBRANCH  53  77
BRANCH  65  88
ATOM     88  C   UNL A   1      44.889  23.821  33.145  1.00  0.00     0.023 A 
ATOM     89  C   UNL A   1      44.055  22.820  33.677  1.00  0.00     0.012 A 
ATOM     90  C   UNL A   1      46.209  23.872  33.672  1.00  0.00     0.148 A 
ATOM     91  C   UNL A   1      44.523  21.844  34.560  1.00  0.00     0.002 A 
ATOM     92  C   UNL A   1      46.667  22.926  34.582  1.00  0.00     0.091 A 
ATOM     93  F   UNL A   1      47.027  24.877  33.345  1.00  0.00    -0.205 F 
ATOM     94  C   UNL A   1      45.835  21.888  35.002  1.00  0.00     0.022 A 
BRANCH  92  95
ATOM     95  S   UNL A   1      48.306  23.004  35.315  1.00  0.00     0.127 S 
ATOM     96  O   UNL A   1      48.328  21.778  36.111  1.00  0.00    -0.237 OA
ATOM     97  O   UNL A   1      49.165  22.978  34.131  1.00  0.00    -0.237 OA
ATOM     98  O   UNL A   1      48.361  24.241  36.079  1.00  0.00    -0.744 OA
ENDBRANCH  92  95
ENDBRANCH  65  88
ENDBRANCH  39  40
ENDBRANCH  32  34
ENDBRANCH  31  32
ENDBRANCH  30  31
ENDBRANCH   1  30
TORSDOF 19
ENDMDL
MODEL 3
REMARK VINA RESULT:     -12.4      1.522      2.017
REMARK SMILES Cc1cccc(O[C@H](C)C(=O)NNC(=O)[C@H]2[C@@H]3CC[C@@H](C3)[C@@H]2C(=O)OCCOC(=O)c2ccc(-c3c4nc(c(-c5cccc(S(=O)(=O)[O-])c5F)c5ccc([nH]5)c(-c5cccc(S(=O)(=O)[O-])c5F)c5nc(c(-c6cccc(S(=O)(=O)[O-])c6F)c6ccc3[nH]6)C=C5)C=C4)cc2)c1
REMARK SMILES IDX 26 1 25 2 23 3 24 4 22 5 16 6 17 7 18 8 21 9 20 10 19 11
REMARK SMILES IDX 14 12 13 13 15 15 12 16 10 17 11 18 8 20 9 21 7 22 6 23 1 24
REMARK SMILES IDX 2 25 3 26 94 27 4 28 5 29 27 30 28 31 29 32 30 33 31 34
REMARK SMILES IDX 32 35 93 36 33 37 92 38 34 39 35 40 36 41 86 42 37 43 91 44
REMARK SMILES IDX 85 45 87 46 38 47 90 48 84 49 83 50 39 52 71 53 51 54 70 55
REMARK SMILES IDX 52 56 55 57 69 58 88 59 53 60 54 61 68 63 89 64 56 65 40 66
REMARK SMILES IDX 41 67 49 68 42 69 44 70 50 71 43 72 45 73 46 74 47 75 48 76
REMARK SMILES IDX 72 77 73 78 81 79 74 80 76 81 82 82 75 83 77 84 78 85 79 86
REMARK SMILES IDX 80 87 57 88 58 89 66 90 59 91 61 92 67 93 60 94 62 95 63 96
REMARK SMILES IDX 64 97 65 98
REMARK H PARENT 13 14 12 19 87 51 55 62
REMARK Flexibility Score: inf
ROOT
ATOM      1  C   UNL A   1      33.674  28.932  26.331  1.00  0.00     0.274 C 
ENDROOT
BRANCH   1   2
ATOM      2  O   UNL A   1      33.093  27.629  26.151  1.00  0.00    -0.462 OA
BRANCH   2   3
ATOM      3  C   UNL A   1      31.740  27.599  26.409  1.00  0.00     0.310 C 
ATOM      4  O   UNL A   1      31.275  27.526  27.538  1.00  0.00    -0.252 OA
BRANCH   3   5
ATOM      5  C   UNL A   1      30.907  27.325  25.183  1.00  0.00     0.115 C 
ATOM      6  C   UNL A   1      31.136  26.073  24.337  1.00  0.00     0.098 C 
ATOM      7  C   UNL A   1      30.466  26.472  22.984  1.00  0.00     0.003 C 
ATOM      8  C   UNL A   1      31.545  27.161  22.149  1.00  0.00     0.005 C 
ATOM      9  C   UNL A   1      29.615  27.719  23.294  1.00  0.00     0.009 C 
ATOM     10  C   UNL A   1      30.737  28.406  24.084  1.00  0.00     0.004 C 
ATOM     11  C   UNL A   1      31.848  28.413  23.002  1.00  0.00     0.005 C 
BRANCH   6  12
ATOM     12  C   UNL A   1      30.694  24.737  24.892  1.00  0.00     0.242 C 
ATOM     13  N   UNL A   1      30.662  23.644  24.074  1.00  0.00    -0.267 N 
ATOM     14  H   UNL A   1      29.825  23.133  23.982  1.00  0.00     0.191 HD
ATOM     15  O   UNL A   1      30.329  24.599  26.060  1.00  0.00    -0.273 OA
BRANCH  13  16
ATOM     16  N   UNL A   1      31.805  23.235  23.359  1.00  0.00    -0.264 N 
ATOM     17  C   UNL A   1      32.126  21.901  23.380  1.00  0.00     0.279 C 
ATOM     18  O   UNL A   1      31.933  21.200  22.384  1.00  0.00    -0.269 OA
ATOM     19  H   UNL A   1      32.354  23.883  22.862  1.00  0.00     0.191 HD
BRANCH  17  20
ATOM     20  C   UNL A   1      33.021  21.422  24.543  1.00  0.00     0.260 C 
ATOM     21  C   UNL A   1      32.149  21.236  25.791  1.00  0.00     0.064 C 
BRANCH  20  22
ATOM     22  O   UNL A   1      34.068  20.473  24.442  1.00  0.00    -0.481 OA
BRANCH  22  23
ATOM     23  C   UNL A   1      35.362  20.748  24.756  1.00  0.00     0.120 A 
ATOM     24  C   UNL A   1      37.182  23.992  25.627  1.00  0.00     0.044 C 
ATOM     25  C   UNL A   1      36.908  22.547  25.339  1.00  0.00    -0.047 A 
ATOM     26  C   UNL A   1      37.957  21.625  25.357  1.00  0.00     0.003 A 
ATOM     27  C   UNL A   1      35.614  22.095  25.046  1.00  0.00     0.049 A 
ATOM     28  C   UNL A   1      37.712  20.281  25.092  1.00  0.00     0.004 A 
ATOM     29  C   UNL A   1      36.416  19.840  24.810  1.00  0.00     0.046 A 
ENDBRANCH  22  23
ENDBRANCH  20  22
ENDBRANCH  17  20
ENDBRANCH  13  16
ENDBRANCH   6  12
ENDBRANCH   3   5
ENDBRANCH   2   3
ENDBRANCH   1   2
BRANCH   1  30
ATOM     30  C   UNL A   1      34.740  29.058  27.437  1.00  0.00     0.275 C 
BRANCH  30  31
ATOM     31  O   UNL A   1      35.422  30.325  27.602  1.00  0.00    -0.458 OA
BRANCH  31  32
ATOM     32  C   UNL A   1      36.414  30.555  28.504  1.00  0.00     0.338 C 
ATOM     33  O   UNL A   1      36.379  31.444  29.343  1.00  0.00    -0.246 OA
BRANCH  32  34
ATOM     34  C   UNL A   1      37.542  29.631  28.414  1.00  0.00     0.060 A 
ATOM     35  C   UNL A   1      38.360  29.685  27.284  1.00  0.00     0.016 A 
ATOM     36  C   UNL A   1      37.870  28.873  29.535  1.00  0.00     0.016 A 
ATOM     37  C   UNL A   1      39.596  29.056  27.318  1.00  0.00     0.010 A 
ATOM     38  C   UNL A   1      39.130  28.324  29.599  1.00  0.00     0.010 A 
ATOM     39  C   UNL A   1      39.995  28.418  28.494  1.00  0.00    -0.014 A 
BRANCH  39  40
ATOM     40  C   UNL A   1      41.131  27.509  28.516  1.00  0.00     0.031 A 
ATOM     41  C   UNL A   1      41.024  26.055  28.298  1.00  0.00     0.074 A 
ATOM     42  C   UNL A   1      42.281  28.143  28.835  1.00  0.00     0.049 A 
ATOM     43  N   UNL A   1      41.749  25.194  28.928  1.00  0.00    -0.248 NA
ATOM     44  C   UNL A   1      40.057  25.432  27.399  1.00  0.00     0.031 C 
ATOM     45  C   UNL A   1      43.653  27.695  28.772  1.00  0.00     0.029 A 
ATOM     46  N   UNL A   1      42.352  29.383  29.491  1.00  0.00    -0.354 N 
ATOM     47  C   UNL A   1      41.554  23.971  28.311  1.00  0.00     0.074 A 
ATOM     48  C   UNL A   1      40.379  24.135  27.497  1.00  0.00     0.031 C 
ATOM     49  C   UNL A   1      44.393  28.495  29.566  1.00  0.00     0.029 A 
ATOM     50  C   UNL A   1      43.478  29.362  30.306  1.00  0.00     0.049 A 
ATOM     51  H   UNL A   1      41.718  30.130  29.392  1.00  0.00     0.167 HD
ATOM     52  C   UNL A   1      42.545  23.036  28.358  1.00  0.00     0.034 A 
ATOM     53  C   UNL A   1      43.387  29.513  31.663  1.00  0.00     0.034 A 
ATOM     54  C   UNL A   1      43.684  23.562  29.119  1.00  0.00     0.049 A 
ATOM     55  C   UNL A   1      43.905  28.266  32.372  1.00  0.00     0.074 A 
ATOM     56  C   UNL A   1      44.819  24.251  28.720  1.00  0.00     0.029 A 
ATOM     57  N   UNL A   1      43.574  23.754  30.487  1.00  0.00    -0.354 N 
ATOM     58  N   UNL A   1      44.157  27.132  31.779  1.00  0.00    -0.248 NA
ATOM     59  C   UNL A   1      44.028  28.174  33.824  1.00  0.00     0.031 C 
ATOM     60  C   UNL A   1      45.384  24.876  29.861  1.00  0.00     0.029 A 
ATOM     61  C   UNL A   1      44.609  24.552  30.958  1.00  0.00     0.049 A 
ATOM     62  H   UNL A   1      42.859  23.377  31.048  1.00  0.00     0.167 HD
ATOM     63  C   UNL A   1      44.390  26.159  32.716  1.00  0.00     0.074 A 
ATOM     64  C   UNL A   1      44.220  26.855  33.980  1.00  0.00     0.031 C 
ATOM     65  C   UNL A   1      44.675  24.863  32.378  1.00  0.00     0.034 A 
BRANCH  52  66
ATOM     66  C   UNL A   1      42.676  21.869  27.385  1.00  0.00     0.023 A 
ATOM     67  C   UNL A   1      41.810  20.770  27.598  1.00  0.00     0.012 A 
ATOM     68  C   UNL A   1      43.604  21.730  26.324  1.00  0.00     0.148 A 
ATOM     69  C   UNL A   1      41.918  19.565  26.901  1.00  0.00     0.002 A 
ATOM     70  C   UNL A   1      43.735  20.508  25.642  1.00  0.00     0.091 A 
ATOM     71  F   UNL A   1      44.331  22.789  25.944  1.00  0.00    -0.205 F 
ATOM     72  C   UNL A   1      42.902  19.423  25.941  1.00  0.00     0.022 A 
BRANCH  70  73
ATOM     73  S   UNL A   1      44.998  20.186  24.394  1.00  0.00     0.127 S 
ATOM     74  O   UNL A   1      46.236  20.393  25.151  1.00  0.00    -0.237 OA
ATOM     75  O   UNL A   1      44.740  18.793  24.034  1.00  0.00    -0.237 OA
ATOM     76  O   UNL A   1      44.777  21.158  23.332  1.00  0.00    -0.744 OA
ENDBRANCH  70  73
ENDBRANCH  52  66
BRANCH  53  77
ATOM     77  C   UNL A   1      42.188  30.299  32.155  1.00  0.00     0.023 A 
ATOM     78  C   UNL A   1      41.022  29.611  32.584  1.00  0.00     0.012 A 
ATOM     79  C   UNL A   1      42.305  31.644  32.520  1.00  0.00     0.148 A 
ATOM     80  C   UNL A   1      40.113  30.200  33.477  1.00  0.00     0.002 A 
ATOM     81  C   UNL A   1      41.420  32.212  33.429  1.00  0.00     0.091 A 
ATOM     82  F   UNL A   1      43.312  32.384  32.043  1.00  0.00    -0.205 F 
ATOM     83  C   UNL A   1      40.334  31.494  33.933  1.00  0.00     0.022 A 
BRANCH  81  84
ATOM     84  S   UNL A   1      41.895  33.771  34.164  1.00  0.00     0.127 S 
ATOM     85  O   UNL A   1      40.839  34.002  35.149  1.00  0.00    -0.237 OA
ATOM     86  O   UNL A   1      43.192  33.463  34.753  1.00  0.00    -0.237 OA
ATOM     87  O   UNL A   1      41.891  34.676  33.022  1.00  0.00    -0.744 OA
ENDBRANCH  81  84
ENDBRANCH  53  77
BRANCH  65  88
ATOM     88  C   UNL A   1      45.073  23.763  33.354  1.00  0.00     0.023 A 
ATOM     89  C   UNL A   1      44.143  22.832  33.849  1.00  0.00     0.012 A 
ATOM     90  C   UNL A   1      46.383  23.684  33.904  1.00  0.00     0.148 A 
ATOM     91  C   UNL A   1      44.504  21.799  34.717  1.00  0.00     0.002 A 
ATOM     92  C   UNL A   1      46.736  22.681  34.800  1.00  0.00     0.091 A 
ATOM     93  F   UNL A   1      47.293  24.617  33.612  1.00  0.00    -0.205 F 
ATOM     94  C   UNL A   1      45.806  21.714  35.182  1.00  0.00     0.022 A 
BRANCH  92  95
ATOM     95  S   UNL A   1      48.362  22.595  35.561  1.00  0.00     0.127 S 
ATOM     96  O   UNL A   1      49.236  22.682  34.391  1.00  0.00    -0.237 OA
ATOM     97  O   UNL A   1      48.359  23.786  36.409  1.00  0.00    -0.237 OA
ATOM     98  O   UNL A   1      48.416  21.333  36.282  1.00  0.00    -0.744 OA
ENDBRANCH  92  95
ENDBRANCH  65  88
ENDBRANCH  39  40
ENDBRANCH  32  34
ENDBRANCH  31  32
ENDBRANCH  30  31
ENDBRANCH   1  30
TORSDOF 19
ENDMDL
