MODEL 1
REMARK VINA RESULT:     -10.2      0.000      0.000
REMARK SMILES O=C(OCCOC(=O)[C@@H]1CC(=O)N(CCO)C1)c1ccc(-c2c3nc(c(-c4cccc(S(=O)(=O)[O-])c4F)c4ccc([nH]4)c(-c4cccc(S(=O)(=O)[O-])c4F)c4nc(c(-c5cccc(S(=O)(=O)[O-])c5F)c5ccc2[nH]5)C=C4)C=C3)cc1
REMARK SMILES IDX 4 1 3 2 2 3 1 4 18 5 19 6 80 7 20 8 79 9 21 10 22 11 23 12
REMARK SMILES IDX 73 13 24 14 78 15 72 16 74 17 25 18 77 19 71 20 70 21 26 23
REMARK SMILES IDX 58 24 38 25 57 26 39 27 42 28 56 29 75 30 40 31 41 32 55 34
REMARK SMILES IDX 76 35 43 36 27 37 28 38 36 39 29 40 31 41 37 42 30 43 32 44
REMARK SMILES IDX 33 45 34 46 35 47 59 48 60 49 68 50 61 51 63 52 69 53 62 54
REMARK SMILES IDX 64 55 65 56 66 57 67 58 44 59 45 60 53 61 46 62 48 63 54 64
REMARK SMILES IDX 47 65 49 66 50 67 51 68 52 69 5 70 6 71 7 72 8 73 9 74 10 75
REMARK SMILES IDX 17 76 11 77 13 78 12 79 14 80 15 81 16 82
REMARK H PARENT 74 22 42 33 16 83
REMARK Flexibility Score: inf
ROOT
ATOM      1  C   UNL A   1      40.500  20.017  26.130  1.00  0.00     0.275 C 
ENDROOT
BRANCH   1   2
ATOM      2  O   UNL A   1      39.149  20.460  26.272  1.00  0.00    -0.458 OA
BRANCH   2   3
ATOM      3  C   UNL A   1      38.633  21.698  26.123  1.00  0.00     0.338 C 
ATOM      4  O   UNL A   1      37.566  21.797  25.515  1.00  0.00    -0.246 OA
BRANCH   3   5
ATOM      5  C   UNL A   1      39.285  22.966  26.600  1.00  0.00     0.060 A 
ATOM      6  C   UNL A   1      40.183  23.138  27.665  1.00  0.00     0.016 A 
ATOM      7  C   UNL A   1      38.902  24.114  25.903  1.00  0.00     0.016 A 
ATOM      8  C   UNL A   1      40.735  24.403  27.980  1.00  0.00     0.010 A 
ATOM      9  C   UNL A   1      39.438  25.359  26.220  1.00  0.00     0.010 A 
ATOM     10  C   UNL A   1      40.388  25.535  27.245  1.00  0.00    -0.014 A 
BRANCH  10  11
ATOM     11  C   UNL A   1      40.920  26.922  27.464  1.00  0.00     0.031 A 
ATOM     12  C   UNL A   1      42.392  27.151  27.240  1.00  0.00     0.074 A 
ATOM     13  C   UNL A   1      40.212  27.884  28.096  1.00  0.00     0.049 A 
ATOM     14  N   UNL A   1      43.174  28.082  27.717  1.00  0.00    -0.248 NA
ATOM     15  C   UNL A   1      43.082  26.143  26.419  1.00  0.00     0.031 C 
ATOM     16  C   UNL A   1      38.790  27.838  28.410  1.00  0.00     0.029 A 
ATOM     17  N   UNL A   1      40.639  29.048  28.710  1.00  0.00    -0.354 N 
ATOM     18  C   UNL A   1      44.452  27.735  27.304  1.00  0.00     0.074 A 
ATOM     19  C   UNL A   1      44.349  26.452  26.642  1.00  0.00     0.031 C 
ATOM     20  C   UNL A   1      38.494  28.817  29.285  1.00  0.00     0.029 A 
ATOM     21  C   UNL A   1      39.697  29.583  29.568  1.00  0.00     0.049 A 
ATOM     22  H   UNL A   1      41.522  29.452  28.552  1.00  0.00     0.167 HD
ATOM     23  C   UNL A   1      45.598  28.453  27.380  1.00  0.00     0.034 A 
ATOM     24  C   UNL A   1      39.788  30.563  30.493  1.00  0.00     0.034 A 
ATOM     25  C   UNL A   1      45.666  29.785  27.906  1.00  0.00     0.049 A 
ATOM     26  C   UNL A   1      41.043  31.392  30.538  1.00  0.00     0.074 A 
ATOM     27  C   UNL A   1      46.707  30.692  27.835  1.00  0.00     0.029 A 
ATOM     28  N   UNL A   1      44.633  30.408  28.586  1.00  0.00    -0.354 N 
ATOM     29  N   UNL A   1      42.190  31.174  29.946  1.00  0.00    -0.248 NA
ATOM     30  C   UNL A   1      40.977  32.668  31.267  1.00  0.00     0.031 C 
ATOM     31  C   UNL A   1      46.295  31.874  28.461  1.00  0.00     0.029 A 
ATOM     32  C   UNL A   1      44.999  31.697  28.922  1.00  0.00     0.049 A 
ATOM     33  H   UNL A   1      43.765  29.994  28.799  1.00  0.00     0.167 HD
ATOM     34  C   UNL A   1      42.935  32.335  30.126  1.00  0.00     0.074 A 
ATOM     35  C   UNL A   1      42.133  33.230  30.932  1.00  0.00     0.031 C 
ATOM     36  C   UNL A   1      44.160  32.630  29.630  1.00  0.00     0.034 A 
BRANCH  23  37
ATOM     37  C   UNL A   1      46.819  27.843  26.747  1.00  0.00     0.023 A 
ATOM     38  C   UNL A   1      47.789  27.236  27.576  1.00  0.00     0.012 A 
ATOM     39  C   UNL A   1      47.035  27.897  25.359  1.00  0.00     0.148 A 
ATOM     40  C   UNL A   1      48.996  26.785  27.049  1.00  0.00     0.002 A 
ATOM     41  C   UNL A   1      48.218  27.388  24.833  1.00  0.00     0.091 A 
ATOM     42  F   UNL A   1      46.111  28.483  24.584  1.00  0.00    -0.205 F 
ATOM     43  C   UNL A   1      49.208  26.858  25.677  1.00  0.00     0.022 A 
BRANCH  41  44
ATOM     44  S   UNL A   1      48.537  27.346  23.066  1.00  0.00     0.127 S 
ATOM     45  O   UNL A   1      49.870  27.938  22.989  1.00  0.00    -0.237 OA
ATOM     46  O   UNL A   1      48.490  25.913  22.774  1.00  0.00    -0.237 OA
ATOM     47  O   UNL A   1      47.462  28.116  22.456  1.00  0.00    -0.744 OA
ENDBRANCH  41  44
ENDBRANCH  23  37
BRANCH  24  48
ATOM     48  C   UNL A   1      38.608  30.939  31.326  1.00  0.00     0.023 A 
ATOM     49  C   UNL A   1      38.589  30.544  32.679  1.00  0.00     0.012 A 
ATOM     50  C   UNL A   1      37.510  31.654  30.803  1.00  0.00     0.148 A 
ATOM     51  C   UNL A   1      37.489  30.822  33.489  1.00  0.00     0.002 A 
ATOM     52  C   UNL A   1      36.423  31.949  31.625  1.00  0.00     0.091 A 
ATOM     53  F   UNL A   1      37.540  32.012  29.511  1.00  0.00    -0.205 F 
ATOM     54  C   UNL A   1      36.407  31.524  32.964  1.00  0.00     0.022 A 
BRANCH  52  55
ATOM     55  S   UNL A   1      34.985  32.881  31.074  1.00  0.00     0.127 S 
ATOM     56  O   UNL A   1      34.066  32.705  32.197  1.00  0.00    -0.237 OA
ATOM     57  O   UNL A   1      35.533  34.231  30.941  1.00  0.00    -0.237 OA
ATOM     58  O   UNL A   1      34.562  32.267  29.824  1.00  0.00    -0.744 OA
ENDBRANCH  52  55
ENDBRANCH  24  48
BRANCH  36  59
ATOM     59  C   UNL A   1      44.697  34.021  29.816  1.00  0.00     0.023 A 
ATOM     60  C   UNL A   1      45.758  34.257  30.708  1.00  0.00     0.012 A 
ATOM     61  C   UNL A   1      44.243  35.062  28.980  1.00  0.00     0.148 A 
ATOM     62  C   UNL A   1      46.362  35.513  30.765  1.00  0.00     0.002 A 
ATOM     63  C   UNL A   1      44.879  36.296  29.009  1.00  0.00     0.091 A 
ATOM     64  F   UNL A   1      43.214  34.816  28.156  1.00  0.00    -0.205 F 
ATOM     65  C   UNL A   1      45.935  36.525  29.905  1.00  0.00     0.022 A 
BRANCH  63  66
ATOM     66  S   UNL A   1      44.473  37.620  27.864  1.00  0.00     0.127 S 
ATOM     67  O   UNL A   1      43.135  38.002  28.313  1.00  0.00    -0.237 OA
ATOM     68  O   UNL A   1      45.516  38.605  28.151  1.00  0.00    -0.237 OA
ATOM     69  O   UNL A   1      44.537  37.039  26.531  1.00  0.00    -0.744 OA
ENDBRANCH  63  66
ENDBRANCH  36  59
ENDBRANCH  10  11
ENDBRANCH   3   5
ENDBRANCH   2   3
ENDBRANCH   1   2
BRANCH   1  70
ATOM     70  C   UNL A   1      41.206  19.652  27.432  1.00  0.00     0.274 C 
BRANCH  70  71
ATOM     71  O   UNL A   1      42.626  19.469  27.334  1.00  0.00    -0.462 OA
BRANCH  71  72
ATOM     72  C   UNL A   1      43.035  18.671  26.307  1.00  0.00     0.311 C 
ATOM     73  O   UNL A   1      43.056  17.446  26.352  1.00  0.00    -0.252 OA
BRANCH  72  74
ATOM     74  C   UNL A   1      43.591  19.453  25.136  1.00  0.00     0.128 C 
ATOM     75  C   UNL A   1      44.880  18.841  24.612  1.00  0.00     0.117 C 
ATOM     76  C   UNL A   1      43.902  20.910  25.435  1.00  0.00     0.135 C 
ATOM     77  C   UNL A   1      45.933  19.798  25.064  1.00  0.00     0.223 C 
ATOM     78  N   UNL A   1      45.336  21.022  25.302  1.00  0.00    -0.339 N 
ATOM     79  O   UNL A   1      47.110  19.512  25.137  1.00  0.00    -0.275 OA
BRANCH  78  80
ATOM     80  C   UNL A   1      46.122  22.232  25.542  1.00  0.00     0.147 C 
BRANCH  80  81
ATOM     81  C   UNL A   1      46.380  23.162  24.354  1.00  0.00     0.177 C 
BRANCH  81  82
ATOM     82  O   UNL A   1      45.477  22.926  23.273  1.00  0.00    -0.395 OA
ATOM     83  H   UNL A   1      44.574  22.847  23.618  1.00  0.00     0.210 HD
ENDBRANCH  81  82
ENDBRANCH  80  81
ENDBRANCH  78  80
ENDBRANCH  72  74
ENDBRANCH  71  72
ENDBRANCH  70  71
ENDBRANCH   1  70
TORSDOF 17
ENDMDL
MODEL 2
REMARK VINA RESULT:     -10.1      2.749      9.440
REMARK SMILES O=C(OCCOC(=O)[C@@H]1CC(=O)N(CCO)C1)c1ccc(-c2c3nc(c(-c4cccc(S(=O)(=O)[O-])c4F)c4ccc([nH]4)c(-c4cccc(S(=O)(=O)[O-])c4F)c4nc(c(-c5cccc(S(=O)(=O)[O-])c5F)c5ccc2[nH]5)C=C4)C=C3)cc1
REMARK SMILES IDX 4 1 3 2 2 3 1 4 18 5 19 6 80 7 20 8 79 9 21 10 22 11 23 12
REMARK SMILES IDX 73 13 24 14 78 15 72 16 74 17 25 18 77 19 71 20 70 21 26 23
REMARK SMILES IDX 58 24 38 25 57 26 39 27 42 28 56 29 75 30 40 31 41 32 55 34
REMARK SMILES IDX 76 35 43 36 27 37 28 38 36 39 29 40 31 41 37 42 30 43 32 44
REMARK SMILES IDX 33 45 34 46 35 47 59 48 60 49 68 50 61 51 63 52 69 53 62 54
REMARK SMILES IDX 64 55 65 56 66 57 67 58 44 59 45 60 53 61 46 62 48 63 54 64
REMARK SMILES IDX 47 65 49 66 50 67 51 68 52 69 5 70 6 71 7 72 8 73 9 74 10 75
REMARK SMILES IDX 17 76 11 77 13 78 12 79 14 80 15 81 16 82
REMARK H PARENT 74 22 42 33 16 83
REMARK Flexibility Score: inf
ROOT
ATOM      1  C   UNL A   1      36.221  21.475  24.533  1.00  0.00     0.275 C 
ENDROOT
BRANCH   1   2
ATOM      2  O   UNL A   1      37.037  21.462  25.706  1.00  0.00    -0.458 OA
BRANCH   2   3
ATOM      3  C   UNL A   1      38.371  21.296  25.821  1.00  0.00     0.338 C 
ATOM      4  O   UNL A   1      38.852  20.254  25.372  1.00  0.00    -0.246 OA
BRANCH   3   5
ATOM      5  C   UNL A   1      39.304  22.263  26.496  1.00  0.00     0.060 A 
ATOM      6  C   UNL A   1      40.359  21.984  27.379  1.00  0.00     0.016 A 
ATOM      7  C   UNL A   1      39.043  23.608  26.227  1.00  0.00     0.016 A 
ATOM      8  C   UNL A   1      41.170  23.009  27.921  1.00  0.00     0.010 A 
ATOM      9  C   UNL A   1      39.836  24.616  26.767  1.00  0.00     0.010 A 
ATOM     10  C   UNL A   1      40.936  24.346  27.604  1.00  0.00    -0.014 A 
BRANCH  10  11
ATOM     11  C   UNL A   1      41.738  25.518  28.092  1.00  0.00     0.031 A 
ATOM     12  C   UNL A   1      40.991  26.668  28.714  1.00  0.00     0.074 A 
ATOM     13  C   UNL A   1      43.037  25.700  27.766  1.00  0.00     0.049 A 
ATOM     14  N   UNL A   1      41.343  27.919  28.844  1.00  0.00    -0.248 NA
ATOM     15  C   UNL A   1      39.628  26.371  29.185  1.00  0.00     0.031 C 
ATOM     16  C   UNL A   1      43.915  24.714  27.152  1.00  0.00     0.029 A 
ATOM     17  N   UNL A   1      43.810  26.847  27.790  1.00  0.00    -0.354 N 
ATOM     18  C   UNL A   1      40.226  28.564  29.354  1.00  0.00     0.074 A 
ATOM     19  C   UNL A   1      39.157  27.589  29.396  1.00  0.00     0.031 C 
ATOM     20  C   UNL A   1      45.030  25.323  26.708  1.00  0.00     0.029 A 
ATOM     21  C   UNL A   1      44.964  26.738  27.037  1.00  0.00     0.049 A 
ATOM     22  H   UNL A   1      43.564  27.657  28.293  1.00  0.00     0.167 HD
ATOM     23  C   UNL A   1      40.114  29.825  29.835  1.00  0.00     0.034 A 
ATOM     24  C   UNL A   1      45.858  27.666  26.637  1.00  0.00     0.034 A 
ATOM     25  C   UNL A   1      41.213  30.741  29.926  1.00  0.00     0.049 A 
ATOM     26  C   UNL A   1      45.762  29.052  27.215  1.00  0.00     0.074 A 
ATOM     27  C   UNL A   1      41.281  31.951  30.591  1.00  0.00     0.029 A 
ATOM     28  N   UNL A   1      42.453  30.529  29.347  1.00  0.00    -0.354 N 
ATOM     29  N   UNL A   1      44.786  29.584  27.907  1.00  0.00    -0.248 NA
ATOM     30  C   UNL A   1      46.940  29.922  27.073  1.00  0.00     0.031 C 
ATOM     31  C   UNL A   1      42.572  32.465  30.424  1.00  0.00     0.029 A 
ATOM     32  C   UNL A   1      43.303  31.574  29.654  1.00  0.00     0.049 A 
ATOM     33  H   UNL A   1      42.694  29.749  28.795  1.00  0.00     0.167 HD
ATOM     34  C   UNL A   1      45.277  30.793  28.386  1.00  0.00     0.074 A 
ATOM     35  C   UNL A   1      46.615  30.943  27.857  1.00  0.00     0.031 C 
ATOM     36  C   UNL A   1      44.673  31.673  29.219  1.00  0.00     0.034 A 
BRANCH  23  37
ATOM     37  C   UNL A   1      38.781  30.207  30.421  1.00  0.00     0.023 A 
ATOM     38  C   UNL A   1      38.462  29.782  31.730  1.00  0.00     0.012 A 
ATOM     39  C   UNL A   1      37.834  30.940  29.684  1.00  0.00     0.148 A 
ATOM     40  C   UNL A   1      37.191  29.991  32.258  1.00  0.00     0.002 A 
ATOM     41  C   UNL A   1      36.587  31.197  30.244  1.00  0.00     0.091 A 
ATOM     42  F   UNL A   1      38.145  31.330  28.440  1.00  0.00    -0.205 F 
ATOM     43  C   UNL A   1      36.256  30.702  31.516  1.00  0.00     0.022 A 
BRANCH  41  44
ATOM     44  S   UNL A   1      35.351  32.193  29.403  1.00  0.00     0.127 S 
ATOM     45  O   UNL A   1      34.839  31.255  28.407  1.00  0.00    -0.237 OA
ATOM     46  O   UNL A   1      34.414  32.505  30.483  1.00  0.00    -0.237 OA
ATOM     47  O   UNL A   1      36.069  33.348  28.880  1.00  0.00    -0.744 OA
ENDBRANCH  41  44
ENDBRANCH  23  37
BRANCH  24  48
ATOM     48  C   UNL A   1      47.026  27.285  25.788  1.00  0.00     0.023 A 
ATOM     49  C   UNL A   1      48.081  26.565  26.382  1.00  0.00     0.012 A 
ATOM     50  C   UNL A   1      47.115  27.637  24.424  1.00  0.00     0.148 A 
ATOM     51  C   UNL A   1      49.220  26.230  25.650  1.00  0.00     0.002 A 
ATOM     52  C   UNL A   1      48.246  27.277  23.691  1.00  0.00     0.091 A 
ATOM     53  F   UNL A   1      46.107  28.331  23.877  1.00  0.00    -0.205 F 
ATOM     54  C   UNL A   1      49.302  26.584  24.306  1.00  0.00     0.022 A 
BRANCH  52  55
ATOM     55  S   UNL A   1      48.454  27.645  21.942  1.00  0.00     0.127 S 
ATOM     56  O   UNL A   1      47.184  28.295  21.619  1.00  0.00    -0.237 OA
ATOM     57  O   UNL A   1      49.610  28.540  21.956  1.00  0.00    -0.237 OA
ATOM     58  O   UNL A   1      48.679  26.365  21.285  1.00  0.00    -0.744 OA
ENDBRANCH  52  55
ENDBRANCH  24  48
BRANCH  36  59
ATOM     59  C   UNL A   1      45.468  32.837  29.740  1.00  0.00     0.023 A 
ATOM     60  C   UNL A   1      46.267  32.692  30.888  1.00  0.00     0.012 A 
ATOM     61  C   UNL A   1      45.537  34.028  28.987  1.00  0.00     0.148 A 
ATOM     62  C   UNL A   1      47.126  33.718  31.280  1.00  0.00     0.002 A 
ATOM     63  C   UNL A   1      46.428  35.026  29.357  1.00  0.00     0.091 A 
ATOM     64  F   UNL A   1      44.747  34.148  27.910  1.00  0.00    -0.205 F 
ATOM     65  C   UNL A   1      47.220  34.875  30.507  1.00  0.00     0.022 A 
BRANCH  63  66
ATOM     66  S   UNL A   1      46.697  36.499  28.364  1.00  0.00     0.127 S 
ATOM     67  O   UNL A   1      47.695  37.215  29.156  1.00  0.00    -0.237 OA
ATOM     68  O   UNL A   1      47.202  35.936  27.110  1.00  0.00    -0.237 OA
ATOM     69  O   UNL A   1      45.403  37.156  28.254  1.00  0.00    -0.744 OA
ENDBRANCH  63  66
ENDBRANCH  36  59
ENDBRANCH  10  11
ENDBRANCH   3   5
ENDBRANCH   2   3
ENDBRANCH   1   2
BRANCH   1  70
ATOM     70  C   UNL A   1      36.609  22.507  23.481  1.00  0.00     0.274 C 
BRANCH  70  71
ATOM     71  O   UNL A   1      36.112  23.834  23.705  1.00  0.00    -0.462 OA
BRANCH  71  72
ATOM     72  C   UNL A   1      34.779  23.997  23.475  1.00  0.00     0.311 C 
ATOM     73  O   UNL A   1      34.223  23.728  22.416  1.00  0.00    -0.252 OA
BRANCH  72  74
ATOM     74  C   UNL A   1      34.059  24.672  24.623  1.00  0.00     0.128 C 
ATOM     75  C   UNL A   1      34.825  24.528  25.928  1.00  0.00     0.117 C 
ATOM     76  C   UNL A   1      32.658  24.148  24.892  1.00  0.00     0.135 C 
ATOM     77  C   UNL A   1      34.017  23.539  26.703  1.00  0.00     0.223 C 
ATOM     78  N   UNL A   1      32.730  23.539  26.200  1.00  0.00    -0.339 N 
ATOM     79  O   UNL A   1      34.454  22.911  27.645  1.00  0.00    -0.275 OA
BRANCH  78  80
ATOM     80  C   UNL A   1      31.634  22.849  26.879  1.00  0.00     0.147 C 
BRANCH  80  81
ATOM     81  C   UNL A   1      30.221  23.028  26.318  1.00  0.00     0.177 C 
BRANCH  81  82
ATOM     82  O   UNL A   1      29.659  24.295  26.661  1.00  0.00    -0.395 OA
ATOM     83  H   UNL A   1      30.328  24.835  27.112  1.00  0.00     0.210 HD
ENDBRANCH  81  82
ENDBRANCH  80  81
ENDBRANCH  78  80
ENDBRANCH  72  74
ENDBRANCH  71  72
ENDBRANCH  70  71
ENDBRANCH   1  70
TORSDOF 17
ENDMDL
MODEL 3
REMARK VINA RESULT:     -10.1      1.726      2.020
REMARK SMILES O=C(OCCOC(=O)[C@@H]1CC(=O)N(CCO)C1)c1ccc(-c2c3nc(c(-c4cccc(S(=O)(=O)[O-])c4F)c4ccc([nH]4)c(-c4cccc(S(=O)(=O)[O-])c4F)c4nc(c(-c5cccc(S(=O)(=O)[O-])c5F)c5ccc2[nH]5)C=C4)C=C3)cc1
REMARK SMILES IDX 4 1 3 2 2 3 1 4 18 5 19 6 80 7 20 8 79 9 21 10 22 11 23 12
REMARK SMILES IDX 73 13 24 14 78 15 72 16 74 17 25 18 77 19 71 20 70 21 26 23
REMARK SMILES IDX 58 24 38 25 57 26 39 27 42 28 56 29 75 30 40 31 41 32 55 34
REMARK SMILES IDX 76 35 43 36 27 37 28 38 36 39 29 40 31 41 37 42 30 43 32 44
REMARK SMILES IDX 33 45 34 46 35 47 59 48 60 49 68 50 61 51 63 52 69 53 62 54
REMARK SMILES IDX 64 55 65 56 66 57 67 58 44 59 45 60 53 61 46 62 48 63 54 64
REMARK SMILES IDX 47 65 49 66 50 67 51 68 52 69 5 70 6 71 7 72 8 73 9 74 10 75
REMARK SMILES IDX 17 76 11 77 13 78 12 79 14 80 15 81 16 82
REMARK H PARENT 74 22 42 33 16 83
REMARK Flexibility Score: inf
ROOT
ATOM      1  C   UNL A   1      40.403  19.728  26.144  1.00  0.00     0.275 C 
ENDROOT
BRANCH   1   2
ATOM      2  O   UNL A   1      39.119  20.290  26.422  1.00  0.00    -0.458 OA
BRANCH   2   3
ATOM      3  C   UNL A   1      38.638  21.516  26.126  1.00  0.00     0.338 C 
ATOM      4  O   UNL A   1      37.619  21.572  25.436  1.00  0.00    -0.246 OA
BRANCH   3   5
ATOM      5  C   UNL A   1      39.278  22.814  26.534  1.00  0.00     0.060 A 
ATOM      6  C   UNL A   1      40.227  23.039  27.543  1.00  0.00     0.016 A 
ATOM      7  C   UNL A   1      38.825  23.932  25.830  1.00  0.00     0.016 A 
ATOM      8  C   UNL A   1      40.758  24.326  27.796  1.00  0.00     0.010 A 
ATOM      9  C   UNL A   1      39.342  25.199  26.086  1.00  0.00     0.010 A 
ATOM     10  C   UNL A   1      40.340  25.428  27.052  1.00  0.00    -0.014 A 
BRANCH  10  11
ATOM     11  C   UNL A   1      40.843  26.834  27.206  1.00  0.00     0.031 A 
ATOM     12  C   UNL A   1      42.295  27.096  26.905  1.00  0.00     0.074 A 
ATOM     13  C   UNL A   1      40.139  27.796  27.844  1.00  0.00     0.049 A 
ATOM     14  N   UNL A   1      43.073  28.060  27.318  1.00  0.00    -0.248 NA
ATOM     15  C   UNL A   1      42.974  26.082  26.081  1.00  0.00     0.031 C 
ATOM     16  C   UNL A   1      38.736  27.722  28.226  1.00  0.00     0.029 A 
ATOM     17  N   UNL A   1      40.562  28.988  28.404  1.00  0.00    -0.354 N 
ATOM     18  C   UNL A   1      44.339  27.736  26.854  1.00  0.00     0.074 A 
ATOM     19  C   UNL A   1      44.241  26.431  26.235  1.00  0.00     0.031 C 
ATOM     20  C   UNL A   1      38.454  28.718  29.087  1.00  0.00     0.029 A 
ATOM     21  C   UNL A   1      39.647  29.523  29.291  1.00  0.00     0.049 A 
ATOM     22  H   UNL A   1      41.425  29.411  28.192  1.00  0.00     0.167 HD
ATOM     23  C   UNL A   1      45.467  28.485  26.855  1.00  0.00     0.034 A 
ATOM     24  C   UNL A   1      39.755  30.532  30.182  1.00  0.00     0.034 A 
ATOM     25  C   UNL A   1      45.523  29.833  27.340  1.00  0.00     0.049 A 
ATOM     26  C   UNL A   1      40.986  31.395  30.143  1.00  0.00     0.074 A 
ATOM     27  C   UNL A   1      46.534  30.765  27.193  1.00  0.00     0.029 A 
ATOM     28  N   UNL A   1      44.506  30.449  28.050  1.00  0.00    -0.354 N 
ATOM     29  N   UNL A   1      42.110  31.190  29.504  1.00  0.00    -0.248 NA
ATOM     30  C   UNL A   1      40.920  32.690  30.839  1.00  0.00     0.031 C 
ATOM     31  C   UNL A   1      46.119  31.954  27.804  1.00  0.00     0.029 A 
ATOM     32  C   UNL A   1      44.852  31.757  28.332  1.00  0.00     0.049 A 
ATOM     33  H   UNL A   1      43.662  30.019  28.316  1.00  0.00     0.167 HD
ATOM     34  C   UNL A   1      42.830  32.375  29.614  1.00  0.00     0.074 A 
ATOM     35  C   UNL A   1      42.043  33.271  30.432  1.00  0.00     0.031 C 
ATOM     36  C   UNL A   1      44.022  32.688  29.053  1.00  0.00     0.034 A 
BRANCH  23  37
ATOM     37  C   UNL A   1      46.673  27.889  26.181  1.00  0.00     0.023 A 
ATOM     38  C   UNL A   1      46.824  28.044  24.785  1.00  0.00     0.012 A 
ATOM     39  C   UNL A   1      47.629  27.150  26.900  1.00  0.00     0.148 A 
ATOM     40  C   UNL A   1      47.846  27.392  24.101  1.00  0.00     0.002 A 
ATOM     41  C   UNL A   1      48.683  26.552  26.216  1.00  0.00     0.091 A 
ATOM     42  F   UNL A   1      47.471  27.002  28.223  1.00  0.00    -0.205 F 
ATOM     43  C   UNL A   1      48.778  26.650  24.818  1.00  0.00     0.022 A 
BRANCH  41  44
ATOM     44  S   UNL A   1      49.989  25.660  27.067  1.00  0.00     0.127 S 
ATOM     45  O   UNL A   1      49.288  24.460  27.515  1.00  0.00    -0.237 OA
ATOM     46  O   UNL A   1      50.961  25.432  25.995  1.00  0.00    -0.237 OA
ATOM     47  O   UNL A   1      50.455  26.555  28.116  1.00  0.00    -0.744 OA
ENDBRANCH  41  44
ENDBRANCH  23  37
BRANCH  24  48
ATOM     48  C   UNL A   1      38.605  30.901  31.060  1.00  0.00     0.023 A 
ATOM     49  C   UNL A   1      38.622  30.473  32.402  1.00  0.00     0.012 A 
ATOM     50  C   UNL A   1      37.501  31.642  30.588  1.00  0.00     0.148 A 
ATOM     51  C   UNL A   1      37.550  30.744  33.253  1.00  0.00     0.002 A 
ATOM     52  C   UNL A   1      36.443  31.929  31.450  1.00  0.00     0.091 A 
ATOM     53  F   UNL A   1      37.496  32.032  29.305  1.00  0.00    -0.205 F 
ATOM     54  C   UNL A   1      36.462  31.471  32.778  1.00  0.00     0.022 A 
BRANCH  52  55
ATOM     55  S   UNL A   1      35.001  32.892  30.966  1.00  0.00     0.127 S 
ATOM     56  O   UNL A   1      34.114  32.700  32.113  1.00  0.00    -0.237 OA
ATOM     57  O   UNL A   1      35.562  34.238  30.849  1.00  0.00    -0.237 OA
ATOM     58  O   UNL A   1      34.532  32.314  29.715  1.00  0.00    -0.744 OA
ENDBRANCH  52  55
ENDBRANCH  24  48
BRANCH  36  59
ATOM     59  C   UNL A   1      44.528  34.097  29.174  1.00  0.00     0.023 A 
ATOM     60  C   UNL A   1      44.134  35.074  28.242  1.00  0.00     0.012 A 
ATOM     61  C   UNL A   1      45.272  34.476  30.311  1.00  0.00     0.148 A 
ATOM     62  C   UNL A   1      44.473  36.412  28.442  1.00  0.00     0.002 A 
ATOM     63  C   UNL A   1      45.566  35.816  30.526  1.00  0.00     0.091 A 
ATOM     64  F   UNL A   1      45.656  33.520  31.170  1.00  0.00    -0.205 F 
ATOM     65  C   UNL A   1      45.172  36.785  29.590  1.00  0.00     0.022 A 
BRANCH  63  66
ATOM     66  S   UNL A   1      46.364  36.401  32.026  1.00  0.00     0.127 S 
ATOM     67  O   UNL A   1      45.443  35.926  33.058  1.00  0.00    -0.237 OA
ATOM     68  O   UNL A   1      47.648  35.699  31.985  1.00  0.00    -0.237 OA
ATOM     69  O   UNL A   1      46.460  37.848  31.898  1.00  0.00    -0.744 OA
ENDBRANCH  63  66
ENDBRANCH  36  59
ENDBRANCH  10  11
ENDBRANCH   3   5
ENDBRANCH   2   3
ENDBRANCH   1   2
BRANCH   1  70
ATOM     70  C   UNL A   1      41.325  19.582  27.349  1.00  0.00     0.274 C 
BRANCH  70  71
ATOM     71  O   UNL A   1      42.715  19.397  27.044  1.00  0.00    -0.462 OA
BRANCH  71  72
ATOM     72  C   UNL A   1      42.967  18.715  25.891  1.00  0.00     0.311 C 
ATOM     73  O   UNL A   1      42.804  17.508  25.754  1.00  0.00    -0.252 OA
BRANCH  72  74
ATOM     74  C   UNL A   1      43.597  19.579  24.819  1.00  0.00     0.128 C 
ATOM     75  C   UNL A   1      44.911  18.994  24.327  1.00  0.00     0.117 C 
ATOM     76  C   UNL A   1      43.898  21.005  25.248  1.00  0.00     0.135 C 
ATOM     77  C   UNL A   1      45.941  19.903  24.913  1.00  0.00     0.223 C 
ATOM     78  N   UNL A   1      45.339  21.111  25.209  1.00  0.00    -0.339 N 
ATOM     79  O   UNL A   1      47.110  19.598  25.034  1.00  0.00    -0.275 OA
BRANCH  78  80
ATOM     80  C   UNL A   1      46.116  22.291  25.588  1.00  0.00     0.147 C 
BRANCH  80  81
ATOM     81  C   UNL A   1      46.025  23.525  24.687  1.00  0.00     0.177 C 
BRANCH  81  82
ATOM     82  O   UNL A   1      46.809  23.390  23.501  1.00  0.00    -0.395 OA
ATOM     83  H   UNL A   1      47.135  24.263  23.229  1.00  0.00     0.210 HD
ENDBRANCH  81  82
ENDBRANCH  80  81
ENDBRANCH  78  80
ENDBRANCH  72  74
ENDBRANCH  71  72
ENDBRANCH  70  71
ENDBRANCH   1  70
TORSDOF 17
ENDMDL
