MODEL 1
REMARK VINA RESULT:     -11.8      0.000      0.000
REMARK SMILES CC(C)(CC(=O)OCCOC(=O)c1ccc(-c2c3nc(c(-c4cccc(S(=O)(=O)[O-])c4F)c4ccc([nH]4)c(-c4cccc(S(=O)(=O)[O-])c4F)c4nc(c(-c5cccc(S(=O)(=O)[O-])c5F)c5ccc2[nH]5)C=C4)C=C3)cc1)NC(=O)[C@H]1CC[C@@H]2CCCC[C@@H]2[NH2+]1
REMARK SMILES IDX 8 1 7 2 5 3 6 4 4 5 2 6 1 7 3 8 76 9 77 10 78 12 79 13 80 14
REMARK SMILES IDX 88 15 81 16 87 17 82 20 86 21 83 22 85 23 84 24 9 25 10 26
REMARK SMILES IDX 11 27 12 28 13 29 14 30 75 31 15 32 74 33 16 34 17 35 18 36
REMARK SMILES IDX 68 37 19 38 73 39 67 40 69 41 20 42 72 43 66 44 65 45 21 47
REMARK SMILES IDX 53 48 33 49 52 50 34 51 37 52 51 53 70 54 35 55 36 56 50 58
REMARK SMILES IDX 71 59 38 60 22 61 23 62 31 63 24 64 26 65 32 66 25 67 27 68
REMARK SMILES IDX 28 69 29 70 30 71 54 72 55 73 63 74 56 75 58 76 64 77 57 78
REMARK SMILES IDX 59 79 60 80 61 81 62 82 39 83 40 84 48 85 41 86 43 87 49 88
REMARK SMILES IDX 42 89 44 90 45 91 46 92 47 93
REMARK H PARENT 76 11 88 18 88 19 69 46 37 57
REMARK Flexibility Score: inf
ROOT
ATOM      1  C   UNL A   1      34.864  20.578  25.453  1.00  0.00     0.274 C 
ENDROOT
BRANCH   1   2
ATOM      2  O   UNL A   1      34.021  20.124  24.371  1.00  0.00    -0.462 OA
BRANCH   2   3
ATOM      3  C   UNL A   1      32.820  20.727  24.240  1.00  0.00     0.308 C 
ATOM      4  O   UNL A   1      31.843  20.472  24.936  1.00  0.00    -0.252 OA
BRANCH   3   5
ATOM      5  C   UNL A   1      32.743  21.753  23.125  1.00  0.00     0.150 C 
BRANCH   5   6
ATOM      6  C   UNL A   1      33.113  23.242  23.380  1.00  0.00     0.045 C 
ATOM      7  C   UNL A   1      32.743  23.587  24.822  1.00  0.00     0.035 C 
ATOM      8  C   UNL A   1      34.660  23.328  23.291  1.00  0.00     0.035 C 
BRANCH   6   9
ATOM      9  N   UNL A   1      32.600  24.130  22.302  1.00  0.00    -0.345 N 
ATOM     10  C   UNL A   1      32.765  25.462  22.026  1.00  0.00     0.278 C 
ATOM     11  H   UNL A   1      32.022  23.666  21.654  1.00  0.00     0.164 HD
ATOM     12  O   UNL A   1      33.086  25.744  20.864  1.00  0.00    -0.268 OA
BRANCH  10  13
ATOM     13  C   UNL A   1      32.485  26.603  23.037  1.00  0.00     0.272 C 
ATOM     14  C   UNL A   1      31.112  26.425  23.684  1.00  0.00     0.076 C 
ATOM     15  N   UNL A   1      33.631  26.776  23.943  1.00  0.00    -0.333 N 
ATOM     16  C   UNL A   1      30.895  27.208  24.970  1.00  0.00     0.016 C 
ATOM     17  C   UNL A   1      33.378  27.628  25.106  1.00  0.00     0.186 C 
ATOM     18  H   UNL A   1      34.396  27.188  23.409  1.00  0.00     0.347 HD
ATOM     19  H   UNL A   1      33.846  25.849  24.310  1.00  0.00     0.347 HD
ATOM     20  C   UNL A   1      32.134  27.151  25.871  1.00  0.00     0.048 C 
ATOM     21  C   UNL A   1      33.289  29.128  24.772  1.00  0.00     0.065 C 
ATOM     22  C   UNL A   1      31.956  27.966  27.153  1.00  0.00     0.010 C 
ATOM     23  C   UNL A   1      32.985  29.983  26.009  1.00  0.00     0.006 C 
ATOM     24  C   UNL A   1      31.843  29.459  26.878  1.00  0.00     0.001 C 
ENDBRANCH  10  13
ENDBRANCH   6   9
ENDBRANCH   5   6
ENDBRANCH   3   5
ENDBRANCH   2   3
ENDBRANCH   1   2
BRANCH   1  25
ATOM     25  C   UNL A   1      36.339  20.470  25.069  1.00  0.00     0.275 C 
BRANCH  25  26
ATOM     26  O   UNL A   1      37.092  21.445  25.805  1.00  0.00    -0.458 OA
BRANCH  26  27
ATOM     27  C   UNL A   1      38.421  21.224  25.904  1.00  0.00     0.338 C 
ATOM     28  O   UNL A   1      39.027  20.194  25.641  1.00  0.00    -0.246 OA
BRANCH  27  29
ATOM     29  C   UNL A   1      39.060  22.462  26.372  1.00  0.00     0.060 A 
ATOM     30  C   UNL A   1      38.542  23.692  25.964  1.00  0.00     0.016 A 
ATOM     31  C   UNL A   1      40.197  22.410  27.176  1.00  0.00     0.016 A 
ATOM     32  C   UNL A   1      39.170  24.877  26.329  1.00  0.00     0.010 A 
ATOM     33  C   UNL A   1      40.795  23.605  27.593  1.00  0.00     0.010 A 
ATOM     34  C   UNL A   1      40.299  24.846  27.156  1.00  0.00    -0.014 A 
BRANCH  34  35
ATOM     35  C   UNL A   1      40.959  26.117  27.545  1.00  0.00     0.031 A 
ATOM     36  C   UNL A   1      42.378  26.389  27.130  1.00  0.00     0.074 A 
ATOM     37  C   UNL A   1      40.279  27.029  28.268  1.00  0.00     0.049 A 
ATOM     38  N   UNL A   1      43.135  27.420  27.406  1.00  0.00    -0.248 NA
ATOM     39  C   UNL A   1      43.037  25.365  26.304  1.00  0.00     0.031 C 
ATOM     40  C   UNL A   1      38.900  26.875  28.737  1.00  0.00     0.029 A 
ATOM     41  N   UNL A   1      40.656  28.261  28.740  1.00  0.00    -0.354 N 
ATOM     42  C   UNL A   1      44.371  27.149  26.832  1.00  0.00     0.074 A 
ATOM     43  C   UNL A   1      44.264  25.854  26.192  1.00  0.00     0.031 C 
ATOM     44  C   UNL A   1      38.544  27.973  29.423  1.00  0.00     0.029 A 
ATOM     45  C   UNL A   1      39.679  28.890  29.477  1.00  0.00     0.049 A 
ATOM     46  H   UNL A   1      41.540  28.657  28.568  1.00  0.00     0.167 HD
ATOM     47  C   UNL A   1      45.487  27.915  26.823  1.00  0.00     0.034 A 
ATOM     48  C   UNL A   1      39.697  30.068  30.132  1.00  0.00     0.034 A 
ATOM     49  C   UNL A   1      45.575  29.223  27.417  1.00  0.00     0.049 A 
ATOM     50  C   UNL A   1      40.938  30.915  30.072  1.00  0.00     0.074 A 
ATOM     51  C   UNL A   1      46.652  30.091  27.433  1.00  0.00     0.029 A 
ATOM     52  N   UNL A   1      44.542  29.855  28.093  1.00  0.00    -0.354 N 
ATOM     53  N   UNL A   1      42.067  30.681  29.445  1.00  0.00    -0.248 NA
ATOM     54  C   UNL A   1      40.900  32.202  30.780  1.00  0.00     0.031 C 
ATOM     55  C   UNL A   1      46.272  31.247  28.123  1.00  0.00     0.029 A 
ATOM     56  C   UNL A   1      44.954  31.105  28.527  1.00  0.00     0.049 A 
ATOM     57  H   UNL A   1      43.648  29.472  28.244  1.00  0.00     0.167 HD
ATOM     58  C   UNL A   1      42.861  31.800  29.662  1.00  0.00     0.074 A 
ATOM     59  C   UNL A   1      42.073  32.725  30.452  1.00  0.00     0.031 C 
ATOM     60  C   UNL A   1      44.137  32.034  29.263  1.00  0.00     0.034 A 
BRANCH  47  61
ATOM     61  C   UNL A   1      46.700  27.370  26.114  1.00  0.00     0.023 A 
ATOM     62  C   UNL A   1      46.824  27.540  24.720  1.00  0.00     0.012 A 
ATOM     63  C   UNL A   1      47.734  26.734  26.828  1.00  0.00     0.148 A 
ATOM     64  C   UNL A   1      47.945  27.060  24.044  1.00  0.00     0.002 A 
ATOM     65  C   UNL A   1      48.867  26.293  26.152  1.00  0.00     0.091 A 
ATOM     66  F   UNL A   1      47.586  26.558  28.149  1.00  0.00    -0.205 F 
ATOM     67  C   UNL A   1      48.969  26.446  24.759  1.00  0.00     0.022 A 
BRANCH  65  68
ATOM     68  S   UNL A   1      50.268  25.555  27.000  1.00  0.00     0.127 S 
ATOM     69  O   UNL A   1      51.200  25.332  25.896  1.00  0.00    -0.237 OA
ATOM     70  O   UNL A   1      50.666  26.616  27.928  1.00  0.00    -0.237 OA
ATOM     71  O   UNL A   1      49.755  24.353  27.645  1.00  0.00    -0.744 OA
ENDBRANCH  65  68
ENDBRANCH  47  61
BRANCH  48  72
ATOM     72  C   UNL A   1      38.476  30.538  30.845  1.00  0.00     0.023 A 
ATOM     73  C   UNL A   1      38.356  30.315  32.230  1.00  0.00     0.012 A 
ATOM     74  C   UNL A   1      37.457  31.241  30.173  1.00  0.00     0.148 A 
ATOM     75  C   UNL A   1      37.235  30.764  32.930  1.00  0.00     0.002 A 
ATOM     76  C   UNL A   1      36.370  31.736  30.886  1.00  0.00     0.091 A 
ATOM     77  F   UNL A   1      37.575  31.424  28.851  1.00  0.00    -0.205 F 
ATOM     78  C   UNL A   1      36.250  31.486  32.261  1.00  0.00     0.022 A 
BRANCH  76  79
ATOM     79  S   UNL A   1      35.132  32.793  30.125  1.00  0.00     0.127 S 
ATOM     80  O   UNL A   1      34.570  31.912  29.107  1.00  0.00    -0.237 OA
ATOM     81  O   UNL A   1      34.242  33.083  31.250  1.00  0.00    -0.237 OA
ATOM     82  O   UNL A   1      35.865  33.952  29.633  1.00  0.00    -0.744 OA
ENDBRANCH  76  79
ENDBRANCH  48  72
BRANCH  60  83
ATOM     83  C   UNL A   1      44.752  33.352  29.653  1.00  0.00     0.023 A 
ATOM     84  C   UNL A   1      45.475  33.452  30.857  1.00  0.00     0.012 A 
ATOM     85  C   UNL A   1      44.659  34.473  28.806  1.00  0.00     0.148 A 
ATOM     86  C   UNL A   1      46.069  34.658  31.230  1.00  0.00     0.002 A 
ATOM     87  C   UNL A   1      45.290  35.660  29.163  1.00  0.00     0.091 A 
ATOM     88  F   UNL A   1      43.946  34.368  27.674  1.00  0.00    -0.205 F 
ATOM     89  C   UNL A   1      45.985  35.758  30.379  1.00  0.00     0.022 A 
BRANCH  87  90
ATOM     90  S   UNL A   1      45.296  37.090  28.076  1.00  0.00     0.127 S 
ATOM     91  O   UNL A   1      46.233  37.982  28.757  1.00  0.00    -0.237 OA
ATOM     92  O   UNL A   1      45.792  36.532  26.817  1.00  0.00    -0.237 OA
ATOM     93  O   UNL A   1      43.912  37.543  28.023  1.00  0.00    -0.744 OA
ENDBRANCH  87  90
ENDBRANCH  60  83
ENDBRANCH  34  35
ENDBRANCH  27  29
ENDBRANCH  26  27
ENDBRANCH  25  26
ENDBRANCH   1  25
TORSDOF 17
ENDMDL
MODEL 2
REMARK VINA RESULT:     -11.6      5.119      7.790
REMARK SMILES CC(C)(CC(=O)OCCOC(=O)c1ccc(-c2c3nc(c(-c4cccc(S(=O)(=O)[O-])c4F)c4ccc([nH]4)c(-c4cccc(S(=O)(=O)[O-])c4F)c4nc(c(-c5cccc(S(=O)(=O)[O-])c5F)c5ccc2[nH]5)C=C4)C=C3)cc1)NC(=O)[C@H]1CC[C@@H]2CCCC[C@@H]2[NH2+]1
REMARK SMILES IDX 8 1 7 2 5 3 6 4 4 5 2 6 1 7 3 8 76 9 77 10 78 12 79 13 80 14
REMARK SMILES IDX 88 15 81 16 87 17 82 20 86 21 83 22 85 23 84 24 9 25 10 26
REMARK SMILES IDX 11 27 12 28 13 29 14 30 75 31 15 32 74 33 16 34 17 35 18 36
REMARK SMILES IDX 68 37 19 38 73 39 67 40 69 41 20 42 72 43 66 44 65 45 21 47
REMARK SMILES IDX 53 48 33 49 52 50 34 51 37 52 51 53 70 54 35 55 36 56 50 58
REMARK SMILES IDX 71 59 38 60 22 61 23 62 31 63 24 64 26 65 32 66 25 67 27 68
REMARK SMILES IDX 28 69 29 70 30 71 54 72 55 73 63 74 56 75 58 76 64 77 57 78
REMARK SMILES IDX 59 79 60 80 61 81 62 82 39 83 40 84 48 85 41 86 43 87 49 88
REMARK SMILES IDX 42 89 44 90 45 91 46 92 47 93
REMARK H PARENT 76 11 88 18 88 19 69 46 37 57
REMARK Flexibility Score: inf
ROOT
ATOM      1  C   UNL A   1      31.637  28.610  24.418  1.00  0.00     0.274 C 
ENDROOT
BRANCH   1   2
ATOM      2  O   UNL A   1      31.093  27.444  25.076  1.00  0.00    -0.462 OA
BRANCH   2   3
ATOM      3  C   UNL A   1      31.846  26.885  26.047  1.00  0.00     0.308 C 
ATOM      4  O   UNL A   1      31.489  26.769  27.214  1.00  0.00    -0.252 OA
BRANCH   3   5
ATOM      5  C   UNL A   1      33.218  26.419  25.597  1.00  0.00     0.150 C 
BRANCH   5   6
ATOM      6  C   UNL A   1      33.455  24.950  25.143  1.00  0.00     0.045 C 
ATOM      7  C   UNL A   1      33.129  24.850  23.653  1.00  0.00     0.035 C 
ATOM      8  C   UNL A   1      34.980  24.694  25.277  1.00  0.00     0.035 C 
BRANCH   6   9
ATOM      9  N   UNL A   1      32.803  23.977  26.061  1.00  0.00    -0.345 N 
ATOM     10  C   UNL A   1      33.086  22.683  26.411  1.00  0.00     0.278 C 
ATOM     11  H   UNL A   1      32.003  24.336  26.509  1.00  0.00     0.164 HD
ATOM     12  O   UNL A   1      33.110  22.436  27.624  1.00  0.00    -0.268 OA
BRANCH  10  13
ATOM     13  C   UNL A   1      33.277  21.527  25.395  1.00  0.00     0.272 C 
ATOM     14  C   UNL A   1      34.674  20.921  25.523  1.00  0.00     0.076 C 
ATOM     15  N   UNL A   1      32.139  20.597  25.459  1.00  0.00    -0.333 N 
ATOM     16  C   UNL A   1      34.842  19.543  24.904  1.00  0.00     0.016 C 
ATOM     17  C   UNL A   1      32.333  19.331  24.752  1.00  0.00     0.186 C 
ATOM     18  H   UNL A   1      31.327  21.064  25.056  1.00  0.00     0.347 HD
ATOM     19  H   UNL A   1      32.022  20.359  26.444  1.00  0.00     0.347 HD
ATOM     20  C   UNL A   1      33.634  18.648  25.204  1.00  0.00     0.048 C 
ATOM     21  C   UNL A   1      32.270  19.458  23.219  1.00  0.00     0.065 C 
ATOM     22  C   UNL A   1      33.760  17.268  24.556  1.00  0.00     0.010 C 
ATOM     23  C   UNL A   1      32.517  18.118  22.514  1.00  0.00     0.006 C 
ATOM     24  C   UNL A   1      33.723  17.337  23.036  1.00  0.00     0.001 C 
ENDBRANCH  10  13
ENDBRANCH   6   9
ENDBRANCH   5   6
ENDBRANCH   3   5
ENDBRANCH   2   3
ENDBRANCH   1   2
BRANCH   1  25
ATOM     25  C   UNL A   1      31.500  29.845  25.309  1.00  0.00     0.275 C 
BRANCH  25  26
ATOM     26  O   UNL A   1      32.806  30.293  25.698  1.00  0.00    -0.458 OA
BRANCH  26  27
ATOM     27  C   UNL A   1      32.857  31.163  26.731  1.00  0.00     0.338 C 
ATOM     28  O   UNL A   1      32.061  32.054  26.994  1.00  0.00    -0.246 OA
BRANCH  27  29
ATOM     29  C   UNL A   1      34.045  30.851  27.538  1.00  0.00     0.060 A 
ATOM     30  C   UNL A   1      34.849  31.896  27.996  1.00  0.00     0.016 A 
ATOM     31  C   UNL A   1      34.391  29.529  27.805  1.00  0.00     0.016 A 
ATOM     32  C   UNL A   1      36.019  31.630  28.698  1.00  0.00     0.010 A 
ATOM     33  C   UNL A   1      35.537  29.262  28.563  1.00  0.00     0.010 A 
ATOM     34  C   UNL A   1      36.371  30.308  28.998  1.00  0.00    -0.014 A 
BRANCH  34  35
ATOM     35  C   UNL A   1      37.619  30.033  29.752  1.00  0.00     0.031 A 
ATOM     36  C   UNL A   1      38.699  29.183  29.142  1.00  0.00     0.074 A 
ATOM     37  C   UNL A   1      37.782  30.553  30.984  1.00  0.00     0.049 A 
ATOM     38  N   UNL A   1      39.838  28.801  29.659  1.00  0.00    -0.248 NA
ATOM     39  C   UNL A   1      38.465  28.690  27.775  1.00  0.00     0.031 C 
ATOM     40  C   UNL A   1      36.802  31.385  31.685  1.00  0.00     0.029 A 
ATOM     41  N   UNL A   1      38.826  30.453  31.869  1.00  0.00    -0.354 N 
ATOM     42  C   UNL A   1      40.434  27.985  28.705  1.00  0.00     0.074 A 
ATOM     43  C   UNL A   1      39.529  27.926  27.576  1.00  0.00     0.031 C 
ATOM     44  C   UNL A   1      37.294  31.726  32.887  1.00  0.00     0.029 A 
ATOM     45  C   UNL A   1      38.604  31.106  33.059  1.00  0.00     0.049 A 
ATOM     46  H   UNL A   1      39.656  29.961  31.671  1.00  0.00     0.167 HD
ATOM     47  C   UNL A   1      41.632  27.357  28.756  1.00  0.00     0.034 A 
ATOM     48  C   UNL A   1      39.365  31.188  34.168  1.00  0.00     0.034 A 
ATOM     49  C   UNL A   1      42.551  27.459  29.859  1.00  0.00     0.049 A 
ATOM     50  C   UNL A   1      40.708  30.513  34.182  1.00  0.00     0.074 A 
ATOM     51  C   UNL A   1      43.804  26.886  29.992  1.00  0.00     0.029 A 
ATOM     52  N   UNL A   1      42.321  28.187  31.017  1.00  0.00    -0.354 N 
ATOM     53  N   UNL A   1      41.294  29.822  33.233  1.00  0.00    -0.248 NA
ATOM     54  C   UNL A   1      41.511  30.654  35.405  1.00  0.00     0.031 C 
ATOM     55  C   UNL A   1      44.329  27.265  31.233  1.00  0.00     0.029 A 
ATOM     56  C   UNL A   1      43.408  28.084  31.867  1.00  0.00     0.049 A 
ATOM     57  H   UNL A   1      41.503  28.701  31.206  1.00  0.00     0.167 HD
ATOM     58  C   UNL A   1      42.541  29.468  33.733  1.00  0.00     0.074 A 
ATOM     59  C   UNL A   1      42.639  30.048  35.058  1.00  0.00     0.031 C 
ATOM     60  C   UNL A   1      43.511  28.714  33.158  1.00  0.00     0.034 A 
BRANCH  47  61
ATOM     61  C   UNL A   1      42.037  26.530  27.564  1.00  0.00     0.023 A 
ATOM     62  C   UNL A   1      42.708  27.145  26.488  1.00  0.00     0.012 A 
ATOM     63  C   UNL A   1      41.796  25.143  27.527  1.00  0.00     0.148 A 
ATOM     64  C   UNL A   1      43.108  26.397  25.381  1.00  0.00     0.002 A 
ATOM     65  C   UNL A   1      42.233  24.397  26.437  1.00  0.00     0.091 A 
ATOM     66  F   UNL A   1      41.133  24.580  28.548  1.00  0.00    -0.205 F 
ATOM     67  C   UNL A   1      42.879  25.024  25.359  1.00  0.00     0.022 A 
BRANCH  65  68
ATOM     68  S   UNL A   1      42.046  22.612  26.355  1.00  0.00     0.127 S 
ATOM     69  O   UNL A   1      42.685  22.306  25.076  1.00  0.00    -0.237 OA
ATOM     70  O   UNL A   1      42.793  22.165  27.532  1.00  0.00    -0.237 OA
ATOM     71  O   UNL A   1      40.612  22.359  26.420  1.00  0.00    -0.744 OA
ENDBRANCH  65  68
ENDBRANCH  47  61
BRANCH  48  72
ATOM     72  C   UNL A   1      38.895  31.995  35.330  1.00  0.00     0.023 A 
ATOM     73  C   UNL A   1      38.989  33.399  35.279  1.00  0.00     0.012 A 
ATOM     74  C   UNL A   1      38.317  31.387  36.462  1.00  0.00     0.148 A 
ATOM     75  C   UNL A   1      38.535  34.182  36.342  1.00  0.00     0.002 A 
ATOM     76  C   UNL A   1      37.816  32.175  37.492  1.00  0.00     0.091 A 
ATOM     77  F   UNL A   1      38.258  30.049  36.505  1.00  0.00    -0.205 F 
ATOM     78  C   UNL A   1      37.938  33.572  37.441  1.00  0.00     0.022 A 
BRANCH  76  79
ATOM     79  S   UNL A   1      36.907  31.473  38.874  1.00  0.00     0.127 S 
ATOM     80  O   UNL A   1      35.689  32.277  38.872  1.00  0.00    -0.237 OA
ATOM     81  O   UNL A   1      36.728  30.083  38.450  1.00  0.00    -0.237 OA
ATOM     82  O   UNL A   1      37.778  31.635  40.031  1.00  0.00    -0.744 OA
ENDBRANCH  76  79
ENDBRANCH  48  72
BRANCH  60  83
ATOM     83  C   UNL A   1      44.773  28.492  33.949  1.00  0.00     0.023 A 
ATOM     84  C   UNL A   1      45.845  29.394  33.815  1.00  0.00     0.012 A 
ATOM     85  C   UNL A   1      44.877  27.424  34.862  1.00  0.00     0.148 A 
ATOM     86  C   UNL A   1      47.017  29.219  34.551  1.00  0.00     0.002 A 
ATOM     87  C   UNL A   1      46.031  27.280  35.624  1.00  0.00     0.091 A 
ATOM     88  F   UNL A   1      43.856  26.559  34.960  1.00  0.00    -0.205 F 
ATOM     89  C   UNL A   1      47.105  28.169  35.463  1.00  0.00     0.022 A 
BRANCH  87  90
ATOM     90  S   UNL A   1      46.180  26.003  36.878  1.00  0.00     0.127 S 
ATOM     91  O   UNL A   1      46.184  24.786  36.069  1.00  0.00    -0.237 OA
ATOM     92  O   UNL A   1      47.463  26.320  37.507  1.00  0.00    -0.237 OA
ATOM     93  O   UNL A   1      45.028  26.180  37.752  1.00  0.00    -0.744 OA
ENDBRANCH  87  90
ENDBRANCH  60  83
ENDBRANCH  34  35
ENDBRANCH  27  29
ENDBRANCH  26  27
ENDBRANCH  25  26
ENDBRANCH   1  25
TORSDOF 17
ENDMDL
MODEL 3
REMARK VINA RESULT:     -11.6      1.724      2.276
REMARK SMILES CC(C)(CC(=O)OCCOC(=O)c1ccc(-c2c3nc(c(-c4cccc(S(=O)(=O)[O-])c4F)c4ccc([nH]4)c(-c4cccc(S(=O)(=O)[O-])c4F)c4nc(c(-c5cccc(S(=O)(=O)[O-])c5F)c5ccc2[nH]5)C=C4)C=C3)cc1)NC(=O)[C@H]1CC[C@@H]2CCCC[C@@H]2[NH2+]1
REMARK SMILES IDX 8 1 7 2 5 3 6 4 4 5 2 6 1 7 3 8 76 9 77 10 78 12 79 13 80 14
REMARK SMILES IDX 88 15 81 16 87 17 82 20 86 21 83 22 85 23 84 24 9 25 10 26
REMARK SMILES IDX 11 27 12 28 13 29 14 30 75 31 15 32 74 33 16 34 17 35 18 36
REMARK SMILES IDX 68 37 19 38 73 39 67 40 69 41 20 42 72 43 66 44 65 45 21 47
REMARK SMILES IDX 53 48 33 49 52 50 34 51 37 52 51 53 70 54 35 55 36 56 50 58
REMARK SMILES IDX 71 59 38 60 22 61 23 62 31 63 24 64 26 65 32 66 25 67 27 68
REMARK SMILES IDX 28 69 29 70 30 71 54 72 55 73 63 74 56 75 58 76 64 77 57 78
REMARK SMILES IDX 59 79 60 80 61 81 62 82 39 83 40 84 48 85 41 86 43 87 49 88
REMARK SMILES IDX 42 89 44 90 45 91 46 92 47 93
REMARK H PARENT 76 11 88 18 88 19 69 46 37 57
REMARK Flexibility Score: inf
ROOT
ATOM      1  C   UNL A   1      35.254  20.976  24.993  1.00  0.00     0.274 C 
ENDROOT
BRANCH   1   2
ATOM      2  O   UNL A   1      34.322  19.939  24.612  1.00  0.00    -0.462 OA
BRANCH   2   3
ATOM      3  C   UNL A   1      33.018  20.281  24.557  1.00  0.00     0.308 C 
ATOM      4  O   UNL A   1      32.130  19.710  25.180  1.00  0.00    -0.252 OA
BRANCH   3   5
ATOM      5  C   UNL A   1      32.704  21.437  23.626  1.00  0.00     0.150 C 
BRANCH   5   6
ATOM      6  C   UNL A   1      32.419  22.861  24.183  1.00  0.00     0.045 C 
ATOM      7  C   UNL A   1      33.452  23.821  23.594  1.00  0.00     0.035 C 
ATOM      8  C   UNL A   1      31.043  23.288  23.607  1.00  0.00     0.035 C 
BRANCH   6   9
ATOM      9  N   UNL A   1      32.249  22.850  25.662  1.00  0.00    -0.345 N 
ATOM     10  C   UNL A   1      31.701  23.739  26.549  1.00  0.00     0.278 C 
ATOM     11  H   UNL A   1      32.602  22.038  26.092  1.00  0.00     0.164 HD
ATOM     12  O   UNL A   1      30.886  23.274  27.357  1.00  0.00    -0.268 OA
BRANCH  10  13
ATOM     13  C   UNL A   1      32.109  25.231  26.653  1.00  0.00     0.272 C 
ATOM     14  C   UNL A   1      33.525  25.441  26.118  1.00  0.00     0.076 C 
ATOM     15  N   UNL A   1      31.052  26.090  26.096  1.00  0.00    -0.333 N 
ATOM     16  C   UNL A   1      33.881  26.878  25.772  1.00  0.00     0.016 C 
ATOM     17  C   UNL A   1      31.436  27.487  25.887  1.00  0.00     0.186 C 
ATOM     18  H   UNL A   1      30.260  26.071  26.738  1.00  0.00     0.347 HD
ATOM     19  H   UNL A   1      30.836  25.713  25.174  1.00  0.00     0.347 HD
ATOM     20  C   UNL A   1      32.723  27.580  25.053  1.00  0.00     0.048 C 
ATOM     21  C   UNL A   1      31.551  28.302  27.188  1.00  0.00     0.065 C 
ATOM     22  C   UNL A   1      33.041  29.041  24.731  1.00  0.00     0.010 C 
ATOM     23  C   UNL A   1      31.992  29.749  26.930  1.00  0.00     0.006 C 
ATOM     24  C   UNL A   1      33.185  29.891  25.986  1.00  0.00     0.001 C 
ENDBRANCH  10  13
ENDBRANCH   6   9
ENDBRANCH   5   6
ENDBRANCH   3   5
ENDBRANCH   2   3
ENDBRANCH   1   2
BRANCH   1  25
ATOM     25  C   UNL A   1      36.687  20.444  24.981  1.00  0.00     0.275 C 
BRANCH  25  26
ATOM     26  O   UNL A   1      37.442  21.100  26.010  1.00  0.00    -0.458 OA
BRANCH  26  27
ATOM     27  C   UNL A   1      38.783  20.950  25.955  1.00  0.00     0.338 C 
ATOM     28  O   UNL A   1      39.409  19.934  25.680  1.00  0.00    -0.246 OA
BRANCH  27  29
ATOM     29  C   UNL A   1      39.406  22.245  26.265  1.00  0.00     0.060 A 
ATOM     30  C   UNL A   1      40.668  22.268  26.859  1.00  0.00     0.016 A 
ATOM     31  C   UNL A   1      38.726  23.434  26.013  1.00  0.00     0.016 A 
ATOM     32  C   UNL A   1      41.250  23.474  27.232  1.00  0.00     0.010 A 
ATOM     33  C   UNL A   1      39.336  24.652  26.333  1.00  0.00     0.010 A 
ATOM     34  C   UNL A   1      40.593  24.681  26.963  1.00  0.00    -0.014 A 
BRANCH  34  35
ATOM     35  C   UNL A   1      41.224  25.965  27.360  1.00  0.00     0.031 A 
ATOM     36  C   UNL A   1      42.630  26.280  26.932  1.00  0.00     0.074 A 
ATOM     37  C   UNL A   1      40.528  26.848  28.103  1.00  0.00     0.049 A 
ATOM     38  N   UNL A   1      43.362  27.327  27.213  1.00  0.00    -0.248 NA
ATOM     39  C   UNL A   1      43.306  25.285  26.084  1.00  0.00     0.031 C 
ATOM     40  C   UNL A   1      39.160  26.651  28.587  1.00  0.00     0.029 A 
ATOM     41  N   UNL A   1      40.877  28.084  28.588  1.00  0.00    -0.354 N 
ATOM     42  C   UNL A   1      44.597  27.097  26.620  1.00  0.00     0.074 A 
ATOM     43  C   UNL A   1      44.517  25.809  25.964  1.00  0.00     0.031 C 
ATOM     44  C   UNL A   1      38.784  27.729  29.293  1.00  0.00     0.029 A 
ATOM     45  C   UNL A   1      39.893  28.676  29.345  1.00  0.00     0.049 A 
ATOM     46  H   UNL A   1      41.748  28.506  28.410  1.00  0.00     0.167 HD
ATOM     47  C   UNL A   1      45.693  27.893  26.608  1.00  0.00     0.034 A 
ATOM     48  C   UNL A   1      39.889  29.846  30.015  1.00  0.00     0.034 A 
ATOM     49  C   UNL A   1      45.752  29.195  27.217  1.00  0.00     0.049 A 
ATOM     50  C   UNL A   1      41.105  30.726  29.951  1.00  0.00     0.074 A 
ATOM     51  C   UNL A   1      46.806  30.092  27.232  1.00  0.00     0.029 A 
ATOM     52  N   UNL A   1      44.712  29.791  27.915  1.00  0.00    -0.354 N 
ATOM     53  N   UNL A   1      42.232  30.532  29.308  1.00  0.00    -0.248 NA
ATOM     54  C   UNL A   1      41.041  32.003  30.676  1.00  0.00     0.031 C 
ATOM     55  C   UNL A   1      46.403  31.229  27.942  1.00  0.00     0.029 A 
ATOM     56  C   UNL A   1      45.094  31.045  28.360  1.00  0.00     0.049 A 
ATOM     57  H   UNL A   1      43.830  29.381  28.071  1.00  0.00     0.167 HD
ATOM     58  C   UNL A   1      42.999  31.669  29.529  1.00  0.00     0.074 A 
ATOM     59  C   UNL A   1      42.196  32.562  30.341  1.00  0.00     0.031 C 
ATOM     60  C   UNL A   1      44.262  31.942  29.118  1.00  0.00     0.034 A 
BRANCH  47  61
ATOM     61  C   UNL A   1      46.911  27.391  25.876  1.00  0.00     0.023 A 
ATOM     62  C   UNL A   1      47.810  26.528  26.535  1.00  0.00     0.012 A 
ATOM     63  C   UNL A   1      47.142  27.735  24.531  1.00  0.00     0.148 A 
ATOM     64  C   UNL A   1      48.935  26.038  25.875  1.00  0.00     0.002 A 
ATOM     65  C   UNL A   1      48.246  27.210  23.867  1.00  0.00     0.091 A 
ATOM     66  F   UNL A   1      46.291  28.578  23.929  1.00  0.00    -0.205 F 
ATOM     67  C   UNL A   1      49.148  26.370  24.540  1.00  0.00     0.022 A 
BRANCH  65  68
ATOM     68  S   UNL A   1      48.562  27.525  22.126  1.00  0.00     0.127 S 
ATOM     69  O   UNL A   1      49.806  28.290  22.184  1.00  0.00    -0.237 OA
ATOM     70  O   UNL A   1      48.704  26.172  21.584  1.00  0.00    -0.237 OA
ATOM     71  O   UNL A   1      47.397  28.251  21.635  1.00  0.00    -0.744 OA
ENDBRANCH  65  68
ENDBRANCH  47  61
BRANCH  48  72
ATOM     72  C   UNL A   1      38.664  30.273  30.749  1.00  0.00     0.023 A 
ATOM     73  C   UNL A   1      38.547  29.986  32.123  1.00  0.00     0.012 A 
ATOM     74  C   UNL A   1      37.639  30.999  30.110  1.00  0.00     0.148 A 
ATOM     75  C   UNL A   1      37.422  30.395  32.842  1.00  0.00     0.002 A 
ATOM     76  C   UNL A   1      36.549  31.451  30.845  1.00  0.00     0.091 A 
ATOM     77  F   UNL A   1      37.755  31.242  28.798  1.00  0.00    -0.205 F 
ATOM     78  C   UNL A   1      36.431  31.138  32.207  1.00  0.00     0.022 A 
BRANCH  76  79
ATOM     79  S   UNL A   1      35.303  32.533  30.134  1.00  0.00     0.127 S 
ATOM     80  O   UNL A   1      36.100  33.689  29.735  1.00  0.00    -0.237 OA
ATOM     81  O   UNL A   1      34.791  31.725  29.025  1.00  0.00    -0.237 OA
ATOM     82  O   UNL A   1      34.336  32.761  31.200  1.00  0.00    -0.744 OA
ENDBRANCH  76  79
ENDBRANCH  48  72
BRANCH  60  83
ATOM     83  C   UNL A   1      44.846  33.272  29.518  1.00  0.00     0.023 A 
ATOM     84  C   UNL A   1      45.585  33.375  30.713  1.00  0.00     0.012 A 
ATOM     85  C   UNL A   1      44.710  34.402  28.688  1.00  0.00     0.148 A 
ATOM     86  C   UNL A   1      46.150  34.592  31.094  1.00  0.00     0.002 A 
ATOM     87  C   UNL A   1      45.313  35.600  29.054  1.00  0.00     0.091 A 
ATOM     88  F   UNL A   1      43.983  34.292  27.566  1.00  0.00    -0.205 F 
ATOM     89  C   UNL A   1      46.024  35.700  30.260  1.00  0.00     0.022 A 
BRANCH  87  90
ATOM     90  S   UNL A   1      45.263  37.045  27.987  1.00  0.00     0.127 S 
ATOM     91  O   UNL A   1      43.850  37.416  28.050  1.00  0.00    -0.237 OA
ATOM     92  O   UNL A   1      46.168  37.974  28.666  1.00  0.00    -0.237 OA
ATOM     93  O   UNL A   1      45.742  36.587  26.690  1.00  0.00    -0.744 OA
ENDBRANCH  87  90
ENDBRANCH  60  83
ENDBRANCH  34  35
ENDBRANCH  27  29
ENDBRANCH  26  27
ENDBRANCH  25  26
ENDBRANCH   1  25
TORSDOF 17
ENDMDL
