MODEL 1
REMARK VINA RESULT:     -11.6      0.000      0.000
REMARK SMILES COc1ccc([C@H]2CC(c3ccccc3)=NN2C(=O)CCCC(=O)OCCOC(=O)c2ccc(-c3c4nc(c(-c5cccc(S(=O)(=O)[O-])c5F)c5ccc([nH]5)c(-c5cccc(S(=O)(=O)[O-])c5F)c5nc(c(-c6cccc(S(=O)(=O)[O-])c6F)c6ccc3[nH]6)C=C5)C=C4)cc2)cc1
REMARK SMILES IDX 25 1 23 2 24 3 22 4 21 5 20 6 18 7 19 8 17 9 7 10 8 11 9 12
REMARK SMILES IDX 16 13 6 14 3 15 4 16 95 17 5 18 94 19 2 20 1 21 10 22 11 23
REMARK SMILES IDX 15 24 12 25 14 26 13 27 26 28 27 29 28 30 29 31 30 32 31 33
REMARK SMILES IDX 32 34 93 35 33 36 92 37 34 38 35 39 36 40 86 41 37 42 91 43
REMARK SMILES IDX 85 44 87 45 38 46 90 47 84 48 83 49 39 51 71 52 51 53 70 54
REMARK SMILES IDX 52 55 55 56 69 57 88 58 53 59 54 60 68 62 89 63 56 64 40 65
REMARK SMILES IDX 41 66 49 67 42 68 44 69 50 70 43 71 45 72 46 73 47 74 48 75
REMARK SMILES IDX 72 76 73 77 81 78 74 79 76 80 82 81 75 82 77 83 78 84 79 85
REMARK SMILES IDX 80 86 57 87 58 88 66 89 59 90 61 91 67 92 60 93 62 94 63 95
REMARK SMILES IDX 64 96 65 97
REMARK H PARENT 87 50 55 61
REMARK Flexibility Score: inf
ROOT
ATOM      1  O   UNL A   1      35.713  23.511  25.073  1.00  0.00    -0.462 OA
ENDROOT
BRANCH   1   2
ATOM      2  C   UNL A   1      34.444  23.832  24.713  1.00  0.00     0.305 C 
ATOM      3  O   UNL A   1      33.763  23.179  23.937  1.00  0.00    -0.252 OA
BRANCH   2   4
ATOM      4  C   UNL A   1      33.963  25.101  25.368  1.00  0.00     0.123 C 
BRANCH   4   5
ATOM      5  C   UNL A   1      34.176  26.372  24.552  1.00  0.00     0.022 C 
BRANCH   5   6
ATOM      6  C   UNL A   1      33.791  26.290  23.078  1.00  0.00     0.103 C 
BRANCH   6   7
ATOM      7  C   UNL A   1      33.314  27.577  22.422  1.00  0.00     0.243 C 
ATOM      8  O   UNL A   1      34.078  28.187  21.668  1.00  0.00    -0.273 OA
BRANCH   7   9
ATOM      9  N   UNL A   1      31.968  27.874  22.553  1.00  0.00    -0.225 N 
ATOM     10  C   UNL A   1      30.804  26.971  22.532  1.00  0.00     0.147 C 
ATOM     11  C   UNL A   1      29.611  27.905  22.378  1.00  0.00     0.091 C 
ATOM     12  C   UNL A   1      30.305  29.226  22.528  1.00  0.00     0.071 C 
ATOM     13  N   UNL A   1      31.597  29.194  22.626  1.00  0.00    -0.174 NA
BRANCH  10  14
ATOM     14  C   UNL A   1      30.689  26.120  23.787  1.00  0.00    -0.023 A 
ATOM     15  C   UNL A   1      30.312  24.610  26.147  1.00  0.00     0.118 A 
ATOM     16  C   UNL A   1      30.365  25.995  26.203  1.00  0.00     0.047 A 
ATOM     17  C   UNL A   1      30.462  23.976  24.916  1.00  0.00     0.047 A 
ATOM     18  C   UNL A   1      30.609  26.738  25.043  1.00  0.00     0.010 A 
ATOM     19  C   UNL A   1      30.650  24.720  23.745  1.00  0.00     0.010 A 
BRANCH  15  20
ATOM     20  O   UNL A   1      30.055  23.799  27.214  1.00  0.00    -0.497 OA
ATOM     21  C   UNL A   1      30.272  22.400  27.029  1.00  0.00     0.278 C 
ENDBRANCH  15  20
ENDBRANCH  10  14
BRANCH  12  22
ATOM     22  C   UNL A   1      29.552  30.481  22.457  1.00  0.00    -0.002 A 
ATOM     23  C   UNL A   1      29.366  31.211  23.635  1.00  0.00     0.010 A 
ATOM     24  C   UNL A   1      29.019  30.923  21.247  1.00  0.00     0.010 A 
ATOM     25  C   UNL A   1      28.636  32.397  23.601  1.00  0.00     0.001 A 
ATOM     26  C   UNL A   1      28.273  32.102  21.224  1.00  0.00     0.001 A 
ATOM     27  C   UNL A   1      28.083  32.836  22.398  1.00  0.00     0.000 A 
ENDBRANCH  12  22
ENDBRANCH   7   9
ENDBRANCH   6   7
ENDBRANCH   5   6
ENDBRANCH   4   5
ENDBRANCH   2   4
ENDBRANCH   1   2
BRANCH   1  28
ATOM     28  C   UNL A   1      36.501  22.962  24.001  1.00  0.00     0.274 C 
BRANCH  28  29
ATOM     29  C   UNL A   1      37.274  21.721  24.455  1.00  0.00     0.275 C 
BRANCH  29  30
ATOM     30  O   UNL A   1      37.676  21.804  25.838  1.00  0.00    -0.458 OA
BRANCH  30  31
ATOM     31  C   UNL A   1      39.013  21.763  26.053  1.00  0.00     0.338 C 
ATOM     32  O   UNL A   1      39.771  20.861  25.721  1.00  0.00    -0.246 OA
BRANCH  31  33
ATOM     33  C   UNL A   1      39.495  22.966  26.761  1.00  0.00     0.060 A 
ATOM     34  C   UNL A   1      39.040  24.243  26.434  1.00  0.00     0.016 A 
ATOM     35  C   UNL A   1      40.531  22.824  27.683  1.00  0.00     0.016 A 
ATOM     36  C   UNL A   1      39.682  25.372  26.965  1.00  0.00     0.010 A 
ATOM     37  C   UNL A   1      41.103  23.955  28.277  1.00  0.00     0.010 A 
ATOM     38  C   UNL A   1      40.725  25.256  27.899  1.00  0.00    -0.014 A 
BRANCH  38  39
ATOM     39  C   UNL A   1      41.460  26.432  28.481  1.00  0.00     0.031 A 
ATOM     40  C   UNL A   1      40.686  27.502  29.225  1.00  0.00     0.074 A 
ATOM     41  C   UNL A   1      42.785  26.627  28.309  1.00  0.00     0.049 A 
ATOM     42  N   UNL A   1      40.975  28.765  29.407  1.00  0.00    -0.248 NA
ATOM     43  C   UNL A   1      39.402  27.094  29.822  1.00  0.00     0.031 C 
ATOM     44  C   UNL A   1      43.721  25.689  27.692  1.00  0.00     0.029 A 
ATOM     45  N   UNL A   1      43.571  27.725  28.603  1.00  0.00    -0.354 N 
ATOM     46  C   UNL A   1      39.867  29.327  30.035  1.00  0.00     0.074 A 
ATOM     47  C   UNL A   1      38.914  28.256  30.239  1.00  0.00     0.031 C 
ATOM     48  C   UNL A   1      44.941  26.244  27.643  1.00  0.00     0.029 A 
ATOM     49  C   UNL A   1      44.850  27.626  28.100  1.00  0.00     0.049 A 
ATOM     50  H   UNL A   1      43.248  28.499  29.118  1.00  0.00     0.167 HD
ATOM     51  C   UNL A   1      39.658  30.616  30.401  1.00  0.00     0.034 A 
ATOM     52  C   UNL A   1      45.817  28.549  27.920  1.00  0.00     0.034 A 
ATOM     53  C   UNL A   1      40.646  31.658  30.296  1.00  0.00     0.049 A 
ATOM     54  C   UNL A   1      45.572  29.977  28.315  1.00  0.00     0.074 A 
ATOM     55  C   UNL A   1      40.533  32.992  30.652  1.00  0.00     0.029 A 
ATOM     56  N   UNL A   1      41.940  31.479  29.835  1.00  0.00    -0.354 N 
ATOM     57  N   UNL A   1      44.502  30.512  28.850  1.00  0.00    -0.248 NA
ATOM     58  C   UNL A   1      46.666  30.933  28.081  1.00  0.00     0.031 C 
ATOM     59  C   UNL A   1      41.760  33.617  30.411  1.00  0.00     0.029 A 
ATOM     60  C   UNL A   1      42.640  32.670  29.917  1.00  0.00     0.049 A 
ATOM     61  H   UNL A   1      42.307  30.629  29.499  1.00  0.00     0.167 HD
ATOM     62  C   UNL A   1      44.804  31.856  29.041  1.00  0.00     0.074 A 
ATOM     63  C   UNL A   1      46.162  32.053  28.582  1.00  0.00     0.031 C 
ATOM     64  C   UNL A   1      44.016  32.842  29.532  1.00  0.00     0.034 A 
BRANCH  51  65
ATOM     65  C   UNL A   1      38.316  30.993  30.978  1.00  0.00     0.023 A 
ATOM     66  C   UNL A   1      38.077  30.839  32.357  1.00  0.00     0.012 A 
ATOM     67  C   UNL A   1      37.335  31.604  30.170  1.00  0.00     0.148 A 
ATOM     68  C   UNL A   1      36.874  31.268  32.920  1.00  0.00     0.002 A 
ATOM     69  C   UNL A   1      36.156  32.068  30.746  1.00  0.00     0.091 A 
ATOM     70  F   UNL A   1      37.575  31.728  28.857  1.00  0.00    -0.205 F 
ATOM     71  C   UNL A   1      35.921  31.892  32.119  1.00  0.00     0.022 A 
BRANCH  69  72
ATOM     72  S   UNL A   1      34.911  32.966  29.811  1.00  0.00     0.127 S 
ATOM     73  O   UNL A   1      35.719  33.987  29.145  1.00  0.00    -0.237 OA
ATOM     74  O   UNL A   1      34.384  31.930  28.920  1.00  0.00    -0.237 OA
ATOM     75  O   UNL A   1      33.956  33.464  30.791  1.00  0.00    -0.744 OA
ENDBRANCH  69  72
ENDBRANCH  51  65
BRANCH  52  76
ATOM     76  C   UNL A   1      47.104  28.147  27.277  1.00  0.00     0.023 A 
ATOM     77  C   UNL A   1      48.206  27.799  28.079  1.00  0.00     0.012 A 
ATOM     78  C   UNL A   1      47.220  28.058  25.875  1.00  0.00     0.148 A 
ATOM     79  C   UNL A   1      49.403  27.379  27.495  1.00  0.00     0.002 A 
ATOM     80  C   UNL A   1      48.388  27.566  25.305  1.00  0.00     0.091 A 
ATOM     81  F   UNL A   1      46.174  28.429  25.123  1.00  0.00    -0.205 F 
ATOM     82  C   UNL A   1      49.487  27.244  26.111  1.00  0.00     0.022 A 
BRANCH  80  83
ATOM     83  S   UNL A   1      48.492  27.192  23.551  1.00  0.00     0.127 S 
ATOM     84  O   UNL A   1      47.799  25.909  23.474  1.00  0.00    -0.237 OA
ATOM     85  O   UNL A   1      47.775  28.318  22.951  1.00  0.00    -0.237 OA
ATOM     86  O   UNL A   1      49.917  27.172  23.250  1.00  0.00    -0.744 OA
ENDBRANCH  80  83
ENDBRANCH  52  76
BRANCH  64  87
ATOM     87  C   UNL A   1      44.608  34.218  29.667  1.00  0.00     0.023 A 
ATOM     88  C   UNL A   1      45.230  34.598  30.872  1.00  0.00     0.012 A 
ATOM     89  C   UNL A   1      44.627  35.099  28.567  1.00  0.00     0.148 A 
ATOM     90  C   UNL A   1      45.846  35.845  30.987  1.00  0.00     0.002 A 
ATOM     91  C   UNL A   1      45.276  36.323  28.677  1.00  0.00     0.091 A 
ATOM     92  F   UNL A   1      44.014  34.720  27.437  1.00  0.00    -0.205 F 
ATOM     93  C   UNL A   1      45.879  36.700  29.888  1.00  0.00     0.022 A 
BRANCH  91  94
ATOM     94  S   UNL A   1      45.441  37.458  27.294  1.00  0.00     0.127 S 
ATOM     95  O   UNL A   1      46.225  38.540  27.889  1.00  0.00    -0.237 OA
ATOM     96  O   UNL A   1      46.164  36.649  26.313  1.00  0.00    -0.237 OA
ATOM     97  O   UNL A   1      44.084  37.817  26.903  1.00  0.00    -0.744 OA
ENDBRANCH  91  94
ENDBRANCH  64  87
ENDBRANCH  38  39
ENDBRANCH  31  33
ENDBRANCH  30  31
ENDBRANCH  29  30
ENDBRANCH  28  29
ENDBRANCH   1  28
TORSDOF 21
ENDMDL
MODEL 2
REMARK VINA RESULT:     -11.5      5.818      9.498
REMARK SMILES COc1ccc([C@H]2CC(c3ccccc3)=NN2C(=O)CCCC(=O)OCCOC(=O)c2ccc(-c3c4nc(c(-c5cccc(S(=O)(=O)[O-])c5F)c5ccc([nH]5)c(-c5cccc(S(=O)(=O)[O-])c5F)c5nc(c(-c6cccc(S(=O)(=O)[O-])c6F)c6ccc3[nH]6)C=C5)C=C4)cc2)cc1
REMARK SMILES IDX 25 1 23 2 24 3 22 4 21 5 20 6 18 7 19 8 17 9 7 10 8 11 9 12
REMARK SMILES IDX 16 13 6 14 3 15 4 16 95 17 5 18 94 19 2 20 1 21 10 22 11 23
REMARK SMILES IDX 15 24 12 25 14 26 13 27 26 28 27 29 28 30 29 31 30 32 31 33
REMARK SMILES IDX 32 34 93 35 33 36 92 37 34 38 35 39 36 40 86 41 37 42 91 43
REMARK SMILES IDX 85 44 87 45 38 46 90 47 84 48 83 49 39 51 71 52 51 53 70 54
REMARK SMILES IDX 52 55 55 56 69 57 88 58 53 59 54 60 68 62 89 63 56 64 40 65
REMARK SMILES IDX 41 66 49 67 42 68 44 69 50 70 43 71 45 72 46 73 47 74 48 75
REMARK SMILES IDX 72 76 73 77 81 78 74 79 76 80 82 81 75 82 77 83 78 84 79 85
REMARK SMILES IDX 80 86 57 87 58 88 66 89 59 90 61 91 67 92 60 93 62 94 63 95
REMARK SMILES IDX 64 96 65 97
REMARK H PARENT 87 50 55 61
REMARK Flexibility Score: inf
ROOT
ATOM      1  O   UNL A   1      34.197  32.872  28.861  1.00  0.00    -0.462 OA
ENDROOT
BRANCH   1   2
ATOM      2  C   UNL A   1      34.493  31.752  28.152  1.00  0.00     0.305 C 
ATOM      3  O   UNL A   1      35.450  31.028  28.377  1.00  0.00    -0.252 OA
BRANCH   2   4
ATOM      4  C   UNL A   1      33.510  31.501  27.037  1.00  0.00     0.123 C 
BRANCH   4   5
ATOM      5  C   UNL A   1      32.554  30.336  27.268  1.00  0.00     0.022 C 
BRANCH   5   6
ATOM      6  C   UNL A   1      33.184  28.946  27.274  1.00  0.00     0.103 C 
BRANCH   6   7
ATOM      7  C   UNL A   1      32.231  27.762  27.240  1.00  0.00     0.243 C 
ATOM      8  O   UNL A   1      31.264  27.744  28.007  1.00  0.00    -0.273 OA
BRANCH   7   9
ATOM      9  N   UNL A   1      32.396  26.867  26.196  1.00  0.00    -0.225 N 
ATOM     10  C   UNL A   1      31.391  26.303  25.280  1.00  0.00     0.147 C 
ATOM     11  C   UNL A   1      32.114  25.148  24.599  1.00  0.00     0.091 C 
ATOM     12  C   UNL A   1      33.501  25.376  25.124  1.00  0.00     0.071 C 
ATOM     13  N   UNL A   1      33.642  26.323  25.997  1.00  0.00    -0.174 NA
BRANCH  10  14
ATOM     14  C   UNL A   1      30.875  27.313  24.267  1.00  0.00    -0.023 A 
ATOM     15  C   UNL A   1      30.030  29.122  22.266  1.00  0.00     0.118 A 
ATOM     16  C   UNL A   1      31.339  29.144  22.723  1.00  0.00     0.047 A 
ATOM     17  C   UNL A   1      29.137  28.206  22.817  1.00  0.00     0.047 A 
ATOM     18  C   UNL A   1      31.741  28.288  23.753  1.00  0.00     0.010 A 
ATOM     19  C   UNL A   1      29.551  27.310  23.810  1.00  0.00     0.010 A 
BRANCH  15  20
ATOM     20  O   UNL A   1      29.547  29.896  21.251  1.00  0.00    -0.497 OA
ATOM     21  C   UNL A   1      28.269  30.499  21.450  1.00  0.00     0.278 C 
ENDBRANCH  15  20
ENDBRANCH  10  14
BRANCH  12  22
ATOM     22  C   UNL A   1      34.604  24.492  24.737  1.00  0.00    -0.002 A 
ATOM     23  C   UNL A   1      35.679  24.347  25.618  1.00  0.00     0.010 A 
ATOM     24  C   UNL A   1      34.587  23.829  23.510  1.00  0.00     0.010 A 
ATOM     25  C   UNL A   1      36.751  23.530  25.267  1.00  0.00     0.001 A 
ATOM     26  C   UNL A   1      35.673  23.027  23.157  1.00  0.00     0.001 A 
ATOM     27  C   UNL A   1      36.751  22.878  24.033  1.00  0.00     0.000 A 
ENDBRANCH  12  22
ENDBRANCH   7   9
ENDBRANCH   6   7
ENDBRANCH   5   6
ENDBRANCH   4   5
ENDBRANCH   2   4
ENDBRANCH   1   2
BRANCH   1  28
ATOM     28  C   UNL A   1      33.455  33.854  28.115  1.00  0.00     0.274 C 
BRANCH  28  29
ATOM     29  C   UNL A   1      33.389  35.189  28.861  1.00  0.00     0.275 C 
BRANCH  29  30
ATOM     30  O   UNL A   1      32.409  35.175  29.921  1.00  0.00    -0.458 OA
BRANCH  30  31
ATOM     31  C   UNL A   1      32.764  35.846  31.043  1.00  0.00     0.338 C 
ATOM     32  O   UNL A   1      32.347  36.943  31.391  1.00  0.00    -0.246 OA
BRANCH  31  33
ATOM     33  C   UNL A   1      33.749  35.095  31.846  1.00  0.00     0.060 A 
ATOM     34  C   UNL A   1      35.007  35.618  32.144  1.00  0.00     0.016 A 
ATOM     35  C   UNL A   1      33.455  33.778  32.195  1.00  0.00     0.016 A 
ATOM     36  C   UNL A   1      35.992  34.793  32.709  1.00  0.00     0.010 A 
ATOM     37  C   UNL A   1      34.415  32.991  32.842  1.00  0.00     0.010 A 
ATOM     38  C   UNL A   1      35.720  33.463  33.073  1.00  0.00    -0.014 A 
BRANCH  38  39
ATOM     39  C   UNL A   1      36.745  32.532  33.661  1.00  0.00     0.031 A 
ATOM     40  C   UNL A   1      37.371  32.861  35.001  1.00  0.00     0.074 A 
ATOM     41  C   UNL A   1      37.199  31.438  33.012  1.00  0.00     0.049 A 
ATOM     42  N   UNL A   1      38.534  32.510  35.486  1.00  0.00    -0.248 NA
ATOM     43  C   UNL A   1      36.586  33.722  35.903  1.00  0.00     0.031 C 
ATOM     44  C   UNL A   1      36.680  30.905  31.754  1.00  0.00     0.029 A 
ATOM     45  N   UNL A   1      38.253  30.597  33.312  1.00  0.00    -0.354 N 
ATOM     46  C   UNL A   1      38.671  33.194  36.691  1.00  0.00     0.074 A 
ATOM     47  C   UNL A   1      37.451  33.950  36.883  1.00  0.00     0.031 C 
ATOM     48  C   UNL A   1      37.412  29.845  31.384  1.00  0.00     0.029 A 
ATOM     49  C   UNL A   1      38.534  29.701  32.304  1.00  0.00     0.049 A 
ATOM     50  H   UNL A   1      38.753  30.636  34.160  1.00  0.00     0.167 HD
ATOM     51  C   UNL A   1      39.716  33.197  37.555  1.00  0.00     0.034 A 
ATOM     52  C   UNL A   1      39.610  28.920  32.071  1.00  0.00     0.034 A 
ATOM     53  C   UNL A   1      40.882  32.363  37.417  1.00  0.00     0.049 A 
ATOM     54  C   UNL A   1      40.771  28.942  33.025  1.00  0.00     0.074 A 
ATOM     55  C   UNL A   1      41.989  32.286  38.248  1.00  0.00     0.029 A 
ATOM     56  N   UNL A   1      41.078  31.434  36.409  1.00  0.00    -0.354 N 
ATOM     57  N   UNL A   1      40.919  29.635  34.128  1.00  0.00    -0.248 NA
ATOM     58  C   UNL A   1      41.916  28.075  32.705  1.00  0.00     0.031 C 
ATOM     59  C   UNL A   1      42.851  31.307  37.742  1.00  0.00     0.029 A 
ATOM     60  C   UNL A   1      42.274  30.766  36.606  1.00  0.00     0.049 A 
ATOM     61  H   UNL A   1      40.457  31.273  35.662  1.00  0.00     0.167 HD
ATOM     62  C   UNL A   1      42.156  29.268  34.644  1.00  0.00     0.074 A 
ATOM     63  C   UNL A   1      42.712  28.278  33.746  1.00  0.00     0.031 C 
ATOM     64  C   UNL A   1      42.785  29.728  35.752  1.00  0.00     0.034 A 
BRANCH  51  65
ATOM     65  C   UNL A   1      39.659  34.112  38.752  1.00  0.00     0.023 A 
ATOM     66  C   UNL A   1      40.276  35.377  38.701  1.00  0.00     0.012 A 
ATOM     67  C   UNL A   1      38.897  33.760  39.886  1.00  0.00     0.148 A 
ATOM     68  C   UNL A   1      40.154  36.269  39.767  1.00  0.00     0.002 A 
ATOM     69  C   UNL A   1      38.744  34.672  40.926  1.00  0.00     0.091 A 
ATOM     70  F   UNL A   1      38.329  32.546  39.924  1.00  0.00    -0.205 F 
ATOM     71  C   UNL A   1      39.379  35.923  40.871  1.00  0.00     0.022 A 
BRANCH  69  72
ATOM     72  S   UNL A   1      37.691  34.351  42.348  1.00  0.00     0.127 S 
ATOM     73  O   UNL A   1      37.836  35.590  43.109  1.00  0.00    -0.237 OA
ATOM     74  O   UNL A   1      36.377  34.169  41.727  1.00  0.00    -0.237 OA
ATOM     75  O   UNL A   1      38.230  33.157  42.985  1.00  0.00    -0.744 OA
ENDBRANCH  69  72
ENDBRANCH  51  65
BRANCH  52  76
ATOM     76  C   UNL A   1      39.657  28.085  30.835  1.00  0.00     0.023 A 
ATOM     77  C   UNL A   1      38.962  26.863  30.791  1.00  0.00     0.012 A 
ATOM     78  C   UNL A   1      40.343  28.526  29.684  1.00  0.00     0.148 A 
ATOM     79  C   UNL A   1      38.959  26.090  29.628  1.00  0.00     0.002 A 
ATOM     80  C   UNL A   1      40.271  27.789  28.508  1.00  0.00     0.091 A 
ATOM     81  F   UNL A   1      41.031  29.675  29.752  1.00  0.00    -0.205 F 
ATOM     82  C   UNL A   1      39.596  26.562  28.483  1.00  0.00     0.022 A 
BRANCH  80  83
ATOM     83  S   UNL A   1      40.908  28.433  26.956  1.00  0.00     0.127 S 
ATOM     84  O   UNL A   1      40.990  27.225  26.140  1.00  0.00    -0.237 OA
ATOM     85  O   UNL A   1      39.861  29.376  26.560  1.00  0.00    -0.237 OA
ATOM     86  O   UNL A   1      42.175  29.066  27.297  1.00  0.00    -0.744 OA
ENDBRANCH  80  83
ENDBRANCH  52  76
BRANCH  64  87
ATOM     87  C   UNL A   1      44.118  29.130  36.107  1.00  0.00     0.023 A 
ATOM     88  C   UNL A   1      44.174  27.917  36.821  1.00  0.00     0.012 A 
ATOM     89  C   UNL A   1      45.313  29.724  35.653  1.00  0.00     0.148 A 
ATOM     90  C   UNL A   1      45.402  27.314  37.095  1.00  0.00     0.002 A 
ATOM     91  C   UNL A   1      46.529  29.098  35.896  1.00  0.00     0.091 A 
ATOM     92  F   UNL A   1      45.233  30.886  34.990  1.00  0.00    -0.205 F 
ATOM     93  C   UNL A   1      46.576  27.897  36.623  1.00  0.00     0.022 A 
BRANCH  91  94
ATOM     94  S   UNL A   1      48.086  29.730  35.261  1.00  0.00     0.127 S 
ATOM     95  O   UNL A   1      48.199  31.006  35.967  1.00  0.00    -0.237 OA
ATOM     96  O   UNL A   1      49.036  28.707  35.696  1.00  0.00    -0.237 OA
ATOM     97  O   UNL A   1      47.922  29.832  33.817  1.00  0.00    -0.744 OA
ENDBRANCH  91  94
ENDBRANCH  64  87
ENDBRANCH  38  39
ENDBRANCH  31  33
ENDBRANCH  30  31
ENDBRANCH  29  30
ENDBRANCH  28  29
ENDBRANCH   1  28
TORSDOF 21
ENDMDL
MODEL 3
REMARK VINA RESULT:     -11.3      5.270     11.504
REMARK SMILES COc1ccc([C@H]2CC(c3ccccc3)=NN2C(=O)CCCC(=O)OCCOC(=O)c2ccc(-c3c4nc(c(-c5cccc(S(=O)(=O)[O-])c5F)c5ccc([nH]5)c(-c5cccc(S(=O)(=O)[O-])c5F)c5nc(c(-c6cccc(S(=O)(=O)[O-])c6F)c6ccc3[nH]6)C=C5)C=C4)cc2)cc1
REMARK SMILES IDX 25 1 23 2 24 3 22 4 21 5 20 6 18 7 19 8 17 9 7 10 8 11 9 12
REMARK SMILES IDX 16 13 6 14 3 15 4 16 95 17 5 18 94 19 2 20 1 21 10 22 11 23
REMARK SMILES IDX 15 24 12 25 14 26 13 27 26 28 27 29 28 30 29 31 30 32 31 33
REMARK SMILES IDX 32 34 93 35 33 36 92 37 34 38 35 39 36 40 86 41 37 42 91 43
REMARK SMILES IDX 85 44 87 45 38 46 90 47 84 48 83 49 39 51 71 52 51 53 70 54
REMARK SMILES IDX 52 55 55 56 69 57 88 58 53 59 54 60 68 62 89 63 56 64 40 65
REMARK SMILES IDX 41 66 49 67 42 68 44 69 50 70 43 71 45 72 46 73 47 74 48 75
REMARK SMILES IDX 72 76 73 77 81 78 74 79 76 80 82 81 75 82 77 83 78 84 79 85
REMARK SMILES IDX 80 86 57 87 58 88 66 89 59 90 61 91 67 92 60 93 62 94 63 95
REMARK SMILES IDX 64 96 65 97
REMARK H PARENT 87 50 55 61
REMARK Flexibility Score: inf
ROOT
ATOM      1  O   UNL A   1      42.874  19.980  25.383  1.00  0.00    -0.462 OA
ENDROOT
BRANCH   1   2
ATOM      2  C   UNL A   1      43.905  19.166  25.042  1.00  0.00     0.305 C 
ATOM      3  O   UNL A   1      44.025  18.011  25.422  1.00  0.00    -0.252 OA
BRANCH   2   4
ATOM      4  C   UNL A   1      44.906  19.849  24.145  1.00  0.00     0.123 C 
BRANCH   4   5
ATOM      5  C   UNL A   1      45.420  21.191  24.653  1.00  0.00     0.022 C 
BRANCH   5   6
ATOM      6  C   UNL A   1      44.942  22.422  23.887  1.00  0.00     0.103 C 
BRANCH   6   7
ATOM      7  C   UNL A   1      44.317  23.540  24.708  1.00  0.00     0.243 C 
ATOM      8  O   UNL A   1      43.139  23.848  24.506  1.00  0.00    -0.273 OA
BRANCH   7   9
ATOM      9  N   UNL A   1      45.058  24.005  25.781  1.00  0.00    -0.225 N 
ATOM     10  C   UNL A   1      46.516  24.164  25.912  1.00  0.00     0.147 C 
ATOM     11  C   UNL A   1      46.734  24.381  27.404  1.00  0.00     0.091 C 
ATOM     12  C   UNL A   1      45.307  24.497  27.852  1.00  0.00     0.071 C 
ATOM     13  N   UNL A   1      44.398  24.291  26.951  1.00  0.00    -0.174 NA
BRANCH  10  14
ATOM     14  C   UNL A   1      47.066  25.321  25.094  1.00  0.00    -0.023 A 
ATOM     15  C   UNL A   1      48.077  27.368  23.427  1.00  0.00     0.118 A 
ATOM     16  C   UNL A   1      48.776  26.180  23.579  1.00  0.00     0.047 A 
ATOM     17  C   UNL A   1      46.880  27.543  24.117  1.00  0.00     0.047 A 
ATOM     18  C   UNL A   1      48.304  25.191  24.449  1.00  0.00     0.010 A 
ATOM     19  C   UNL A   1      46.376  26.532  24.945  1.00  0.00     0.010 A 
BRANCH  15  20
ATOM     20  O   UNL A   1      48.438  28.381  22.587  1.00  0.00    -0.497 OA
ATOM     21  C   UNL A   1      49.155  28.019  21.406  1.00  0.00     0.278 C 
ENDBRANCH  15  20
ENDBRANCH  10  14
BRANCH  12  22
ATOM     22  C   UNL A   1      44.981  24.725  29.262  1.00  0.00    -0.002 A 
ATOM     23  C   UNL A   1      45.184  26.003  29.792  1.00  0.00     0.010 A 
ATOM     24  C   UNL A   1      44.498  23.686  30.057  1.00  0.00     0.010 A 
ATOM     25  C   UNL A   1      44.901  26.243  31.135  1.00  0.00     0.001 A 
ATOM     26  C   UNL A   1      44.236  23.929  31.406  1.00  0.00     0.001 A 
ATOM     27  C   UNL A   1      44.437  25.204  31.943  1.00  0.00     0.000 A 
ENDBRANCH  12  22
ENDBRANCH   7   9
ENDBRANCH   6   7
ENDBRANCH   5   6
ENDBRANCH   4   5
ENDBRANCH   2   4
ENDBRANCH   1   2
BRANCH   1  28
ATOM     28  C   UNL A   1      41.994  19.421  26.376  1.00  0.00     0.274 C 
BRANCH  28  29
ATOM     29  C   UNL A   1      41.167  20.509  27.065  1.00  0.00     0.275 C 
BRANCH  29  30
ATOM     30  O   UNL A   1      41.203  21.761  26.348  1.00  0.00    -0.458 OA
BRANCH  30  31
ATOM     31  C   UNL A   1      40.183  22.610  26.617  1.00  0.00     0.338 C 
ATOM     32  O   UNL A   1      38.990  22.336  26.596  1.00  0.00    -0.246 OA
BRANCH  31  33
ATOM     33  C   UNL A   1      40.666  23.963  26.956  1.00  0.00     0.060 A 
ATOM     34  C   UNL A   1      41.190  24.264  28.212  1.00  0.00     0.016 A 
ATOM     35  C   UNL A   1      40.463  24.990  26.034  1.00  0.00     0.016 A 
ATOM     36  C   UNL A   1      41.425  25.601  28.570  1.00  0.00     0.010 A 
ATOM     37  C   UNL A   1      40.788  26.309  26.370  1.00  0.00     0.010 A 
ATOM     38  C   UNL A   1      41.232  26.653  27.660  1.00  0.00    -0.014 A 
BRANCH  38  39
ATOM     39  C   UNL A   1      41.449  28.103  28.000  1.00  0.00     0.031 A 
ATOM     40  C   UNL A   1      42.856  28.666  28.007  1.00  0.00     0.074 A 
ATOM     41  C   UNL A   1      40.447  28.924  28.379  1.00  0.00     0.049 A 
ATOM     42  N   UNL A   1      43.344  29.682  28.671  1.00  0.00    -0.248 NA
ATOM     43  C   UNL A   1      43.849  27.972  27.167  1.00  0.00     0.031 C 
ATOM     44  C   UNL A   1      39.020  28.604  28.370  1.00  0.00     0.029 A 
ATOM     45  N   UNL A   1      40.490  30.202  28.901  1.00  0.00    -0.354 N 
ATOM     46  C   UNL A   1      44.714  29.682  28.423  1.00  0.00     0.074 A 
ATOM     47  C   UNL A   1      44.974  28.586  27.512  1.00  0.00     0.031 C 
ATOM     48  C   UNL A   1      38.329  29.640  28.866  1.00  0.00     0.029 A 
ATOM     49  C   UNL A   1      39.266  30.645  29.354  1.00  0.00     0.049 A 
ATOM     50  H   UNL A   1      41.313  30.741  28.946  1.00  0.00     0.167 HD
ATOM     51  C   UNL A   1      45.668  30.512  28.912  1.00  0.00     0.034 A 
ATOM     52  C   UNL A   1      38.925  31.676  30.155  1.00  0.00     0.034 A 
ATOM     53  C   UNL A   1      45.395  31.665  29.730  1.00  0.00     0.049 A 
ATOM     54  C   UNL A   1      39.990  32.581  30.705  1.00  0.00     0.074 A 
ATOM     55  C   UNL A   1      46.294  32.574  30.265  1.00  0.00     0.029 A 
ATOM     56  N   UNL A   1      44.131  32.092  30.102  1.00  0.00    -0.354 N 
ATOM     57  N   UNL A   1      41.286  32.539  30.516  1.00  0.00    -0.248 NA
ATOM     58  C   UNL A   1      39.548  33.678  31.580  1.00  0.00     0.031 C 
ATOM     59  C   UNL A   1      45.572  33.553  30.955  1.00  0.00     0.029 A 
ATOM     60  C   UNL A   1      44.224  33.261  30.839  1.00  0.00     0.049 A 
ATOM     61  H   UNL A   1      43.290  31.632  29.874  1.00  0.00     0.167 HD
ATOM     62  C   UNL A   1      41.809  33.615  31.224  1.00  0.00     0.074 A 
ATOM     63  C   UNL A   1      40.690  34.303  31.832  1.00  0.00     0.031 C 
ATOM     64  C   UNL A   1      43.102  33.984  31.376  1.00  0.00     0.034 A 
BRANCH  51  65
ATOM     65  C   UNL A   1      47.110  30.235  28.567  1.00  0.00     0.023 A 
ATOM     66  C   UNL A   1      47.711  30.896  27.479  1.00  0.00     0.012 A 
ATOM     67  C   UNL A   1      47.897  29.405  29.393  1.00  0.00     0.148 A 
ATOM     68  C   UNL A   1      49.068  30.718  27.204  1.00  0.00     0.002 A 
ATOM     69  C   UNL A   1      49.258  29.268  29.138  1.00  0.00     0.091 A 
ATOM     70  F   UNL A   1      47.304  28.773  30.416  1.00  0.00    -0.205 F 
ATOM     71  C   UNL A   1      49.842  29.917  28.039  1.00  0.00     0.022 A 
BRANCH  69  72
ATOM     72  S   UNL A   1      50.354  28.330  30.212  1.00  0.00     0.127 S 
ATOM     73  O   UNL A   1      51.579  28.284  29.416  1.00  0.00    -0.237 OA
ATOM     74  O   UNL A   1      50.431  29.184  31.399  1.00  0.00    -0.237 OA
ATOM     75  O   UNL A   1      49.700  27.047  30.430  1.00  0.00    -0.744 OA
ENDBRANCH  69  72
ENDBRANCH  51  65
BRANCH  52  76
ATOM     76  C   UNL A   1      37.493  31.869  30.530  1.00  0.00     0.023 A 
ATOM     77  C   UNL A   1      37.029  31.411  31.777  1.00  0.00     0.012 A 
ATOM     78  C   UNL A   1      36.602  32.553  29.677  1.00  0.00     0.148 A 
ATOM     79  C   UNL A   1      35.704  31.621  32.162  1.00  0.00     0.002 A 
ATOM     80  C   UNL A   1      35.307  32.826  30.100  1.00  0.00     0.091 A 
ATOM     81  F   UNL A   1      37.047  32.951  28.476  1.00  0.00    -0.205 F 
ATOM     82  C   UNL A   1      34.850  32.345  31.334  1.00  0.00     0.022 A 
BRANCH  80  83
ATOM     83  S   UNL A   1      34.223  33.911  29.165  1.00  0.00     0.127 S 
ATOM     84  O   UNL A   1      33.304  34.382  30.197  1.00  0.00    -0.237 OA
ATOM     85  O   UNL A   1      35.154  34.921  28.661  1.00  0.00    -0.237 OA
ATOM     86  O   UNL A   1      33.646  33.069  28.125  1.00  0.00    -0.744 OA
ENDBRANCH  80  83
ENDBRANCH  52  76
BRANCH  64  87
ATOM     87  C   UNL A   1      43.394  35.224  32.175  1.00  0.00     0.023 A 
ATOM     88  C   UNL A   1      43.459  35.153  33.580  1.00  0.00     0.012 A 
ATOM     89  C   UNL A   1      43.693  36.439  31.527  1.00  0.00     0.148 A 
ATOM     90  C   UNL A   1      43.799  36.279  34.330  1.00  0.00     0.002 A 
ATOM     91  C   UNL A   1      44.069  37.546  32.277  1.00  0.00     0.091 A 
ATOM     92  F   UNL A   1      43.608  36.485  30.189  1.00  0.00    -0.205 F 
ATOM     93  C   UNL A   1      44.115  37.470  33.679  1.00  0.00     0.022 A 
BRANCH  91  94
ATOM     94  S   UNL A   1      44.569  39.100  31.527  1.00  0.00     0.127 S 
ATOM     95  O   UNL A   1      45.728  38.688  30.736  1.00  0.00    -0.237 OA
ATOM     96  O   UNL A   1      43.389  39.457  30.739  1.00  0.00    -0.237 OA
ATOM     97  O   UNL A   1      44.861  40.005  32.630  1.00  0.00    -0.744 OA
ENDBRANCH  91  94
ENDBRANCH  64  87
ENDBRANCH  38  39
ENDBRANCH  31  33
ENDBRANCH  30  31
ENDBRANCH  29  30
ENDBRANCH  28  29
ENDBRANCH   1  28
TORSDOF 21
ENDMDL
