MODEL 1
REMARK VINA RESULT:     -12.2      0.000      0.000
REMARK SMILES COc1cc(NC(=O)[C@@H]2[C@@H](C(=O)OCCOC(=O)c3ccc(-c4c5nc(c(-c6cccc(S(=O)(=O)[O-])c6F)c6ccc([nH]6)c(-c6cccc(S(=O)(=O)[O-])c6F)c6nc(c(-c7cccc(S(=O)(=O)[O-])c7F)c7ccc4[nH]7)C=C6)C=C5)cc3)[C@H]3C=C[C@@H]2C3)ccc1NC(=O)c1ccccc1
REMARK SMILES IDX 14 1 13 2 11 3 12 4 10 5 9 6 85 7 82 8 84 9 86 10 83 11 7 12
REMARK SMILES IDX 6 13 8 15 5 16 3 17 4 18 89 19 88 20 87 21 2 22 1 23 90 24
REMARK SMILES IDX 91 25 92 27 93 28 94 29 98 30 95 31 97 32 96 33 15 34 16 35
REMARK SMILES IDX 17 36 18 37 19 38 20 39 81 40 21 41 80 42 22 43 23 44 24 45
REMARK SMILES IDX 74 46 25 47 79 48 73 49 75 50 26 51 78 52 72 53 71 54 27 56
REMARK SMILES IDX 59 57 39 58 58 59 40 60 43 61 57 62 76 63 41 64 42 65 56 67
REMARK SMILES IDX 77 68 44 69 28 70 29 71 37 72 30 73 32 74 38 75 31 76 33 77
REMARK SMILES IDX 34 78 35 79 36 80 60 81 61 82 69 83 62 84 64 85 70 86 63 87
REMARK SMILES IDX 65 88 66 89 67 90 68 91 45 92 46 93 54 94 47 95 49 96 55 97
REMARK SMILES IDX 48 98 50 99 51 100 52 101 53 102
REMARK H PARENT 6 14 90 26 75 55 43 66
REMARK Flexibility Score: inf
ROOT
ATOM      1  C   UNL A   1      36.966  19.932  24.705  1.00  0.00     0.274 C 
ENDROOT
BRANCH   1   2
ATOM      2  O   UNL A   1      36.242  20.941  25.439  1.00  0.00    -0.462 OA
BRANCH   2   3
ATOM      3  C   UNL A   1      35.500  21.779  24.665  1.00  0.00     0.310 C 
ATOM      4  O   UNL A   1      35.966  22.484  23.778  1.00  0.00    -0.252 OA
BRANCH   3   5
ATOM      5  C   UNL A   1      34.026  21.729  25.035  1.00  0.00     0.119 C 
ATOM      6  C   UNL A   1      33.228  22.867  24.307  1.00  0.00     0.100 C 
ATOM      7  C   UNL A   1      32.564  23.632  25.471  1.00  0.00     0.025 C 
ATOM      8  C   UNL A   1      33.782  22.074  26.525  1.00  0.00     0.027 C 
ATOM      9  C   UNL A   1      33.660  24.357  26.213  1.00  0.00    -0.027 C 
ATOM     10  C   UNL A   1      32.311  22.503  26.480  1.00  0.00     0.017 C 
ATOM     11  C   UNL A   1      34.388  23.426  26.850  1.00  0.00    -0.027 C 
BRANCH   6  12
ATOM     12  C   UNL A   1      32.169  22.424  23.331  1.00  0.00     0.228 C 
ATOM     13  N   UNL A   1      31.233  23.301  22.854  1.00  0.00    -0.326 N 
ATOM     14  H   UNL A   1      30.544  22.851  22.314  1.00  0.00     0.169 HD
ATOM     15  O   UNL A   1      32.086  21.244  22.980  1.00  0.00    -0.274 OA
BRANCH  13  16
ATOM     16  C   UNL A   1      31.014  24.696  22.949  1.00  0.00     0.045 A 
ATOM     17  C   UNL A   1      31.477  27.063  22.629  1.00  0.00     0.144 A 
ATOM     18  C   UNL A   1      31.816  25.717  22.438  1.00  0.00     0.074 A 
ATOM     19  C   UNL A   1      30.351  27.436  23.364  1.00  0.00     0.084 A 
ATOM     20  C   UNL A   1      29.469  26.427  23.727  1.00  0.00     0.032 A 
ATOM     21  C   UNL A   1      29.804  25.077  23.545  1.00  0.00     0.028 A 
BRANCH  17  22
ATOM     22  O   UNL A   1      32.218  28.011  21.969  1.00  0.00    -0.494 OA
ATOM     23  C   UNL A   1      33.622  27.819  22.104  1.00  0.00     0.278 C 
ENDBRANCH  17  22
BRANCH  19  24
ATOM     24  N   UNL A   1      30.229  28.794  23.711  1.00  0.00    -0.319 N 
ATOM     25  C   UNL A   1      30.877  29.595  24.624  1.00  0.00     0.255 C 
ATOM     26  H   UNL A   1      29.537  29.269  23.196  1.00  0.00     0.170 HD
ATOM     27  O   UNL A   1      30.640  30.803  24.662  1.00  0.00    -0.269 OA
BRANCH  25  28
ATOM     28  C   UNL A   1      31.875  29.063  25.570  1.00  0.00     0.040 A 
ATOM     29  C   UNL A   1      33.218  29.235  25.230  1.00  0.00     0.014 A 
ATOM     30  C   UNL A   1      31.531  28.443  26.773  1.00  0.00     0.014 A 
ATOM     31  C   UNL A   1      34.217  28.941  26.152  1.00  0.00     0.001 A 
ATOM     32  C   UNL A   1      32.536  28.142  27.697  1.00  0.00     0.001 A 
ATOM     33  C   UNL A   1      33.872  28.419  27.396  1.00  0.00     0.000 A 
ENDBRANCH  25  28
ENDBRANCH  19  24
ENDBRANCH  13  16
ENDBRANCH   6  12
ENDBRANCH   3   5
ENDBRANCH   2   3
ENDBRANCH   1   2
BRANCH   1  34
ATOM     34  C   UNL A   1      38.386  19.740  25.238  1.00  0.00     0.275 C 
BRANCH  34  35
ATOM     35  O   UNL A   1      38.936  20.974  25.735  1.00  0.00    -0.458 OA
BRANCH  35  36
ATOM     36  C   UNL A   1      40.038  20.850  26.512  1.00  0.00     0.338 C 
ATOM     37  O   UNL A   1      40.690  19.841  26.713  1.00  0.00    -0.246 OA
BRANCH  36  38
ATOM     38  C   UNL A   1      40.413  22.164  27.058  1.00  0.00     0.060 A 
ATOM     39  C   UNL A   1      39.933  23.302  26.420  1.00  0.00     0.016 A 
ATOM     40  C   UNL A   1      41.341  22.279  28.094  1.00  0.00     0.016 A 
ATOM     41  C   UNL A   1      40.418  24.557  26.778  1.00  0.00     0.010 A 
ATOM     42  C   UNL A   1      41.790  23.552  28.483  1.00  0.00     0.010 A 
ATOM     43  C   UNL A   1      41.356  24.704  27.804  1.00  0.00    -0.014 A 
BRANCH  43  44
ATOM     44  C   UNL A   1      41.924  26.053  28.089  1.00  0.00     0.031 A 
ATOM     45  C   UNL A   1      41.082  27.085  28.791  1.00  0.00     0.074 A 
ATOM     46  C   UNL A   1      43.200  26.347  27.762  1.00  0.00     0.049 A 
ATOM     47  N   UNL A   1      41.355  28.338  29.052  1.00  0.00    -0.248 NA
ATOM     48  C   UNL A   1      39.761  26.648  29.271  1.00  0.00     0.031 C 
ATOM     49  C   UNL A   1      44.147  25.418  27.148  1.00  0.00     0.029 A 
ATOM     50  N   UNL A   1      43.918  27.513  27.890  1.00  0.00    -0.354 N 
ATOM     51  C   UNL A   1      40.215  28.857  29.653  1.00  0.00     0.074 A 
ATOM     52  C   UNL A   1      39.256  27.778  29.746  1.00  0.00     0.031 C 
ATOM     53  C   UNL A   1      45.314  26.049  26.946  1.00  0.00     0.029 A 
ATOM     54  C   UNL A   1      45.182  27.447  27.345  1.00  0.00     0.049 A 
ATOM     55  H   UNL A   1      43.562  28.320  28.330  1.00  0.00     0.167 HD
ATOM     56  C   UNL A   1      39.987  30.117  30.092  1.00  0.00     0.034 A 
ATOM     57  C   UNL A   1      46.112  28.409  27.153  1.00  0.00     0.034 A 
ATOM     58  C   UNL A   1      40.964  31.172  30.073  1.00  0.00     0.049 A 
ATOM     59  C   UNL A   1      45.820  29.804  27.656  1.00  0.00     0.074 A 
ATOM     60  C   UNL A   1      40.835  32.472  30.529  1.00  0.00     0.029 A 
ATOM     61  N   UNL A   1      42.252  31.048  29.576  1.00  0.00    -0.354 N 
ATOM     62  N   UNL A   1      44.789  30.239  28.343  1.00  0.00    -0.248 NA
ATOM     63  C   UNL A   1      46.832  30.839  27.390  1.00  0.00     0.031 C 
ATOM     64  C   UNL A   1      42.044  33.138  30.297  1.00  0.00     0.029 A 
ATOM     65  C   UNL A   1      42.925  32.251  29.702  1.00  0.00     0.049 A 
ATOM     66  H   UNL A   1      42.632  30.225  29.191  1.00  0.00     0.167 HD
ATOM     67  C   UNL A   1      45.051  31.577  28.624  1.00  0.00     0.074 A 
ATOM     68  C   UNL A   1      46.356  31.871  28.072  1.00  0.00     0.031 C 
ATOM     69  C   UNL A   1      44.268  32.495  29.243  1.00  0.00     0.034 A 
BRANCH  56  70
ATOM     70  C   UNL A   1      38.622  30.430  30.644  1.00  0.00     0.023 A 
ATOM     71  C   UNL A   1      38.294  30.056  31.961  1.00  0.00     0.012 A 
ATOM     72  C   UNL A   1      37.687  31.146  29.871  1.00  0.00     0.148 A 
ATOM     73  C   UNL A   1      37.043  30.369  32.493  1.00  0.00     0.002 A 
ATOM     74  C   UNL A   1      36.456  31.485  30.420  1.00  0.00     0.091 A 
ATOM     75  F   UNL A   1      38.011  31.468  28.610  1.00  0.00    -0.205 F 
ATOM     76  C   UNL A   1      36.129  31.091  31.728  1.00  0.00     0.022 A 
BRANCH  74  77
ATOM     77  S   UNL A   1      35.247  32.472  29.531  1.00  0.00     0.127 S 
ATOM     78  O   UNL A   1      34.197  32.631  30.537  1.00  0.00    -0.237 OA
ATOM     79  O   UNL A   1      35.997  33.693  29.237  1.00  0.00    -0.237 OA
ATOM     80  O   UNL A   1      34.881  31.691  28.358  1.00  0.00    -0.744 OA
ENDBRANCH  74  77
ENDBRANCH  56  70
BRANCH  57  81
ATOM     81  C   UNL A   1      47.427  28.078  26.513  1.00  0.00     0.023 A 
ATOM     82  C   UNL A   1      48.546  27.839  27.331  1.00  0.00     0.012 A 
ATOM     83  C   UNL A   1      47.588  27.966  25.117  1.00  0.00     0.148 A 
ATOM     84  C   UNL A   1      49.782  27.478  26.792  1.00  0.00     0.002 A 
ATOM     85  C   UNL A   1      48.805  27.549  24.583  1.00  0.00     0.091 A 
ATOM     86  F   UNL A   1      46.539  28.252  24.333  1.00  0.00    -0.205 F 
ATOM     87  C   UNL A   1      49.907  27.313  25.418  1.00  0.00     0.022 A 
BRANCH  85  88
ATOM     88  S   UNL A   1      49.034  27.213  22.833  1.00  0.00     0.127 S 
ATOM     89  O   UNL A   1      50.486  27.070  22.744  1.00  0.00    -0.237 OA
ATOM     90  O   UNL A   1      48.281  25.970  22.664  1.00  0.00    -0.237 OA
ATOM     91  O   UNL A   1      48.476  28.360  22.131  1.00  0.00    -0.744 OA
ENDBRANCH  85  88
ENDBRANCH  57  81
BRANCH  69  92
ATOM     92  C   UNL A   1      44.813  33.892  29.400  1.00  0.00     0.023 A 
ATOM     93  C   UNL A   1      45.609  34.202  30.519  1.00  0.00     0.012 A 
ATOM     94  C   UNL A   1      44.605  34.871  28.408  1.00  0.00     0.148 A 
ATOM     95  C   UNL A   1      46.161  35.473  30.669  1.00  0.00     0.002 A 
ATOM     96  C   UNL A   1      45.197  36.122  28.541  1.00  0.00     0.091 A 
ATOM     97  F   UNL A   1      43.829  34.565  27.357  1.00  0.00    -0.205 F 
ATOM     98  C   UNL A   1      45.965  36.429  29.676  1.00  0.00     0.022 A 
BRANCH  96  99
ATOM     99  S   UNL A   1      45.076  37.380  27.263  1.00  0.00     0.127 S 
ATOM    100  O   UNL A   1      46.054  36.907  26.286  1.00  0.00    -0.237 OA
ATOM    101  O   UNL A   1      43.681  37.261  26.835  1.00  0.00    -0.237 OA
ATOM    102  O   UNL A   1      45.397  38.641  27.917  1.00  0.00    -0.744 OA
ENDBRANCH  96  99
ENDBRANCH  69  92
ENDBRANCH  43  44
ENDBRANCH  36  38
ENDBRANCH  35  36
ENDBRANCH  34  35
ENDBRANCH   1  34
TORSDOF 19
ENDMDL
MODEL 2
REMARK VINA RESULT:     -12.2      1.561      2.489
REMARK SMILES COc1cc(NC(=O)[C@@H]2[C@@H](C(=O)OCCOC(=O)c3ccc(-c4c5nc(c(-c6cccc(S(=O)(=O)[O-])c6F)c6ccc([nH]6)c(-c6cccc(S(=O)(=O)[O-])c6F)c6nc(c(-c7cccc(S(=O)(=O)[O-])c7F)c7ccc4[nH]7)C=C6)C=C5)cc3)[C@H]3C=C[C@@H]2C3)ccc1NC(=O)c1ccccc1
REMARK SMILES IDX 14 1 13 2 11 3 12 4 10 5 9 6 85 7 82 8 84 9 86 10 83 11 7 12
REMARK SMILES IDX 6 13 8 15 5 16 3 17 4 18 89 19 88 20 87 21 2 22 1 23 90 24
REMARK SMILES IDX 91 25 92 27 93 28 94 29 98 30 95 31 97 32 96 33 15 34 16 35
REMARK SMILES IDX 17 36 18 37 19 38 20 39 81 40 21 41 80 42 22 43 23 44 24 45
REMARK SMILES IDX 74 46 25 47 79 48 73 49 75 50 26 51 78 52 72 53 71 54 27 56
REMARK SMILES IDX 59 57 39 58 58 59 40 60 43 61 57 62 76 63 41 64 42 65 56 67
REMARK SMILES IDX 77 68 44 69 28 70 29 71 37 72 30 73 32 74 38 75 31 76 33 77
REMARK SMILES IDX 34 78 35 79 36 80 60 81 61 82 69 83 62 84 64 85 70 86 63 87
REMARK SMILES IDX 65 88 66 89 67 90 68 91 45 92 46 93 54 94 47 95 49 96 55 97
REMARK SMILES IDX 48 98 50 99 51 100 52 101 53 102
REMARK H PARENT 6 14 90 26 75 55 43 66
REMARK Flexibility Score: inf
ROOT
ATOM      1  C   UNL A   1      36.215  21.258  24.586  1.00  0.00     0.274 C 
ENDROOT
BRANCH   1   2
ATOM      2  O   UNL A   1      35.530  20.705  25.729  1.00  0.00    -0.462 OA
BRANCH   2   3
ATOM      3  C   UNL A   1      34.218  20.415  25.516  1.00  0.00     0.310 C 
ATOM      4  O   UNL A   1      33.320  20.683  26.304  1.00  0.00    -0.252 OA
BRANCH   3   5
ATOM      5  C   UNL A   1      34.006  19.721  24.179  1.00  0.00     0.119 C 
ATOM      6  C   UNL A   1      32.493  19.752  23.767  1.00  0.00     0.100 C 
ATOM      7  C   UNL A   1      32.151  18.261  23.569  1.00  0.00     0.025 C 
ATOM      8  C   UNL A   1      34.283  18.200  24.257  1.00  0.00     0.027 C 
ATOM      9  C   UNL A   1      32.156  17.615  24.933  1.00  0.00    -0.027 C 
ATOM     10  C   UNL A   1      33.483  17.704  23.046  1.00  0.00     0.017 C 
ATOM     11  C   UNL A   1      33.432  17.573  25.345  1.00  0.00    -0.027 C 
BRANCH   6  12
ATOM     12  C   UNL A   1      32.156  20.513  22.511  1.00  0.00     0.228 C 
ATOM     13  N   UNL A   1      32.201  21.880  22.475  1.00  0.00    -0.326 N 
ATOM     14  H   UNL A   1      31.854  22.242  21.628  1.00  0.00     0.169 HD
ATOM     15  O   UNL A   1      31.776  19.922  21.496  1.00  0.00    -0.274 OA
BRANCH  13  16
ATOM     16  C   UNL A   1      32.625  22.900  23.360  1.00  0.00     0.045 A 
ATOM     17  C   UNL A   1      32.525  24.371  25.296  1.00  0.00     0.144 A 
ATOM     18  C   UNL A   1      31.991  23.327  24.527  1.00  0.00     0.074 A 
ATOM     19  C   UNL A   1      33.682  25.046  24.908  1.00  0.00     0.084 A 
ATOM     20  C   UNL A   1      34.399  24.514  23.843  1.00  0.00     0.032 A 
ATOM     21  C   UNL A   1      33.868  23.474  23.066  1.00  0.00     0.028 A 
BRANCH  17  22
ATOM     22  O   UNL A   1      31.943  24.636  26.510  1.00  0.00    -0.494 OA
ATOM     23  C   UNL A   1      31.626  23.461  27.248  1.00  0.00     0.278 C 
ENDBRANCH  17  22
BRANCH  19  24
ATOM     24  N   UNL A   1      34.001  26.229  25.599  1.00  0.00    -0.319 N 
ATOM     25  C   UNL A   1      33.498  27.510  25.556  1.00  0.00     0.255 C 
ATOM     26  H   UNL A   1      34.735  26.119  26.247  1.00  0.00     0.170 HD
ATOM     27  O   UNL A   1      33.900  28.357  26.355  1.00  0.00    -0.269 OA
BRANCH  25  28
ATOM     28  C   UNL A   1      32.467  27.919  24.586  1.00  0.00     0.040 A 
ATOM     29  C   UNL A   1      32.911  28.557  23.427  1.00  0.00     0.014 A 
ATOM     30  C   UNL A   1      31.105  27.666  24.767  1.00  0.00     0.014 A 
ATOM     31  C   UNL A   1      32.031  28.799  22.378  1.00  0.00     0.001 A 
ATOM     32  C   UNL A   1      30.219  27.915  23.715  1.00  0.00     0.001 A 
ATOM     33  C   UNL A   1      30.689  28.452  22.514  1.00  0.00     0.000 A 
ENDBRANCH  25  28
ENDBRANCH  19  24
ENDBRANCH  13  16
ENDBRANCH   6  12
ENDBRANCH   3   5
ENDBRANCH   2   3
ENDBRANCH   1   2
BRANCH   1  34
ATOM     34  C   UNL A   1      37.734  21.244  24.762  1.00  0.00     0.275 C 
BRANCH  34  35
ATOM     35  O   UNL A   1      38.112  21.512  26.125  1.00  0.00    -0.458 OA
BRANCH  35  36
ATOM     36  C   UNL A   1      39.438  21.444  26.387  1.00  0.00     0.338 C 
ATOM     37  O   UNL A   1      40.196  20.527  26.128  1.00  0.00    -0.246 OA
BRANCH  36  38
ATOM     38  C   UNL A   1      39.891  22.706  26.994  1.00  0.00     0.060 A 
ATOM     39  C   UNL A   1      39.362  23.896  26.509  1.00  0.00     0.016 A 
ATOM     40  C   UNL A   1      40.929  22.729  27.927  1.00  0.00     0.016 A 
ATOM     41  C   UNL A   1      39.902  25.114  26.913  1.00  0.00     0.010 A 
ATOM     42  C   UNL A   1      41.438  23.962  28.367  1.00  0.00     0.010 A 
ATOM     43  C   UNL A   1      40.950  25.169  27.837  1.00  0.00    -0.014 A 
BRANCH  43  44
ATOM     44  C   UNL A   1      41.567  26.486  28.167  1.00  0.00     0.031 A 
ATOM     45  C   UNL A   1      40.752  27.537  28.872  1.00  0.00     0.074 A 
ATOM     46  C   UNL A   1      42.861  26.733  27.877  1.00  0.00     0.049 A 
ATOM     47  N   UNL A   1      41.071  28.771  29.169  1.00  0.00    -0.248 NA
ATOM     48  C   UNL A   1      39.402  27.146  29.311  1.00  0.00     0.031 C 
ATOM     49  C   UNL A   1      43.784  25.778  27.265  1.00  0.00     0.029 A 
ATOM     50  N   UNL A   1      43.625  27.864  28.049  1.00  0.00    -0.354 N 
ATOM     51  C   UNL A   1      39.939  29.325  29.755  1.00  0.00     0.074 A 
ATOM     52  C   UNL A   1      38.933  28.286  29.800  1.00  0.00     0.031 C 
ATOM     53  C   UNL A   1      44.981  26.363  27.105  1.00  0.00     0.029 A 
ATOM     54  C   UNL A   1      44.898  27.756  27.533  1.00  0.00     0.049 A 
ATOM     55  H   UNL A   1      43.293  28.675  28.499  1.00  0.00     0.167 HD
ATOM     56  C   UNL A   1      39.754  30.583  30.218  1.00  0.00     0.034 A 
ATOM     57  C   UNL A   1      45.872  28.682  27.386  1.00  0.00     0.034 A 
ATOM     58  C   UNL A   1      40.774  31.596  30.247  1.00  0.00     0.049 A 
ATOM     59  C   UNL A   1      45.626  30.077  27.914  1.00  0.00     0.074 A 
ATOM     60  C   UNL A   1      40.689  32.890  30.729  1.00  0.00     0.029 A 
ATOM     61  N   UNL A   1      42.067  31.428  29.778  1.00  0.00    -0.354 N 
ATOM     62  N   UNL A   1      44.598  30.540  28.586  1.00  0.00    -0.248 NA
ATOM     63  C   UNL A   1      46.687  31.073  27.696  1.00  0.00     0.031 C 
ATOM     64  C   UNL A   1      41.930  33.509  30.542  1.00  0.00     0.029 A 
ATOM     65  C   UNL A   1      42.787  32.598  29.947  1.00  0.00     0.049 A 
ATOM     66  H   UNL A   1      42.422  30.599  29.382  1.00  0.00     0.167 HD
ATOM     67  C   UNL A   1      44.908  31.858  28.904  1.00  0.00     0.074 A 
ATOM     68  C   UNL A   1      46.239  32.109  28.391  1.00  0.00     0.031 C 
ATOM     69  C   UNL A   1      44.151  32.795  29.526  1.00  0.00     0.034 A 
BRANCH  56  70
ATOM     70  C   UNL A   1      38.390  30.942  30.744  1.00  0.00     0.023 A 
ATOM     71  C   UNL A   1      38.072  30.701  32.095  1.00  0.00     0.012 A 
ATOM     72  C   UNL A   1      37.445  31.569  29.909  1.00  0.00     0.148 A 
ATOM     73  C   UNL A   1      36.822  31.058  32.601  1.00  0.00     0.002 A 
ATOM     74  C   UNL A   1      36.215  31.954  30.430  1.00  0.00     0.091 A 
ATOM     75  F   UNL A   1      37.759  31.764  28.620  1.00  0.00    -0.205 F 
ATOM     76  C   UNL A   1      35.898  31.692  31.773  1.00  0.00     0.022 A 
BRANCH  74  77
ATOM     77  S   UNL A   1      34.993  32.838  29.453  1.00  0.00     0.127 S 
ATOM     78  O   UNL A   1      34.512  31.786  28.558  1.00  0.00    -0.237 OA
ATOM     79  O   UNL A   1      34.028  33.260  30.469  1.00  0.00    -0.237 OA
ATOM     80  O   UNL A   1      35.711  33.930  28.812  1.00  0.00    -0.744 OA
ENDBRANCH  74  77
ENDBRANCH  56  70
BRANCH  57  81
ATOM     81  C   UNL A   1      47.188  28.309  26.770  1.00  0.00     0.023 A 
ATOM     82  C   UNL A   1      48.308  28.135  27.600  1.00  0.00     0.012 A 
ATOM     83  C   UNL A   1      47.347  28.096  25.385  1.00  0.00     0.148 A 
ATOM     84  C   UNL A   1      49.545  27.740  27.088  1.00  0.00     0.002 A 
ATOM     85  C   UNL A   1      48.565  27.646  24.881  1.00  0.00     0.091 A 
ATOM     86  F   UNL A   1      46.296  28.320  24.584  1.00  0.00    -0.205 F 
ATOM     87  C   UNL A   1      49.668  27.476  25.729  1.00  0.00     0.022 A 
BRANCH  85  88
ATOM     88  S   UNL A   1      48.792  27.182  23.160  1.00  0.00     0.127 S 
ATOM     89  O   UNL A   1      50.248  27.199  23.036  1.00  0.00    -0.237 OA
ATOM     90  O   UNL A   1      48.185  25.852  23.123  1.00  0.00    -0.237 OA
ATOM     91  O   UNL A   1      48.089  28.191  22.381  1.00  0.00    -0.744 OA
ENDBRANCH  85  88
ENDBRANCH  57  81
BRANCH  69  92
ATOM     92  C   UNL A   1      44.749  34.163  29.728  1.00  0.00     0.023 A 
ATOM     93  C   UNL A   1      45.454  34.441  30.915  1.00  0.00     0.012 A 
ATOM     94  C   UNL A   1      44.683  35.145  28.719  1.00  0.00     0.148 A 
ATOM     95  C   UNL A   1      46.054  35.684  31.112  1.00  0.00     0.002 A 
ATOM     96  C   UNL A   1      45.323  36.365  28.902  1.00  0.00     0.091 A 
ATOM     97  F   UNL A   1      43.992  34.871  27.602  1.00  0.00    -0.205 F 
ATOM     98  C   UNL A   1      46.000  36.641  30.102  1.00  0.00     0.022 A 
BRANCH  96  99
ATOM     99  S   UNL A   1      45.385  37.618  27.615  1.00  0.00     0.127 S 
ATOM    100  O   UNL A   1      43.966  37.912  27.417  1.00  0.00    -0.237 OA
ATOM    101  O   UNL A   1      46.146  38.692  28.256  1.00  0.00    -0.237 OA
ATOM    102  O   UNL A   1      46.061  36.994  26.487  1.00  0.00    -0.744 OA
ENDBRANCH  96  99
ENDBRANCH  69  92
ENDBRANCH  43  44
ENDBRANCH  36  38
ENDBRANCH  35  36
ENDBRANCH  34  35
ENDBRANCH   1  34
TORSDOF 19
ENDMDL
MODEL 3
REMARK VINA RESULT:     -11.5      2.280      7.703
REMARK SMILES COc1cc(NC(=O)[C@@H]2[C@@H](C(=O)OCCOC(=O)c3ccc(-c4c5nc(c(-c6cccc(S(=O)(=O)[O-])c6F)c6ccc([nH]6)c(-c6cccc(S(=O)(=O)[O-])c6F)c6nc(c(-c7cccc(S(=O)(=O)[O-])c7F)c7ccc4[nH]7)C=C6)C=C5)cc3)[C@H]3C=C[C@@H]2C3)ccc1NC(=O)c1ccccc1
REMARK SMILES IDX 14 1 13 2 11 3 12 4 10 5 9 6 85 7 82 8 84 9 86 10 83 11 7 12
REMARK SMILES IDX 6 13 8 15 5 16 3 17 4 18 89 19 88 20 87 21 2 22 1 23 90 24
REMARK SMILES IDX 91 25 92 27 93 28 94 29 98 30 95 31 97 32 96 33 15 34 16 35
REMARK SMILES IDX 17 36 18 37 19 38 20 39 81 40 21 41 80 42 22 43 23 44 24 45
REMARK SMILES IDX 74 46 25 47 79 48 73 49 75 50 26 51 78 52 72 53 71 54 27 56
REMARK SMILES IDX 59 57 39 58 58 59 40 60 43 61 57 62 76 63 41 64 42 65 56 67
REMARK SMILES IDX 77 68 44 69 28 70 29 71 37 72 30 73 32 74 38 75 31 76 33 77
REMARK SMILES IDX 34 78 35 79 36 80 60 81 61 82 69 83 62 84 64 85 70 86 63 87
REMARK SMILES IDX 65 88 66 89 67 90 68 91 45 92 46 93 54 94 47 95 49 96 55 97
REMARK SMILES IDX 48 98 50 99 51 100 52 101 53 102
REMARK H PARENT 6 14 90 26 75 55 43 66
REMARK Flexibility Score: inf
ROOT
ATOM      1  C   UNL A   1      36.079  21.274  24.777  1.00  0.00     0.274 C 
ENDROOT
BRANCH   1   2
ATOM      2  O   UNL A   1      35.457  20.611  25.897  1.00  0.00    -0.462 OA
BRANCH   2   3
ATOM      3  C   UNL A   1      34.176  20.206  25.672  1.00  0.00     0.310 C 
ATOM      4  O   UNL A   1      33.268  20.329  26.484  1.00  0.00    -0.252 OA
BRANCH   3   5
ATOM      5  C   UNL A   1      34.016  19.589  24.292  1.00  0.00     0.119 C 
ATOM      6  C   UNL A   1      32.506  19.558  23.866  1.00  0.00     0.100 C 
ATOM      7  C   UNL A   1      32.255  18.065  23.569  1.00  0.00     0.025 C 
ATOM      8  C   UNL A   1      34.382  18.085  24.275  1.00  0.00     0.027 C 
ATOM      9  C   UNL A   1      32.288  17.334  24.889  1.00  0.00    -0.027 C 
ATOM     10  C   UNL A   1      33.621  17.622  23.027  1.00  0.00     0.017 C 
ATOM     11  C   UNL A   1      33.562  17.340  25.312  1.00  0.00    -0.027 C 
BRANCH   6  12
ATOM     12  C   UNL A   1      32.133  20.377  22.658  1.00  0.00     0.228 C 
ATOM     13  N   UNL A   1      31.839  21.709  22.766  1.00  0.00    -0.326 N 
ATOM     14  H   UNL A   1      31.510  22.088  21.919  1.00  0.00     0.169 HD
ATOM     15  O   UNL A   1      32.031  19.853  21.545  1.00  0.00    -0.274 OA
BRANCH  13  16
ATOM     16  C   UNL A   1      31.891  22.674  23.800  1.00  0.00     0.045 A 
ATOM     17  C   UNL A   1      31.389  23.671  25.962  1.00  0.00     0.144 A 
ATOM     18  C   UNL A   1      31.259  22.622  25.042  1.00  0.00     0.074 A 
ATOM     19  C   UNL A   1      32.122  24.820  25.661  1.00  0.00     0.084 A 
ATOM     20  C   UNL A   1      32.883  24.799  24.500  1.00  0.00     0.032 A 
ATOM     21  C   UNL A   1      32.753  23.756  23.571  1.00  0.00     0.028 A 
BRANCH  17  22
ATOM     22  O   UNL A   1      30.875  23.488  27.221  1.00  0.00    -0.494 OA
ATOM     23  C   UNL A   1      29.508  23.093  27.216  1.00  0.00     0.278 C 
ENDBRANCH  17  22
BRANCH  19  24
ATOM     24  N   UNL A   1      31.993  25.914  26.536  1.00  0.00    -0.319 N 
ATOM     25  C   UNL A   1      31.400  27.150  26.416  1.00  0.00     0.255 C 
ATOM     26  H   UNL A   1      32.414  25.765  27.414  1.00  0.00     0.170 HD
ATOM     27  O   UNL A   1      31.344  27.904  27.389  1.00  0.00    -0.269 OA
BRANCH  25  28
ATOM     28  C   UNL A   1      30.803  27.619  25.153  1.00  0.00     0.040 A 
ATOM     29  C   UNL A   1      29.815  26.814  24.586  1.00  0.00     0.014 A 
ATOM     30  C   UNL A   1      31.160  28.823  24.541  1.00  0.00     0.014 A 
ATOM     31  C   UNL A   1      29.067  27.274  23.508  1.00  0.00     0.001 A 
ATOM     32  C   UNL A   1      30.413  29.283  23.453  1.00  0.00     0.001 A 
ATOM     33  C   UNL A   1      29.351  28.522  22.959  1.00  0.00     0.000 A 
ENDBRANCH  25  28
ENDBRANCH  19  24
ENDBRANCH  13  16
ENDBRANCH   6  12
ENDBRANCH   3   5
ENDBRANCH   2   3
ENDBRANCH   1   2
BRANCH   1  34
ATOM     34  C   UNL A   1      37.605  21.258  24.874  1.00  0.00     0.275 C 
BRANCH  34  35
ATOM     35  O   UNL A   1      38.062  21.785  26.133  1.00  0.00    -0.458 OA
BRANCH  35  36
ATOM     36  C   UNL A   1      39.389  21.661  26.371  1.00  0.00     0.338 C 
ATOM     37  O   UNL A   1      40.082  20.676  26.191  1.00  0.00    -0.246 OA
BRANCH  36  38
ATOM     38  C   UNL A   1      39.934  22.946  26.837  1.00  0.00     0.060 A 
ATOM     39  C   UNL A   1      39.454  24.113  26.254  1.00  0.00     0.016 A 
ATOM     40  C   UNL A   1      41.006  22.997  27.729  1.00  0.00     0.016 A 
ATOM     41  C   UNL A   1      40.076  25.330  26.518  1.00  0.00     0.010 A 
ATOM     42  C   UNL A   1      41.598  24.235  28.028  1.00  0.00     0.010 A 
ATOM     43  C   UNL A   1      41.159  25.412  27.398  1.00  0.00    -0.014 A 
BRANCH  43  44
ATOM     44  C   UNL A   1      41.861  26.715  27.577  1.00  0.00     0.031 A 
ATOM     45  C   UNL A   1      43.221  26.922  26.964  1.00  0.00     0.074 A 
ATOM     46  C   UNL A   1      41.275  27.729  28.248  1.00  0.00     0.049 A 
ATOM     47  N   UNL A   1      44.033  27.941  27.075  1.00  0.00    -0.248 NA
ATOM     48  C   UNL A   1      43.732  25.841  26.104  1.00  0.00     0.031 C 
ATOM     49  C   UNL A   1      39.932  27.690  28.826  1.00  0.00     0.029 A 
ATOM     50  N   UNL A   1      41.734  28.986  28.566  1.00  0.00    -0.354 N 
ATOM     51  C   UNL A   1      45.178  27.593  26.369  1.00  0.00     0.074 A 
ATOM     52  C   UNL A   1      44.946  26.281  25.806  1.00  0.00     0.031 C 
ATOM     53  C   UNL A   1      39.681  28.860  29.433  1.00  0.00     0.029 A 
ATOM     54  C   UNL A   1      40.866  29.709  29.356  1.00  0.00     0.049 A 
ATOM     55  H   UNL A   1      42.602  29.336  28.260  1.00  0.00     0.167 HD
ATOM     56  C   UNL A   1      46.318  28.304  26.198  1.00  0.00     0.034 A 
ATOM     57  C   UNL A   1      41.021  30.899  29.976  1.00  0.00     0.034 A 
ATOM     58  C   UNL A   1      46.522  29.640  26.689  1.00  0.00     0.049 A 
ATOM     59  C   UNL A   1      42.309  31.661  29.763  1.00  0.00     0.074 A 
ATOM     60  C   UNL A   1      47.632  30.452  26.535  1.00  0.00     0.029 A 
ATOM     61  N   UNL A   1      45.597  30.362  27.424  1.00  0.00    -0.354 N 
ATOM     62  N   UNL A   1      43.322  31.373  28.980  1.00  0.00    -0.248 NA
ATOM     63  C   UNL A   1      42.465  32.931  30.490  1.00  0.00     0.031 C 
ATOM     64  C   UNL A   1      47.380  31.664  27.187  1.00  0.00     0.029 A 
ATOM     65  C   UNL A   1      46.113  31.606  27.743  1.00  0.00     0.049 A 
ATOM     66  H   UNL A   1      44.702  30.038  27.681  1.00  0.00     0.167 HD
ATOM     67  C   UNL A   1      44.209  32.440  29.090  1.00  0.00     0.074 A 
ATOM     68  C   UNL A   1      43.594  33.403  29.980  1.00  0.00     0.031 C 
ATOM     69  C   UNL A   1      45.439  32.597  28.542  1.00  0.00     0.034 A 
BRANCH  56  70
ATOM     70  C   UNL A   1      47.441  27.652  25.437  1.00  0.00     0.023 A 
ATOM     71  C   UNL A   1      48.243  26.679  26.064  1.00  0.00     0.012 A 
ATOM     72  C   UNL A   1      47.663  27.969  24.083  1.00  0.00     0.148 A 
ATOM     73  C   UNL A   1      49.267  26.046  25.359  1.00  0.00     0.002 A 
ATOM     74  C   UNL A   1      48.663  27.308  23.377  1.00  0.00     0.091 A 
ATOM     75  F   UNL A   1      46.906  28.917  23.514  1.00  0.00    -0.205 F 
ATOM     76  C   UNL A   1      49.470  26.352  24.015  1.00  0.00     0.022 A 
BRANCH  74  77
ATOM     77  S   UNL A   1      48.948  27.590  21.626  1.00  0.00     0.127 S 
ATOM     78  O   UNL A   1      49.987  26.603  21.333  1.00  0.00    -0.237 OA
ATOM     79  O   UNL A   1      47.640  27.286  21.044  1.00  0.00    -0.237 OA
ATOM     80  O   UNL A   1      49.352  28.983  21.508  1.00  0.00    -0.744 OA
ENDBRANCH  74  77
ENDBRANCH  56  70
BRANCH  57  81
ATOM     81  C   UNL A   1      39.911  31.475  30.804  1.00  0.00     0.023 A 
ATOM     82  C   UNL A   1      38.892  32.207  30.171  1.00  0.00     0.012 A 
ATOM     83  C   UNL A   1      39.826  31.289  32.199  1.00  0.00     0.148 A 
ATOM     84  C   UNL A   1      37.809  32.722  30.884  1.00  0.00     0.002 A 
ATOM     85  C   UNL A   1      38.717  31.752  32.902  1.00  0.00     0.091 A 
ATOM     86  F   UNL A   1      40.826  30.643  32.815  1.00  0.00    -0.205 F 
ATOM     87  C   UNL A   1      37.711  32.478  32.248  1.00  0.00     0.022 A 
BRANCH  85  88
ATOM     88  S   UNL A   1      38.453  31.399  34.644  1.00  0.00     0.127 S 
ATOM     89  O   UNL A   1      39.560  32.122  35.267  1.00  0.00    -0.237 OA
ATOM     90  O   UNL A   1      37.130  31.981  34.872  1.00  0.00    -0.237 OA
ATOM     91  O   UNL A   1      38.506  29.950  34.768  1.00  0.00    -0.744 OA
ENDBRANCH  85  88
ENDBRANCH  57  81
BRANCH  69  92
ATOM     92  C   UNL A   1      46.188  33.869  28.848  1.00  0.00     0.023 A 
ATOM     93  C   UNL A   1      47.108  33.890  29.914  1.00  0.00     0.012 A 
ATOM     94  C   UNL A   1      46.044  35.013  28.038  1.00  0.00     0.148 A 
ATOM     95  C   UNL A   1      47.847  35.039  30.194  1.00  0.00     0.002 A 
ATOM     96  C   UNL A   1      46.817  36.140  28.294  1.00  0.00     0.091 A 
ATOM     97  F   UNL A   1      45.150  34.983  27.038  1.00  0.00    -0.205 F 
ATOM     98  C   UNL A   1      47.710  36.159  29.378  1.00  0.00     0.022 A 
BRANCH  96  99
ATOM     99  S   UNL A   1      46.775  37.592  27.236  1.00  0.00     0.127 S 
ATOM    100  O   UNL A   1      47.118  38.657  28.176  1.00  0.00    -0.237 OA
ATOM    101  O   UNL A   1      47.814  37.292  26.249  1.00  0.00    -0.237 OA
ATOM    102  O   UNL A   1      45.426  37.645  26.690  1.00  0.00    -0.744 OA
ENDBRANCH  96  99
ENDBRANCH  69  92
ENDBRANCH  43  44
ENDBRANCH  36  38
ENDBRANCH  35  36
ENDBRANCH  34  35
ENDBRANCH   1  34
TORSDOF 19
ENDMDL
