MODEL 1
REMARK VINA RESULT:     -11.9      0.000      0.000
REMARK SMILES Cc1nn(C)c(C)c1CN(C)C(=O)[C@@H]1CC=CC[C@@H]1C(=O)OCCOC(=O)c1ccc(-c2c3nc(c(-c4cccc(S(=O)(=O)[O-])c4F)c4ccc([nH]4)c(-c4cccc(S(=O)(=O)[O-])c4F)c4nc(c(-c5cccc(S(=O)(=O)[O-])c5F)c5ccc2[nH]5)C=C4)C=C3)cc1
REMARK SMILES IDX 23 1 22 2 20 3 21 4 19 5 14 6 15 7 16 8 18 9 17 10 12 11
REMARK SMILES IDX 13 12 10 13 11 14 9 15 8 16 1 17 2 18 3 19 4 20 6 21 5 22
REMARK SMILES IDX 7 23 24 24 25 25 26 26 27 27 28 28 29 29 90 30 30 31 89 32
REMARK SMILES IDX 31 33 32 34 33 35 83 36 34 37 88 38 82 39 84 40 35 41 87 42
REMARK SMILES IDX 81 43 80 44 36 46 68 47 48 48 67 49 49 50 52 51 66 52 85 53
REMARK SMILES IDX 50 54 51 55 65 57 86 58 53 59 37 60 38 61 46 62 39 63 41 64
REMARK SMILES IDX 47 65 40 66 42 67 43 68 44 69 45 70 69 71 70 72 78 73 71 74
REMARK SMILES IDX 73 75 79 76 72 77 74 78 75 79 76 80 77 81 54 82 55 83 63 84
REMARK SMILES IDX 56 85 58 86 64 87 57 88 59 89 60 90 61 91 62 92
REMARK H PARENT 84 45 52 56
REMARK Flexibility Score: inf
ROOT
ATOM      1  C   UNL A   1      36.419  19.702  24.956  1.00  0.00     0.274 C 
ENDROOT
BRANCH   1   2
ATOM      2  O   UNL A   1      35.870  21.041  24.897  1.00  0.00    -0.462 OA
BRANCH   2   3
ATOM      3  C   UNL A   1      34.809  21.295  25.723  1.00  0.00     0.310 C 
ATOM      4  O   UNL A   1      33.828  20.568  25.797  1.00  0.00    -0.252 OA
BRANCH   3   5
ATOM      5  C   UNL A   1      34.962  22.663  26.405  1.00  0.00     0.115 C 
ATOM      6  C   UNL A   1      33.778  23.641  26.221  1.00  0.00     0.097 C 
ATOM      7  C   UNL A   1      33.515  23.928  24.728  1.00  0.00     0.041 C 
ATOM      8  C   UNL A   1      34.795  24.231  23.990  1.00  0.00    -0.030 C 
ATOM      9  C   UNL A   1      36.228  23.343  25.845  1.00  0.00     0.043 C 
ATOM     10  C   UNL A   1      36.013  23.997  24.503  1.00  0.00    -0.030 C 
BRANCH   6  11
ATOM     11  C   UNL A   1      32.519  23.242  26.990  1.00  0.00     0.226 C 
ATOM     12  O   UNL A   1      32.607  22.725  28.098  1.00  0.00    -0.275 OA
BRANCH  11  13
ATOM     13  N   UNL A   1      31.306  23.371  26.320  1.00  0.00    -0.341 N 
ATOM     14  C   UNL A   1      30.731  22.201  25.691  1.00  0.00     0.147 C 
BRANCH  13  15
ATOM     15  C   UNL A   1      30.443  24.551  26.505  1.00  0.00     0.158 C 
BRANCH  15  16
ATOM     16  C   UNL A   1      30.704  25.684  25.579  1.00  0.00     0.015 A 
ATOM     17  C   UNL A   1      31.753  27.485  27.209  1.00  0.00     0.069 C 
ATOM     18  C   UNL A   1      31.226  26.970  25.920  1.00  0.00     0.065 A 
ATOM     19  N   UNL A   1      31.255  27.782  24.861  1.00  0.00    -0.178 NA
ATOM     20  N   UNL A   1      30.679  27.065  23.885  1.00  0.00    -0.272 N 
ATOM     21  C   UNL A   1      30.560  25.740  24.200  1.00  0.00     0.040 A 
ATOM     22  C   UNL A   1      30.238  27.735  22.686  1.00  0.00     0.174 C 
ATOM     23  C   UNL A   1      30.234  24.704  23.197  1.00  0.00     0.067 C 
ENDBRANCH  15  16
ENDBRANCH  13  15
ENDBRANCH  11  13
ENDBRANCH   6  11
ENDBRANCH   3   5
ENDBRANCH   2   3
ENDBRANCH   1   2
BRANCH   1  24
ATOM     24  C   UNL A   1      37.948  19.641  25.115  1.00  0.00     0.275 C 
BRANCH  24  25
ATOM     25  O   UNL A   1      38.553  20.910  25.451  1.00  0.00    -0.458 OA
BRANCH  25  26
ATOM     26  C   UNL A   1      39.711  20.763  26.130  1.00  0.00     0.338 C 
ATOM     27  O   UNL A   1      40.467  19.810  25.998  1.00  0.00    -0.246 OA
BRANCH  26  28
ATOM     28  C   UNL A   1      40.069  21.889  27.016  1.00  0.00     0.060 A 
ATOM     29  C   UNL A   1      39.606  23.121  26.593  1.00  0.00     0.016 A 
ATOM     30  C   UNL A   1      41.060  21.838  27.998  1.00  0.00     0.016 A 
ATOM     31  C   UNL A   1      40.234  24.295  26.996  1.00  0.00     0.010 A 
ATOM     32  C   UNL A   1      41.623  23.041  28.493  1.00  0.00     0.010 A 
ATOM     33  C   UNL A   1      41.256  24.288  27.957  1.00  0.00    -0.014 A 
BRANCH  33  34
ATOM     34  C   UNL A   1      41.837  25.615  28.347  1.00  0.00     0.031 A 
ATOM     35  C   UNL A   1      43.268  26.010  28.052  1.00  0.00     0.074 A 
ATOM     36  C   UNL A   1      41.002  26.567  28.816  1.00  0.00     0.049 A 
ATOM     37  N   UNL A   1      43.792  27.217  28.020  1.00  0.00    -0.248 NA
ATOM     38  C   UNL A   1      44.221  24.950  27.702  1.00  0.00     0.031 C 
ATOM     39  C   UNL A   1      39.587  26.362  29.140  1.00  0.00     0.029 A 
ATOM     40  N   UNL A   1      41.209  27.901  29.081  1.00  0.00    -0.354 N 
ATOM     41  C   UNL A   1      45.083  27.066  27.522  1.00  0.00     0.074 A 
ATOM     42  C   UNL A   1      45.304  25.645  27.370  1.00  0.00     0.031 C 
ATOM     43  C   UNL A   1      39.054  27.521  29.547  1.00  0.00     0.029 A 
ATOM     44  C   UNL A   1      40.099  28.540  29.578  1.00  0.00     0.049 A 
ATOM     45  H   UNL A   1      42.069  28.354  28.928  1.00  0.00     0.167 HD
ATOM     46  C   UNL A   1      45.960  28.027  27.134  1.00  0.00     0.034 A 
ATOM     47  C   UNL A   1      39.934  29.791  30.050  1.00  0.00     0.034 A 
ATOM     48  C   UNL A   1      45.793  29.436  27.383  1.00  0.00     0.049 A 
ATOM     49  C   UNL A   1      41.069  30.767  29.959  1.00  0.00     0.074 A 
ATOM     50  C   UNL A   1      46.653  30.474  27.065  1.00  0.00     0.029 A 
ATOM     51  N   UNL A   1      44.733  29.997  28.075  1.00  0.00    -0.354 N 
ATOM     52  N   UNL A   1      42.203  30.647  29.315  1.00  0.00    -0.248 NA
ATOM     53  C   UNL A   1      40.895  32.058  30.638  1.00  0.00     0.031 C 
ATOM     54  C   UNL A   1      46.141  31.655  27.619  1.00  0.00     0.029 A 
ATOM     55  C   UNL A   1      44.952  31.354  28.259  1.00  0.00     0.049 A 
ATOM     56  H   UNL A   1      43.941  29.506  28.389  1.00  0.00     0.167 HD
ATOM     57  C   UNL A   1      42.868  31.854  29.487  1.00  0.00     0.074 A 
ATOM     58  C   UNL A   1      42.000  32.700  30.280  1.00  0.00     0.031 C 
ATOM     59  C   UNL A   1      44.092  32.217  29.031  1.00  0.00     0.034 A 
BRANCH  46  60
ATOM     60  C   UNL A   1      47.153  27.609  26.312  1.00  0.00     0.023 A 
ATOM     61  C   UNL A   1      48.183  26.888  26.952  1.00  0.00     0.012 A 
ATOM     62  C   UNL A   1      47.220  27.808  24.923  1.00  0.00     0.148 A 
ATOM     63  C   UNL A   1      49.276  26.399  26.239  1.00  0.00     0.002 A 
ATOM     64  C   UNL A   1      48.301  27.293  24.208  1.00  0.00     0.091 A 
ATOM     65  F   UNL A   1      46.232  28.488  24.327  1.00  0.00    -0.205 F 
ATOM     66  C   UNL A   1      49.330  26.596  24.864  1.00  0.00     0.022 A 
BRANCH  64  67
ATOM     67  S   UNL A   1      48.437  27.429  22.422  1.00  0.00     0.127 S 
ATOM     68  O   UNL A   1      49.651  28.233  22.279  1.00  0.00    -0.237 OA
ATOM     69  O   UNL A   1      48.581  26.031  22.014  1.00  0.00    -0.237 OA
ATOM     70  O   UNL A   1      47.208  28.069  21.974  1.00  0.00    -0.744 OA
ENDBRANCH  64  67
ENDBRANCH  46  60
BRANCH  47  71
ATOM     71  C   UNL A   1      38.646  30.161  30.704  1.00  0.00     0.023 A 
ATOM     72  C   UNL A   1      38.415  29.865  32.058  1.00  0.00     0.012 A 
ATOM     73  C   UNL A   1      37.654  30.844  29.971  1.00  0.00     0.148 A 
ATOM     74  C   UNL A   1      37.214  30.238  32.667  1.00  0.00     0.002 A 
ATOM     75  C   UNL A   1      36.496  31.277  30.600  1.00  0.00     0.091 A 
ATOM     76  F   UNL A   1      37.866  31.071  28.666  1.00  0.00    -0.205 F 
ATOM     77  C   UNL A   1      36.265  30.960  31.946  1.00  0.00     0.022 A 
BRANCH  75  78
ATOM     78  S   UNL A   1      35.316  32.342  29.764  1.00  0.00     0.127 S 
ATOM     79  O   UNL A   1      34.343  32.600  30.821  1.00  0.00    -0.237 OA
ATOM     80  O   UNL A   1      36.144  33.491  29.395  1.00  0.00    -0.237 OA
ATOM     81  O   UNL A   1      34.837  31.567  28.626  1.00  0.00    -0.744 OA
ENDBRANCH  75  78
ENDBRANCH  47  71
BRANCH  59  82
ATOM     82  C   UNL A   1      44.580  33.599  29.379  1.00  0.00     0.023 A 
ATOM     83  C   UNL A   1      45.079  33.853  30.672  1.00  0.00     0.012 A 
ATOM     84  C   UNL A   1      44.576  34.638  28.428  1.00  0.00     0.148 A 
ATOM     85  C   UNL A   1      45.529  35.125  31.025  1.00  0.00     0.002 A 
ATOM     86  C   UNL A   1      45.072  35.891  28.772  1.00  0.00     0.091 A 
ATOM     87  F   UNL A   1      44.072  34.393  27.210  1.00  0.00    -0.205 F 
ATOM     88  C   UNL A   1      45.536  36.141  30.073  1.00  0.00     0.022 A 
BRANCH  86  89
ATOM     89  S   UNL A   1      45.205  37.220  27.570  1.00  0.00     0.127 S 
ATOM     90  O   UNL A   1      43.802  37.545  27.324  1.00  0.00    -0.237 OA
ATOM     91  O   UNL A   1      45.946  38.244  28.308  1.00  0.00    -0.237 OA
ATOM     92  O   UNL A   1      45.932  36.654  26.441  1.00  0.00    -0.744 OA
ENDBRANCH  86  89
ENDBRANCH  59  82
ENDBRANCH  33  34
ENDBRANCH  26  28
ENDBRANCH  25  26
ENDBRANCH  24  25
ENDBRANCH   1  24
TORSDOF 18
ENDMDL
MODEL 2
REMARK VINA RESULT:     -11.6      1.516      2.076
REMARK SMILES Cc1nn(C)c(C)c1CN(C)C(=O)[C@@H]1CC=CC[C@@H]1C(=O)OCCOC(=O)c1ccc(-c2c3nc(c(-c4cccc(S(=O)(=O)[O-])c4F)c4ccc([nH]4)c(-c4cccc(S(=O)(=O)[O-])c4F)c4nc(c(-c5cccc(S(=O)(=O)[O-])c5F)c5ccc2[nH]5)C=C4)C=C3)cc1
REMARK SMILES IDX 23 1 22 2 20 3 21 4 19 5 14 6 15 7 16 8 18 9 17 10 12 11
REMARK SMILES IDX 13 12 10 13 11 14 9 15 8 16 1 17 2 18 3 19 4 20 6 21 5 22
REMARK SMILES IDX 7 23 24 24 25 25 26 26 27 27 28 28 29 29 90 30 30 31 89 32
REMARK SMILES IDX 31 33 32 34 33 35 83 36 34 37 88 38 82 39 84 40 35 41 87 42
REMARK SMILES IDX 81 43 80 44 36 46 68 47 48 48 67 49 49 50 52 51 66 52 85 53
REMARK SMILES IDX 50 54 51 55 65 57 86 58 53 59 37 60 38 61 46 62 39 63 41 64
REMARK SMILES IDX 47 65 40 66 42 67 43 68 44 69 45 70 69 71 70 72 78 73 71 74
REMARK SMILES IDX 73 75 79 76 72 77 74 78 75 79 76 80 77 81 54 82 55 83 63 84
REMARK SMILES IDX 56 85 58 86 64 87 57 88 59 89 60 90 61 91 62 92
REMARK H PARENT 84 45 52 56
REMARK Flexibility Score: inf
ROOT
ATOM      1  C   UNL A   1      35.406  21.239  24.698  1.00  0.00     0.274 C 
ENDROOT
BRANCH   1   2
ATOM      2  O   UNL A   1      35.398  22.671  24.478  1.00  0.00    -0.462 OA
BRANCH   2   3
ATOM      3  C   UNL A   1      34.556  23.400  25.274  1.00  0.00     0.310 C 
ATOM      4  O   UNL A   1      34.335  23.125  26.445  1.00  0.00    -0.252 OA
BRANCH   3   5
ATOM      5  C   UNL A   1      33.839  24.487  24.459  1.00  0.00     0.115 C 
ATOM      6  C   UNL A   1      32.326  24.647  24.740  1.00  0.00     0.097 C 
ATOM      7  C   UNL A   1      31.565  23.331  24.474  1.00  0.00     0.041 C 
ATOM      8  C   UNL A   1      31.972  22.713  23.160  1.00  0.00    -0.030 C 
ATOM      9  C   UNL A   1      34.009  24.160  22.961  1.00  0.00     0.043 C 
ATOM     10  C   UNL A   1      33.052  23.105  22.466  1.00  0.00    -0.030 C 
BRANCH   6  11
ATOM     11  C   UNL A   1      32.010  25.263  26.102  1.00  0.00     0.226 C 
ATOM     12  O   UNL A   1      31.637  24.555  27.031  1.00  0.00    -0.275 OA
BRANCH  11  13
ATOM     13  N   UNL A   1      32.039  26.651  26.186  1.00  0.00    -0.341 N 
ATOM     14  C   UNL A   1      31.846  27.275  27.477  1.00  0.00     0.147 C 
BRANCH  13  15
ATOM     15  C   UNL A   1      32.575  27.479  25.091  1.00  0.00     0.158 C 
BRANCH  15  16
ATOM     16  C   UNL A   1      31.588  28.362  24.416  1.00  0.00     0.015 A 
ATOM     17  C   UNL A   1      31.714  30.550  25.899  1.00  0.00     0.069 C 
ATOM     18  C   UNL A   1      31.193  29.676  24.818  1.00  0.00     0.065 A 
ATOM     19  N   UNL A   1      30.223  30.154  24.037  1.00  0.00    -0.178 NA
ATOM     20  N   UNL A   1      29.937  29.138  23.211  1.00  0.00    -0.272 N 
ATOM     21  C   UNL A   1      30.882  28.149  23.240  1.00  0.00     0.040 A 
ATOM     22  C   UNL A   1      28.715  29.174  22.446  1.00  0.00     0.174 C 
ATOM     23  C   UNL A   1      30.952  27.077  22.225  1.00  0.00     0.067 C 
ENDBRANCH  15  16
ENDBRANCH  13  15
ENDBRANCH  11  13
ENDBRANCH   6  11
ENDBRANCH   3   5
ENDBRANCH   2   3
ENDBRANCH   1   2
BRANCH   1  24
ATOM     24  C   UNL A   1      36.793  20.641  24.987  1.00  0.00     0.275 C 
BRANCH  24  25
ATOM     25  O   UNL A   1      37.863  21.614  24.980  1.00  0.00    -0.458 OA
BRANCH  25  26
ATOM     26  C   UNL A   1      38.906  21.234  25.750  1.00  0.00     0.338 C 
ATOM     27  O   UNL A   1      39.461  20.148  25.666  1.00  0.00    -0.246 OA
BRANCH  26  28
ATOM     28  C   UNL A   1      39.408  22.265  26.682  1.00  0.00     0.060 A 
ATOM     29  C   UNL A   1      38.924  23.538  26.442  1.00  0.00     0.016 A 
ATOM     30  C   UNL A   1      40.519  22.107  27.511  1.00  0.00     0.016 A 
ATOM     31  C   UNL A   1      39.630  24.659  26.865  1.00  0.00     0.010 A 
ATOM     32  C   UNL A   1      41.174  23.249  28.035  1.00  0.00     0.010 A 
ATOM     33  C   UNL A   1      40.771  24.547  27.674  1.00  0.00    -0.014 A 
BRANCH  33  34
ATOM     34  C   UNL A   1      41.433  25.823  28.104  1.00  0.00     0.031 A 
ATOM     35  C   UNL A   1      42.856  26.182  27.733  1.00  0.00     0.074 A 
ATOM     36  C   UNL A   1      40.673  26.772  28.691  1.00  0.00     0.049 A 
ATOM     37  N   UNL A   1      43.426  27.368  27.740  1.00  0.00    -0.248 NA
ATOM     38  C   UNL A   1      43.737  25.112  27.249  1.00  0.00     0.031 C 
ATOM     39  C   UNL A   1      39.277  26.600  29.102  1.00  0.00     0.029 A 
ATOM     40  N   UNL A   1      40.954  28.077  29.024  1.00  0.00    -0.354 N 
ATOM     41  C   UNL A   1      44.672  27.202  27.142  1.00  0.00     0.074 A 
ATOM     42  C   UNL A   1      44.823  25.787  26.886  1.00  0.00     0.031 C 
ATOM     43  C   UNL A   1      38.823  27.748  29.618  1.00  0.00     0.029 A 
ATOM     44  C   UNL A   1      39.909  28.723  29.639  1.00  0.00     0.049 A 
ATOM     45  H   UNL A   1      41.820  28.506  28.839  1.00  0.00     0.167 HD
ATOM     46  C   UNL A   1      45.560  28.152  26.754  1.00  0.00     0.034 A 
ATOM     47  C   UNL A   1      39.830  29.945  30.200  1.00  0.00     0.034 A 
ATOM     48  C   UNL A   1      45.471  29.547  27.103  1.00  0.00     0.049 A 
ATOM     49  C   UNL A   1      40.996  30.882  30.089  1.00  0.00     0.074 A 
ATOM     50  C   UNL A   1      46.350  30.571  26.790  1.00  0.00     0.029 A 
ATOM     51  N   UNL A   1      44.486  30.101  27.903  1.00  0.00    -0.354 N 
ATOM     52  N   UNL A   1      42.077  30.762  29.360  1.00  0.00    -0.248 NA
ATOM     53  C   UNL A   1      40.924  32.131  30.860  1.00  0.00     0.031 C 
ATOM     54  C   UNL A   1      45.927  31.731  27.453  1.00  0.00     0.029 A 
ATOM     55  C   UNL A   1      44.773  31.434  28.156  1.00  0.00     0.049 A 
ATOM     56  H   UNL A   1      43.697  29.620  28.241  1.00  0.00     0.167 HD
ATOM     57  C   UNL A   1      42.802  31.929  29.560  1.00  0.00     0.074 A 
ATOM     58  C   UNL A   1      42.027  32.753  30.465  1.00  0.00     0.031 C 
ATOM     59  C   UNL A   1      44.006  32.276  29.041  1.00  0.00     0.034 A 
BRANCH  46  60
ATOM     60  C   UNL A   1      46.675  27.745  25.824  1.00  0.00     0.023 A 
ATOM     61  C   UNL A   1      46.481  27.915  24.437  1.00  0.00     0.012 A 
ATOM     62  C   UNL A   1      47.930  27.318  26.290  1.00  0.00     0.148 A 
ATOM     63  C   UNL A   1      47.497  27.638  23.524  1.00  0.00     0.002 A 
ATOM     64  C   UNL A   1      48.952  27.069  25.376  1.00  0.00     0.091 A 
ATOM     65  F   UNL A   1      48.102  27.168  27.611  1.00  0.00    -0.205 F 
ATOM     66  C   UNL A   1      48.736  27.221  23.996  1.00  0.00     0.022 A 
BRANCH  64  67
ATOM     67  S   UNL A   1      50.610  26.594  25.880  1.00  0.00     0.127 S 
ATOM     68  O   UNL A   1      50.357  25.333  26.577  1.00  0.00    -0.237 OA
ATOM     69  O   UNL A   1      51.297  26.452  24.596  1.00  0.00    -0.237 OA
ATOM     70  O   UNL A   1      51.102  27.681  26.714  1.00  0.00    -0.744 OA
ENDBRANCH  64  67
ENDBRANCH  46  60
BRANCH  47  71
ATOM     71  C   UNL A   1      38.607  30.319  30.966  1.00  0.00     0.023 A 
ATOM     72  C   UNL A   1      38.475  29.978  32.323  1.00  0.00     0.012 A 
ATOM     73  C   UNL A   1      37.578  31.052  30.339  1.00  0.00     0.148 A 
ATOM     74  C   UNL A   1      37.335  30.355  33.038  1.00  0.00     0.002 A 
ATOM     75  C   UNL A   1      36.484  31.487  31.073  1.00  0.00     0.091 A 
ATOM     76  F   UNL A   1      37.693  31.323  29.030  1.00  0.00    -0.205 F 
ATOM     77  C   UNL A   1      36.351  31.125  32.420  1.00  0.00     0.022 A 
BRANCH  75  78
ATOM     78  S   UNL A   1      35.271  32.610  30.371  1.00  0.00     0.127 S 
ATOM     79  O   UNL A   1      36.103  33.744  29.979  1.00  0.00    -0.237 OA
ATOM     80  O   UNL A   1      34.730  31.827  29.259  1.00  0.00    -0.237 OA
ATOM     81  O   UNL A   1      34.313  32.858  31.442  1.00  0.00    -0.744 OA
ENDBRANCH  75  78
ENDBRANCH  47  71
BRANCH  59  82
ATOM     82  C   UNL A   1      44.575  33.612  29.439  1.00  0.00     0.023 A 
ATOM     83  C   UNL A   1      45.543  33.677  30.461  1.00  0.00     0.012 A 
ATOM     84  C   UNL A   1      44.180  34.799  28.791  1.00  0.00     0.148 A 
ATOM     85  C   UNL A   1      46.080  34.901  30.858  1.00  0.00     0.002 A 
ATOM     86  C   UNL A   1      44.756  36.011  29.158  1.00  0.00     0.091 A 
ATOM     87  F   UNL A   1      43.237  34.729  27.841  1.00  0.00    -0.205 F 
ATOM     88  C   UNL A   1      45.696  36.066  30.199  1.00  0.00     0.022 A 
BRANCH  86  89
ATOM     89  S   UNL A   1      44.384  37.538  28.288  1.00  0.00     0.127 S 
ATOM     90  O   UNL A   1      43.029  37.826  28.752  1.00  0.00    -0.237 OA
ATOM     91  O   UNL A   1      45.408  38.451  28.796  1.00  0.00    -0.237 OA
ATOM     92  O   UNL A   1      44.516  37.222  26.872  1.00  0.00    -0.744 OA
ENDBRANCH  86  89
ENDBRANCH  59  82
ENDBRANCH  33  34
ENDBRANCH  26  28
ENDBRANCH  25  26
ENDBRANCH  24  25
ENDBRANCH   1  24
TORSDOF 18
ENDMDL
MODEL 3
REMARK VINA RESULT:     -11.6      5.145     10.236
REMARK SMILES Cc1nn(C)c(C)c1CN(C)C(=O)[C@@H]1CC=CC[C@@H]1C(=O)OCCOC(=O)c1ccc(-c2c3nc(c(-c4cccc(S(=O)(=O)[O-])c4F)c4ccc([nH]4)c(-c4cccc(S(=O)(=O)[O-])c4F)c4nc(c(-c5cccc(S(=O)(=O)[O-])c5F)c5ccc2[nH]5)C=C4)C=C3)cc1
REMARK SMILES IDX 23 1 22 2 20 3 21 4 19 5 14 6 15 7 16 8 18 9 17 10 12 11
REMARK SMILES IDX 13 12 10 13 11 14 9 15 8 16 1 17 2 18 3 19 4 20 6 21 5 22
REMARK SMILES IDX 7 23 24 24 25 25 26 26 27 27 28 28 29 29 90 30 30 31 89 32
REMARK SMILES IDX 31 33 32 34 33 35 83 36 34 37 88 38 82 39 84 40 35 41 87 42
REMARK SMILES IDX 81 43 80 44 36 46 68 47 48 48 67 49 49 50 52 51 66 52 85 53
REMARK SMILES IDX 50 54 51 55 65 57 86 58 53 59 37 60 38 61 46 62 39 63 41 64
REMARK SMILES IDX 47 65 40 66 42 67 43 68 44 69 45 70 69 71 70 72 78 73 71 74
REMARK SMILES IDX 73 75 79 76 72 77 74 78 75 79 76 80 77 81 54 82 55 83 63 84
REMARK SMILES IDX 56 85 58 86 64 87 57 88 59 89 60 90 61 91 62 92
REMARK H PARENT 84 45 52 56
REMARK Flexibility Score: inf
ROOT
ATOM      1  C   UNL A   1      31.826  29.255  25.390  1.00  0.00     0.274 C 
ENDROOT
BRANCH   1   2
ATOM      2  O   UNL A   1      32.300  28.095  26.118  1.00  0.00    -0.462 OA
BRANCH   2   3
ATOM      3  C   UNL A   1      33.007  27.174  25.394  1.00  0.00     0.310 C 
ATOM      4  O   UNL A   1      33.802  27.479  24.515  1.00  0.00    -0.252 OA
BRANCH   3   5
ATOM      5  C   UNL A   1      32.556  25.746  25.735  1.00  0.00     0.115 C 
ATOM      6  C   UNL A   1      32.625  24.725  24.575  1.00  0.00     0.097 C 
ATOM      7  C   UNL A   1      31.764  25.179  23.378  1.00  0.00     0.041 C 
ATOM      8  C   UNL A   1      30.399  25.642  23.822  1.00  0.00    -0.030 C 
ATOM      9  C   UNL A   1      31.094  25.806  26.225  1.00  0.00     0.043 C 
ATOM     10  C   UNL A   1      30.090  25.894  25.103  1.00  0.00    -0.030 C 
BRANCH   6  11
ATOM     11  C   UNL A   1      34.048  24.331  24.181  1.00  0.00     0.226 C 
ATOM     12  O   UNL A   1      34.449  24.515  23.037  1.00  0.00    -0.275 OA
BRANCH  11  13
ATOM     13  N   UNL A   1      34.796  23.645  25.133  1.00  0.00    -0.341 N 
ATOM     14  C   UNL A   1      36.163  24.057  25.374  1.00  0.00     0.147 C 
BRANCH  13  15
ATOM     15  C   UNL A   1      34.160  22.751  26.117  1.00  0.00     0.158 C 
BRANCH  15  16
ATOM     16  C   UNL A   1      33.640  21.469  25.572  1.00  0.00     0.015 A 
ATOM     17  C   UNL A   1      31.033  21.916  25.531  1.00  0.00     0.069 C 
ATOM     18  C   UNL A   1      32.270  21.111  25.376  1.00  0.00     0.065 A 
ATOM     19  N   UNL A   1      32.151  19.852  24.950  1.00  0.00    -0.178 NA
ATOM     20  N   UNL A   1      33.407  19.384  24.960  1.00  0.00    -0.272 N 
ATOM     21  C   UNL A   1      34.342  20.374  25.088  1.00  0.00     0.040 A 
ATOM     22  C   UNL A   1      33.628  17.961  24.876  1.00  0.00     0.174 C 
ATOM     23  C   UNL A   1      35.781  20.155  24.835  1.00  0.00     0.067 C 
ENDBRANCH  15  16
ENDBRANCH  13  15
ENDBRANCH  11  13
ENDBRANCH   6  11
ENDBRANCH   3   5
ENDBRANCH   2   3
ENDBRANCH   1   2
BRANCH   1  24
ATOM     24  C   UNL A   1      32.428  30.592  25.852  1.00  0.00     0.275 C 
BRANCH  24  25
ATOM     25  O   UNL A   1      32.723  30.645  27.266  1.00  0.00    -0.458 OA
BRANCH  25  26
ATOM     26  C   UNL A   1      33.409  31.758  27.606  1.00  0.00     0.338 C 
ATOM     27  O   UNL A   1      32.889  32.840  27.840  1.00  0.00    -0.246 OA
BRANCH  26  28
ATOM     28  C   UNL A   1      34.867  31.577  27.759  1.00  0.00     0.060 A 
ATOM     29  C   UNL A   1      35.260  30.273  28.003  1.00  0.00     0.016 A 
ATOM     30  C   UNL A   1      35.772  32.613  27.995  1.00  0.00     0.016 A 
ATOM     31  C   UNL A   1      36.465  30.001  28.642  1.00  0.00     0.010 A 
ATOM     32  C   UNL A   1      37.047  32.323  28.543  1.00  0.00     0.010 A 
ATOM     33  C   UNL A   1      37.391  31.015  28.927  1.00  0.00    -0.014 A 
BRANCH  33  34
ATOM     34  C   UNL A   1      38.676  30.603  29.584  1.00  0.00     0.031 A 
ATOM     35  C   UNL A   1      39.141  31.160  30.912  1.00  0.00     0.074 A 
ATOM     36  C   UNL A   1      39.357  29.560  29.062  1.00  0.00     0.049 A 
ATOM     37  N   UNL A   1      40.029  30.657  31.742  1.00  0.00    -0.248 NA
ATOM     38  C   UNL A   1      38.513  32.393  31.404  1.00  0.00     0.031 C 
ATOM     39  C   UNL A   1      39.036  28.892  27.797  1.00  0.00     0.029 A 
ATOM     40  N   UNL A   1      40.442  28.862  29.535  1.00  0.00    -0.354 N 
ATOM     41  C   UNL A   1      39.964  31.433  32.896  1.00  0.00     0.074 A 
ATOM     42  C   UNL A   1      39.035  32.506  32.621  1.00  0.00     0.031 C 
ATOM     43  C   UNL A   1      39.892  27.882  27.601  1.00  0.00     0.029 A 
ATOM     44  C   UNL A   1      40.865  27.866  28.688  1.00  0.00     0.049 A 
ATOM     45  H   UNL A   1      40.874  29.056  30.398  1.00  0.00     0.167 HD
ATOM     46  C   UNL A   1      40.548  31.211  34.101  1.00  0.00     0.034 A 
ATOM     47  C   UNL A   1      41.937  27.051  28.744  1.00  0.00     0.034 A 
ATOM     48  C   UNL A   1      41.558  30.214  34.350  1.00  0.00     0.049 A 
ATOM     49  C   UNL A   1      42.822  27.082  29.954  1.00  0.00     0.074 A 
ATOM     50  C   UNL A   1      42.235  29.950  35.529  1.00  0.00     0.029 A 
ATOM     51  N   UNL A   1      42.087  29.367  33.391  1.00  0.00    -0.354 N 
ATOM     52  N   UNL A   1      42.625  27.689  31.098  1.00  0.00    -0.248 NA
ATOM     53  C   UNL A   1      44.066  26.302  29.892  1.00  0.00     0.031 C 
ATOM     54  C   UNL A   1      43.218  28.986  35.265  1.00  0.00     0.029 A 
ATOM     55  C   UNL A   1      43.133  28.633  33.930  1.00  0.00     0.049 A 
ATOM     56  H   UNL A   1      41.768  29.296  32.463  1.00  0.00     0.167 HD
ATOM     57  C   UNL A   1      43.703  27.343  31.903  1.00  0.00     0.074 A 
ATOM     58  C   UNL A   1      44.542  26.457  31.121  1.00  0.00     0.031 C 
ATOM     59  C   UNL A   1      43.969  27.735  33.173  1.00  0.00     0.034 A 
BRANCH  46  60
ATOM     60  C   UNL A   1      40.055  32.002  35.286  1.00  0.00     0.023 A 
ATOM     61  C   UNL A   1      40.456  33.350  35.401  1.00  0.00     0.012 A 
ATOM     62  C   UNL A   1      39.127  31.485  36.206  1.00  0.00     0.148 A 
ATOM     63  C   UNL A   1      39.974  34.164  36.424  1.00  0.00     0.002 A 
ATOM     64  C   UNL A   1      38.625  32.311  37.210  1.00  0.00     0.091 A 
ATOM     65  F   UNL A   1      38.749  30.206  36.080  1.00  0.00    -0.205 F 
ATOM     66  C   UNL A   1      39.052  33.645  37.325  1.00  0.00     0.022 A 
BRANCH  64  67
ATOM     67  S   UNL A   1      37.379  31.765  38.384  1.00  0.00     0.127 S 
ATOM     68  O   UNL A   1      38.072  31.952  39.659  1.00  0.00    -0.237 OA
ATOM     69  O   UNL A   1      36.288  32.708  38.141  1.00  0.00    -0.237 OA
ATOM     70  O   UNL A   1      37.078  30.383  38.034  1.00  0.00    -0.744 OA
ENDBRANCH  64  67
ENDBRANCH  46  60
BRANCH  47  71
ATOM     71  C   UNL A   1      42.251  26.177  27.578  1.00  0.00     0.023 A 
ATOM     72  C   UNL A   1      43.041  26.650  26.516  1.00  0.00     0.012 A 
ATOM     73  C   UNL A   1      41.781  24.848  27.546  1.00  0.00     0.148 A 
ATOM     74  C   UNL A   1      43.350  25.814  25.440  1.00  0.00     0.002 A 
ATOM     75  C   UNL A   1      42.152  24.001  26.512  1.00  0.00     0.091 A 
ATOM     76  F   UNL A   1      40.984  24.428  28.540  1.00  0.00    -0.205 F 
ATOM     77  C   UNL A   1      42.923  24.487  25.447  1.00  0.00     0.022 A 
BRANCH  75  78
ATOM     78  S   UNL A   1      41.766  22.248  26.550  1.00  0.00     0.127 S 
ATOM     79  O   UNL A   1      42.312  21.848  27.844  1.00  0.00    -0.237 OA
ATOM     80  O   UNL A   1      40.304  22.251  26.472  1.00  0.00    -0.237 OA
ATOM     81  O   UNL A   1      42.420  21.684  25.376  1.00  0.00    -0.744 OA
ENDBRANCH  75  78
ENDBRANCH  47  71
BRANCH  59  82
ATOM     82  C   UNL A   1      45.230  27.212  33.811  1.00  0.00     0.023 A 
ATOM     83  C   UNL A   1      46.410  27.980  33.746  1.00  0.00     0.012 A 
ATOM     84  C   UNL A   1      45.248  25.982  34.497  1.00  0.00     0.148 A 
ATOM     85  C   UNL A   1      47.594  27.516  34.320  1.00  0.00     0.002 A 
ATOM     86  C   UNL A   1      46.420  25.549  35.108  1.00  0.00     0.091 A 
ATOM     87  F   UNL A   1      44.127  25.246  34.527  1.00  0.00    -0.205 F 
ATOM     88  C   UNL A   1      47.597  26.307  35.010  1.00  0.00     0.022 A 
BRANCH  86  89
ATOM     89  S   UNL A   1      46.474  24.050  36.099  1.00  0.00     0.127 S 
ATOM     90  O   UNL A   1      45.623  24.407  37.232  1.00  0.00    -0.237 OA
ATOM     91  O   UNL A   1      45.898  23.052  35.196  1.00  0.00    -0.237 OA
ATOM     92  O   UNL A   1      47.882  23.836  36.405  1.00  0.00    -0.744 OA
ENDBRANCH  86  89
ENDBRANCH  59  82
ENDBRANCH  33  34
ENDBRANCH  26  28
ENDBRANCH  25  26
ENDBRANCH  24  25
ENDBRANCH   1  24
TORSDOF 18
ENDMDL
