MODEL 1
REMARK VINA RESULT:     -11.9      0.000      0.000
REMARK SMILES O=C(OCCOC(=O)c1cn(C[C@@H]2CCS(=O)(=O)C2)c(=O)[nH]c1=O)c1ccc(-c2c3nc(c(-c4cccc(S(=O)(=O)[O-])c4F)c4ccc([nH]4)c(-c4cccc(S(=O)(=O)[O-])c4F)c4nc(c(-c5cccc(S(=O)(=O)[O-])c5F)c5ccc2[nH]5)C=C4)C=C3)cc1
REMARK SMILES IDX 4 1 3 2 2 3 1 4 25 5 26 6 87 7 27 8 86 9 28 10 29 11 30 12
REMARK SMILES IDX 80 13 31 14 85 15 79 16 81 17 32 18 84 19 78 20 77 21 33 23
REMARK SMILES IDX 65 24 45 25 64 26 46 27 49 28 63 29 82 30 47 31 48 32 62 34
REMARK SMILES IDX 83 35 50 36 34 37 35 38 43 39 36 40 38 41 44 42 37 43 39 44
REMARK SMILES IDX 40 45 41 46 42 47 66 48 67 49 75 50 68 51 70 52 76 53 69 54
REMARK SMILES IDX 71 55 72 56 73 57 74 58 51 59 52 60 60 61 53 62 55 63 61 64
REMARK SMILES IDX 54 65 56 66 57 67 58 68 59 69 5 70 6 71 7 72 8 73 9 74 10 75
REMARK SMILES IDX 23 76 11 77 22 78 24 79 20 80 21 82 12 83 13 84 14 85 19 86
REMARK SMILES IDX 15 87 16 88 17 89 18 90
REMARK H PARENT 81 22 49 33 22 81
REMARK Flexibility Score: inf
ROOT
ATOM      1  C   UNL A   1      33.282  28.717  26.724  1.00  0.00     0.275 C 
ENDROOT
BRANCH   1   2
ATOM      2  O   UNL A   1      33.737  30.065  26.529  1.00  0.00    -0.458 OA
BRANCH   2   3
ATOM      3  C   UNL A   1      34.442  30.817  27.412  1.00  0.00     0.338 C 
ATOM      4  O   UNL A   1      34.176  32.009  27.543  1.00  0.00    -0.246 OA
BRANCH   3   5
ATOM      5  C   UNL A   1      35.687  30.293  28.052  1.00  0.00     0.060 A 
ATOM      6  C   UNL A   1      36.858  30.425  27.298  1.00  0.00     0.016 A 
ATOM      7  C   UNL A   1      35.787  29.704  29.318  1.00  0.00     0.016 A 
ATOM      8  C   UNL A   1      38.058  29.872  27.751  1.00  0.00     0.010 A 
ATOM      9  C   UNL A   1      36.997  29.157  29.780  1.00  0.00     0.010 A 
ATOM     10  C   UNL A   1      38.145  29.213  28.994  1.00  0.00    -0.014 A 
BRANCH  10  11
ATOM     11  C   UNL A   1      39.485  28.807  29.499  1.00  0.00     0.031 A 
ATOM     12  C   UNL A   1      40.192  29.476  30.653  1.00  0.00     0.074 A 
ATOM     13  C   UNL A   1      40.025  27.711  28.932  1.00  0.00     0.049 A 
ATOM     14  N   UNL A   1      41.082  28.951  31.459  1.00  0.00    -0.248 NA
ATOM     15  C   UNL A   1      39.826  30.857  31.013  1.00  0.00     0.031 C 
ATOM     16  C   UNL A   1      39.482  27.027  27.753  1.00  0.00     0.029 A 
ATOM     17  N   UNL A   1      41.131  26.978  29.263  1.00  0.00    -0.354 N 
ATOM     18  C   UNL A   1      41.285  29.872  32.482  1.00  0.00     0.074 A 
ATOM     19  C   UNL A   1      40.492  31.035  32.155  1.00  0.00     0.031 C 
ATOM     20  C   UNL A   1      40.248  25.968  27.467  1.00  0.00     0.029 A 
ATOM     21  C   UNL A   1      41.361  25.931  28.407  1.00  0.00     0.049 A 
ATOM     22  H   UNL A   1      41.704  27.181  30.037  1.00  0.00     0.167 HD
ATOM     23  C   UNL A   1      42.018  29.699  33.608  1.00  0.00     0.034 A 
ATOM     24  C   UNL A   1      42.379  25.057  28.352  1.00  0.00     0.034 A 
ATOM     25  C   UNL A   1      42.955  28.616  33.778  1.00  0.00     0.049 A 
ATOM     26  C   UNL A   1      43.412  25.101  29.427  1.00  0.00     0.074 A 
ATOM     27  C   UNL A   1      43.792  28.369  34.853  1.00  0.00     0.029 A 
ATOM     28  N   UNL A   1      43.261  27.679  32.805  1.00  0.00    -0.354 N 
ATOM     29  N   UNL A   1      43.407  25.819  30.523  1.00  0.00    -0.248 NA
ATOM     30  C   UNL A   1      44.574  24.219  29.280  1.00  0.00     0.031 C 
ATOM     31  C   UNL A   1      44.656  27.329  34.496  1.00  0.00     0.029 A 
ATOM     32  C   UNL A   1      44.336  26.912  33.214  1.00  0.00     0.049 A 
ATOM     33  H   UNL A   1      42.786  27.574  31.950  1.00  0.00     0.167 HD
ATOM     34  C   UNL A   1      44.556  25.463  31.211  1.00  0.00     0.074 A 
ATOM     35  C   UNL A   1      45.233  24.465  30.406  1.00  0.00     0.031 C 
ATOM     36  C   UNL A   1      44.999  25.923  32.404  1.00  0.00     0.034 A 
BRANCH  23  37
ATOM     37  C   UNL A   1      41.857  30.628  34.788  1.00  0.00     0.023 A 
ATOM     38  C   UNL A   1      42.895  31.554  35.037  1.00  0.00     0.012 A 
ATOM     39  C   UNL A   1      40.639  30.777  35.471  1.00  0.00     0.148 A 
ATOM     40  C   UNL A   1      42.744  32.589  35.959  1.00  0.00     0.002 A 
ATOM     41  C   UNL A   1      40.479  31.834  36.367  1.00  0.00     0.091 A 
ATOM     42  F   UNL A   1      39.652  29.911  35.204  1.00  0.00    -0.205 F 
ATOM     43  C   UNL A   1      41.530  32.735  36.618  1.00  0.00     0.022 A 
BRANCH  41  44
ATOM     44  S   UNL A   1      38.925  32.185  37.197  1.00  0.00     0.127 S 
ATOM     45  O   UNL A   1      39.379  32.461  38.558  1.00  0.00    -0.237 OA
ATOM     46  O   UNL A   1      38.441  33.354  36.463  1.00  0.00    -0.237 OA
ATOM     47  O   UNL A   1      38.115  30.983  37.047  1.00  0.00    -0.744 OA
ENDBRANCH  41  44
ENDBRANCH  23  37
BRANCH  24  48
ATOM     48  C   UNL A   1      42.452  24.135  27.190  1.00  0.00     0.023 A 
ATOM     49  C   UNL A   1      43.218  24.463  26.060  1.00  0.00     0.012 A 
ATOM     50  C   UNL A   1      41.871  22.852  27.290  1.00  0.00     0.148 A 
ATOM     51  C   UNL A   1      43.415  23.517  25.051  1.00  0.00     0.002 A 
ATOM     52  C   UNL A   1      42.116  21.902  26.312  1.00  0.00     0.091 A 
ATOM     53  F   UNL A   1      41.133  22.576  28.376  1.00  0.00    -0.205 F 
ATOM     54  C   UNL A   1      42.883  22.234  25.185  1.00  0.00     0.022 A 
BRANCH  52  55
ATOM     55  S   UNL A   1      41.585  20.195  26.488  1.00  0.00     0.127 S 
ATOM     56  O   UNL A   1      40.140  20.316  26.321  1.00  0.00    -0.237 OA
ATOM     57  O   UNL A   1      42.283  19.544  25.379  1.00  0.00    -0.237 OA
ATOM     58  O   UNL A   1      42.036  19.777  27.809  1.00  0.00    -0.744 OA
ENDBRANCH  52  55
ENDBRANCH  24  48
BRANCH  36  59
ATOM     59  C   UNL A   1      46.290  25.369  32.926  1.00  0.00     0.023 A 
ATOM     60  C   UNL A   1      47.491  26.054  32.666  1.00  0.00     0.012 A 
ATOM     61  C   UNL A   1      46.290  24.246  33.773  1.00  0.00     0.148 A 
ATOM     62  C   UNL A   1      48.683  25.621  33.243  1.00  0.00     0.002 A 
ATOM     63  C   UNL A   1      47.473  23.846  34.376  1.00  0.00     0.091 A 
ATOM     64  F   UNL A   1      45.127  23.616  33.993  1.00  0.00    -0.205 F 
ATOM     65  C   UNL A   1      48.672  24.528  34.108  1.00  0.00     0.022 A 
BRANCH  63  66
ATOM     66  S   UNL A   1      47.540  22.506  35.567  1.00  0.00     0.127 S 
ATOM     67  O   UNL A   1      46.453  21.644  35.105  1.00  0.00    -0.237 OA
ATOM     68  O   UNL A   1      48.883  21.970  35.349  1.00  0.00    -0.237 OA
ATOM     69  O   UNL A   1      47.331  23.115  36.874  1.00  0.00    -0.744 OA
ENDBRANCH  63  66
ENDBRANCH  36  59
ENDBRANCH  10  11
ENDBRANCH   3   5
ENDBRANCH   2   3
ENDBRANCH   1   2
BRANCH   1  70
ATOM     70  C   UNL A   1      31.781  28.592  27.010  1.00  0.00     0.275 C 
BRANCH  70  71
ATOM     71  O   UNL A   1      31.072  27.884  25.977  1.00  0.00    -0.458 OA
BRANCH  71  72
ATOM     72  C   UNL A   1      31.131  28.441  24.732  1.00  0.00     0.345 C 
ATOM     73  O   UNL A   1      30.935  29.616  24.472  1.00  0.00    -0.246 OA
BRANCH  72  74
ATOM     74  C   UNL A   1      31.573  27.427  23.755  1.00  0.00     0.141 A 
ATOM     75  C   UNL A   1      32.494  26.498  24.057  1.00  0.00     0.112 A 
ATOM     76  C   UNL A   1      31.042  27.447  22.378  1.00  0.00     0.268 A 
ATOM     77  N   UNL A   1      33.006  25.620  23.103  1.00  0.00    -0.299 N 
ATOM     78  N   UNL A   1      31.664  26.622  21.484  1.00  0.00    -0.273 N 
ATOM     79  O   UNL A   1      30.159  28.215  22.014  1.00  0.00    -0.268 OA
ATOM     80  C   UNL A   1      32.682  25.758  21.760  1.00  0.00     0.328 A 
ATOM     81  H   UNL A   1      31.348  26.655  20.551  1.00  0.00     0.175 HD
ATOM     82  O   UNL A   1      33.256  25.173  20.846  1.00  0.00    -0.248 OA
BRANCH  77  83
ATOM     83  C   UNL A   1      34.054  24.676  23.468  1.00  0.00     0.131 C 
BRANCH  83  84
ATOM     84  C   UNL A   1      34.396  24.481  24.951  1.00  0.00     0.025 C 
ATOM     85  C   UNL A   1      35.834  24.078  25.290  1.00  0.00     0.022 C 
ATOM     86  C   UNL A   1      33.480  23.505  25.683  1.00  0.00     0.142 C 
ATOM     87  C   UNL A   1      35.948  22.559  25.286  1.00  0.00     0.137 C 
ATOM     88  S   UNL A   1      34.319  21.932  25.651  1.00  0.00     0.150 S 
ATOM     89  O   UNL A   1      33.841  21.171  24.510  1.00  0.00    -0.229 OA
ATOM     90  O   UNL A   1      34.316  21.373  26.984  1.00  0.00    -0.229 OA
ENDBRANCH  83  84
ENDBRANCH  77  83
ENDBRANCH  72  74
ENDBRANCH  71  72
ENDBRANCH  70  71
ENDBRANCH   1  70
TORSDOF 16
ENDMDL
MODEL 2
REMARK VINA RESULT:     -11.8      5.642     11.597
REMARK SMILES O=C(OCCOC(=O)c1cn(C[C@@H]2CCS(=O)(=O)C2)c(=O)[nH]c1=O)c1ccc(-c2c3nc(c(-c4cccc(S(=O)(=O)[O-])c4F)c4ccc([nH]4)c(-c4cccc(S(=O)(=O)[O-])c4F)c4nc(c(-c5cccc(S(=O)(=O)[O-])c5F)c5ccc2[nH]5)C=C4)C=C3)cc1
REMARK SMILES IDX 4 1 3 2 2 3 1 4 25 5 26 6 87 7 27 8 86 9 28 10 29 11 30 12
REMARK SMILES IDX 80 13 31 14 85 15 79 16 81 17 32 18 84 19 78 20 77 21 33 23
REMARK SMILES IDX 65 24 45 25 64 26 46 27 49 28 63 29 82 30 47 31 48 32 62 34
REMARK SMILES IDX 83 35 50 36 34 37 35 38 43 39 36 40 38 41 44 42 37 43 39 44
REMARK SMILES IDX 40 45 41 46 42 47 66 48 67 49 75 50 68 51 70 52 76 53 69 54
REMARK SMILES IDX 71 55 72 56 73 57 74 58 51 59 52 60 60 61 53 62 55 63 61 64
REMARK SMILES IDX 54 65 56 66 57 67 58 68 59 69 5 70 6 71 7 72 8 73 9 74 10 75
REMARK SMILES IDX 23 76 11 77 22 78 24 79 20 80 21 82 12 83 13 84 14 85 19 86
REMARK SMILES IDX 15 87 16 88 17 89 18 90
REMARK H PARENT 81 22 49 33 22 81
REMARK Flexibility Score: inf
ROOT
ATOM      1  C   UNL A   1      39.591  20.499  25.981  1.00  0.00     0.275 C 
ENDROOT
BRANCH   1   2
ATOM      2  O   UNL A   1      39.864  21.908  25.951  1.00  0.00    -0.458 OA
BRANCH   2   3
ATOM      3  C   UNL A   1      39.007  22.907  26.283  1.00  0.00     0.338 C 
ATOM      4  O   UNL A   1      37.827  22.830  25.949  1.00  0.00    -0.246 OA
BRANCH   3   5
ATOM      5  C   UNL A   1      39.508  24.203  26.833  1.00  0.00     0.060 A 
ATOM      6  C   UNL A   1      39.277  24.413  28.196  1.00  0.00     0.016 A 
ATOM      7  C   UNL A   1      40.185  25.202  26.123  1.00  0.00     0.016 A 
ATOM      8  C   UNL A   1      39.604  25.634  28.790  1.00  0.00     0.010 A 
ATOM      9  C   UNL A   1      40.525  26.428  26.722  1.00  0.00     0.010 A 
ATOM     10  C   UNL A   1      40.219  26.669  28.059  1.00  0.00    -0.014 A 
BRANCH  10  11
ATOM     11  C   UNL A   1      40.706  27.873  28.789  1.00  0.00     0.031 A 
ATOM     12  C   UNL A   1      42.156  28.138  29.109  1.00  0.00     0.074 A 
ATOM     13  C   UNL A   1      39.779  28.806  29.077  1.00  0.00     0.049 A 
ATOM     14  N   UNL A   1      42.736  29.299  29.294  1.00  0.00    -0.248 NA
ATOM     15  C   UNL A   1      43.097  27.005  29.159  1.00  0.00     0.031 C 
ATOM     16  C   UNL A   1      38.333  28.631  28.896  1.00  0.00     0.029 A 
ATOM     17  N   UNL A   1      39.901  30.075  29.571  1.00  0.00    -0.354 N 
ATOM     18  C   UNL A   1      44.105  29.055  29.352  1.00  0.00     0.074 A 
ATOM     19  C   UNL A   1      44.275  27.623  29.271  1.00  0.00     0.031 C 
ATOM     20  C   UNL A   1      37.705  29.754  29.261  1.00  0.00     0.029 A 
ATOM     21  C   UNL A   1      38.695  30.704  29.749  1.00  0.00     0.049 A 
ATOM     22  H   UNL A   1      40.768  30.495  29.777  1.00  0.00     0.167 HD
ATOM     23  C   UNL A   1      45.101  29.974  29.396  1.00  0.00     0.034 A 
ATOM     24  C   UNL A   1      38.407  31.901  30.288  1.00  0.00     0.034 A 
ATOM     25  C   UNL A   1      44.873  31.366  29.693  1.00  0.00     0.049 A 
ATOM     26  C   UNL A   1      39.536  32.793  30.680  1.00  0.00     0.074 A 
ATOM     27  C   UNL A   1      45.808  32.379  29.818  1.00  0.00     0.029 A 
ATOM     28  N   UNL A   1      43.643  31.911  30.025  1.00  0.00    -0.354 N 
ATOM     29  N   UNL A   1      40.816  32.622  30.461  1.00  0.00    -0.248 NA
ATOM     30  C   UNL A   1      39.197  34.040  31.375  1.00  0.00     0.031 C 
ATOM     31  C   UNL A   1      45.152  33.515  30.301  1.00  0.00     0.029 A 
ATOM     32  C   UNL A   1      43.806  33.217  30.446  1.00  0.00     0.049 A 
ATOM     33  H   UNL A   1      42.781  31.438  29.971  1.00  0.00     0.167 HD
ATOM     34  C   UNL A   1      41.440  33.748  30.971  1.00  0.00     0.074 A 
ATOM     35  C   UNL A   1      40.395  34.595  31.513  1.00  0.00     0.031 C 
ATOM     36  C   UNL A   1      42.760  34.048  30.982  1.00  0.00     0.034 A 
BRANCH  23  37
ATOM     37  C   UNL A   1      46.527  29.586  29.089  1.00  0.00     0.023 A 
ATOM     38  C   UNL A   1      47.366  29.261  30.179  1.00  0.00     0.012 A 
ATOM     39  C   UNL A   1      46.967  29.295  27.788  1.00  0.00     0.148 A 
ATOM     40  C   UNL A   1      48.622  28.686  29.989  1.00  0.00     0.002 A 
ATOM     41  C   UNL A   1      48.209  28.687  27.602  1.00  0.00     0.091 A 
ATOM     42  F   UNL A   1      46.151  29.578  26.764  1.00  0.00    -0.205 F 
ATOM     43  C   UNL A   1      49.039  28.390  28.698  1.00  0.00     0.022 A 
BRANCH  41  44
ATOM     44  S   UNL A   1      48.810  28.163  25.992  1.00  0.00     0.127 S 
ATOM     45  O   UNL A   1      49.991  29.009  25.834  1.00  0.00    -0.237 OA
ATOM     46  O   UNL A   1      49.095  26.746  26.217  1.00  0.00    -0.237 OA
ATOM     47  O   UNL A   1      47.726  28.433  25.057  1.00  0.00    -0.744 OA
ENDBRANCH  41  44
ENDBRANCH  23  37
BRANCH  24  48
ATOM     48  C   UNL A   1      36.980  32.243  30.517  1.00  0.00     0.023 A 
ATOM     49  C   UNL A   1      36.399  32.083  31.785  1.00  0.00     0.012 A 
ATOM     50  C   UNL A   1      36.249  32.878  29.490  1.00  0.00     0.148 A 
ATOM     51  C   UNL A   1      35.111  32.566  32.028  1.00  0.00     0.002 A 
ATOM     52  C   UNL A   1      34.995  33.402  29.754  1.00  0.00     0.091 A 
ATOM     53  F   UNL A   1      36.828  33.001  28.286  1.00  0.00    -0.205 F 
ATOM     54  C   UNL A   1      34.418  33.242  31.023  1.00  0.00     0.022 A 
BRANCH  52  55
ATOM     55  S   UNL A   1      34.109  34.404  28.555  1.00  0.00     0.127 S 
ATOM     56  O   UNL A   1      34.143  33.549  27.372  1.00  0.00    -0.237 OA
ATOM     57  O   UNL A   1      32.794  34.539  29.183  1.00  0.00    -0.237 OA
ATOM     58  O   UNL A   1      34.856  35.651  28.455  1.00  0.00    -0.744 OA
ENDBRANCH  52  55
ENDBRANCH  24  48
BRANCH  36  59
ATOM     59  C   UNL A   1      43.172  35.345  31.609  1.00  0.00     0.023 A 
ATOM     60  C   UNL A   1      43.427  35.393  32.992  1.00  0.00     0.012 A 
ATOM     61  C   UNL A   1      43.424  36.473  30.808  1.00  0.00     0.148 A 
ATOM     62  C   UNL A   1      43.928  36.557  33.571  1.00  0.00     0.002 A 
ATOM     63  C   UNL A   1      43.961  37.614  31.385  1.00  0.00     0.091 A 
ATOM     64  F   UNL A   1      43.163  36.391  29.495  1.00  0.00    -0.205 F 
ATOM     65  C   UNL A   1      44.207  37.661  32.767  1.00  0.00     0.022 A 
BRANCH  63  66
ATOM     66  S   UNL A   1      44.431  39.050  30.418  1.00  0.00     0.127 S 
ATOM     67  O   UNL A   1      44.459  40.098  31.438  1.00  0.00    -0.237 OA
ATOM     68  O   UNL A   1      45.743  38.658  29.906  1.00  0.00    -0.237 OA
ATOM     69  O   UNL A   1      43.401  39.208  29.400  1.00  0.00    -0.744 OA
ENDBRANCH  63  66
ENDBRANCH  36  59
ENDBRANCH  10  11
ENDBRANCH   3   5
ENDBRANCH   2   3
ENDBRANCH   1   2
BRANCH   1  70
ATOM     70  C   UNL A   1      40.716  19.649  26.585  1.00  0.00     0.275 C 
BRANCH  70  71
ATOM     71  O   UNL A   1      41.532  19.012  25.588  1.00  0.00    -0.458 OA
BRANCH  71  72
ATOM     72  C   UNL A   1      42.755  18.578  26.014  1.00  0.00     0.345 C 
ATOM     73  O   UNL A   1      42.984  17.496  26.526  1.00  0.00    -0.246 OA
BRANCH  72  74
ATOM     74  C   UNL A   1      43.785  19.576  25.664  1.00  0.00     0.141 A 
ATOM     75  C   UNL A   1      43.514  20.888  25.595  1.00  0.00     0.112 A 
ATOM     76  C   UNL A   1      45.153  19.137  25.322  1.00  0.00     0.268 A 
ATOM     77  N   UNL A   1      44.449  21.819  25.144  1.00  0.00    -0.299 N 
ATOM     78  N   UNL A   1      45.975  20.093  24.798  1.00  0.00    -0.273 N 
ATOM     79  O   UNL A   1      45.520  17.971  25.407  1.00  0.00    -0.268 OA
ATOM     80  C   UNL A   1      45.665  21.408  24.616  1.00  0.00     0.328 A 
ATOM     81  H   UNL A   1      46.877  19.806  24.526  1.00  0.00     0.175 HD
ATOM     82  O   UNL A   1      46.437  22.142  24.005  1.00  0.00    -0.248 OA
BRANCH  77  83
ATOM     83  C   UNL A   1      44.081  23.223  25.024  1.00  0.00     0.131 C 
BRANCH  83  84
ATOM     84  C   UNL A   1      43.955  24.071  26.297  1.00  0.00     0.025 C 
ATOM     85  C   UNL A   1      44.190  25.578  26.159  1.00  0.00     0.022 C 
ATOM     86  C   UNL A   1      44.822  23.593  27.457  1.00  0.00     0.142 C 
ATOM     87  C   UNL A   1      45.669  25.880  26.363  1.00  0.00     0.137 C 
ATOM     88  S   UNL A   1      46.314  24.568  27.385  1.00  0.00     0.150 S 
ATOM     89  O   UNL A   1      47.315  23.834  26.631  1.00  0.00    -0.229 OA
ATOM     90  O   UNL A   1      46.595  25.090  28.703  1.00  0.00    -0.229 OA
ENDBRANCH  83  84
ENDBRANCH  77  83
ENDBRANCH  72  74
ENDBRANCH  71  72
ENDBRANCH  70  71
ENDBRANCH   1  70
TORSDOF 16
ENDMDL
MODEL 3
REMARK VINA RESULT:     -11.8      2.370      3.232
REMARK SMILES O=C(OCCOC(=O)c1cn(C[C@@H]2CCS(=O)(=O)C2)c(=O)[nH]c1=O)c1ccc(-c2c3nc(c(-c4cccc(S(=O)(=O)[O-])c4F)c4ccc([nH]4)c(-c4cccc(S(=O)(=O)[O-])c4F)c4nc(c(-c5cccc(S(=O)(=O)[O-])c5F)c5ccc2[nH]5)C=C4)C=C3)cc1
REMARK SMILES IDX 4 1 3 2 2 3 1 4 25 5 26 6 87 7 27 8 86 9 28 10 29 11 30 12
REMARK SMILES IDX 80 13 31 14 85 15 79 16 81 17 32 18 84 19 78 20 77 21 33 23
REMARK SMILES IDX 65 24 45 25 64 26 46 27 49 28 63 29 82 30 47 31 48 32 62 34
REMARK SMILES IDX 83 35 50 36 34 37 35 38 43 39 36 40 38 41 44 42 37 43 39 44
REMARK SMILES IDX 40 45 41 46 42 47 66 48 67 49 75 50 68 51 70 52 76 53 69 54
REMARK SMILES IDX 71 55 72 56 73 57 74 58 51 59 52 60 60 61 53 62 55 63 61 64
REMARK SMILES IDX 54 65 56 66 57 67 58 68 59 69 5 70 6 71 7 72 8 73 9 74 10 75
REMARK SMILES IDX 23 76 11 77 22 78 24 79 20 80 21 82 12 83 13 84 14 85 19 86
REMARK SMILES IDX 15 87 16 88 17 89 18 90
REMARK H PARENT 81 22 49 33 22 81
REMARK Flexibility Score: inf
ROOT
ATOM      1  C   UNL A   1      31.789  31.378  26.939  1.00  0.00     0.275 C 
ENDROOT
BRANCH   1   2
ATOM      2  O   UNL A   1      32.675  32.503  26.833  1.00  0.00    -0.458 OA
BRANCH   2   3
ATOM      3  C   UNL A   1      33.241  33.188  27.859  1.00  0.00     0.338 C 
ATOM      4  O   UNL A   1      32.742  34.248  28.230  1.00  0.00    -0.246 OA
BRANCH   3   5
ATOM      5  C   UNL A   1      34.586  32.810  28.391  1.00  0.00     0.060 A 
ATOM      6  C   UNL A   1      34.583  31.930  29.478  1.00  0.00     0.016 A 
ATOM      7  C   UNL A   1      35.824  33.240  27.901  1.00  0.00     0.016 A 
ATOM      8  C   UNL A   1      35.776  31.597  30.122  1.00  0.00     0.010 A 
ATOM      9  C   UNL A   1      37.028  32.897  28.542  1.00  0.00     0.010 A 
ATOM     10  C   UNL A   1      37.019  32.088  29.675  1.00  0.00    -0.014 A 
BRANCH  10  11
ATOM     11  C   UNL A   1      38.266  31.554  30.290  1.00  0.00     0.031 A 
ATOM     12  C   UNL A   1      38.818  32.014  31.616  1.00  0.00     0.074 A 
ATOM     13  C   UNL A   1      38.854  30.530  29.642  1.00  0.00     0.049 A 
ATOM     14  N   UNL A   1      39.574  31.337  32.447  1.00  0.00    -0.248 NA
ATOM     15  C   UNL A   1      38.438  33.342  32.128  1.00  0.00     0.031 C 
ATOM     16  C   UNL A   1      38.466  30.050  28.311  1.00  0.00     0.029 A 
ATOM     17  N   UNL A   1      39.885  29.708  30.005  1.00  0.00    -0.354 N 
ATOM     18  C   UNL A   1      39.653  32.090  33.615  1.00  0.00     0.074 A 
ATOM     19  C   UNL A   1      38.941  33.322  33.364  1.00  0.00     0.031 C 
ATOM     20  C   UNL A   1      39.239  29.012  27.974  1.00  0.00     0.029 A 
ATOM     21  C   UNL A   1      40.208  28.788  29.039  1.00  0.00     0.049 A 
ATOM     22  H   UNL A   1      40.348  29.770  30.872  1.00  0.00     0.167 HD
ATOM     23  C   UNL A   1      40.216  31.721  34.792  1.00  0.00     0.034 A 
ATOM     24  C   UNL A   1      41.203  27.887  28.991  1.00  0.00     0.034 A 
ATOM     25  C   UNL A   1      41.094  30.585  34.921  1.00  0.00     0.049 A 
ATOM     26  C   UNL A   1      42.075  27.728  30.191  1.00  0.00     0.074 A 
ATOM     27  C   UNL A   1      41.766  30.145  36.049  1.00  0.00     0.029 A 
ATOM     28  N   UNL A   1      41.512  29.787  33.868  1.00  0.00    -0.354 N 
ATOM     29  N   UNL A   1      41.933  28.277  31.372  1.00  0.00    -0.248 NA
ATOM     30  C   UNL A   1      43.226  26.826  30.071  1.00  0.00     0.031 C 
ATOM     31  C   UNL A   1      42.646  29.132  35.660  1.00  0.00     0.029 A 
ATOM     32  C   UNL A   1      42.500  28.921  34.298  1.00  0.00     0.049 A 
ATOM     33  H   UNL A   1      41.159  29.830  32.950  1.00  0.00     0.167 HD
ATOM     34  C   UNL A   1      42.965  27.774  32.148  1.00  0.00     0.074 A 
ATOM     35  C   UNL A   1      43.725  26.876  31.300  1.00  0.00     0.031 C 
ATOM     36  C   UNL A   1      43.247  28.034  33.446  1.00  0.00     0.034 A 
BRANCH  23  37
ATOM     37  C   UNL A   1      39.912  32.473  36.065  1.00  0.00     0.023 A 
ATOM     38  C   UNL A   1      40.506  33.745  36.231  1.00  0.00     0.012 A 
ATOM     39  C   UNL A   1      38.891  32.084  36.947  1.00  0.00     0.148 A 
ATOM     40  C   UNL A   1      40.121  34.603  37.260  1.00  0.00     0.002 A 
ATOM     41  C   UNL A   1      38.483  32.959  37.954  1.00  0.00     0.091 A 
ATOM     42  F   UNL A   1      38.314  30.889  36.761  1.00  0.00    -0.205 F 
ATOM     43  C   UNL A   1      39.100  34.212  38.117  1.00  0.00     0.022 A 
BRANCH  41  44
ATOM     44  S   UNL A   1      37.106  32.608  39.054  1.00  0.00     0.127 S 
ATOM     45  O   UNL A   1      37.364  31.213  39.405  1.00  0.00    -0.237 OA
ATOM     46  O   UNL A   1      37.327  33.564  40.139  1.00  0.00    -0.237 OA
ATOM     47  O   UNL A   1      35.902  32.835  38.267  1.00  0.00    -0.744 OA
ENDBRANCH  41  44
ENDBRANCH  23  37
BRANCH  24  48
ATOM     48  C   UNL A   1      41.417  27.143  27.724  1.00  0.00     0.023 A 
ATOM     49  C   UNL A   1      42.009  27.768  26.616  1.00  0.00     0.012 A 
ATOM     50  C   UNL A   1      41.162  25.755  27.688  1.00  0.00     0.148 A 
ATOM     51  C   UNL A   1      42.359  27.014  25.493  1.00  0.00     0.002 A 
ATOM     52  C   UNL A   1      41.561  25.005  26.594  1.00  0.00     0.091 A 
ATOM     53  F   UNL A   1      40.582  25.192  28.758  1.00  0.00    -0.205 F 
ATOM     54  C   UNL A   1      42.154  25.634  25.489  1.00  0.00     0.022 A 
BRANCH  52  55
ATOM     55  S   UNL A   1      41.460  23.212  26.580  1.00  0.00     0.127 S 
ATOM     56  O   UNL A   1      40.020  22.997  26.477  1.00  0.00    -0.237 OA
ATOM     57  O   UNL A   1      42.224  22.874  25.378  1.00  0.00    -0.237 OA
ATOM     58  O   UNL A   1      42.077  22.773  27.825  1.00  0.00    -0.744 OA
ENDBRANCH  52  55
ENDBRANCH  24  48
BRANCH  36  59
ATOM     59  C   UNL A   1      44.438  27.353  34.047  1.00  0.00     0.023 A 
ATOM     60  C   UNL A   1      45.694  27.984  33.995  1.00  0.00     0.012 A 
ATOM     61  C   UNL A   1      44.283  26.155  34.767  1.00  0.00     0.148 A 
ATOM     62  C   UNL A   1      46.787  27.424  34.653  1.00  0.00     0.002 A 
ATOM     63  C   UNL A   1      45.365  25.626  35.454  1.00  0.00     0.091 A 
ATOM     64  F   UNL A   1      43.072  25.579  34.790  1.00  0.00    -0.205 F 
ATOM     65  C   UNL A   1      46.620  26.255  35.393  1.00  0.00     0.022 A 
BRANCH  63  66
ATOM     66  S   UNL A   1      45.225  24.174  36.499  1.00  0.00     0.127 S 
ATOM     67  O   UNL A   1      46.614  23.966  36.906  1.00  0.00    -0.237 OA
ATOM     68  O   UNL A   1      44.339  24.647  37.562  1.00  0.00    -0.237 OA
ATOM     69  O   UNL A   1      44.664  23.124  35.660  1.00  0.00    -0.744 OA
ENDBRANCH  63  66
ENDBRANCH  36  59
ENDBRANCH  10  11
ENDBRANCH   3   5
ENDBRANCH   2   3
ENDBRANCH   1   2
BRANCH   1  70
ATOM     70  C   UNL A   1      31.918  30.362  25.797  1.00  0.00     0.275 C 
BRANCH  70  71
ATOM     71  O   UNL A   1      33.238  29.800  25.695  1.00  0.00    -0.458 OA
BRANCH  71  72
ATOM     72  C   UNL A   1      33.609  28.975  26.718  1.00  0.00     0.345 C 
ATOM     73  O   UNL A   1      34.270  29.303  27.689  1.00  0.00    -0.246 OA
BRANCH  72  74
ATOM     74  C   UNL A   1      32.999  27.644  26.529  1.00  0.00     0.141 A 
ATOM     75  C   UNL A   1      33.572  26.699  25.769  1.00  0.00     0.112 A 
ATOM     76  C   UNL A   1      31.691  27.337  27.141  1.00  0.00     0.268 A 
ATOM     77  N   UNL A   1      32.940  25.488  25.486  1.00  0.00    -0.299 N 
ATOM     78  N   UNL A   1      31.098  26.175  26.736  1.00  0.00    -0.273 N 
ATOM     79  O   UNL A   1      31.111  28.108  27.897  1.00  0.00    -0.268 OA
ATOM     80  C   UNL A   1      31.625  25.263  25.871  1.00  0.00     0.328 A 
ATOM     81  H   UNL A   1      30.207  25.977  27.104  1.00  0.00     0.175 HD
ATOM     82  O   UNL A   1      30.938  24.327  25.473  1.00  0.00    -0.248 OA
BRANCH  77  83
ATOM     83  C   UNL A   1      33.576  24.523  24.599  1.00  0.00     0.131 C 
BRANCH  83  84
ATOM     84  C   UNL A   1      34.203  23.260  25.201  1.00  0.00     0.025 C 
ATOM     85  C   UNL A   1      35.308  23.456  26.245  1.00  0.00     0.022 C 
ATOM     86  C   UNL A   1      34.741  22.273  24.170  1.00  0.00     0.142 C 
ATOM     87  C   UNL A   1      36.658  23.531  25.544  1.00  0.00     0.137 C 
ATOM     88  S   UNL A   1      36.481  22.630  24.014  1.00  0.00     0.150 S 
ATOM     89  O   UNL A   1      36.673  23.547  22.904  1.00  0.00    -0.229 OA
ATOM     90  O   UNL A   1      37.223  21.393  24.107  1.00  0.00    -0.229 OA
ENDBRANCH  83  84
ENDBRANCH  77  83
ENDBRANCH  72  74
ENDBRANCH  71  72
ENDBRANCH  70  71
ENDBRANCH   1  70
TORSDOF 16
ENDMDL
