MODEL 1
REMARK VINA RESULT:     -10.9      0.000      0.000
REMARK SMILES CC(C)CN(CC(N)=O)C(=O)N1CC[C@H](C(=O)OCCOC(=O)c2ccc(-c3c4nc(c(-c5cccc(S(=O)(=O)[O-])c5F)c5ccc([nH]5)c(-c5cccc(S(=O)(=O)[O-])c5F)c5nc(c(-c6cccc(S(=O)(=O)[O-])c6F)c6ccc3[nH]6)C=C5)C=C4)cc2)[C@@H]1C
REMARK SMILES IDX 19 1 18 2 16 3 17 4 15 5 12 6 13 7 87 8 14 9 88 10 10 11
REMARK SMILES IDX 11 12 5 13 4 14 2 15 1 16 3 17 6 18 7 19 8 20 9 21 20 24
REMARK SMILES IDX 21 25 22 26 23 27 24 28 25 29 86 30 26 31 85 32 27 33 28 34
REMARK SMILES IDX 29 35 79 36 30 37 84 38 78 39 80 40 31 41 83 42 77 43 76 44
REMARK SMILES IDX 32 46 64 47 44 48 63 49 45 50 48 51 62 52 81 53 46 54 47 55
REMARK SMILES IDX 61 57 82 58 49 59 33 60 34 61 42 62 35 63 37 64 43 65 36 66
REMARK SMILES IDX 38 67 39 68 40 69 41 70 65 71 66 72 74 73 67 74 69 75 75 76
REMARK SMILES IDX 68 77 70 78 71 79 72 80 73 81 50 82 51 83 59 84 52 85 54 86
REMARK SMILES IDX 60 87 53 88 55 89 56 90 57 91 58 92
REMARK H PARENT 8 22 8 23 80 45 48 56
REMARK Flexibility Score: inf
ROOT
ATOM      1  C   UNL A   1      35.213  20.798  24.833  1.00  0.00     0.274 C 
ENDROOT
BRANCH   1   2
ATOM      2  O   UNL A   1      35.020  22.117  25.374  1.00  0.00    -0.462 OA
BRANCH   2   3
ATOM      3  C   UNL A   1      33.733  22.531  25.486  1.00  0.00     0.311 C 
ATOM      4  O   UNL A   1      33.034  22.403  26.482  1.00  0.00    -0.252 OA
BRANCH   3   5
ATOM      5  C   UNL A   1      33.198  23.106  24.201  1.00  0.00     0.123 C 
ATOM      6  N   UNL A   1      32.636  25.108  23.144  1.00  0.00    -0.321 N 
ATOM      7  C   UNL A   1      31.389  24.645  23.708  1.00  0.00     0.122 C 
ATOM      8  C   UNL A   1      33.741  24.500  23.876  1.00  0.00     0.098 C 
ATOM      9  C   UNL A   1      31.670  23.204  24.070  1.00  0.00     0.039 C 
ATOM     10  C   UNL A   1      34.167  25.370  25.064  1.00  0.00     0.032 C 
BRANCH   6  11
ATOM     11  C   UNL A   1      32.709  26.383  22.645  1.00  0.00     0.320 C 
ATOM     12  O   UNL A   1      33.608  26.695  21.865  1.00  0.00    -0.248 OA
BRANCH  11  13
ATOM     13  N   UNL A   1      31.788  27.287  23.140  1.00  0.00    -0.315 N 
BRANCH  13  14
ATOM     14  C   UNL A   1      30.632  27.607  22.308  1.00  0.00     0.125 C 
BRANCH  14  15
ATOM     15  C   UNL A   1      29.851  28.845  22.808  1.00  0.00     0.002 C 
ATOM     16  C   UNL A   1      29.899  30.025  21.832  1.00  0.00     0.009 C 
ATOM     17  C   UNL A   1      28.392  28.463  23.057  1.00  0.00     0.009 C 
ENDBRANCH  14  15
ENDBRANCH  13  14
BRANCH  13  18
ATOM     18  C   UNL A   1      31.934  28.020  24.403  1.00  0.00     0.221 C 
BRANCH  18  19
ATOM     19  C   UNL A   1      33.250  28.808  24.486  1.00  0.00     0.237 C 
ATOM     20  N   UNL A   1      33.601  29.485  23.349  1.00  0.00    -0.368 N 
ATOM     21  O   UNL A   1      33.959  28.872  25.486  1.00  0.00    -0.273 OA
ATOM     22  H   UNL A   1      33.031  29.433  22.548  1.00  0.00     0.159 HD
ATOM     23  H   UNL A   1      34.424  30.025  23.332  1.00  0.00     0.159 HD
ENDBRANCH  18  19
ENDBRANCH  13  18
ENDBRANCH  11  13
ENDBRANCH   6  11
ENDBRANCH   3   5
ENDBRANCH   2   3
ENDBRANCH   1   2
BRANCH   1  24
ATOM     24  C   UNL A   1      36.648  20.316  25.040  1.00  0.00     0.275 C 
BRANCH  24  25
ATOM     25  O   UNL A   1      37.541  21.420  25.252  1.00  0.00    -0.458 OA
BRANCH  25  26
ATOM     26  C   UNL A   1      38.722  21.090  25.826  1.00  0.00     0.338 C 
ATOM     27  O   UNL A   1      39.296  20.017  25.770  1.00  0.00    -0.246 OA
BRANCH  26  28
ATOM     28  C   UNL A   1      39.317  22.280  26.450  1.00  0.00     0.060 A 
ATOM     29  C   UNL A   1      38.831  23.539  26.084  1.00  0.00     0.016 A 
ATOM     30  C   UNL A   1      40.402  22.160  27.314  1.00  0.00     0.016 A 
ATOM     31  C   UNL A   1      39.444  24.693  26.561  1.00  0.00     0.010 A 
ATOM     32  C   UNL A   1      41.018  23.315  27.791  1.00  0.00     0.010 A 
ATOM     33  C   UNL A   1      40.556  24.585  27.399  1.00  0.00    -0.014 A 
BRANCH  33  34
ATOM     34  C   UNL A   1      41.312  25.793  27.793  1.00  0.00     0.031 A 
ATOM     35  C   UNL A   1      40.601  26.875  28.554  1.00  0.00     0.074 A 
ATOM     36  C   UNL A   1      42.603  25.926  27.445  1.00  0.00     0.049 A 
ATOM     37  N   UNL A   1      41.011  28.076  28.858  1.00  0.00    -0.248 NA
ATOM     38  C   UNL A   1      39.242  26.562  29.031  1.00  0.00     0.031 C 
ATOM     39  C   UNL A   1      43.397  24.920  26.737  1.00  0.00     0.029 A 
ATOM     40  N   UNL A   1      43.465  26.979  27.611  1.00  0.00    -0.354 N 
ATOM     41  C   UNL A   1      39.952  28.678  29.527  1.00  0.00     0.074 A 
ATOM     42  C   UNL A   1      38.878  27.711  29.585  1.00  0.00     0.031 C 
ATOM     43  C   UNL A   1      44.620  25.421  26.496  1.00  0.00     0.029 A 
ATOM     44  C   UNL A   1      44.680  26.792  26.993  1.00  0.00     0.049 A 
ATOM     45  H   UNL A   1      43.237  27.791  28.121  1.00  0.00     0.167 HD
ATOM     46  C   UNL A   1      39.888  29.923  30.053  1.00  0.00     0.034 A 
ATOM     47  C   UNL A   1      45.705  27.649  26.817  1.00  0.00     0.034 A 
ATOM     48  C   UNL A   1      40.971  30.866  30.008  1.00  0.00     0.049 A 
ATOM     49  C   UNL A   1      45.588  29.044  27.380  1.00  0.00     0.074 A 
ATOM     50  C   UNL A   1      41.012  32.154  30.511  1.00  0.00     0.029 A 
ATOM     51  N   UNL A   1      42.206  30.621  29.430  1.00  0.00    -0.354 N 
ATOM     52  N   UNL A   1      44.606  29.578  28.064  1.00  0.00    -0.248 NA
ATOM     53  C   UNL A   1      46.731  29.943  27.168  1.00  0.00     0.031 C 
ATOM     54  C   UNL A   1      42.272  32.691  30.228  1.00  0.00     0.029 A 
ATOM     55  C   UNL A   1      43.021  31.729  29.569  1.00  0.00     0.049 A 
ATOM     56  H   UNL A   1      42.466  29.781  28.985  1.00  0.00     0.167 HD
ATOM     57  C   UNL A   1      45.032  30.857  28.406  1.00  0.00     0.074 A 
ATOM     58  C   UNL A   1      46.367  31.011  27.863  1.00  0.00     0.031 C 
ATOM     59  C   UNL A   1      44.376  31.826  29.090  1.00  0.00     0.034 A 
BRANCH  46  60
ATOM     60  C   UNL A   1      38.618  30.326  30.752  1.00  0.00     0.023 A 
ATOM     61  C   UNL A   1      38.455  30.026  32.119  1.00  0.00     0.012 A 
ATOM     62  C   UNL A   1      37.620  31.057  30.080  1.00  0.00     0.148 A 
ATOM     63  C   UNL A   1      37.309  30.430  32.802  1.00  0.00     0.002 A 
ATOM     64  C   UNL A   1      36.498  31.490  30.777  1.00  0.00     0.091 A 
ATOM     65  F   UNL A   1      37.786  31.313  28.774  1.00  0.00    -0.205 F 
ATOM     66  C   UNL A   1      36.337  31.170  32.135  1.00  0.00     0.022 A 
BRANCH  64  67
ATOM     67  S   UNL A   1      35.221  32.509  30.028  1.00  0.00     0.127 S 
ATOM     68  O   UNL A   1      34.741  31.638  28.957  1.00  0.00    -0.237 OA
ATOM     69  O   UNL A   1      34.284  32.688  31.136  1.00  0.00    -0.237 OA
ATOM     70  O   UNL A   1      35.885  33.728  29.587  1.00  0.00    -0.744 OA
ENDBRANCH  64  67
ENDBRANCH  46  60
BRANCH  47  71
ATOM     71  C   UNL A   1      46.937  27.219  26.099  1.00  0.00     0.023 A 
ATOM     72  C   UNL A   1      47.035  27.426  24.710  1.00  0.00     0.012 A 
ATOM     73  C   UNL A   1      48.008  26.602  26.777  1.00  0.00     0.148 A 
ATOM     74  C   UNL A   1      48.155  26.990  24.002  1.00  0.00     0.002 A 
ATOM     75  C   UNL A   1      49.145  26.219  26.074  1.00  0.00     0.091 A 
ATOM     76  F   UNL A   1      47.891  26.392  28.096  1.00  0.00    -0.205 F 
ATOM     77  C   UNL A   1      49.213  26.395  24.684  1.00  0.00     0.022 A 
BRANCH  75  78
ATOM     78  S   UNL A   1      50.600  25.567  26.899  1.00  0.00     0.127 S 
ATOM     79  O   UNL A   1      50.065  24.374  27.552  1.00  0.00    -0.237 OA
ATOM     80  O   UNL A   1      51.500  25.303  25.775  1.00  0.00    -0.237 OA
ATOM     81  O   UNL A   1      51.051  26.633  27.784  1.00  0.00    -0.744 OA
ENDBRANCH  75  78
ENDBRANCH  47  71
BRANCH  59  82
ATOM     82  C   UNL A   1      45.109  33.113  29.358  1.00  0.00     0.023 A 
ATOM     83  C   UNL A   1      45.884  33.251  30.525  1.00  0.00     0.012 A 
ATOM     84  C   UNL A   1      45.096  34.151  28.404  1.00  0.00     0.148 A 
ATOM     85  C   UNL A   1      46.615  34.415  30.754  1.00  0.00     0.002 A 
ATOM     86  C   UNL A   1      45.865  35.288  28.616  1.00  0.00     0.091 A 
ATOM     87  F   UNL A   1      44.335  34.006  27.310  1.00  0.00    -0.205 F 
ATOM     88  C   UNL A   1      46.617  35.427  29.795  1.00  0.00     0.022 A 
BRANCH  86  89
ATOM     89  S   UNL A   1      46.003  36.595  27.394  1.00  0.00     0.127 S 
ATOM     90  O   UNL A   1      44.668  37.190  27.442  1.00  0.00    -0.237 OA
ATOM     91  O   UNL A   1      47.065  37.433  27.952  1.00  0.00    -0.237 OA
ATOM     92  O   UNL A   1      46.349  35.938  26.140  1.00  0.00    -0.744 OA
ENDBRANCH  86  89
ENDBRANCH  59  82
ENDBRANCH  33  34
ENDBRANCH  26  28
ENDBRANCH  25  26
ENDBRANCH  24  25
ENDBRANCH   1  24
TORSDOF 20
ENDMDL
MODEL 2
REMARK VINA RESULT:     -10.6      1.715      2.307
REMARK SMILES CC(C)CN(CC(N)=O)C(=O)N1CC[C@H](C(=O)OCCOC(=O)c2ccc(-c3c4nc(c(-c5cccc(S(=O)(=O)[O-])c5F)c5ccc([nH]5)c(-c5cccc(S(=O)(=O)[O-])c5F)c5nc(c(-c6cccc(S(=O)(=O)[O-])c6F)c6ccc3[nH]6)C=C5)C=C4)cc2)[C@@H]1C
REMARK SMILES IDX 19 1 18 2 16 3 17 4 15 5 12 6 13 7 87 8 14 9 88 10 10 11
REMARK SMILES IDX 11 12 5 13 4 14 2 15 1 16 3 17 6 18 7 19 8 20 9 21 20 24
REMARK SMILES IDX 21 25 22 26 23 27 24 28 25 29 86 30 26 31 85 32 27 33 28 34
REMARK SMILES IDX 29 35 79 36 30 37 84 38 78 39 80 40 31 41 83 42 77 43 76 44
REMARK SMILES IDX 32 46 64 47 44 48 63 49 45 50 48 51 62 52 81 53 46 54 47 55
REMARK SMILES IDX 61 57 82 58 49 59 33 60 34 61 42 62 35 63 37 64 43 65 36 66
REMARK SMILES IDX 38 67 39 68 40 69 41 70 65 71 66 72 74 73 67 74 69 75 75 76
REMARK SMILES IDX 68 77 70 78 71 79 72 80 73 81 50 82 51 83 59 84 52 85 54 86
REMARK SMILES IDX 60 87 53 88 55 89 56 90 57 91 58 92
REMARK H PARENT 8 22 8 23 80 45 48 56
REMARK Flexibility Score: inf
ROOT
ATOM      1  C   UNL A   1      35.826  20.627  24.610  1.00  0.00     0.274 C 
ENDROOT
BRANCH   1   2
ATOM      2  O   UNL A   1      34.788  20.771  25.597  1.00  0.00    -0.462 OA
BRANCH   2   3
ATOM      3  C   UNL A   1      33.519  20.820  25.120  1.00  0.00     0.311 C 
ATOM      4  O   UNL A   1      32.687  19.929  25.233  1.00  0.00    -0.252 OA
BRANCH   3   5
ATOM      5  C   UNL A   1      33.243  22.079  24.343  1.00  0.00     0.123 C 
ATOM      6  N   UNL A   1      32.214  24.169  24.478  1.00  0.00    -0.321 N 
ATOM      7  C   UNL A   1      31.212  23.320  23.876  1.00  0.00     0.122 C 
ATOM      8  C   UNL A   1      33.159  23.336  25.213  1.00  0.00     0.098 C 
ATOM      9  C   UNL A   1      31.983  22.086  23.463  1.00  0.00     0.039 C 
ATOM     10  C   UNL A   1      32.715  23.141  26.667  1.00  0.00     0.032 C 
BRANCH   6  11
ATOM     11  C   UNL A   1      31.856  25.419  24.912  1.00  0.00     0.320 C 
ATOM     12  O   UNL A   1      30.690  25.659  25.219  1.00  0.00    -0.248 OA
BRANCH  11  13
ATOM     13  N   UNL A   1      32.848  26.381  24.889  1.00  0.00    -0.315 N 
BRANCH  13  14
ATOM     14  C   UNL A   1      33.348  26.876  26.169  1.00  0.00     0.125 C 
BRANCH  14  15
ATOM     15  C   UNL A   1      32.734  28.237  26.573  1.00  0.00     0.002 C 
ATOM     16  C   UNL A   1      31.594  28.109  27.588  1.00  0.00     0.009 C 
ATOM     17  C   UNL A   1      33.824  29.136  27.158  1.00  0.00     0.009 C 
ENDBRANCH  14  15
ENDBRANCH  13  14
BRANCH  13  18
ATOM     18  C   UNL A   1      33.371  27.012  23.671  1.00  0.00     0.221 C 
BRANCH  18  19
ATOM     19  C   UNL A   1      32.342  27.920  22.981  1.00  0.00     0.237 C 
ATOM     20  N   UNL A   1      31.687  27.361  21.916  1.00  0.00    -0.368 N 
ATOM     21  O   UNL A   1      32.078  29.065  23.335  1.00  0.00    -0.273 OA
ATOM     22  H   UNL A   1      31.900  26.442  21.634  1.00  0.00     0.159 HD
ATOM     23  H   UNL A   1      31.002  27.877  21.433  1.00  0.00     0.159 HD
ENDBRANCH  18  19
ENDBRANCH  13  18
ENDBRANCH  11  13
ENDBRANCH   6  11
ENDBRANCH   3   5
ENDBRANCH   2   3
ENDBRANCH   1   2
BRANCH   1  24
ATOM     24  C   UNL A   1      37.167  20.287  25.258  1.00  0.00     0.275 C 
BRANCH  24  25
ATOM     25  O   UNL A   1      37.874  21.476  25.643  1.00  0.00    -0.458 OA
BRANCH  25  26
ATOM     26  C   UNL A   1      39.135  21.265  26.087  1.00  0.00     0.338 C 
ATOM     27  O   UNL A   1      39.812  20.263  25.940  1.00  0.00    -0.246 OA
BRANCH  26  28
ATOM     28  C   UNL A   1      39.660  22.500  26.686  1.00  0.00     0.060 A 
ATOM     29  C   UNL A   1      39.175  23.727  26.221  1.00  0.00     0.016 A 
ATOM     30  C   UNL A   1      40.684  22.451  27.629  1.00  0.00     0.016 A 
ATOM     31  C   UNL A   1      39.730  24.918  26.677  1.00  0.00     0.010 A 
ATOM     32  C   UNL A   1      41.242  23.644  28.085  1.00  0.00     0.010 A 
ATOM     33  C   UNL A   1      40.782  24.880  27.594  1.00  0.00    -0.014 A 
BRANCH  33  34
ATOM     34  C   UNL A   1      41.484  26.125  27.975  1.00  0.00     0.031 A 
ATOM     35  C   UNL A   1      40.724  27.183  28.723  1.00  0.00     0.074 A 
ATOM     36  C   UNL A   1      42.768  26.310  27.627  1.00  0.00     0.049 A 
ATOM     37  N   UNL A   1      41.081  28.404  29.014  1.00  0.00    -0.248 NA
ATOM     38  C   UNL A   1      39.380  26.816  29.203  1.00  0.00     0.031 C 
ATOM     39  C   UNL A   1      43.606  25.333  26.931  1.00  0.00     0.029 A 
ATOM     40  N   UNL A   1      43.583  27.403  27.781  1.00  0.00    -0.354 N 
ATOM     41  C   UNL A   1      39.995  28.967  29.675  1.00  0.00     0.074 A 
ATOM     42  C   UNL A   1      38.965  27.954  29.743  1.00  0.00     0.031 C 
ATOM     43  C   UNL A   1      44.806  25.884  26.685  1.00  0.00     0.029 A 
ATOM     44  C   UNL A   1      44.806  27.262  27.166  1.00  0.00     0.049 A 
ATOM     45  H   UNL A   1      43.318  28.209  28.281  1.00  0.00     0.167 HD
ATOM     46  C   UNL A   1      39.876  30.213  30.187  1.00  0.00     0.034 A 
ATOM     47  C   UNL A   1      45.791  28.162  26.981  1.00  0.00     0.034 A 
ATOM     48  C   UNL A   1      40.916  31.203  30.131  1.00  0.00     0.049 A 
ATOM     49  C   UNL A   1      45.613  29.556  27.527  1.00  0.00     0.074 A 
ATOM     50  C   UNL A   1      40.900  32.498  30.619  1.00  0.00     0.029 A 
ATOM     51  N   UNL A   1      42.162  31.006  29.556  1.00  0.00    -0.354 N 
ATOM     52  N   UNL A   1      44.607  30.055  28.205  1.00  0.00    -0.248 NA
ATOM     53  C   UNL A   1      46.715  30.502  27.306  1.00  0.00     0.031 C 
ATOM     54  C   UNL A   1      42.135  33.086  30.331  1.00  0.00     0.029 A 
ATOM     55  C   UNL A   1      42.927  32.150  29.683  1.00  0.00     0.049 A 
ATOM     56  H   UNL A   1      42.459  30.173  29.122  1.00  0.00     0.167 HD
ATOM     57  C   UNL A   1      44.976  31.355  28.532  1.00  0.00     0.074 A 
ATOM     58  C   UNL A   1      46.303  31.561  27.988  1.00  0.00     0.031 C 
ATOM     59  C   UNL A   1      44.277  32.302  29.204  1.00  0.00     0.034 A 
BRANCH  46  60
ATOM     60  C   UNL A   1      38.589  30.568  30.880  1.00  0.00     0.023 A 
ATOM     61  C   UNL A   1      38.411  30.216  32.232  1.00  0.00     0.012 A 
ATOM     62  C   UNL A   1      37.588  31.307  30.219  1.00  0.00     0.148 A 
ATOM     63  C   UNL A   1      37.248  30.573  32.912  1.00  0.00     0.002 A 
ATOM     64  C   UNL A   1      36.448  31.694  30.914  1.00  0.00     0.091 A 
ATOM     65  F   UNL A   1      37.769  31.613  28.926  1.00  0.00    -0.205 F 
ATOM     66  C   UNL A   1      36.272  31.321  32.256  1.00  0.00     0.022 A 
BRANCH  64  67
ATOM     67  S   UNL A   1      35.164  32.717  30.183  1.00  0.00     0.127 S 
ATOM     68  O   UNL A   1      35.920  33.909  29.802  1.00  0.00    -0.237 OA
ATOM     69  O   UNL A   1      34.718  31.893  29.061  1.00  0.00    -0.237 OA
ATOM     70  O   UNL A   1      34.168  32.921  31.226  1.00  0.00    -0.744 OA
ENDBRANCH  64  67
ENDBRANCH  46  60
BRANCH  47  71
ATOM     71  C   UNL A   1      47.043  27.778  26.269  1.00  0.00     0.023 A 
ATOM     72  C   UNL A   1      48.138  27.295  27.010  1.00  0.00     0.012 A 
ATOM     73  C   UNL A   1      47.160  27.895  24.870  1.00  0.00     0.148 A 
ATOM     74  C   UNL A   1      49.340  26.973  26.378  1.00  0.00     0.002 A 
ATOM     75  C   UNL A   1      48.342  27.521  24.240  1.00  0.00     0.091 A 
ATOM     76  F   UNL A   1      46.117  28.377  24.180  1.00  0.00    -0.205 F 
ATOM     77  C   UNL A   1      49.439  27.078  24.993  1.00  0.00     0.022 A 
BRANCH  75  78
ATOM     78  S   UNL A   1      48.504  27.503  22.451  1.00  0.00     0.127 S 
ATOM     79  O   UNL A   1      47.321  28.252  22.036  1.00  0.00    -0.237 OA
ATOM     80  O   UNL A   1      49.776  28.200  22.250  1.00  0.00    -0.237 OA
ATOM     81  O   UNL A   1      48.534  26.094  22.081  1.00  0.00    -0.744 OA
ENDBRANCH  75  78
ENDBRANCH  47  71
BRANCH  59  82
ATOM     82  C   UNL A   1      44.952  33.623  29.458  1.00  0.00     0.023 A 
ATOM     83  C   UNL A   1      45.762  33.791  30.597  1.00  0.00     0.012 A 
ATOM     84  C   UNL A   1      44.850  34.666  28.516  1.00  0.00     0.148 A 
ATOM     85  C   UNL A   1      46.440  34.990  30.810  1.00  0.00     0.002 A 
ATOM     86  C   UNL A   1      45.567  35.840  28.710  1.00  0.00     0.091 A 
ATOM     87  F   UNL A   1      44.058  34.491  27.449  1.00  0.00    -0.205 F 
ATOM     88  C   UNL A   1      46.354  36.008  29.862  1.00  0.00     0.022 A 
BRANCH  86  89
ATOM     89  S   UNL A   1      45.591  37.162  27.497  1.00  0.00     0.127 S 
ATOM     90  O   UNL A   1      46.162  36.488  26.332  1.00  0.00    -0.237 OA
ATOM     91  O   UNL A   1      44.172  37.498  27.373  1.00  0.00    -0.237 OA
ATOM     92  O   UNL A   1      46.413  38.220  28.072  1.00  0.00    -0.744 OA
ENDBRANCH  86  89
ENDBRANCH  59  82
ENDBRANCH  33  34
ENDBRANCH  26  28
ENDBRANCH  25  26
ENDBRANCH  24  25
ENDBRANCH   1  24
TORSDOF 20
ENDMDL
MODEL 3
REMARK VINA RESULT:     -10.5      4.805     10.091
REMARK SMILES CC(C)CN(CC(N)=O)C(=O)N1CC[C@H](C(=O)OCCOC(=O)c2ccc(-c3c4nc(c(-c5cccc(S(=O)(=O)[O-])c5F)c5ccc([nH]5)c(-c5cccc(S(=O)(=O)[O-])c5F)c5nc(c(-c6cccc(S(=O)(=O)[O-])c6F)c6ccc3[nH]6)C=C5)C=C4)cc2)[C@@H]1C
REMARK SMILES IDX 19 1 18 2 16 3 17 4 15 5 12 6 13 7 87 8 14 9 88 10 10 11
REMARK SMILES IDX 11 12 5 13 4 14 2 15 1 16 3 17 6 18 7 19 8 20 9 21 20 24
REMARK SMILES IDX 21 25 22 26 23 27 24 28 25 29 86 30 26 31 85 32 27 33 28 34
REMARK SMILES IDX 29 35 79 36 30 37 84 38 78 39 80 40 31 41 83 42 77 43 76 44
REMARK SMILES IDX 32 46 64 47 44 48 63 49 45 50 48 51 62 52 81 53 46 54 47 55
REMARK SMILES IDX 61 57 82 58 49 59 33 60 34 61 42 62 35 63 37 64 43 65 36 66
REMARK SMILES IDX 38 67 39 68 40 69 41 70 65 71 66 72 74 73 67 74 69 75 75 76
REMARK SMILES IDX 68 77 70 78 71 79 72 80 73 81 50 82 51 83 59 84 52 85 54 86
REMARK SMILES IDX 60 87 53 88 55 89 56 90 57 91 58 92
REMARK H PARENT 8 22 8 23 80 45 48 56
REMARK Flexibility Score: inf
ROOT
ATOM      1  C   UNL A   1      31.362  29.353  24.611  1.00  0.00     0.274 C 
ENDROOT
BRANCH   1   2
ATOM      2  O   UNL A   1      31.208  27.924  24.664  1.00  0.00    -0.462 OA
BRANCH   2   3
ATOM      3  C   UNL A   1      32.125  27.202  23.973  1.00  0.00     0.311 C 
ATOM      4  O   UNL A   1      32.444  27.395  22.808  1.00  0.00    -0.252 OA
BRANCH   3   5
ATOM      5  C   UNL A   1      32.675  26.051  24.773  1.00  0.00     0.123 C 
ATOM      6  N   UNL A   1      32.277  23.830  25.367  1.00  0.00    -0.321 N 
ATOM      7  C   UNL A   1      31.705  24.594  26.452  1.00  0.00     0.122 C 
ATOM      8  C   UNL A   1      32.351  24.677  24.181  1.00  0.00     0.098 C 
ATOM      9  C   UNL A   1      32.271  25.982  26.255  1.00  0.00     0.039 C 
ATOM     10  C   UNL A   1      31.074  24.571  23.341  1.00  0.00     0.032 C 
BRANCH   6  11
ATOM     11  C   UNL A   1      32.013  22.487  25.286  1.00  0.00     0.320 C 
ATOM     12  O   UNL A   1      30.944  22.038  25.696  1.00  0.00    -0.248 OA
BRANCH  11  13
ATOM     13  N   UNL A   1      33.039  21.690  24.814  1.00  0.00    -0.315 N 
BRANCH  13  14
ATOM     14  C   UNL A   1      34.342  21.799  25.465  1.00  0.00     0.125 C 
BRANCH  14  15
ATOM     15  C   UNL A   1      35.459  22.272  24.507  1.00  0.00     0.002 C 
ATOM     16  C   UNL A   1      35.955  23.691  24.809  1.00  0.00     0.009 C 
ATOM     17  C   UNL A   1      36.641  21.306  24.582  1.00  0.00     0.009 C 
ENDBRANCH  14  15
ENDBRANCH  13  14
BRANCH  13  18
ATOM     18  C   UNL A   1      32.941  20.809  23.644  1.00  0.00     0.221 C 
BRANCH  18  19
ATOM     19  C   UNL A   1      32.832  19.325  24.023  1.00  0.00     0.237 C 
ATOM     20  N   UNL A   1      31.967  18.585  23.260  1.00  0.00    -0.368 N 
ATOM     21  O   UNL A   1      33.469  18.790  24.926  1.00  0.00    -0.273 OA
ATOM     22  H   UNL A   1      31.458  19.016  22.537  1.00  0.00     0.159 HD
ATOM     23  H   UNL A   1      31.856  17.623  23.435  1.00  0.00     0.159 HD
ENDBRANCH  18  19
ENDBRANCH  13  18
ENDBRANCH  11  13
ENDBRANCH   6  11
ENDBRANCH   3   5
ENDBRANCH   2   3
ENDBRANCH   1   2
BRANCH   1  24
ATOM     24  C   UNL A   1      32.653  29.800  25.294  1.00  0.00     0.275 C 
BRANCH  24  25
ATOM     25  O   UNL A   1      32.434  30.084  26.685  1.00  0.00    -0.458 OA
BRANCH  25  26
ATOM     26  C   UNL A   1      33.009  31.228  27.126  1.00  0.00     0.338 C 
ATOM     27  O   UNL A   1      32.495  32.329  27.208  1.00  0.00    -0.246 OA
BRANCH  26  28
ATOM     28  C   UNL A   1      34.354  30.937  27.638  1.00  0.00     0.060 A 
ATOM     29  C   UNL A   1      34.653  29.627  28.028  1.00  0.00     0.016 A 
ATOM     30  C   UNL A   1      35.281  31.961  27.819  1.00  0.00     0.016 A 
ATOM     31  C   UNL A   1      35.874  29.334  28.627  1.00  0.00     0.010 A 
ATOM     32  C   UNL A   1      36.504  31.669  28.420  1.00  0.00     0.010 A 
ATOM     33  C   UNL A   1      36.795  30.360  28.847  1.00  0.00    -0.014 A 
BRANCH  33  34
ATOM     34  C   UNL A   1      38.031  30.099  29.616  1.00  0.00     0.031 A 
ATOM     35  C   UNL A   1      39.051  29.155  29.046  1.00  0.00     0.074 A 
ATOM     36  C   UNL A   1      38.215  30.676  30.815  1.00  0.00     0.049 A 
ATOM     37  N   UNL A   1      40.118  28.657  29.609  1.00  0.00    -0.248 NA
ATOM     38  C   UNL A   1      38.836  28.710  27.658  1.00  0.00     0.031 C 
ATOM     39  C   UNL A   1      37.304  31.635  31.443  1.00  0.00     0.029 A 
ATOM     40  N   UNL A   1      39.217  30.512  31.737  1.00  0.00    -0.354 N 
ATOM     41  C   UNL A   1      40.682  27.809  28.662  1.00  0.00     0.074 A 
ATOM     42  C   UNL A   1      39.839  27.859  27.488  1.00  0.00     0.031 C 
ATOM     43  C   UNL A   1      37.770  31.944  32.664  1.00  0.00     0.029 A 
ATOM     44  C   UNL A   1      38.985  31.177  32.919  1.00  0.00     0.049 A 
ATOM     45  H   UNL A   1      40.023  29.970  31.570  1.00  0.00     0.167 HD
ATOM     46  C   UNL A   1      41.807  27.065  28.764  1.00  0.00     0.034 A 
ATOM     47  C   UNL A   1      39.660  31.134  34.085  1.00  0.00     0.034 A 
ATOM     48  C   UNL A   1      42.648  27.041  29.930  1.00  0.00     0.049 A 
ATOM     49  C   UNL A   1      40.887  30.264  34.180  1.00  0.00     0.074 A 
ATOM     50  C   UNL A   1      43.811  26.323  30.138  1.00  0.00     0.029 A 
ATOM     51  N   UNL A   1      42.416  27.774  31.083  1.00  0.00    -0.354 N 
ATOM     52  N   UNL A   1      41.444  29.517  33.258  1.00  0.00    -0.248 NA
ATOM     53  C   UNL A   1      41.594  30.251  35.469  1.00  0.00     0.031 C 
ATOM     54  C   UNL A   1      44.278  26.616  31.422  1.00  0.00     0.029 A 
ATOM     55  C   UNL A   1      43.418  27.533  32.005  1.00  0.00     0.049 A 
ATOM     56  H   UNL A   1      41.651  28.378  31.225  1.00  0.00     0.167 HD
ATOM     57  C   UNL A   1      42.590  28.985  33.838  1.00  0.00     0.074 A 
ATOM     58  C   UNL A   1      42.654  29.507  35.189  1.00  0.00     0.031 C 
ATOM     59  C   UNL A   1      43.500  28.129  33.313  1.00  0.00     0.034 A 
BRANCH  46  60
ATOM     60  C   UNL A   1      42.215  26.241  27.573  1.00  0.00     0.023 A 
ATOM     61  C   UNL A   1      42.998  26.828  26.559  1.00  0.00     0.012 A 
ATOM     62  C   UNL A   1      41.883  24.874  27.489  1.00  0.00     0.148 A 
ATOM     63  C   UNL A   1      43.428  26.074  25.469  1.00  0.00     0.002 A 
ATOM     64  C   UNL A   1      42.349  24.119  26.418  1.00  0.00     0.091 A 
ATOM     65  F   UNL A   1      41.119  24.341  28.453  1.00  0.00    -0.205 F 
ATOM     66  C   UNL A   1      43.113  24.719  25.404  1.00  0.00     0.022 A 
BRANCH  64  67
ATOM     67  S   UNL A   1      42.058  22.352  26.276  1.00  0.00     0.127 S 
ATOM     68  O   UNL A   1      42.675  21.853  27.504  1.00  0.00    -0.237 OA
ATOM     69  O   UNL A   1      40.598  22.283  26.254  1.00  0.00    -0.237 OA
ATOM     70  O   UNL A   1      42.708  21.934  25.041  1.00  0.00    -0.744 OA
ENDBRANCH  64  67
ENDBRANCH  46  60
BRANCH  47  71
ATOM     71  C   UNL A   1      39.212  31.948  35.249  1.00  0.00     0.023 A 
ATOM     72  C   UNL A   1      38.261  31.415  36.140  1.00  0.00     0.012 A 
ATOM     73  C   UNL A   1      39.711  33.246  35.477  1.00  0.00     0.148 A 
ATOM     74  C   UNL A   1      37.785  32.171  37.212  1.00  0.00     0.002 A 
ATOM     75  C   UNL A   1      39.274  33.974  36.578  1.00  0.00     0.091 A 
ATOM     76  F   UNL A   1      40.599  33.749  34.607  1.00  0.00    -0.205 F 
ATOM     77  C   UNL A   1      38.298  33.446  37.436  1.00  0.00     0.022 A 
BRANCH  75  78
ATOM     78  S   UNL A   1      39.980  35.569  37.007  1.00  0.00     0.127 S 
ATOM     79  O   UNL A   1      39.670  36.363  35.822  1.00  0.00    -0.237 OA
ATOM     80  O   UNL A   1      39.222  35.929  38.206  1.00  0.00    -0.237 OA
ATOM     81  O   UNL A   1      41.393  35.310  37.253  1.00  0.00    -0.744 OA
ENDBRANCH  75  78
ENDBRANCH  47  71
BRANCH  59  82
ATOM     82  C   UNL A   1      44.683  27.754  34.166  1.00  0.00     0.023 A 
ATOM     83  C   UNL A   1      45.815  28.590  34.203  1.00  0.00     0.012 A 
ATOM     84  C   UNL A   1      44.630  26.617  34.996  1.00  0.00     0.148 A 
ATOM     85  C   UNL A   1      46.891  28.284  35.034  1.00  0.00     0.002 A 
ATOM     86  C   UNL A   1      45.684  26.345  35.857  1.00  0.00     0.091 A 
ATOM     87  F   UNL A   1      43.550  25.825  34.929  1.00  0.00    -0.205 F 
ATOM     88  C   UNL A   1      46.821  27.171  35.870  1.00  0.00     0.022 A 
BRANCH  86  89
ATOM     89  S   UNL A   1      45.638  24.991  37.035  1.00  0.00     0.127 S 
ATOM     90  O   UNL A   1      44.321  25.172  37.645  1.00  0.00    -0.237 OA
ATOM     91  O   UNL A   1      45.753  23.819  36.167  1.00  0.00    -0.237 OA
ATOM     92  O   UNL A   1      46.772  25.196  37.927  1.00  0.00    -0.744 OA
ENDBRANCH  86  89
ENDBRANCH  59  82
ENDBRANCH  33  34
ENDBRANCH  26  28
ENDBRANCH  25  26
ENDBRANCH  24  25
ENDBRANCH   1  24
TORSDOF 20
ENDMDL
