MODEL 1
REMARK VINA RESULT:     -12.2      0.000      0.000
REMARK SMILES O=C(OCCOC(=O)[C@H]1CC[C@H]2CCCC[C@@H]2N1C(=O)c1ccn[nH]1)c1ccc(-c2c3nc(c(-c4cccc(S(=O)(=O)[O-])c4F)c4ccc([nH]4)c(-c4cccc(S(=O)(=O)[O-])c4F)c4nc(c(-c5cccc(S(=O)(=O)[O-])c5F)c5ccc2[nH]5)C=C4)C=C3)cc1
REMARK SMILES IDX 4 1 3 2 2 3 1 4 26 5 27 6 88 7 28 8 87 9 29 10 30 11 31 12
REMARK SMILES IDX 81 13 32 14 86 15 80 16 82 17 33 18 85 19 79 20 78 21 34 23
REMARK SMILES IDX 66 24 46 25 65 26 47 27 50 28 64 29 83 30 48 31 49 32 63 34
REMARK SMILES IDX 84 35 51 36 35 37 36 38 44 39 37 40 39 41 45 42 38 43 40 44
REMARK SMILES IDX 41 45 42 46 43 47 67 48 68 49 76 50 69 51 71 52 77 53 70 54
REMARK SMILES IDX 72 55 73 56 74 57 75 58 52 59 53 60 61 61 54 62 56 63 62 64
REMARK SMILES IDX 55 65 57 66 58 67 59 68 60 69 5 70 6 71 7 72 8 73 9 74 10 75
REMARK SMILES IDX 18 76 11 77 17 78 12 79 16 80 13 81 15 82 14 83 19 84 20 85
REMARK SMILES IDX 21 86 22 87 25 88 23 89 24 90
REMARK H PARENT 82 22 50 33 25 91
REMARK Flexibility Score: inf
ROOT
ATOM      1  C   UNL A   1      37.046  21.239  24.612  1.00  0.00     0.275 C 
ENDROOT
BRANCH   1   2
ATOM      2  O   UNL A   1      37.662  21.549  25.873  1.00  0.00    -0.458 OA
BRANCH   2   3
ATOM      3  C   UNL A   1      39.000  21.576  26.104  1.00  0.00     0.338 C 
ATOM      4  O   UNL A   1      39.655  20.538  26.114  1.00  0.00    -0.246 OA
BRANCH   3   5
ATOM      5  C   UNL A   1      39.616  22.815  26.654  1.00  0.00     0.060 A 
ATOM      6  C   UNL A   1      40.618  22.847  27.625  1.00  0.00     0.016 A 
ATOM      7  C   UNL A   1      39.103  24.033  26.179  1.00  0.00     0.016 A 
ATOM      8  C   UNL A   1      41.182  24.063  28.033  1.00  0.00     0.010 A 
ATOM      9  C   UNL A   1      39.672  25.248  26.578  1.00  0.00     0.010 A 
ATOM     10  C   UNL A   1      40.730  25.275  27.499  1.00  0.00    -0.014 A 
BRANCH  10  11
ATOM     11  C   UNL A   1      41.308  26.562  27.962  1.00  0.00     0.031 A 
ATOM     12  C   UNL A   1      42.761  26.852  27.710  1.00  0.00     0.074 A 
ATOM     13  C   UNL A   1      40.566  27.462  28.639  1.00  0.00     0.049 A 
ATOM     14  N   UNL A   1      43.433  27.947  27.952  1.00  0.00    -0.248 NA
ATOM     15  C   UNL A   1      43.563  25.768  27.120  1.00  0.00     0.031 C 
ATOM     16  C   UNL A   1      39.170  27.288  29.039  1.00  0.00     0.029 A 
ATOM     17  N   UNL A   1      40.900  28.695  29.149  1.00  0.00    -0.354 N 
ATOM     18  C   UNL A   1      44.729  27.690  27.529  1.00  0.00     0.074 A 
ATOM     19  C   UNL A   1      44.770  26.311  27.096  1.00  0.00     0.031 C 
ATOM     20  C   UNL A   1      38.794  28.344  29.782  1.00  0.00     0.029 A 
ATOM     21  C   UNL A   1      39.889  29.298  29.858  1.00  0.00     0.049 A 
ATOM     22  H   UNL A   1      41.784  29.109  29.017  1.00  0.00     0.167 HD
ATOM     23  C   UNL A   1      45.777  28.540  27.434  1.00  0.00     0.034 A 
ATOM     24  C   UNL A   1      39.825  30.495  30.474  1.00  0.00     0.034 A 
ATOM     25  C   UNL A   1      45.742  29.916  27.838  1.00  0.00     0.049 A 
ATOM     26  C   UNL A   1      40.987  31.439  30.339  1.00  0.00     0.074 A 
ATOM     27  C   UNL A   1      46.729  30.877  27.726  1.00  0.00     0.029 A 
ATOM     28  N   UNL A   1      44.653  30.526  28.442  1.00  0.00    -0.354 N 
ATOM     29  N   UNL A   1      42.133  31.248  29.734  1.00  0.00    -0.248 NA
ATOM     30  C   UNL A   1      40.819  32.788  30.900  1.00  0.00     0.031 C 
ATOM     31  C   UNL A   1      46.232  32.074  28.256  1.00  0.00     0.029 A 
ATOM     32  C   UNL A   1      44.937  31.854  28.699  1.00  0.00     0.049 A 
ATOM     33  H   UNL A   1      43.803  30.079  28.657  1.00  0.00     0.167 HD
ATOM     34  C   UNL A   1      42.801  32.464  29.794  1.00  0.00     0.074 A 
ATOM     35  C   UNL A   1      41.927  33.389  30.488  1.00  0.00     0.031 C 
ATOM     36  C   UNL A   1      44.031  32.783  29.324  1.00  0.00     0.034 A 
BRANCH  23  37
ATOM     37  C   UNL A   1      47.007  28.001  26.759  1.00  0.00     0.023 A 
ATOM     38  C   UNL A   1      48.107  27.634  27.565  1.00  0.00     0.012 A 
ATOM     39  C   UNL A   1      47.106  27.901  25.361  1.00  0.00     0.148 A 
ATOM     40  C   UNL A   1      49.304  27.223  26.989  1.00  0.00     0.002 A 
ATOM     41  C   UNL A   1      48.297  27.459  24.794  1.00  0.00     0.091 A 
ATOM     42  F   UNL A   1      46.058  28.278  24.615  1.00  0.00    -0.205 F 
ATOM     43  C   UNL A   1      49.399  27.132  25.604  1.00  0.00     0.022 A 
BRANCH  41  44
ATOM     44  S   UNL A   1      48.517  27.274  23.022  1.00  0.00     0.127 S 
ATOM     45  O   UNL A   1      47.513  28.201  22.502  1.00  0.00    -0.237 OA
ATOM     46  O   UNL A   1      49.902  27.710  22.838  1.00  0.00    -0.237 OA
ATOM     47  O   UNL A   1      48.280  25.868  22.732  1.00  0.00    -0.744 OA
ENDBRANCH  41  44
ENDBRANCH  23  37
BRANCH  24  48
ATOM     48  C   UNL A   1      38.576  30.934  31.160  1.00  0.00     0.023 A 
ATOM     49  C   UNL A   1      38.389  30.615  32.520  1.00  0.00     0.012 A 
ATOM     50  C   UNL A   1      37.567  31.638  30.474  1.00  0.00     0.148 A 
ATOM     51  C   UNL A   1      37.203  30.948  33.174  1.00  0.00     0.002 A 
ATOM     52  C   UNL A   1      36.392  31.981  31.136  1.00  0.00     0.091 A 
ATOM     53  F   UNL A   1      37.784  31.966  29.192  1.00  0.00    -0.205 F 
ATOM     54  C   UNL A   1      36.204  31.627  32.483  1.00  0.00     0.022 A 
BRANCH  52  55
ATOM     55  S   UNL A   1      35.048  32.870  30.342  1.00  0.00     0.127 S 
ATOM     56  O   UNL A   1      35.712  34.100  29.916  1.00  0.00    -0.237 OA
ATOM     57  O   UNL A   1      34.689  31.954  29.262  1.00  0.00    -0.237 OA
ATOM     58  O   UNL A   1      34.028  33.045  31.367  1.00  0.00    -0.744 OA
ENDBRANCH  52  55
ENDBRANCH  24  48
BRANCH  36  59
ATOM     59  C   UNL A   1      44.498  34.201  29.496  1.00  0.00     0.023 A 
ATOM     60  C   UNL A   1      45.164  34.575  30.679  1.00  0.00     0.012 A 
ATOM     61  C   UNL A   1      44.353  35.136  28.454  1.00  0.00     0.148 A 
ATOM     62  C   UNL A   1      45.662  35.869  30.829  1.00  0.00     0.002 A 
ATOM     63  C   UNL A   1      44.891  36.409  28.593  1.00  0.00     0.091 A 
ATOM     64  F   UNL A   1      43.687  34.768  27.349  1.00  0.00    -0.205 F 
ATOM     65  C   UNL A   1      45.539  36.780  29.782  1.00  0.00     0.022 A 
BRANCH  63  66
ATOM     66  S   UNL A   1      44.856  37.603  27.250  1.00  0.00     0.127 S 
ATOM     67  O   UNL A   1      43.445  37.594  26.877  1.00  0.00    -0.237 OA
ATOM     68  O   UNL A   1      45.307  38.830  27.908  1.00  0.00    -0.237 OA
ATOM     69  O   UNL A   1      45.781  37.089  26.247  1.00  0.00    -0.744 OA
ENDBRANCH  63  66
ENDBRANCH  36  59
ENDBRANCH  10  11
ENDBRANCH   3   5
ENDBRANCH   2   3
ENDBRANCH   1   2
BRANCH   1  70
ATOM     70  C   UNL A   1      35.745  22.004  24.362  1.00  0.00     0.274 C 
BRANCH  70  71
ATOM     71  O   UNL A   1      34.572  21.182  24.288  1.00  0.00    -0.461 OA
BRANCH  71  72
ATOM     72  C   UNL A   1      33.481  21.800  23.732  1.00  0.00     0.329 C 
ATOM     73  O   UNL A   1      32.407  21.242  23.522  1.00  0.00    -0.250 OA
BRANCH  72  74
ATOM     74  C   UNL A   1      33.664  23.334  23.576  1.00  0.00     0.195 C 
ATOM     75  C   UNL A   1      33.155  23.586  22.148  1.00  0.00     0.037 C 
ATOM     76  N   UNL A   1      32.989  24.242  24.526  1.00  0.00    -0.320 N 
ATOM     77  C   UNL A   1      32.930  25.028  21.730  1.00  0.00     0.008 C 
ATOM     78  C   UNL A   1      32.978  25.695  24.180  1.00  0.00     0.089 C 
ATOM     79  C   UNL A   1      33.493  25.988  22.746  1.00  0.00     0.012 C 
ATOM     80  C   UNL A   1      33.858  26.575  25.097  1.00  0.00     0.025 C 
ATOM     81  C   UNL A   1      33.191  27.440  22.362  1.00  0.00     0.006 C 
ATOM     82  C   UNL A   1      33.666  28.059  24.771  1.00  0.00     0.002 C 
ATOM     83  C   UNL A   1      33.920  28.393  23.303  1.00  0.00     0.000 C 
BRANCH  76  84
ATOM     84  C   UNL A   1      32.812  23.787  25.843  1.00  0.00     0.272 C 
ATOM     85  O   UNL A   1      33.760  23.710  26.621  1.00  0.00    -0.267 OA
BRANCH  84  86
ATOM     86  C   UNL A   1      31.492  23.432  26.296  1.00  0.00     0.123 A 
ATOM     87  C   UNL A   1      30.792  22.245  26.350  1.00  0.00     0.055 A 
ATOM     88  N   UNL A   1      30.657  24.353  26.867  1.00  0.00    -0.273 N 
ATOM     89  C   UNL A   1      29.530  22.582  26.877  1.00  0.00     0.135 A 
ATOM     90  N   UNL A   1      29.470  23.861  27.251  1.00  0.00    -0.183 NA
ATOM     91  H   UNL A   1      30.907  25.298  26.987  1.00  0.00     0.190 HD
ENDBRANCH  84  86
ENDBRANCH  76  84
ENDBRANCH  72  74
ENDBRANCH  71  72
ENDBRANCH  70  71
ENDBRANCH   1  70
TORSDOF 16
ENDMDL
MODEL 2
REMARK VINA RESULT:     -12.0      5.960     11.698
REMARK SMILES O=C(OCCOC(=O)[C@H]1CC[C@H]2CCCC[C@@H]2N1C(=O)c1ccn[nH]1)c1ccc(-c2c3nc(c(-c4cccc(S(=O)(=O)[O-])c4F)c4ccc([nH]4)c(-c4cccc(S(=O)(=O)[O-])c4F)c4nc(c(-c5cccc(S(=O)(=O)[O-])c5F)c5ccc2[nH]5)C=C4)C=C3)cc1
REMARK SMILES IDX 4 1 3 2 2 3 1 4 26 5 27 6 88 7 28 8 87 9 29 10 30 11 31 12
REMARK SMILES IDX 81 13 32 14 86 15 80 16 82 17 33 18 85 19 79 20 78 21 34 23
REMARK SMILES IDX 66 24 46 25 65 26 47 27 50 28 64 29 83 30 48 31 49 32 63 34
REMARK SMILES IDX 84 35 51 36 35 37 36 38 44 39 37 40 39 41 45 42 38 43 40 44
REMARK SMILES IDX 41 45 42 46 43 47 67 48 68 49 76 50 69 51 71 52 77 53 70 54
REMARK SMILES IDX 72 55 73 56 74 57 75 58 52 59 53 60 61 61 54 62 56 63 62 64
REMARK SMILES IDX 55 65 57 66 58 67 59 68 60 69 5 70 6 71 7 72 8 73 9 74 10 75
REMARK SMILES IDX 18 76 11 77 17 78 12 79 16 80 13 81 15 82 14 83 19 84 20 85
REMARK SMILES IDX 21 86 22 87 25 88 23 89 24 90
REMARK H PARENT 82 22 50 33 25 91
REMARK Flexibility Score: inf
ROOT
ATOM      1  C   UNL A   1      33.824  33.433  27.884  1.00  0.00     0.275 C 
ENDROOT
BRANCH   1   2
ATOM      2  O   UNL A   1      34.836  32.508  27.453  1.00  0.00    -0.458 OA
BRANCH   2   3
ATOM      3  C   UNL A   1      34.831  31.173  27.701  1.00  0.00     0.338 C 
ATOM      4  O   UNL A   1      33.781  30.537  27.689  1.00  0.00    -0.246 OA
BRANCH   3   5
ATOM      5  C   UNL A   1      36.042  30.542  28.294  1.00  0.00     0.060 A 
ATOM      6  C   UNL A   1      36.055  29.776  29.462  1.00  0.00     0.016 A 
ATOM      7  C   UNL A   1      37.259  30.785  27.639  1.00  0.00     0.016 A 
ATOM      8  C   UNL A   1      37.236  29.168  29.907  1.00  0.00     0.010 A 
ATOM      9  C   UNL A   1      38.438  30.170  28.076  1.00  0.00     0.010 A 
ATOM     10  C   UNL A   1      38.435  29.340  29.207  1.00  0.00    -0.014 A 
BRANCH  10  11
ATOM     11  C   UNL A   1      39.690  28.720  29.704  1.00  0.00     0.031 A 
ATOM     12  C   UNL A   1      40.404  29.334  30.876  1.00  0.00     0.074 A 
ATOM     13  C   UNL A   1      40.225  27.638  29.102  1.00  0.00     0.049 A 
ATOM     14  N   UNL A   1      41.457  28.898  31.515  1.00  0.00    -0.248 NA
ATOM     15  C   UNL A   1      39.870  30.607  31.386  1.00  0.00     0.031 C 
ATOM     16  C   UNL A   1      39.702  26.984  27.903  1.00  0.00     0.029 A 
ATOM     17  N   UNL A   1      41.361  26.920  29.398  1.00  0.00    -0.354 N 
ATOM     18  C   UNL A   1      41.700  29.832  32.512  1.00  0.00     0.074 A 
ATOM     19  C   UNL A   1      40.741  30.899  32.339  1.00  0.00     0.031 C 
ATOM     20  C   UNL A   1      40.549  26.006  27.536  1.00  0.00     0.029 A 
ATOM     21  C   UNL A   1      41.634  25.915  28.500  1.00  0.00     0.049 A 
ATOM     22  H   UNL A   1      41.926  27.109  30.182  1.00  0.00     0.167 HD
ATOM     23  C   UNL A   1      42.591  29.777  33.530  1.00  0.00     0.034 A 
ATOM     24  C   UNL A   1      42.622  25.000  28.463  1.00  0.00     0.034 A 
ATOM     25  C   UNL A   1      43.531  28.712  33.725  1.00  0.00     0.049 A 
ATOM     26  C   UNL A   1      43.588  24.934  29.613  1.00  0.00     0.074 A 
ATOM     27  C   UNL A   1      44.433  28.530  34.758  1.00  0.00     0.029 A 
ATOM     28  N   UNL A   1      43.695  27.643  32.857  1.00  0.00    -0.354 N 
ATOM     29  N   UNL A   1      43.659  25.705  30.670  1.00  0.00    -0.248 NA
ATOM     30  C   UNL A   1      44.558  23.829  29.607  1.00  0.00     0.031 C 
ATOM     31  C   UNL A   1      45.136  27.344  34.516  1.00  0.00     0.029 A 
ATOM     32  C   UNL A   1      44.674  26.791  33.333  1.00  0.00     0.049 A 
ATOM     33  H   UNL A   1      43.188  27.511  32.023  1.00  0.00     0.167 HD
ATOM     34  C   UNL A   1      44.642  25.149  31.478  1.00  0.00     0.074 A 
ATOM     35  C   UNL A   1      45.134  23.971  30.793  1.00  0.00     0.031 C 
ATOM     36  C   UNL A   1      45.101  25.582  32.678  1.00  0.00     0.034 A 
BRANCH  23  37
ATOM     37  C   UNL A   1      42.485  30.866  34.560  1.00  0.00     0.023 A 
ATOM     38  C   UNL A   1      41.390  30.840  35.451  1.00  0.00     0.012 A 
ATOM     39  C   UNL A   1      43.409  31.922  34.625  1.00  0.00     0.148 A 
ATOM     40  C   UNL A   1      41.188  31.875  36.359  1.00  0.00     0.002 A 
ATOM     41  C   UNL A   1      43.217  32.937  35.557  1.00  0.00     0.091 A 
ATOM     42  F   UNL A   1      44.427  31.939  33.753  1.00  0.00    -0.205 F 
ATOM     43  C   UNL A   1      42.102  32.922  36.414  1.00  0.00     0.022 A 
BRANCH  41  44
ATOM     44  S   UNL A   1      44.351  34.317  35.735  1.00  0.00     0.127 S 
ATOM     45  O   UNL A   1      45.572  33.641  36.169  1.00  0.00    -0.237 OA
ATOM     46  O   UNL A   1      44.401  34.851  34.373  1.00  0.00    -0.237 OA
ATOM     47  O   UNL A   1      43.747  35.208  36.714  1.00  0.00    -0.744 OA
ENDBRANCH  41  44
ENDBRANCH  23  37
BRANCH  24  48
ATOM     48  C   UNL A   1      42.676  23.979  27.377  1.00  0.00     0.023 A 
ATOM     49  C   UNL A   1      43.307  24.304  26.160  1.00  0.00     0.012 A 
ATOM     50  C   UNL A   1      42.090  22.708  27.530  1.00  0.00     0.148 A 
ATOM     51  C   UNL A   1      43.314  23.400  25.097  1.00  0.00     0.002 A 
ATOM     52  C   UNL A   1      42.113  21.804  26.472  1.00  0.00     0.091 A 
ATOM     53  F   UNL A   1      41.531  22.407  28.711  1.00  0.00    -0.205 F 
ATOM     54  C   UNL A   1      42.715  22.153  25.252  1.00  0.00     0.022 A 
BRANCH  52  55
ATOM     55  S   UNL A   1      41.384  20.165  26.571  1.00  0.00     0.127 S 
ATOM     56  O   UNL A   1      41.837  19.559  25.320  1.00  0.00    -0.237 OA
ATOM     57  O   UNL A   1      42.014  19.637  27.778  1.00  0.00    -0.237 OA
ATOM     58  O   UNL A   1      39.946  20.377  26.667  1.00  0.00    -0.744 OA
ENDBRANCH  52  55
ENDBRANCH  24  48
BRANCH  36  59
ATOM     59  C   UNL A   1      46.158  24.759  33.358  1.00  0.00     0.023 A 
ATOM     60  C   UNL A   1      47.506  25.162  33.289  1.00  0.00     0.012 A 
ATOM     61  C   UNL A   1      45.807  23.640  34.135  1.00  0.00     0.148 A 
ATOM     62  C   UNL A   1      48.492  24.448  33.969  1.00  0.00     0.002 A 
ATOM     63  C   UNL A   1      46.788  22.960  34.845  1.00  0.00     0.091 A 
ATOM     64  F   UNL A   1      44.522  23.253  34.161  1.00  0.00    -0.205 F 
ATOM     65  C   UNL A   1      48.132  23.357  34.758  1.00  0.00     0.022 A 
BRANCH  63  66
ATOM     66  S   UNL A   1      46.386  21.607  35.957  1.00  0.00     0.127 S 
ATOM     67  O   UNL A   1      45.641  20.708  35.080  1.00  0.00    -0.237 OA
ATOM     68  O   UNL A   1      47.708  21.119  36.352  1.00  0.00    -0.237 OA
ATOM     69  O   UNL A   1      45.623  22.209  37.044  1.00  0.00    -0.744 OA
ENDBRANCH  63  66
ENDBRANCH  36  59
ENDBRANCH  10  11
ENDBRANCH   3   5
ENDBRANCH   2   3
ENDBRANCH   1   2
BRANCH   1  70
ATOM     70  C   UNL A   1      33.815  33.671  29.395  1.00  0.00     0.274 C 
BRANCH  70  71
ATOM     71  O   UNL A   1      35.069  34.106  29.940  1.00  0.00    -0.461 OA
BRANCH  71  72
ATOM     72  C   UNL A   1      35.634  33.229  30.830  1.00  0.00     0.329 C 
ATOM     73  O   UNL A   1      35.022  32.315  31.377  1.00  0.00    -0.250 OA
BRANCH  72  74
ATOM     74  C   UNL A   1      37.177  33.373  30.930  1.00  0.00     0.195 C 
ATOM     75  C   UNL A   1      37.571  33.743  29.492  1.00  0.00     0.037 C 
ATOM     76  N   UNL A   1      37.751  34.347  31.883  1.00  0.00    -0.320 N 
ATOM     77  C   UNL A   1      38.990  34.227  29.259  1.00  0.00     0.008 C 
ATOM     78  C   UNL A   1      39.210  34.636  31.755  1.00  0.00     0.089 C 
ATOM     79  C   UNL A   1      39.848  34.023  30.481  1.00  0.00     0.012 C 
ATOM     80  C   UNL A   1      40.071  34.096  32.920  1.00  0.00     0.025 C 
ATOM     81  C   UNL A   1      41.256  34.590  30.269  1.00  0.00     0.006 C 
ATOM     82  C   UNL A   1      41.521  34.570  32.787  1.00  0.00     0.002 C 
ATOM     83  C   UNL A   1      42.153  34.214  31.444  1.00  0.00     0.000 C 
BRANCH  76  84
ATOM     84  C   UNL A   1      37.044  34.583  33.073  1.00  0.00     0.272 C 
ATOM     85  O   UNL A   1      36.187  35.462  33.139  1.00  0.00    -0.267 OA
BRANCH  84  86
ATOM     86  C   UNL A   1      37.307  33.762  34.226  1.00  0.00     0.123 A 
ATOM     87  C   UNL A   1      37.661  34.038  35.530  1.00  0.00     0.055 A 
ATOM     88  N   UNL A   1      37.167  32.401  34.185  1.00  0.00    -0.273 N 
ATOM     89  C   UNL A   1      37.797  32.782  36.152  1.00  0.00     0.135 A 
ATOM     90  N   UNL A   1      37.433  31.782  35.346  1.00  0.00    -0.183 NA
ATOM     91  H   UNL A   1      36.892  31.917  33.373  1.00  0.00     0.190 HD
ENDBRANCH  84  86
ENDBRANCH  76  84
ENDBRANCH  72  74
ENDBRANCH  71  72
ENDBRANCH  70  71
ENDBRANCH   1  70
TORSDOF 16
ENDMDL
MODEL 3
REMARK VINA RESULT:     -12.0      5.151     10.222
REMARK SMILES O=C(OCCOC(=O)[C@H]1CC[C@H]2CCCC[C@@H]2N1C(=O)c1ccn[nH]1)c1ccc(-c2c3nc(c(-c4cccc(S(=O)(=O)[O-])c4F)c4ccc([nH]4)c(-c4cccc(S(=O)(=O)[O-])c4F)c4nc(c(-c5cccc(S(=O)(=O)[O-])c5F)c5ccc2[nH]5)C=C4)C=C3)cc1
REMARK SMILES IDX 4 1 3 2 2 3 1 4 26 5 27 6 88 7 28 8 87 9 29 10 30 11 31 12
REMARK SMILES IDX 81 13 32 14 86 15 80 16 82 17 33 18 85 19 79 20 78 21 34 23
REMARK SMILES IDX 66 24 46 25 65 26 47 27 50 28 64 29 83 30 48 31 49 32 63 34
REMARK SMILES IDX 84 35 51 36 35 37 36 38 44 39 37 40 39 41 45 42 38 43 40 44
REMARK SMILES IDX 41 45 42 46 43 47 67 48 68 49 76 50 69 51 71 52 77 53 70 54
REMARK SMILES IDX 72 55 73 56 74 57 75 58 52 59 53 60 61 61 54 62 56 63 62 64
REMARK SMILES IDX 55 65 57 66 58 67 59 68 60 69 5 70 6 71 7 72 8 73 9 74 10 75
REMARK SMILES IDX 18 76 11 77 17 78 12 79 16 80 13 81 15 82 14 83 19 84 20 85
REMARK SMILES IDX 21 86 22 87 25 88 23 89 24 90
REMARK H PARENT 82 22 50 33 25 91
REMARK Flexibility Score: inf
ROOT
ATOM      1  C   UNL A   1      32.537  30.389  25.863  1.00  0.00     0.275 C 
ENDROOT
BRANCH   1   2
ATOM      2  O   UNL A   1      32.805  30.804  27.212  1.00  0.00    -0.458 OA
BRANCH   2   3
ATOM      3  C   UNL A   1      33.690  31.769  27.573  1.00  0.00     0.338 C 
ATOM      4  O   UNL A   1      33.530  32.932  27.213  1.00  0.00    -0.246 OA
BRANCH   3   5
ATOM      5  C   UNL A   1      35.011  31.369  28.132  1.00  0.00     0.060 A 
ATOM      6  C   UNL A   1      36.163  32.157  28.104  1.00  0.00     0.016 A 
ATOM      7  C   UNL A   1      35.092  30.081  28.684  1.00  0.00     0.016 A 
ATOM      8  C   UNL A   1      37.345  31.720  28.716  1.00  0.00     0.010 A 
ATOM      9  C   UNL A   1      36.269  29.646  29.305  1.00  0.00     0.010 A 
ATOM     10  C   UNL A   1      37.405  30.469  29.341  1.00  0.00    -0.014 A 
BRANCH  10  11
ATOM     11  C   UNL A   1      38.671  29.998  29.958  1.00  0.00     0.031 A 
ATOM     12  C   UNL A   1      39.101  30.559  31.284  1.00  0.00     0.074 A 
ATOM     13  C   UNL A   1      39.465  29.103  29.334  1.00  0.00     0.049 A 
ATOM     14  N   UNL A   1      40.120  30.216  32.028  1.00  0.00    -0.248 NA
ATOM     15  C   UNL A   1      38.287  31.653  31.838  1.00  0.00     0.031 C 
ATOM     16  C   UNL A   1      39.232  28.536  28.006  1.00  0.00     0.029 A 
ATOM     17  N   UNL A   1      40.660  28.542  29.724  1.00  0.00    -0.354 N 
ATOM     18  C   UNL A   1      40.058  31.038  33.144  1.00  0.00     0.074 A 
ATOM     19  C   UNL A   1      38.957  31.952  32.940  1.00  0.00     0.031 C 
ATOM     20  C   UNL A   1      40.279  27.762  27.672  1.00  0.00     0.029 A 
ATOM     21  C   UNL A   1      41.224  27.720  28.777  1.00  0.00     0.049 A 
ATOM     22  H   UNL A   1      41.072  28.714  30.601  1.00  0.00     0.167 HD
ATOM     23  C   UNL A   1      40.799  30.993  34.276  1.00  0.00     0.034 A 
ATOM     24  C   UNL A   1      42.354  26.986  28.796  1.00  0.00     0.034 A 
ATOM     25  C   UNL A   1      41.879  30.076  34.499  1.00  0.00     0.049 A 
ATOM     26  C   UNL A   1      43.153  26.925  30.068  1.00  0.00     0.074 A 
ATOM     27  C   UNL A   1      42.651  29.907  35.634  1.00  0.00     0.029 A 
ATOM     28  N   UNL A   1      42.344  29.170  33.558  1.00  0.00    -0.354 N 
ATOM     29  N   UNL A   1      42.945  27.553  31.199  1.00  0.00    -0.248 NA
ATOM     30  C   UNL A   1      44.295  26.000  30.094  1.00  0.00     0.031 C 
ATOM     31  C   UNL A   1      43.579  28.889  35.379  1.00  0.00     0.029 A 
ATOM     32  C   UNL A   1      43.384  28.429  34.087  1.00  0.00     0.049 A 
ATOM     33  H   UNL A   1      41.985  29.069  32.647  1.00  0.00     0.167 HD
ATOM     34  C   UNL A   1      43.893  27.061  32.086  1.00  0.00     0.074 A 
ATOM     35  C   UNL A   1      44.672  26.076  31.363  1.00  0.00     0.031 C 
ATOM     36  C   UNL A   1      44.103  27.400  33.381  1.00  0.00     0.034 A 
BRANCH  23  37
ATOM     37  C   UNL A   1      40.366  31.907  35.387  1.00  0.00     0.023 A 
ATOM     38  C   UNL A   1      41.163  33.037  35.675  1.00  0.00     0.012 A 
ATOM     39  C   UNL A   1      39.229  31.642  36.168  1.00  0.00     0.148 A 
ATOM     40  C   UNL A   1      40.864  33.861  36.755  1.00  0.00     0.002 A 
ATOM     41  C   UNL A   1      38.919  32.489  37.227  1.00  0.00     0.091 A 
ATOM     42  F   UNL A   1      38.500  30.551  35.892  1.00  0.00    -0.205 F 
ATOM     43  C   UNL A   1      39.741  33.589  37.529  1.00  0.00     0.022 A 
BRANCH  41  44
ATOM     44  S   UNL A   1      37.477  32.251  38.270  1.00  0.00     0.127 S 
ATOM     45  O   UNL A   1      37.341  30.795  38.256  1.00  0.00    -0.237 OA
ATOM     46  O   UNL A   1      37.926  32.808  39.546  1.00  0.00    -0.237 OA
ATOM     47  O   UNL A   1      36.395  32.987  37.633  1.00  0.00    -0.744 OA
ENDBRANCH  41  44
ENDBRANCH  23  37
BRANCH  24  48
ATOM     48  C   UNL A   1      42.732  26.138  27.630  1.00  0.00     0.023 A 
ATOM     49  C   UNL A   1      43.497  26.703  26.589  1.00  0.00     0.012 A 
ATOM     50  C   UNL A   1      42.323  24.795  27.531  1.00  0.00     0.148 A 
ATOM     51  C   UNL A   1      43.810  25.961  25.450  1.00  0.00     0.002 A 
ATOM     52  C   UNL A   1      42.650  24.054  26.399  1.00  0.00     0.091 A 
ATOM     53  F   UNL A   1      41.631  24.268  28.551  1.00  0.00    -0.205 F 
ATOM     54  C   UNL A   1      43.384  24.639  25.354  1.00  0.00     0.022 A 
BRANCH  52  55
ATOM     55  S   UNL A   1      42.164  22.338  26.180  1.00  0.00     0.127 S 
ATOM     56  O   UNL A   1      40.706  22.436  26.186  1.00  0.00    -0.237 OA
ATOM     57  O   UNL A   1      42.758  22.029  24.882  1.00  0.00    -0.237 OA
ATOM     58  O   UNL A   1      42.737  21.618  27.309  1.00  0.00    -0.744 OA
ENDBRANCH  52  55
ENDBRANCH  24  48
BRANCH  36  59
ATOM     59  C   UNL A   1      45.188  26.675  34.125  1.00  0.00     0.023 A 
ATOM     60  C   UNL A   1      46.512  27.150  34.064  1.00  0.00     0.012 A 
ATOM     61  C   UNL A   1      44.881  25.577  34.951  1.00  0.00     0.148 A 
ATOM     62  C   UNL A   1      47.520  26.529  34.801  1.00  0.00     0.002 A 
ATOM     63  C   UNL A   1      45.882  24.991  35.716  1.00  0.00     0.091 A 
ATOM     64  F   UNL A   1      43.620  25.120  34.970  1.00  0.00    -0.205 F 
ATOM     65  C   UNL A   1      47.203  25.460  35.637  1.00  0.00     0.022 A 
BRANCH  63  66
ATOM     66  S   UNL A   1      45.529  23.675  36.888  1.00  0.00     0.127 S 
ATOM     67  O   UNL A   1      44.612  24.334  37.812  1.00  0.00    -0.237 OA
ATOM     68  O   UNL A   1      44.914  22.653  36.040  1.00  0.00    -0.237 OA
ATOM     69  O   UNL A   1      46.822  23.291  37.443  1.00  0.00    -0.744 OA
ENDBRANCH  63  66
ENDBRANCH  36  59
ENDBRANCH  10  11
ENDBRANCH   3   5
ENDBRANCH   2   3
ENDBRANCH   1   2
BRANCH   1  70
ATOM     70  C   UNL A   1      32.127  28.920  25.745  1.00  0.00     0.274 C 
BRANCH  70  71
ATOM     71  O   UNL A   1      33.211  27.986  25.845  1.00  0.00    -0.461 OA
BRANCH  71  72
ATOM     72  C   UNL A   1      33.666  27.516  24.640  1.00  0.00     0.329 C 
ATOM     73  O   UNL A   1      34.254  28.206  23.810  1.00  0.00    -0.250 OA
BRANCH  72  74
ATOM     74  C   UNL A   1      33.549  25.974  24.503  1.00  0.00     0.195 C 
ATOM     75  C   UNL A   1      33.407  25.520  25.964  1.00  0.00     0.037 C 
ATOM     76  N   UNL A   1      32.460  25.402  23.684  1.00  0.00    -0.320 N 
ATOM     77  C   UNL A   1      33.000  24.080  26.213  1.00  0.00     0.008 C 
ATOM     78  C   UNL A   1      32.230  23.931  23.798  1.00  0.00     0.089 C 
ATOM     79  C   UNL A   1      33.042  23.270  24.943  1.00  0.00     0.012 C 
ATOM     80  C   UNL A   1      32.614  23.127  22.534  1.00  0.00     0.025 C 
ATOM     81  C   UNL A   1      32.549  21.839  25.182  1.00  0.00     0.006 C 
ATOM     82  C   UNL A   1      32.202  21.659  22.680  1.00  0.00     0.002 C 
ATOM     83  C   UNL A   1      32.770  20.994  23.932  1.00  0.00     0.000 C 
BRANCH  76  84
ATOM     84  C   UNL A   1      32.032  26.141  22.569  1.00  0.00     0.272 C 
ATOM     85  O   UNL A   1      32.601  26.040  21.484  1.00  0.00    -0.267 OA
BRANCH  84  86
ATOM     86  C   UNL A   1      30.890  27.009  22.692  1.00  0.00     0.123 A 
ATOM     87  C   UNL A   1      29.760  26.989  23.482  1.00  0.00     0.055 A 
ATOM     88  N   UNL A   1      30.789  28.168  21.972  1.00  0.00    -0.273 N 
ATOM     89  C   UNL A   1      29.014  28.118  23.093  1.00  0.00     0.135 A 
ATOM     90  N   UNL A   1      29.673  28.874  22.212  1.00  0.00    -0.183 NA
ATOM     91  H   UNL A   1      31.478  28.461  21.331  1.00  0.00     0.190 HD
ENDBRANCH  84  86
ENDBRANCH  76  84
ENDBRANCH  72  74
ENDBRANCH  71  72
ENDBRANCH  70  71
ENDBRANCH   1  70
TORSDOF 16
ENDMDL
