MODEL 1
REMARK VINA RESULT:     -11.4      0.000      0.000
REMARK SMILES CC[NH2+][C@]1(C(=O)OCCOC(=O)c2ccc(-c3c4nc(c(-c5cccc(S(=O)(=O)[O-])c5F)c5ccc([nH]5)c(-c5cccc(S(=O)(=O)[O-])c5F)c5nc(c(-c6cccc(S(=O)(=O)[O-])c6F)c6ccc3[nH]6)C=C5)C=C4)cc2)CCC[C@@H]1CC[N@H+]1C[C@H](C)OC[C@@H]1C
REMARK SMILES IDX 8 1 7 2 5 3 6 4 4 5 76 6 79 7 77 8 78 9 3 10 2 13 1 14 80 15
REMARK SMILES IDX 81 16 82 17 83 18 88 19 84 21 87 22 89 23 86 24 85 25 9 26
REMARK SMILES IDX 10 27 11 28 12 29 13 30 14 31 75 32 15 33 74 34 16 35 17 36
REMARK SMILES IDX 18 37 68 38 19 39 73 40 67 41 69 42 20 43 72 44 66 45 65 46
REMARK SMILES IDX 21 48 53 49 33 50 52 51 34 52 37 53 51 54 70 55 35 56 36 57
REMARK SMILES IDX 50 59 71 60 38 61 22 62 23 63 31 64 24 65 26 66 32 67 25 68
REMARK SMILES IDX 27 69 28 70 29 71 30 72 54 73 55 74 63 75 56 76 58 77 64 78
REMARK SMILES IDX 57 79 59 80 60 81 61 82 62 83 39 84 40 85 48 86 41 87 43 88
REMARK SMILES IDX 49 89 42 90 44 91 45 92 46 93 47 94
REMARK H PARENT 3 11 3 12 82 20 69 47 37 58
REMARK Flexibility Score: inf
ROOT
ATOM      1  C   UNL A   1      35.022  20.744  24.805  1.00  0.00     0.274 C 
ENDROOT
BRANCH   1   2
ATOM      2  O   UNL A   1      34.933  22.064  24.235  1.00  0.00    -0.457 OA
BRANCH   2   3
ATOM      3  C   UNL A   1      33.704  22.482  23.823  1.00  0.00     0.368 C 
ATOM      4  O   UNL A   1      33.042  21.891  22.978  1.00  0.00    -0.245 OA
BRANCH   3   5
ATOM      5  C   UNL A   1      33.294  23.845  24.448  1.00  0.00     0.197 C 
ATOM      6  C   UNL A   1      34.487  24.338  25.303  1.00  0.00     0.081 C 
ATOM      7  C   UNL A   1      33.247  24.983  23.362  1.00  0.00     0.068 C 
ATOM      8  C   UNL A   1      34.274  25.836  25.427  1.00  0.00     0.008 C 
ATOM      9  C   UNL A   1      33.796  26.261  24.049  1.00  0.00     0.011 C 
BRANCH   5  10
ATOM     10  N   UNL A   1      32.040  23.799  25.209  1.00  0.00    -0.332 N 
ATOM     11  H   UNL A   1      31.908  24.726  25.615  1.00  0.00     0.347 HD
ATOM     12  H   UNL A   1      31.359  23.488  24.515  1.00  0.00     0.347 HD
BRANCH  10  13
ATOM     13  C   UNL A   1      31.874  22.844  26.287  1.00  0.00     0.257 C 
ATOM     14  C   UNL A   1      30.500  23.029  26.921  1.00  0.00     0.071 C 
ENDBRANCH  10  13
ENDBRANCH   5  10
BRANCH   7  15
ATOM     15  C   UNL A   1      32.038  25.322  22.452  1.00  0.00     0.072 C 
BRANCH  15  16
ATOM     16  C   UNL A   1      31.377  26.708  22.339  1.00  0.00     0.263 C 
BRANCH  16  17
ATOM     17  N   UNL A   1      30.273  27.120  23.214  1.00  0.00    -0.329 N 
ATOM     18  C   UNL A   1      30.633  27.372  24.616  1.00  0.00     0.294 C 
ATOM     19  C   UNL A   1      29.554  28.295  22.651  1.00  0.00     0.207 C 
ATOM     20  H   UNL A   1      29.659  26.306  23.239  1.00  0.00     0.348 HD
ATOM     21  C   UNL A   1      31.374  28.696  24.829  1.00  0.00     0.170 C 
ATOM     22  C   UNL A   1      30.224  29.653  23.009  1.00  0.00     0.225 C 
ATOM     23  C   UNL A   1      28.089  28.269  23.103  1.00  0.00     0.078 C 
ATOM     24  O   UNL A   1      30.536  29.782  24.407  1.00  0.00    -0.366 OA
ATOM     25  C   UNL A   1      31.713  28.874  26.302  1.00  0.00     0.045 C 
ENDBRANCH  16  17
ENDBRANCH  15  16
ENDBRANCH   7  15
ENDBRANCH   3   5
ENDBRANCH   2   3
ENDBRANCH   1   2
BRANCH   1  26
ATOM     26  C   UNL A   1      36.478  20.325  24.993  1.00  0.00     0.275 C 
BRANCH  26  27
ATOM     27  O   UNL A   1      37.238  21.371  25.624  1.00  0.00    -0.458 OA
BRANCH  27  28
ATOM     28  C   UNL A   1      38.546  21.097  25.824  1.00  0.00     0.338 C 
ATOM     29  O   UNL A   1      39.113  20.029  25.675  1.00  0.00    -0.246 OA
BRANCH  28  30
ATOM     30  C   UNL A   1      39.252  22.336  26.185  1.00  0.00     0.060 A 
ATOM     31  C   UNL A   1      40.491  22.226  26.809  1.00  0.00     0.016 A 
ATOM     32  C   UNL A   1      38.652  23.582  26.029  1.00  0.00     0.016 A 
ATOM     33  C   UNL A   1      41.099  23.347  27.362  1.00  0.00     0.010 A 
ATOM     34  C   UNL A   1      39.318  24.726  26.491  1.00  0.00     0.010 A 
ATOM     35  C   UNL A   1      40.541  24.621  27.179  1.00  0.00    -0.014 A 
BRANCH  35  36
ATOM     36  C   UNL A   1      41.272  25.830  27.652  1.00  0.00     0.031 A 
ATOM     37  C   UNL A   1      40.589  26.881  28.486  1.00  0.00     0.074 A 
ATOM     38  C   UNL A   1      42.563  26.003  27.294  1.00  0.00     0.049 A 
ATOM     39  N   UNL A   1      41.028  28.060  28.845  1.00  0.00    -0.248 NA
ATOM     40  C   UNL A   1      39.234  26.575  28.974  1.00  0.00     0.031 C 
ATOM     41  C   UNL A   1      43.347  25.067  26.487  1.00  0.00     0.029 A 
ATOM     42  N   UNL A   1      43.438  27.031  27.549  1.00  0.00    -0.354 N 
ATOM     43  C   UNL A   1      39.986  28.664  29.539  1.00  0.00     0.074 A 
ATOM     44  C   UNL A   1      38.895  27.712  29.568  1.00  0.00     0.031 C 
ATOM     45  C   UNL A   1      44.585  25.553  26.321  1.00  0.00     0.029 A 
ATOM     46  C   UNL A   1      44.660  26.872  26.937  1.00  0.00     0.049 A 
ATOM     47  H   UNL A   1      43.213  27.806  28.113  1.00  0.00     0.167 HD
ATOM     48  C   UNL A   1      39.946  29.894  30.107  1.00  0.00     0.034 A 
ATOM     49  C   UNL A   1      45.712  27.707  26.829  1.00  0.00     0.034 A 
ATOM     50  C   UNL A   1      41.053  30.814  30.136  1.00  0.00     0.049 A 
ATOM     51  C   UNL A   1      45.638  29.063  27.467  1.00  0.00     0.074 A 
ATOM     52  C   UNL A   1      41.123  32.056  30.746  1.00  0.00     0.029 A 
ATOM     53  N   UNL A   1      42.283  30.598  29.535  1.00  0.00    -0.354 N 
ATOM     54  N   UNL A   1      44.671  29.585  28.180  1.00  0.00    -0.248 NA
ATOM     55  C   UNL A   1      46.802  29.942  27.291  1.00  0.00     0.031 C 
ATOM     56  C   UNL A   1      42.391  32.596  30.501  1.00  0.00     0.029 A 
ATOM     57  C   UNL A   1      43.114  31.685  29.750  1.00  0.00     0.049 A 
ATOM     58  H   UNL A   1      42.531  29.790  29.031  1.00  0.00     0.167 HD
ATOM     59  C   UNL A   1      45.111  30.851  28.546  1.00  0.00     0.074 A 
ATOM     60  C   UNL A   1      46.448  31.001  28.007  1.00  0.00     0.031 C 
ATOM     61  C   UNL A   1      44.456  31.810  29.242  1.00  0.00     0.034 A 
BRANCH  48  62
ATOM     62  C   UNL A   1      38.667  30.323  30.777  1.00  0.00     0.023 A 
ATOM     63  C   UNL A   1      38.496  30.106  32.158  1.00  0.00     0.012 A 
ATOM     64  C   UNL A   1      37.675  31.023  30.059  1.00  0.00     0.148 A 
ATOM     65  C   UNL A   1      37.349  30.560  32.810  1.00  0.00     0.002 A 
ATOM     66  C   UNL A   1      36.552  31.504  30.723  1.00  0.00     0.091 A 
ATOM     67  F   UNL A   1      37.846  31.200  28.740  1.00  0.00    -0.205 F 
ATOM     68  C   UNL A   1      36.386  31.269  32.096  1.00  0.00     0.022 A 
BRANCH  66  69
ATOM     69  S   UNL A   1      35.295  32.490  29.901  1.00  0.00     0.127 S 
ATOM     70  O   UNL A   1      34.351  32.731  30.992  1.00  0.00    -0.237 OA
ATOM     71  O   UNL A   1      36.051  33.670  29.479  1.00  0.00    -0.237 OA
ATOM     72  O   UNL A   1      34.796  31.669  28.807  1.00  0.00    -0.744 OA
ENDBRANCH  66  69
ENDBRANCH  48  62
BRANCH  49  73
ATOM     73  C   UNL A   1      46.923  27.268  26.080  1.00  0.00     0.023 A 
ATOM     74  C   UNL A   1      47.805  26.344  26.668  1.00  0.00     0.012 A 
ATOM     75  C   UNL A   1      47.166  27.710  24.764  1.00  0.00     0.148 A 
ATOM     76  C   UNL A   1      48.915  25.876  25.964  1.00  0.00     0.002 A 
ATOM     77  C   UNL A   1      48.236  27.189  24.045  1.00  0.00     0.091 A 
ATOM     78  F   UNL A   1      46.332  28.613  24.229  1.00  0.00    -0.205 F 
ATOM     79  C   UNL A   1      49.120  26.284  24.649  1.00  0.00     0.022 A 
BRANCH  77  80
ATOM     80  S   UNL A   1      48.464  27.543  22.299  1.00  0.00     0.127 S 
ATOM     81  O   UNL A   1      48.689  26.210  21.748  1.00  0.00    -0.237 OA
ATOM     82  O   UNL A   1      47.182  28.151  21.937  1.00  0.00    -0.237 OA
ATOM     83  O   UNL A   1      49.593  28.462  22.237  1.00  0.00    -0.744 OA
ENDBRANCH  77  80
ENDBRANCH  49  73
BRANCH  61  84
ATOM     84  C   UNL A   1      45.176  33.115  29.461  1.00  0.00     0.023 A 
ATOM     85  C   UNL A   1      45.990  33.269  30.601  1.00  0.00     0.012 A 
ATOM     86  C   UNL A   1      45.090  34.161  28.523  1.00  0.00     0.148 A 
ATOM     87  C   UNL A   1      46.685  34.459  30.819  1.00  0.00     0.002 A 
ATOM     88  C   UNL A   1      45.817  35.328  28.726  1.00  0.00     0.091 A 
ATOM     89  F   UNL A   1      44.292  34.001  27.457  1.00  0.00    -0.205 F 
ATOM     90  C   UNL A   1      46.606  35.482  29.878  1.00  0.00     0.022 A 
BRANCH  88  91
ATOM     91  S   UNL A   1      45.838  36.666  27.528  1.00  0.00     0.127 S 
ATOM     92  O   UNL A   1      46.737  37.625  28.166  1.00  0.00    -0.237 OA
ATOM     93  O   UNL A   1      46.387  36.014  26.338  1.00  0.00    -0.237 OA
ATOM     94  O   UNL A   1      44.453  37.098  27.391  1.00  0.00    -0.744 OA
ENDBRANCH  88  91
ENDBRANCH  61  84
ENDBRANCH  35  36
ENDBRANCH  28  30
ENDBRANCH  27  28
ENDBRANCH  26  27
ENDBRANCH   1  26
TORSDOF 19
ENDMDL
MODEL 2
REMARK VINA RESULT:     -11.1      5.156     10.128
REMARK SMILES CC[NH2+][C@]1(C(=O)OCCOC(=O)c2ccc(-c3c4nc(c(-c5cccc(S(=O)(=O)[O-])c5F)c5ccc([nH]5)c(-c5cccc(S(=O)(=O)[O-])c5F)c5nc(c(-c6cccc(S(=O)(=O)[O-])c6F)c6ccc3[nH]6)C=C5)C=C4)cc2)CCC[C@@H]1CC[N@H+]1C[C@H](C)OC[C@@H]1C
REMARK SMILES IDX 8 1 7 2 5 3 6 4 4 5 76 6 79 7 77 8 78 9 3 10 2 13 1 14 80 15
REMARK SMILES IDX 81 16 82 17 83 18 88 19 84 21 87 22 89 23 86 24 85 25 9 26
REMARK SMILES IDX 10 27 11 28 12 29 13 30 14 31 75 32 15 33 74 34 16 35 17 36
REMARK SMILES IDX 18 37 68 38 19 39 73 40 67 41 69 42 20 43 72 44 66 45 65 46
REMARK SMILES IDX 21 48 53 49 33 50 52 51 34 52 37 53 51 54 70 55 35 56 36 57
REMARK SMILES IDX 50 59 71 60 38 61 22 62 23 63 31 64 24 65 26 66 32 67 25 68
REMARK SMILES IDX 27 69 28 70 29 71 30 72 54 73 55 74 63 75 56 76 58 77 64 78
REMARK SMILES IDX 57 79 59 80 60 81 61 82 62 83 39 84 40 85 48 86 41 87 43 88
REMARK SMILES IDX 49 89 42 90 44 91 45 92 46 93 47 94
REMARK H PARENT 3 11 3 12 82 20 69 47 37 58
REMARK Flexibility Score: inf
ROOT
ATOM      1  C   UNL A   1      32.336  28.201  26.731  1.00  0.00     0.274 C 
ENDROOT
BRANCH   1   2
ATOM      2  O   UNL A   1      32.826  27.840  25.426  1.00  0.00    -0.457 OA
BRANCH   2   3
ATOM      3  C   UNL A   1      33.258  26.559  25.256  1.00  0.00     0.368 C 
ATOM      4  O   UNL A   1      34.251  26.105  25.814  1.00  0.00    -0.245 OA
BRANCH   3   5
ATOM      5  C   UNL A   1      32.433  25.784  24.191  1.00  0.00     0.197 C 
ATOM      6  C   UNL A   1      31.720  26.836  23.305  1.00  0.00     0.081 C 
ATOM      7  C   UNL A   1      33.367  25.111  23.119  1.00  0.00     0.068 C 
ATOM      8  C   UNL A   1      31.401  26.096  22.017  1.00  0.00     0.008 C 
ATOM      9  C   UNL A   1      32.636  25.249  21.758  1.00  0.00     0.011 C 
BRANCH   5  10
ATOM     10  N   UNL A   1      31.499  24.803  24.757  1.00  0.00    -0.332 N 
ATOM     11  H   UNL A   1      30.566  25.068  24.440  1.00  0.00     0.347 HD
ATOM     12  H   UNL A   1      31.873  23.912  24.431  1.00  0.00     0.347 HD
BRANCH  10  13
ATOM     13  C   UNL A   1      31.414  24.620  26.194  1.00  0.00     0.257 C 
ATOM     14  C   UNL A   1      30.584  23.378  26.498  1.00  0.00     0.071 C 
ENDBRANCH  10  13
ENDBRANCH   5  10
BRANCH   7  15
ATOM     15  C   UNL A   1      34.039  23.718  23.245  1.00  0.00     0.072 C 
BRANCH  15  16
ATOM     16  C   UNL A   1      33.287  22.381  23.368  1.00  0.00     0.263 C 
BRANCH  16  17
ATOM     17  N   UNL A   1      33.080  21.719  24.662  1.00  0.00    -0.329 N 
ATOM     18  C   UNL A   1      32.394  20.422  24.611  1.00  0.00     0.294 C 
ATOM     19  C   UNL A   1      34.362  21.591  25.408  1.00  0.00     0.207 C 
ATOM     20  H   UNL A   1      32.441  22.340  25.159  1.00  0.00     0.348 HD
ATOM     21  C   UNL A   1      33.280  19.280  24.102  1.00  0.00     0.170 C 
ATOM     22  C   UNL A   1      35.185  20.336  25.001  1.00  0.00     0.225 C 
ATOM     23  C   UNL A   1      34.085  21.601  26.916  1.00  0.00     0.078 C 
ATOM     24  O   UNL A   1      34.406  19.128  24.979  1.00  0.00    -0.366 OA
ATOM     25  C   UNL A   1      32.492  17.979  24.075  1.00  0.00     0.045 C 
ENDBRANCH  16  17
ENDBRANCH  15  16
ENDBRANCH   7  15
ENDBRANCH   3   5
ENDBRANCH   2   3
ENDBRANCH   1   2
BRANCH   1  26
ATOM     26  C   UNL A   1      32.053  29.698  26.816  1.00  0.00     0.275 C 
BRANCH  26  27
ATOM     27  O   UNL A   1      33.204  30.464  26.416  1.00  0.00    -0.458 OA
BRANCH  27  28
ATOM     28  C   UNL A   1      33.588  31.428  27.282  1.00  0.00     0.338 C 
ATOM     29  O   UNL A   1      32.948  32.400  27.645  1.00  0.00    -0.246 OA
BRANCH  28  30
ATOM     30  C   UNL A   1      34.914  31.094  27.824  1.00  0.00     0.060 A 
ATOM     31  C   UNL A   1      35.114  29.810  28.321  1.00  0.00     0.016 A 
ATOM     32  C   UNL A   1      35.905  32.063  27.958  1.00  0.00     0.016 A 
ATOM     33  C   UNL A   1      36.268  29.507  29.035  1.00  0.00     0.010 A 
ATOM     34  C   UNL A   1      37.113  31.724  28.584  1.00  0.00     0.010 A 
ATOM     35  C   UNL A   1      37.303  30.447  29.145  1.00  0.00    -0.014 A 
BRANCH  35  36
ATOM     36  C   UNL A   1      38.592  30.066  29.789  1.00  0.00     0.031 A 
ATOM     37  C   UNL A   1      39.523  29.072  29.148  1.00  0.00     0.074 A 
ATOM     38  C   UNL A   1      38.912  30.598  30.989  1.00  0.00     0.049 A 
ATOM     39  N   UNL A   1      40.598  28.515  29.643  1.00  0.00    -0.248 NA
ATOM     40  C   UNL A   1      39.204  28.640  27.777  1.00  0.00     0.031 C 
ATOM     41  C   UNL A   1      38.102  31.569  31.725  1.00  0.00     0.029 A 
ATOM     42  N   UNL A   1      39.994  30.384  31.808  1.00  0.00    -0.354 N 
ATOM     43  C   UNL A   1      41.045  27.619  28.679  1.00  0.00     0.074 A 
ATOM     44  C   UNL A   1      40.133  27.720  27.559  1.00  0.00     0.031 C 
ATOM     45  C   UNL A   1      38.715  31.878  32.876  1.00  0.00     0.029 A 
ATOM     46  C   UNL A   1      39.918  31.065  33.001  1.00  0.00     0.049 A 
ATOM     47  H   UNL A   1      40.749  29.802  31.565  1.00  0.00     0.167 HD
ATOM     48  C   UNL A   1      42.121  26.794  28.721  1.00  0.00     0.034 A 
ATOM     49  C   UNL A   1      40.693  31.011  34.102  1.00  0.00     0.034 A 
ATOM     50  C   UNL A   1      43.065  26.742  29.807  1.00  0.00     0.049 A 
ATOM     51  C   UNL A   1      41.876  30.089  34.120  1.00  0.00     0.074 A 
ATOM     52  C   UNL A   1      44.221  25.985  29.906  1.00  0.00     0.029 A 
ATOM     53  N   UNL A   1      42.969  27.475  30.980  1.00  0.00    -0.354 N 
ATOM     54  N   UNL A   1      42.322  29.305  33.170  1.00  0.00    -0.248 NA
ATOM     55  C   UNL A   1      42.666  30.049  35.358  1.00  0.00     0.031 C 
ATOM     56  C   UNL A   1      44.815  26.249  31.145  1.00  0.00     0.029 A 
ATOM     57  C   UNL A   1      44.037  27.180  31.812  1.00  0.00     0.049 A 
ATOM     58  H   UNL A   1      42.250  28.112  31.191  1.00  0.00     0.167 HD
ATOM     59  C   UNL A   1      43.449  28.682  33.691  1.00  0.00     0.074 A 
ATOM     60  C   UNL A   1      43.639  29.211  35.028  1.00  0.00     0.031 C 
ATOM     61  C   UNL A   1      44.239  27.739  33.124  1.00  0.00     0.034 A 
BRANCH  48  62
ATOM     62  C   UNL A   1      42.364  25.888  27.543  1.00  0.00     0.023 A 
ATOM     63  C   UNL A   1      43.111  26.357  26.444  1.00  0.00     0.012 A 
ATOM     64  C   UNL A   1      41.934  24.545  27.565  1.00  0.00     0.148 A 
ATOM     65  C   UNL A   1      43.408  25.510  25.377  1.00  0.00     0.002 A 
ATOM     66  C   UNL A   1      42.266  23.697  26.514  1.00  0.00     0.091 A 
ATOM     67  F   UNL A   1      41.206  24.124  28.609  1.00  0.00    -0.205 F 
ATOM     68  C   UNL A   1      42.997  24.180  25.417  1.00  0.00     0.022 A 
BRANCH  66  69
ATOM     69  S   UNL A   1      41.843  21.951  26.513  1.00  0.00     0.127 S 
ATOM     70  O   UNL A   1      40.398  21.998  26.296  1.00  0.00    -0.237 OA
ATOM     71  O   UNL A   1      42.613  21.445  25.376  1.00  0.00    -0.237 OA
ATOM     72  O   UNL A   1      42.269  21.437  27.807  1.00  0.00    -0.744 OA
ENDBRANCH  66  69
ENDBRANCH  48  62
BRANCH  49  73
ATOM     73  C   UNL A   1      40.359  31.865  35.277  1.00  0.00     0.023 A 
ATOM     74  C   UNL A   1      40.987  33.115  35.426  1.00  0.00     0.012 A 
ATOM     75  C   UNL A   1      39.373  31.475  36.206  1.00  0.00     0.148 A 
ATOM     76  C   UNL A   1      40.649  33.956  36.487  1.00  0.00     0.002 A 
ATOM     77  C   UNL A   1      38.994  32.347  37.221  1.00  0.00     0.091 A 
ATOM     78  F   UNL A   1      38.805  30.269  36.065  1.00  0.00    -0.205 F 
ATOM     79  C   UNL A   1      39.642  33.580  37.372  1.00  0.00     0.022 A 
BRANCH  77  80
ATOM     80  S   UNL A   1      37.595  31.999  38.292  1.00  0.00     0.127 S 
ATOM     81  O   UNL A   1      36.605  32.960  37.817  1.00  0.00    -0.237 OA
ATOM     82  O   UNL A   1      37.301  30.601  37.972  1.00  0.00    -0.237 OA
ATOM     83  O   UNL A   1      38.089  32.204  39.648  1.00  0.00    -0.744 OA
ENDBRANCH  77  80
ENDBRANCH  49  73
BRANCH  61  84
ATOM     84  C   UNL A   1      45.384  27.214  33.947  1.00  0.00     0.023 A 
ATOM     85  C   UNL A   1      46.626  27.880  33.906  1.00  0.00     0.012 A 
ATOM     86  C   UNL A   1      45.223  26.102  34.795  1.00  0.00     0.148 A 
ATOM     87  C   UNL A   1      47.699  27.428  34.674  1.00  0.00     0.002 A 
ATOM     88  C   UNL A   1      46.284  25.682  35.588  1.00  0.00     0.091 A 
ATOM     89  F   UNL A   1      44.040  25.469  34.803  1.00  0.00    -0.205 F 
ATOM     90  C   UNL A   1      47.525  26.337  35.521  1.00  0.00     0.022 A 
BRANCH  88  91
ATOM     91  S   UNL A   1      46.127  24.335  36.767  1.00  0.00     0.127 S 
ATOM     92  O   UNL A   1      47.391  24.426  37.495  1.00  0.00    -0.237 OA
ATOM     93  O   UNL A   1      44.948  24.730  37.539  1.00  0.00    -0.237 OA
ATOM     94  O   UNL A   1      45.946  23.129  35.969  1.00  0.00    -0.744 OA
ENDBRANCH  88  91
ENDBRANCH  61  84
ENDBRANCH  35  36
ENDBRANCH  28  30
ENDBRANCH  27  28
ENDBRANCH  26  27
ENDBRANCH   1  26
TORSDOF 19
ENDMDL
MODEL 3
REMARK VINA RESULT:     -10.7      4.913      7.947
REMARK SMILES CC[NH2+][C@]1(C(=O)OCCOC(=O)c2ccc(-c3c4nc(c(-c5cccc(S(=O)(=O)[O-])c5F)c5ccc([nH]5)c(-c5cccc(S(=O)(=O)[O-])c5F)c5nc(c(-c6cccc(S(=O)(=O)[O-])c6F)c6ccc3[nH]6)C=C5)C=C4)cc2)CCC[C@@H]1CC[N@H+]1C[C@H](C)OC[C@@H]1C
REMARK SMILES IDX 8 1 7 2 5 3 6 4 4 5 76 6 79 7 77 8 78 9 3 10 2 13 1 14 80 15
REMARK SMILES IDX 81 16 82 17 83 18 88 19 84 21 87 22 89 23 86 24 85 25 9 26
REMARK SMILES IDX 10 27 11 28 12 29 13 30 14 31 75 32 15 33 74 34 16 35 17 36
REMARK SMILES IDX 18 37 68 38 19 39 73 40 67 41 69 42 20 43 72 44 66 45 65 46
REMARK SMILES IDX 21 48 53 49 33 50 52 51 34 52 37 53 51 54 70 55 35 56 36 57
REMARK SMILES IDX 50 59 71 60 38 61 22 62 23 63 31 64 24 65 26 66 32 67 25 68
REMARK SMILES IDX 27 69 28 70 29 71 30 72 54 73 55 74 63 75 56 76 58 77 64 78
REMARK SMILES IDX 57 79 59 80 60 81 61 82 62 83 39 84 40 85 48 86 41 87 43 88
REMARK SMILES IDX 49 89 42 90 44 91 45 92 46 93 47 94
REMARK H PARENT 3 11 3 12 82 20 69 47 37 58
REMARK Flexibility Score: inf
ROOT
ATOM      1  C   UNL A   1      31.818  28.601  27.229  1.00  0.00     0.274 C 
ENDROOT
BRANCH   1   2
ATOM      2  O   UNL A   1      32.315  27.777  26.157  1.00  0.00    -0.457 OA
BRANCH   2   3
ATOM      3  C   UNL A   1      31.448  27.477  25.151  1.00  0.00     0.368 C 
ATOM      4  O   UNL A   1      30.631  28.276  24.707  1.00  0.00    -0.245 OA
BRANCH   3   5
ATOM      5  C   UNL A   1      31.525  25.987  24.717  1.00  0.00     0.197 C 
ATOM      6  C   UNL A   1      30.185  25.640  24.021  1.00  0.00     0.081 C 
ATOM      7  C   UNL A   1      32.517  25.790  23.512  1.00  0.00     0.068 C 
ATOM      8  C   UNL A   1      30.502  24.423  23.169  1.00  0.00     0.008 C 
ATOM      9  C   UNL A   1      31.876  24.720  22.591  1.00  0.00     0.011 C 
BRANCH   5  10
ATOM     10  N   UNL A   1      31.844  25.062  25.811  1.00  0.00    -0.332 N 
ATOM     11  H   UNL A   1      32.253  24.231  25.384  1.00  0.00     0.347 HD
ATOM     12  H   UNL A   1      32.442  25.622  26.420  1.00  0.00     0.347 HD
BRANCH  10  13
ATOM     13  C   UNL A   1      30.800  24.600  26.706  1.00  0.00     0.257 C 
ATOM     14  C   UNL A   1      30.691  23.082  26.615  1.00  0.00     0.071 C 
ENDBRANCH  10  13
ENDBRANCH   5  10
BRANCH   7  15
ATOM     15  C   UNL A   1      34.050  25.575  23.622  1.00  0.00     0.072 C 
BRANCH  15  16
ATOM     16  C   UNL A   1      34.733  24.239  23.967  1.00  0.00     0.263 C 
BRANCH  16  17
ATOM     17  N   UNL A   1      35.544  24.068  25.178  1.00  0.00    -0.329 N 
ATOM     18  C   UNL A   1      34.848  23.488  26.333  1.00  0.00     0.294 C 
ATOM     19  C   UNL A   1      36.783  23.296  24.886  1.00  0.00     0.207 C 
ATOM     20  H   UNL A   1      35.777  25.021  25.457  1.00  0.00     0.348 HD
ATOM     21  C   UNL A   1      34.608  21.979  26.209  1.00  0.00     0.170 C 
ATOM     22  C   UNL A   1      36.569  21.756  24.922  1.00  0.00     0.225 C 
ATOM     23  C   UNL A   1      37.895  23.719  25.855  1.00  0.00     0.078 C 
ATOM     24  O   UNL A   1      35.871  21.306  26.096  1.00  0.00    -0.366 OA
ATOM     25  C   UNL A   1      33.879  21.463  27.441  1.00  0.00     0.045 C 
ENDBRANCH  16  17
ENDBRANCH  15  16
ENDBRANCH   7  15
ENDBRANCH   3   5
ENDBRANCH   2   3
ENDBRANCH   1   2
BRANCH   1  26
ATOM     26  C   UNL A   1      32.457  29.987  27.197  1.00  0.00     0.275 C 
BRANCH  26  27
ATOM     27  O   UNL A   1      33.890  29.892  27.101  1.00  0.00    -0.458 OA
BRANCH  27  28
ATOM     28  C   UNL A   1      34.576  30.926  27.637  1.00  0.00     0.338 C 
ATOM     29  O   UNL A   1      34.244  32.097  27.678  1.00  0.00    -0.246 OA
BRANCH  28  30
ATOM     30  C   UNL A   1      35.801  30.417  28.273  1.00  0.00     0.060 A 
ATOM     31  C   UNL A   1      36.992  30.494  27.556  1.00  0.00     0.016 A 
ATOM     32  C   UNL A   1      35.760  29.760  29.500  1.00  0.00     0.016 A 
ATOM     33  C   UNL A   1      38.129  29.839  28.015  1.00  0.00     0.010 A 
ATOM     34  C   UNL A   1      36.936  29.193  30.012  1.00  0.00     0.010 A 
ATOM     35  C   UNL A   1      38.130  29.211  29.268  1.00  0.00    -0.014 A 
BRANCH  35  36
ATOM     36  C   UNL A   1      39.392  28.635  29.813  1.00  0.00     0.031 A 
ATOM     37  C   UNL A   1      40.054  29.216  31.035  1.00  0.00     0.074 A 
ATOM     38  C   UNL A   1      39.971  27.595  29.176  1.00  0.00     0.049 A 
ATOM     39  N   UNL A   1      41.227  28.940  31.544  1.00  0.00    -0.248 NA
ATOM     40  C   UNL A   1      39.308  30.246  31.777  1.00  0.00     0.031 C 
ATOM     41  C   UNL A   1      39.442  26.936  27.981  1.00  0.00     0.029 A 
ATOM     42  N   UNL A   1      41.140  26.919  29.434  1.00  0.00    -0.354 N 
ATOM     43  C   UNL A   1      41.392  29.804  32.620  1.00  0.00     0.074 A 
ATOM     44  C   UNL A   1      40.187  30.604  32.703  1.00  0.00     0.031 C 
ATOM     45  C   UNL A   1      40.269  25.947  27.615  1.00  0.00     0.029 A 
ATOM     46  C   UNL A   1      41.430  25.955  28.496  1.00  0.00     0.049 A 
ATOM     47  H   UNL A   1      41.712  27.106  30.212  1.00  0.00     0.167 HD
ATOM     48  C   UNL A   1      42.446  29.915  33.466  1.00  0.00     0.034 A 
ATOM     49  C   UNL A   1      42.527  25.192  28.321  1.00  0.00     0.034 A 
ATOM     50  C   UNL A   1      43.614  29.075  33.424  1.00  0.00     0.049 A 
ATOM     51  C   UNL A   1      43.679  25.337  29.272  1.00  0.00     0.074 A 
ATOM     52  C   UNL A   1      44.702  29.072  34.283  1.00  0.00     0.029 A 
ATOM     53  N   UNL A   1      43.851  28.087  32.481  1.00  0.00    -0.354 N 
ATOM     54  N   UNL A   1      43.783  26.108  30.326  1.00  0.00    -0.248 NA
ATOM     55  C   UNL A   1      44.860  24.502  29.015  1.00  0.00     0.031 C 
ATOM     56  C   UNL A   1      45.602  28.093  33.848  1.00  0.00     0.029 A 
ATOM     57  C   UNL A   1      45.070  27.477  32.727  1.00  0.00     0.049 A 
ATOM     58  H   UNL A   1      43.243  27.853  31.743  1.00  0.00     0.167 HD
ATOM     59  C   UNL A   1      45.038  25.848  30.863  1.00  0.00     0.074 A 
ATOM     60  C   UNL A   1      45.640  24.819  30.039  1.00  0.00     0.031 C 
ATOM     61  C   UNL A   1      45.645  26.428  31.925  1.00  0.00     0.034 A 
BRANCH  48  62
ATOM     62  C   UNL A   1      42.384  30.969  34.540  1.00  0.00     0.023 A 
ATOM     63  C   UNL A   1      41.870  30.642  35.810  1.00  0.00     0.012 A 
ATOM     64  C   UNL A   1      42.919  32.255  34.320  1.00  0.00     0.148 A 
ATOM     65  C   UNL A   1      41.871  31.584  36.839  1.00  0.00     0.002 A 
ATOM     66  C   UNL A   1      42.950  33.176  35.361  1.00  0.00     0.091 A 
ATOM     67  F   UNL A   1      43.383  32.554  33.098  1.00  0.00    -0.205 F 
ATOM     68  C   UNL A   1      42.421  32.844  36.618  1.00  0.00     0.022 A 
BRANCH  66  69
ATOM     69  S   UNL A   1      43.705  34.798  35.192  1.00  0.00     0.127 S 
ATOM     70  O   UNL A   1      42.745  35.481  34.326  1.00  0.00    -0.237 OA
ATOM     71  O   UNL A   1      43.725  35.278  36.574  1.00  0.00    -0.237 OA
ATOM     72  O   UNL A   1      45.021  34.567  34.614  1.00  0.00    -0.744 OA
ENDBRANCH  66  69
ENDBRANCH  48  62
BRANCH  49  73
ATOM     73  C   UNL A   1      42.575  24.224  27.189  1.00  0.00     0.023 A 
ATOM     74  C   UNL A   1      43.277  24.562  26.017  1.00  0.00     0.012 A 
ATOM     75  C   UNL A   1      41.988  22.948  27.296  1.00  0.00     0.148 A 
ATOM     76  C   UNL A   1      43.383  23.650  24.967  1.00  0.00     0.002 A 
ATOM     77  C   UNL A   1      42.154  22.021  26.273  1.00  0.00     0.091 A 
ATOM     78  F   UNL A   1      41.298  22.653  28.407  1.00  0.00    -0.205 F 
ATOM     79  C   UNL A   1      42.838  22.375  25.102  1.00  0.00     0.022 A 
BRANCH  77  80
ATOM     80  S   UNL A   1      41.624  20.314  26.448  1.00  0.00     0.127 S 
ATOM     81  O   UNL A   1      40.176  20.432  26.307  1.00  0.00    -0.237 OA
ATOM     82  O   UNL A   1      42.302  19.662  25.326  1.00  0.00    -0.237 OA
ATOM     83  O   UNL A   1      42.108  19.893  27.757  1.00  0.00    -0.744 OA
ENDBRANCH  77  80
ENDBRANCH  49  73
BRANCH  61  84
ATOM     84  C   UNL A   1      47.037  25.965  32.260  1.00  0.00     0.023 A 
ATOM     85  C   UNL A   1      48.133  26.511  31.561  1.00  0.00     0.012 A 
ATOM     86  C   UNL A   1      47.268  25.036  33.292  1.00  0.00     0.148 A 
ATOM     87  C   UNL A   1      49.435  26.117  31.865  1.00  0.00     0.002 A 
ATOM     88  C   UNL A   1      48.571  24.678  33.617  1.00  0.00     0.091 A 
ATOM     89  F   UNL A   1      46.211  24.512  33.930  1.00  0.00    -0.205 F 
ATOM     90  C   UNL A   1      49.655  25.209  32.897  1.00  0.00     0.022 A 
BRANCH  88  91
ATOM     91  S   UNL A   1      48.951  23.577  34.984  1.00  0.00     0.127 S 
ATOM     92  O   UNL A   1      48.433  22.301  34.494  1.00  0.00    -0.237 OA
ATOM     93  O   UNL A   1      50.411  23.656  35.055  1.00  0.00    -0.237 OA
ATOM     94  O   UNL A   1      48.264  24.131  36.143  1.00  0.00    -0.744 OA
ENDBRANCH  88  91
ENDBRANCH  61  84
ENDBRANCH  35  36
ENDBRANCH  28  30
ENDBRANCH  27  28
ENDBRANCH  26  27
ENDBRANCH   1  26
TORSDOF 19
ENDMDL
