MODEL 1
REMARK VINA RESULT:     -12.0      0.000      0.000
REMARK SMILES C[C@@H](C(=O)OCCOC(=O)c1ccc(-c2c3nc(c(-c4cccc(S(=O)(=O)[O-])c4F)c4ccc([nH]4)c(-c4cccc(S(=O)(=O)[O-])c4F)c4nc(c(-c5cccc(S(=O)(=O)[O-])c5F)c5ccc2[nH]5)C=C4)C=C3)cc1)c1ccc(-c2cccc(OC(=O)NCCCc3ccccc3)c2)c(F)c1
REMARK SMILES IDX 3 1 4 2 2 3 1 4 74 5 75 6 99 7 76 8 97 9 77 10 98 11 78 12
REMARK SMILES IDX 79 13 96 14 80 15 82 16 81 17 83 18 84 19 85 20 86 21 87 23
REMARK SMILES IDX 88 24 89 25 90 26 91 27 95 28 92 29 94 30 93 31 5 32 6 33
REMARK SMILES IDX 7 34 8 35 9 36 10 37 11 38 12 39 73 40 13 41 72 42 14 43
REMARK SMILES IDX 15 44 16 45 66 46 17 47 71 48 65 49 67 50 18 51 70 52 64 53
REMARK SMILES IDX 63 54 19 56 51 57 31 58 50 59 32 60 35 61 49 62 68 63 33 64
REMARK SMILES IDX 34 65 48 67 69 68 36 69 20 70 21 71 29 72 22 73 24 74 30 75
REMARK SMILES IDX 23 76 25 77 26 78 27 79 28 80 52 81 53 82 61 83 54 84 56 85
REMARK SMILES IDX 62 86 55 87 57 88 58 89 59 90 60 91 37 92 38 93 46 94 39 95
REMARK SMILES IDX 41 96 47 97 40 98 42 99 43 100 44 101 45 102
REMARK H PARENT 86 22 67 55 35 66
REMARK Flexibility Score: inf
ROOT
ATOM      1  C   UNL A   1      30.043  29.186  22.895  1.00  0.00     0.313 C 
ATOM      2  O   UNL A   1      30.539  29.688  21.892  1.00  0.00    -0.252 OA
ENDROOT
BRANCH   1   3
ATOM      3  C   UNL A   1      29.294  27.847  22.887  1.00  0.00     0.126 C 
ATOM      4  C   UNL A   1      27.863  27.943  23.433  1.00  0.00     0.025 C 
BRANCH   3   5
ATOM      5  C   UNL A   1      30.103  26.742  23.560  1.00  0.00    -0.031 A 
ATOM      6  C   UNL A   1      29.767  26.298  24.848  1.00  0.00     0.005 A 
ATOM      7  C   UNL A   1      31.157  26.098  22.908  1.00  0.00     0.044 A 
ATOM      8  C   UNL A   1      30.461  25.239  25.460  1.00  0.00     0.012 A 
ATOM      9  C   UNL A   1      31.836  25.041  23.519  1.00  0.00     0.131 A 
ATOM     10  C   UNL A   1      31.509  24.571  24.806  1.00  0.00     0.018 A 
ATOM     11  F   UNL A   1      32.771  24.426  22.778  1.00  0.00    -0.206 F 
BRANCH  10  12
ATOM     12  C   UNL A   1      32.201  23.404  25.411  1.00  0.00    -0.012 A 
ATOM     13  C   UNL A   1      32.759  23.440  26.703  1.00  0.00     0.009 A 
ATOM     14  C   UNL A   1      32.285  22.188  24.714  1.00  0.00     0.056 A 
ATOM     15  C   UNL A   1      33.350  22.304  27.273  1.00  0.00     0.004 A 
ATOM     16  C   UNL A   1      32.852  21.051  25.287  1.00  0.00     0.133 A 
ATOM     17  C   UNL A   1      33.383  21.102  26.572  1.00  0.00     0.047 A 
BRANCH  16  18
ATOM     18  O   UNL A   1      32.940  19.798  24.638  1.00  0.00    -0.410 OA
BRANCH  18  19
ATOM     19  C   UNL A   1      33.102  18.566  25.264  1.00  0.00     0.412 C 
ATOM     20  O   UNL A   1      32.261  17.938  25.895  1.00  0.00    -0.224 OA
ATOM     21  N   UNL A   1      34.340  18.024  25.079  1.00  0.00    -0.321 N 
ATOM     22  H   UNL A   1      34.520  17.163  25.523  1.00  0.00     0.167 HD
BRANCH  21  23
ATOM     23  C   UNL A   1      35.413  18.592  24.297  1.00  0.00     0.120 C 
BRANCH  23  24
ATOM     24  C   UNL A   1      36.655  18.963  25.113  1.00  0.00     0.026 C 
BRANCH  24  25
ATOM     25  C   UNL A   1      37.450  20.211  24.706  1.00  0.00     0.037 C 
BRANCH  25  26
ATOM     26  C   UNL A   1      36.803  21.576  24.734  1.00  0.00    -0.048 A 
ATOM     27  C   UNL A   1      36.121  22.151  23.660  1.00  0.00     0.004 A 
ATOM     28  C   UNL A   1      36.934  22.334  25.913  1.00  0.00     0.004 A 
ATOM     29  C   UNL A   1      35.584  23.439  23.755  1.00  0.00     0.000 A 
ATOM     30  C   UNL A   1      36.390  23.615  26.015  1.00  0.00     0.000 A 
ATOM     31  C   UNL A   1      35.716  24.170  24.932  1.00  0.00     0.000 A 
ENDBRANCH  25  26
ENDBRANCH  24  25
ENDBRANCH  23  24
ENDBRANCH  21  23
ENDBRANCH  18  19
ENDBRANCH  16  18
ENDBRANCH  10  12
ENDBRANCH   3   5
ENDBRANCH   1   3
BRANCH   1  32
ATOM     32  O   UNL A   1      30.040  29.783  24.119  1.00  0.00    -0.462 OA
BRANCH  32  33
ATOM     33  C   UNL A   1      31.282  29.787  24.852  1.00  0.00     0.274 C 
BRANCH  33  34
ATOM     34  C   UNL A   1      31.303  30.925  25.871  1.00  0.00     0.275 C 
BRANCH  34  35
ATOM     35  O   UNL A   1      32.321  30.690  26.859  1.00  0.00    -0.458 OA
BRANCH  35  36
ATOM     36  C   UNL A   1      32.997  31.789  27.260  1.00  0.00     0.338 C 
ATOM     37  O   UNL A   1      32.560  32.921  27.388  1.00  0.00    -0.246 OA
BRANCH  36  38
ATOM     38  C   UNL A   1      34.376  31.425  27.608  1.00  0.00     0.060 A 
ATOM     39  C   UNL A   1      34.665  30.090  27.859  1.00  0.00     0.016 A 
ATOM     40  C   UNL A   1      35.323  32.413  27.877  1.00  0.00     0.016 A 
ATOM     41  C   UNL A   1      35.847  29.762  28.516  1.00  0.00     0.010 A 
ATOM     42  C   UNL A   1      36.558  32.055  28.436  1.00  0.00     0.010 A 
ATOM     43  C   UNL A   1      36.815  30.731  28.832  1.00  0.00    -0.014 A 
BRANCH  43  44
ATOM     44  C   UNL A   1      38.039  30.357  29.616  1.00  0.00     0.031 A 
ATOM     45  C   UNL A   1      39.125  29.495  29.006  1.00  0.00     0.074 A 
ATOM     46  C   UNL A   1      38.208  30.805  30.879  1.00  0.00     0.049 A 
ATOM     47  N   UNL A   1      40.144  28.905  29.584  1.00  0.00    -0.248 NA
ATOM     48  C   UNL A   1      39.035  29.228  27.562  1.00  0.00     0.031 C 
ATOM     49  C   UNL A   1      37.279  31.672  31.602  1.00  0.00     0.029 A 
ATOM     50  N   UNL A   1      39.234  30.610  31.774  1.00  0.00    -0.354 N 
ATOM     51  C   UNL A   1      40.741  28.114  28.605  1.00  0.00     0.074 A 
ATOM     52  C   UNL A   1      39.976  28.311  27.392  1.00  0.00     0.031 C 
ATOM     53  C   UNL A   1      37.810  32.006  32.783  1.00  0.00     0.029 A 
ATOM     54  C   UNL A   1      39.051  31.266  32.969  1.00  0.00     0.049 A 
ATOM     55  H   UNL A   1      40.022  30.054  31.579  1.00  0.00     0.167 HD
ATOM     56  C   UNL A   1      41.824  27.303  28.706  1.00  0.00     0.034 A 
ATOM     57  C   UNL A   1      39.764  31.246  34.112  1.00  0.00     0.034 A 
ATOM     58  C   UNL A   1      42.657  27.221  29.883  1.00  0.00     0.049 A 
ATOM     59  C   UNL A   1      40.983  30.377  34.193  1.00  0.00     0.074 A 
ATOM     60  C   UNL A   1      43.814  26.483  30.072  1.00  0.00     0.029 A 
ATOM     61  N   UNL A   1      42.438  27.917  31.064  1.00  0.00    -0.354 N 
ATOM     62  N   UNL A   1      41.539  29.647  33.258  1.00  0.00    -0.248 NA
ATOM     63  C   UNL A   1      41.672  30.326  35.490  1.00  0.00     0.031 C 
ATOM     64  C   UNL A   1      44.273  26.704  31.375  1.00  0.00     0.029 A 
ATOM     65  C   UNL A   1      43.425  27.611  31.989  1.00  0.00     0.049 A 
ATOM     66  H   UNL A   1      41.691  28.537  31.222  1.00  0.00     0.167 HD
ATOM     67  C   UNL A   1      42.642  29.046  33.852  1.00  0.00     0.074 A 
ATOM     68  C   UNL A   1      42.705  29.542  35.213  1.00  0.00     0.031 C 
ATOM     69  C   UNL A   1      43.504  28.142  33.327  1.00  0.00     0.034 A 
BRANCH  56  70
ATOM     70  C   UNL A   1      42.189  26.434  27.519  1.00  0.00     0.023 A 
ATOM     71  C   UNL A   1      42.961  26.950  26.460  1.00  0.00     0.012 A 
ATOM     72  C   UNL A   1      41.821  25.071  27.486  1.00  0.00     0.148 A 
ATOM     73  C   UNL A   1      43.348  26.143  25.389  1.00  0.00     0.002 A 
ATOM     74  C   UNL A   1      42.245  24.260  26.436  1.00  0.00     0.091 A 
ATOM     75  F   UNL A   1      41.064  24.590  28.483  1.00  0.00    -0.205 F 
ATOM     76  C   UNL A   1      43.004  24.796  25.385  1.00  0.00     0.022 A 
BRANCH  74  77
ATOM     77  S   UNL A   1      41.903  22.498  26.362  1.00  0.00     0.127 S 
ATOM     78  O   UNL A   1      42.566  22.121  25.114  1.00  0.00    -0.237 OA
ATOM     79  O   UNL A   1      42.562  22.009  27.573  1.00  0.00    -0.237 OA
ATOM     80  O   UNL A   1      40.454  22.366  26.359  1.00  0.00    -0.744 OA
ENDBRANCH  74  77
ENDBRANCH  56  70
BRANCH  57  81
ATOM     81  C   UNL A   1      39.313  32.061  35.277  1.00  0.00     0.023 A 
ATOM     82  C   UNL A   1      38.479  31.486  36.255  1.00  0.00     0.012 A 
ATOM     83  C   UNL A   1      39.760  33.386  35.451  1.00  0.00     0.148 A 
ATOM     84  C   UNL A   1      38.094  32.219  37.379  1.00  0.00     0.002 A 
ATOM     85  C   UNL A   1      39.443  34.080  36.612  1.00  0.00     0.091 A 
ATOM     86  F   UNL A   1      40.521  33.933  34.492  1.00  0.00    -0.205 F 
ATOM     87  C   UNL A   1      38.593  33.506  37.568  1.00  0.00     0.022 A 
BRANCH  85  88
ATOM     88  S   UNL A   1      40.199  35.659  37.011  1.00  0.00     0.127 S 
ATOM     89  O   UNL A   1      39.751  35.867  38.386  1.00  0.00    -0.237 OA
ATOM     90  O   UNL A   1      41.623  35.359  36.865  1.00  0.00    -0.237 OA
ATOM     91  O   UNL A   1      39.684  36.598  36.024  1.00  0.00    -0.744 OA
ENDBRANCH  85  88
ENDBRANCH  57  81
BRANCH  69  92
ATOM     92  C   UNL A   1      44.614  27.652  34.222  1.00  0.00     0.023 A 
ATOM     93  C   UNL A   1      45.846  28.337  34.256  1.00  0.00     0.012 A 
ATOM     94  C   UNL A   1      44.423  26.535  35.057  1.00  0.00     0.148 A 
ATOM     95  C   UNL A   1      46.883  27.893  35.075  1.00  0.00     0.002 A 
ATOM     96  C   UNL A   1      45.443  26.129  35.910  1.00  0.00     0.091 A 
ATOM     97  F   UNL A   1      43.251  25.886  34.997  1.00  0.00    -0.205 F 
ATOM     98  C   UNL A   1      46.678  26.796  35.910  1.00  0.00     0.022 A 
BRANCH  96  99
ATOM     99  S   UNL A   1      45.239  24.784  37.083  1.00  0.00     0.127 S 
ATOM    100  O   UNL A   1      44.799  23.695  36.213  1.00  0.00    -0.237 OA
ATOM    101  O   UNL A   1      46.592  24.631  37.616  1.00  0.00    -0.237 OA
ATOM    102  O   UNL A   1      44.253  25.243  38.052  1.00  0.00    -0.744 OA
ENDBRANCH  96  99
ENDBRANCH  69  92
ENDBRANCH  43  44
ENDBRANCH  36  38
ENDBRANCH  35  36
ENDBRANCH  34  35
ENDBRANCH  33  34
ENDBRANCH  32  33
ENDBRANCH   1  32
TORSDOF 22
ENDMDL
MODEL 2
REMARK VINA RESULT:     -11.0      2.379      9.318
REMARK SMILES C[C@@H](C(=O)OCCOC(=O)c1ccc(-c2c3nc(c(-c4cccc(S(=O)(=O)[O-])c4F)c4ccc([nH]4)c(-c4cccc(S(=O)(=O)[O-])c4F)c4nc(c(-c5cccc(S(=O)(=O)[O-])c5F)c5ccc2[nH]5)C=C4)C=C3)cc1)c1ccc(-c2cccc(OC(=O)NCCCc3ccccc3)c2)c(F)c1
REMARK SMILES IDX 3 1 4 2 2 3 1 4 74 5 75 6 99 7 76 8 97 9 77 10 98 11 78 12
REMARK SMILES IDX 79 13 96 14 80 15 82 16 81 17 83 18 84 19 85 20 86 21 87 23
REMARK SMILES IDX 88 24 89 25 90 26 91 27 95 28 92 29 94 30 93 31 5 32 6 33
REMARK SMILES IDX 7 34 8 35 9 36 10 37 11 38 12 39 73 40 13 41 72 42 14 43
REMARK SMILES IDX 15 44 16 45 66 46 17 47 71 48 65 49 67 50 18 51 70 52 64 53
REMARK SMILES IDX 63 54 19 56 51 57 31 58 50 59 32 60 35 61 49 62 68 63 33 64
REMARK SMILES IDX 34 65 48 67 69 68 36 69 20 70 21 71 29 72 22 73 24 74 30 75
REMARK SMILES IDX 23 76 25 77 26 78 27 79 28 80 52 81 53 82 61 83 54 84 56 85
REMARK SMILES IDX 62 86 55 87 57 88 58 89 59 90 60 91 37 92 38 93 46 94 39 95
REMARK SMILES IDX 41 96 47 97 40 98 42 99 43 100 44 101 45 102
REMARK H PARENT 86 22 67 55 35 66
REMARK Flexibility Score: inf
ROOT
ATOM      1  C   UNL A   1      42.553  21.612  26.550  1.00  0.00     0.313 C 
ATOM      2  O   UNL A   1      43.201  22.133  27.450  1.00  0.00    -0.252 OA
ENDROOT
BRANCH   1   3
ATOM      3  C   UNL A   1      41.340  20.704  26.798  1.00  0.00     0.126 C 
ATOM      4  C   UNL A   1      41.492  19.301  26.196  1.00  0.00     0.025 C 
BRANCH   3   5
ATOM      5  C   UNL A   1      40.035  21.379  26.387  1.00  0.00    -0.031 A 
ATOM      6  C   UNL A   1      39.078  20.679  25.637  1.00  0.00     0.005 A 
ATOM      7  C   UNL A   1      39.720  22.681  26.785  1.00  0.00     0.044 A 
ATOM      8  C   UNL A   1      37.843  21.263  25.302  1.00  0.00     0.012 A 
ATOM      9  C   UNL A   1      38.488  23.251  26.454  1.00  0.00     0.131 A 
ATOM     10  C   UNL A   1      37.508  22.563  25.713  1.00  0.00     0.018 A 
ATOM     11  F   UNL A   1      38.241  24.470  26.958  1.00  0.00    -0.206 F 
BRANCH  10  12
ATOM     12  C   UNL A   1      36.180  23.164  25.428  1.00  0.00    -0.012 A 
ATOM     13  C   UNL A   1      35.216  23.385  26.430  1.00  0.00     0.009 A 
ATOM     14  C   UNL A   1      35.852  23.578  24.126  1.00  0.00     0.056 A 
ATOM     15  C   UNL A   1      33.996  24.012  26.143  1.00  0.00     0.004 A 
ATOM     16  C   UNL A   1      34.649  24.222  23.842  1.00  0.00     0.133 A 
ATOM     17  C   UNL A   1      33.717  24.447  24.850  1.00  0.00     0.047 A 
BRANCH  16  18
ATOM     18  O   UNL A   1      34.281  24.680  22.555  1.00  0.00    -0.410 OA
BRANCH  18  19
ATOM     19  C   UNL A   1      33.176  24.255  21.824  1.00  0.00     0.412 C 
ATOM     20  O   UNL A   1      32.916  23.113  21.467  1.00  0.00    -0.224 OA
ATOM     21  N   UNL A   1      32.296  25.259  21.544  1.00  0.00    -0.321 N 
ATOM     22  H   UNL A   1      31.506  25.021  21.006  1.00  0.00     0.167 HD
BRANCH  21  23
ATOM     23  C   UNL A   1      32.409  26.637  21.962  1.00  0.00     0.120 C 
BRANCH  23  24
ATOM     24  C   UNL A   1      31.109  27.235  22.506  1.00  0.00     0.026 C 
BRANCH  24  25
ATOM     25  C   UNL A   1      31.132  28.679  23.029  1.00  0.00     0.037 C 
BRANCH  25  26
ATOM     26  C   UNL A   1      29.848  29.460  23.183  1.00  0.00    -0.048 A 
ATOM     27  C   UNL A   1      29.772  30.773  23.654  1.00  0.00     0.004 A 
ATOM     28  C   UNL A   1      28.644  28.803  22.867  1.00  0.00     0.004 A 
ATOM     29  C   UNL A   1      28.537  31.412  23.806  1.00  0.00     0.000 A 
ATOM     30  C   UNL A   1      27.411  29.442  23.005  1.00  0.00     0.000 A 
ATOM     31  C   UNL A   1      27.357  30.749  23.479  1.00  0.00     0.000 A 
ENDBRANCH  25  26
ENDBRANCH  24  25
ENDBRANCH  23  24
ENDBRANCH  21  23
ENDBRANCH  18  19
ENDBRANCH  16  18
ENDBRANCH  10  12
ENDBRANCH   3   5
ENDBRANCH   1   3
BRANCH   1  32
ATOM     32  O   UNL A   1      42.867  21.719  25.229  1.00  0.00    -0.462 OA
BRANCH  32  33
ATOM     33  C   UNL A   1      44.255  21.923  24.898  1.00  0.00     0.274 C 
BRANCH  33  34
ATOM     34  C   UNL A   1      44.412  23.095  23.929  1.00  0.00     0.275 C 
BRANCH  34  35
ATOM     35  O   UNL A   1      43.665  24.230  24.397  1.00  0.00    -0.458 OA
BRANCH  35  36
ATOM     36  C   UNL A   1      44.370  25.117  25.135  1.00  0.00     0.338 C 
ATOM     37  O   UNL A   1      45.561  25.370  25.049  1.00  0.00    -0.246 OA
BRANCH  36  38
ATOM     38  C   UNL A   1      43.471  25.827  26.052  1.00  0.00     0.060 A 
ATOM     39  C   UNL A   1      43.602  27.204  26.175  1.00  0.00     0.016 A 
ATOM     40  C   UNL A   1      42.645  25.118  26.924  1.00  0.00     0.016 A 
ATOM     41  C   UNL A   1      43.021  27.848  27.263  1.00  0.00     0.010 A 
ATOM     42  C   UNL A   1      41.974  25.798  27.951  1.00  0.00     0.010 A 
ATOM     43  C   UNL A   1      42.207  27.165  28.183  1.00  0.00    -0.014 A 
BRANCH  43  44
ATOM     44  C   UNL A   1      41.665  27.870  29.392  1.00  0.00     0.031 A 
ATOM     45  C   UNL A   1      40.322  28.569  29.354  1.00  0.00     0.074 A 
ATOM     46  C   UNL A   1      42.359  27.875  30.551  1.00  0.00     0.049 A 
ATOM     47  N   UNL A   1      39.787  29.395  30.221  1.00  0.00    -0.248 NA
ATOM     48  C   UNL A   1      39.483  28.340  28.167  1.00  0.00     0.031 C 
ATOM     49  C   UNL A   1      43.648  27.221  30.770  1.00  0.00     0.029 A 
ATOM     50  N   UNL A   1      42.066  28.433  31.774  1.00  0.00    -0.354 N 
ATOM     51  C   UNL A   1      38.614  29.867  29.635  1.00  0.00     0.074 A 
ATOM     52  C   UNL A   1      38.511  29.224  28.342  1.00  0.00     0.031 C 
ATOM     53  C   UNL A   1      43.992  27.336  32.058  1.00  0.00     0.029 A 
ATOM     54  C   UNL A   1      43.024  28.192  32.730  1.00  0.00     0.049 A 
ATOM     55  H   UNL A   1      41.250  28.956  31.947  1.00  0.00     0.167 HD
ATOM     56  C   UNL A   1      37.710  30.750  30.128  1.00  0.00     0.034 A 
ATOM     57  C   UNL A   1      43.152  28.641  33.994  1.00  0.00     0.034 A 
ATOM     58  C   UNL A   1      37.754  31.278  31.471  1.00  0.00     0.049 A 
ATOM     59  C   UNL A   1      42.120  29.583  34.537  1.00  0.00     0.074 A 
ATOM     60  C   UNL A   1      36.854  32.127  32.095  1.00  0.00     0.029 A 
ATOM     61  N   UNL A   1      38.738  30.992  32.407  1.00  0.00    -0.354 N 
ATOM     62  N   UNL A   1      41.015  30.009  33.978  1.00  0.00    -0.248 NA
ATOM     63  C   UNL A   1      42.354  30.110  35.889  1.00  0.00     0.031 C 
ATOM     64  C   UNL A   1      37.312  32.381  33.392  1.00  0.00     0.029 A 
ATOM     65  C   UNL A   1      38.478  31.661  33.594  1.00  0.00     0.049 A 
ATOM     66  H   UNL A   1      39.509  30.400  32.252  1.00  0.00     0.167 HD
ATOM     67  C   UNL A   1      40.422  30.857  34.904  1.00  0.00     0.074 A 
ATOM     68  C   UNL A   1      41.265  30.840  36.084  1.00  0.00     0.031 C 
ATOM     69  C   UNL A   1      39.299  31.605  34.777  1.00  0.00     0.034 A 
BRANCH  56  70
ATOM     70  C   UNL A   1      36.582  31.208  29.224  1.00  0.00     0.023 A 
ATOM     71  C   UNL A   1      36.471  32.559  28.841  1.00  0.00     0.012 A 
ATOM     72  C   UNL A   1      35.664  30.277  28.692  1.00  0.00     0.148 A 
ATOM     73  C   UNL A   1      35.469  32.980  27.964  1.00  0.00     0.002 A 
ATOM     74  C   UNL A   1      34.693  30.695  27.786  1.00  0.00     0.091 A 
ATOM     75  F   UNL A   1      35.758  28.996  29.079  1.00  0.00    -0.205 F 
ATOM     76  C   UNL A   1      34.591  32.047  27.426  1.00  0.00     0.022 A 
BRANCH  74  77
ATOM     77  S   UNL A   1      33.547  29.564  26.990  1.00  0.00     0.127 S 
ATOM     78  O   UNL A   1      32.647  30.490  26.303  1.00  0.00    -0.237 OA
ATOM     79  O   UNL A   1      34.431  28.807  26.104  1.00  0.00    -0.237 OA
ATOM     80  O   UNL A   1      32.938  28.784  28.057  1.00  0.00    -0.744 OA
ENDBRANCH  74  77
ENDBRANCH  56  70
BRANCH  57  81
ATOM     81  C   UNL A   1      44.325  28.219  34.812  1.00  0.00     0.023 A 
ATOM     82  C   UNL A   1      45.543  28.917  34.705  1.00  0.00     0.012 A 
ATOM     83  C   UNL A   1      44.219  27.167  35.744  1.00  0.00     0.148 A 
ATOM     84  C   UNL A   1      46.634  28.569  35.505  1.00  0.00     0.002 A 
ATOM     85  C   UNL A   1      45.279  26.881  36.595  1.00  0.00     0.091 A 
ATOM     86  F   UNL A   1      43.066  26.486  35.806  1.00  0.00    -0.205 F 
ATOM     87  C   UNL A   1      46.495  27.567  36.463  1.00  0.00     0.022 A 
BRANCH  85  88
ATOM     88  S   UNL A   1      45.110  25.742  37.972  1.00  0.00     0.127 S 
ATOM     89  O   UNL A   1      46.334  26.001  38.726  1.00  0.00    -0.237 OA
ATOM     90  O   UNL A   1      43.881  26.215  38.608  1.00  0.00    -0.237 OA
ATOM     91  O   UNL A   1      44.999  24.419  37.372  1.00  0.00    -0.744 OA
ENDBRANCH  85  88
ENDBRANCH  57  81
BRANCH  69  92
ATOM     92  C   UNL A   1      38.898  32.447  35.961  1.00  0.00     0.023 A 
ATOM     93  C   UNL A   1      37.929  31.971  36.869  1.00  0.00     0.012 A 
ATOM     94  C   UNL A   1      39.508  33.694  36.195  1.00  0.00     0.148 A 
ATOM     95  C   UNL A   1      37.545  32.741  37.966  1.00  0.00     0.002 A 
ATOM     96  C   UNL A   1      39.159  34.433  37.320  1.00  0.00     0.091 A 
ATOM     97  F   UNL A   1      40.414  34.138  35.311  1.00  0.00    -0.205 F 
ATOM     98  C   UNL A   1      38.168  33.967  38.198  1.00  0.00     0.022 A 
BRANCH  96  99
ATOM     99  S   UNL A   1      39.969  35.978  37.746  1.00  0.00     0.127 S 
ATOM    100  O   UNL A   1      39.691  36.796  36.567  1.00  0.00    -0.237 OA
ATOM    101  O   UNL A   1      39.248  36.382  38.953  1.00  0.00    -0.237 OA
ATOM    102  O   UNL A   1      41.373  35.650  37.959  1.00  0.00    -0.744 OA
ENDBRANCH  96  99
ENDBRANCH  69  92
ENDBRANCH  43  44
ENDBRANCH  36  38
ENDBRANCH  35  36
ENDBRANCH  34  35
ENDBRANCH  33  34
ENDBRANCH  32  33
ENDBRANCH   1  32
TORSDOF 22
ENDMDL
MODEL 3
REMARK VINA RESULT:     -11.0      1.899      2.195
REMARK SMILES C[C@@H](C(=O)OCCOC(=O)c1ccc(-c2c3nc(c(-c4cccc(S(=O)(=O)[O-])c4F)c4ccc([nH]4)c(-c4cccc(S(=O)(=O)[O-])c4F)c4nc(c(-c5cccc(S(=O)(=O)[O-])c5F)c5ccc2[nH]5)C=C4)C=C3)cc1)c1ccc(-c2cccc(OC(=O)NCCCc3ccccc3)c2)c(F)c1
REMARK SMILES IDX 3 1 4 2 2 3 1 4 74 5 75 6 99 7 76 8 97 9 77 10 98 11 78 12
REMARK SMILES IDX 79 13 96 14 80 15 82 16 81 17 83 18 84 19 85 20 86 21 87 23
REMARK SMILES IDX 88 24 89 25 90 26 91 27 95 28 92 29 94 30 93 31 5 32 6 33
REMARK SMILES IDX 7 34 8 35 9 36 10 37 11 38 12 39 73 40 13 41 72 42 14 43
REMARK SMILES IDX 15 44 16 45 66 46 17 47 71 48 65 49 67 50 18 51 70 52 64 53
REMARK SMILES IDX 63 54 19 56 51 57 31 58 50 59 32 60 35 61 49 62 68 63 33 64
REMARK SMILES IDX 34 65 48 67 69 68 36 69 20 70 21 71 29 72 22 73 24 74 30 75
REMARK SMILES IDX 23 76 25 77 26 78 27 79 28 80 52 81 53 82 61 83 54 84 56 85
REMARK SMILES IDX 62 86 55 87 57 88 58 89 59 90 60 91 37 92 38 93 46 94 39 95
REMARK SMILES IDX 41 96 47 97 40 98 42 99 43 100 44 101 45 102
REMARK H PARENT 86 22 67 55 35 66
REMARK Flexibility Score: inf
ROOT
ATOM      1  C   UNL A   1      30.427  29.118  23.030  1.00  0.00     0.313 C 
ATOM      2  O   UNL A   1      30.929  29.659  22.051  1.00  0.00    -0.252 OA
ENDROOT
BRANCH   1   3
ATOM      3  C   UNL A   1      29.669  27.785  22.963  1.00  0.00     0.126 C 
ATOM      4  C   UNL A   1      28.225  27.876  23.476  1.00  0.00     0.025 C 
BRANCH   3   5
ATOM      5  C   UNL A   1      30.453  26.654  23.622  1.00  0.00    -0.031 A 
ATOM      6  C   UNL A   1      30.026  26.111  24.843  1.00  0.00     0.005 A 
ATOM      7  C   UNL A   1      31.576  26.084  23.016  1.00  0.00     0.044 A 
ATOM      8  C   UNL A   1      30.699  25.027  25.435  1.00  0.00     0.012 A 
ATOM      9  C   UNL A   1      32.233  25.002  23.607  1.00  0.00     0.131 A 
ATOM     10  C   UNL A   1      31.817  24.433  24.825  1.00  0.00     0.018 A 
ATOM     11  F   UNL A   1      33.244  24.465  22.906  1.00  0.00    -0.206 F 
BRANCH  10  12
ATOM     12  C   UNL A   1      32.492  23.243  25.403  1.00  0.00    -0.012 A 
ATOM     13  C   UNL A   1      33.101  23.257  26.672  1.00  0.00     0.009 A 
ATOM     14  C   UNL A   1      32.506  22.025  24.703  1.00  0.00     0.056 A 
ATOM     15  C   UNL A   1      33.674  22.101  27.219  1.00  0.00     0.004 A 
ATOM     16  C   UNL A   1      33.056  20.868  25.254  1.00  0.00     0.133 A 
ATOM     17  C   UNL A   1      33.638  20.900  26.517  1.00  0.00     0.047 A 
BRANCH  16  18
ATOM     18  O   UNL A   1      33.075  19.613  24.602  1.00  0.00    -0.410 OA
BRANCH  18  19
ATOM     19  C   UNL A   1      33.107  18.371  25.227  1.00  0.00     0.412 C 
ATOM     20  O   UNL A   1      32.202  17.829  25.849  1.00  0.00    -0.224 OA
ATOM     21  N   UNL A   1      34.287  17.709  25.054  1.00  0.00    -0.321 N 
ATOM     22  H   UNL A   1      34.375  16.834  25.498  1.00  0.00     0.167 HD
BRANCH  21  23
ATOM     23  C   UNL A   1      35.419  18.167  24.283  1.00  0.00     0.120 C 
BRANCH  23  24
ATOM     24  C   UNL A   1      36.494  18.877  25.111  1.00  0.00     0.026 C 
BRANCH  24  25
ATOM     25  C   UNL A   1      37.306  19.998  24.447  1.00  0.00     0.037 C 
BRANCH  25  26
ATOM     26  C   UNL A   1      36.983  21.448  24.726  1.00  0.00    -0.048 A 
ATOM     27  C   UNL A   1      37.299  22.115  25.912  1.00  0.00     0.004 A 
ATOM     28  C   UNL A   1      36.282  22.161  23.736  1.00  0.00     0.004 A 
ATOM     29  C   UNL A   1      36.928  23.449  26.107  1.00  0.00     0.000 A 
ATOM     30  C   UNL A   1      35.921  23.496  23.923  1.00  0.00     0.000 A 
ATOM     31  C   UNL A   1      36.242  24.141  25.113  1.00  0.00     0.000 A 
ENDBRANCH  25  26
ENDBRANCH  24  25
ENDBRANCH  23  24
ENDBRANCH  21  23
ENDBRANCH  18  19
ENDBRANCH  16  18
ENDBRANCH  10  12
ENDBRANCH   3   5
ENDBRANCH   1   3
BRANCH   1  32
ATOM     32  O   UNL A   1      30.425  29.661  24.279  1.00  0.00    -0.462 OA
BRANCH  32  33
ATOM     33  C   UNL A   1      31.535  29.334  25.140  1.00  0.00     0.274 C 
BRANCH  33  34
ATOM     34  C   UNL A   1      31.939  30.543  25.982  1.00  0.00     0.275 C 
BRANCH  34  35
ATOM     35  O   UNL A   1      33.166  30.274  26.681  1.00  0.00    -0.458 OA
BRANCH  35  36
ATOM     36  C   UNL A   1      33.684  31.324  27.357  1.00  0.00     0.338 C 
ATOM     37  O   UNL A   1      33.128  32.375  27.631  1.00  0.00    -0.246 OA
BRANCH  36  38
ATOM     38  C   UNL A   1      35.044  31.004  27.806  1.00  0.00     0.060 A 
ATOM     39  C   UNL A   1      35.317  29.706  28.218  1.00  0.00     0.016 A 
ATOM     40  C   UNL A   1      35.981  32.018  28.005  1.00  0.00     0.016 A 
ATOM     41  C   UNL A   1      36.467  29.456  28.961  1.00  0.00     0.010 A 
ATOM     42  C   UNL A   1      37.188  31.727  28.657  1.00  0.00     0.010 A 
ATOM     43  C   UNL A   1      37.422  30.456  29.210  1.00  0.00    -0.014 A 
BRANCH  43  44
ATOM     44  C   UNL A   1      38.609  30.175  30.086  1.00  0.00     0.031 A 
ATOM     45  C   UNL A   1      39.767  29.336  29.587  1.00  0.00     0.074 A 
ATOM     46  C   UNL A   1      38.678  30.688  31.332  1.00  0.00     0.049 A 
ATOM     47  N   UNL A   1      40.771  28.820  30.256  1.00  0.00    -0.248 NA
ATOM     48  C   UNL A   1      39.781  28.998  28.155  1.00  0.00     0.031 C 
ATOM     49  C   UNL A   1      37.669  31.546  31.954  1.00  0.00     0.029 A 
ATOM     50  N   UNL A   1      39.651  30.582  32.298  1.00  0.00    -0.354 N 
ATOM     51  C   UNL A   1      41.462  28.012  29.355  1.00  0.00     0.074 A 
ATOM     52  C   UNL A   1      40.769  28.117  28.089  1.00  0.00     0.031 C 
ATOM     53  C   UNL A   1      38.109  31.958  33.148  1.00  0.00     0.029 A 
ATOM     54  C   UNL A   1      39.365  31.284  33.446  1.00  0.00     0.049 A 
ATOM     55  H   UNL A   1      40.473  30.054  32.180  1.00  0.00     0.167 HD
ATOM     56  C   UNL A   1      42.570  27.256  29.564  1.00  0.00     0.034 A 
ATOM     57  C   UNL A   1      40.004  31.350  34.630  1.00  0.00     0.034 A 
ATOM     58  C   UNL A   1      43.329  27.267  30.793  1.00  0.00     0.049 A 
ATOM     59  C   UNL A   1      41.250  30.541  34.829  1.00  0.00     0.074 A 
ATOM     60  C   UNL A   1      44.502  26.592  31.089  1.00  0.00     0.029 A 
ATOM     61  N   UNL A   1      43.005  28.007  31.922  1.00  0.00    -0.354 N 
ATOM     62  N   UNL A   1      41.896  29.795  33.968  1.00  0.00    -0.248 NA
ATOM     63  C   UNL A   1      41.857  30.582  36.167  1.00  0.00     0.031 C 
ATOM     64  C   UNL A   1      44.866  26.894  32.405  1.00  0.00     0.029 A 
ATOM     65  C   UNL A   1      43.943  27.789  32.920  1.00  0.00     0.049 A 
ATOM     66  H   UNL A   1      42.224  28.599  32.003  1.00  0.00     0.167 HD
ATOM     67  C   UNL A   1      42.982  29.273  34.658  1.00  0.00     0.074 A 
ATOM     68  C   UNL A   1      42.937  29.834  35.994  1.00  0.00     0.031 C 
ATOM     69  C   UNL A   1      43.914  28.384  34.232  1.00  0.00     0.034 A 
BRANCH  56  70
ATOM     70  C   UNL A   1      43.046  26.351  28.445  1.00  0.00     0.023 A 
ATOM     71  C   UNL A   1      42.390  25.135  28.175  1.00  0.00     0.012 A 
ATOM     72  C   UNL A   1      44.114  26.744  27.609  1.00  0.00     0.148 A 
ATOM     73  C   UNL A   1      42.787  24.321  27.112  1.00  0.00     0.002 A 
ATOM     74  C   UNL A   1      44.479  25.950  26.525  1.00  0.00     0.091 A 
ATOM     75  F   UNL A   1      44.753  27.890  27.885  1.00  0.00    -0.205 F 
ATOM     76  C   UNL A   1      43.820  24.736  26.279  1.00  0.00     0.022 A 
BRANCH  74  77
ATOM     77  S   UNL A   1      45.760  26.418  25.356  1.00  0.00     0.127 S 
ATOM     78  O   UNL A   1      45.243  27.687  24.844  1.00  0.00    -0.237 OA
ATOM     79  O   UNL A   1      46.931  26.545  26.223  1.00  0.00    -0.237 OA
ATOM     80  O   UNL A   1      45.835  25.340  24.382  1.00  0.00    -0.744 OA
ENDBRANCH  74  77
ENDBRANCH  56  70
BRANCH  57  81
ATOM     81  C   UNL A   1      39.445  32.197  35.724  1.00  0.00     0.023 A 
ATOM     82  C   UNL A   1      39.559  33.598  35.655  1.00  0.00     0.012 A 
ATOM     83  C   UNL A   1      38.744  31.619  36.801  1.00  0.00     0.148 A 
ATOM     84  C   UNL A   1      38.993  34.406  36.643  1.00  0.00     0.002 A 
ATOM     85  C   UNL A   1      38.112  32.430  37.735  1.00  0.00     0.091 A 
ATOM     86  F   UNL A   1      38.678  30.282  36.875  1.00  0.00    -0.205 F 
ATOM     87  C   UNL A   1      38.252  33.824  37.670  1.00  0.00     0.022 A 
BRANCH  85  88
ATOM     88  S   UNL A   1      36.988  31.764  38.966  1.00  0.00     0.127 S 
ATOM     89  O   UNL A   1      35.850  32.673  38.858  1.00  0.00    -0.237 OA
ATOM     90  O   UNL A   1      36.749  30.412  38.459  1.00  0.00    -0.237 OA
ATOM     91  O   UNL A   1      37.720  31.806  40.225  1.00  0.00    -0.744 OA
ENDBRANCH  85  88
ENDBRANCH  57  81
BRANCH  69  92
ATOM     92  C   UNL A   1      44.984  27.988  35.217  1.00  0.00     0.023 A 
ATOM     93  C   UNL A   1      46.175  28.739  35.305  1.00  0.00     0.012 A 
ATOM     94  C   UNL A   1      44.794  26.894  36.082  1.00  0.00     0.148 A 
ATOM     95  C   UNL A   1      47.175  28.380  36.208  1.00  0.00     0.002 A 
ATOM     96  C   UNL A   1      45.772  26.574  37.016  1.00  0.00     0.091 A 
ATOM     97  F   UNL A   1      43.662  26.181  35.972  1.00  0.00    -0.205 F 
ATOM     98  C   UNL A   1      46.970  27.306  37.071  1.00  0.00     0.022 A 
BRANCH  96  99
ATOM     99  S   UNL A   1      45.558  25.264  38.226  1.00  0.00     0.127 S 
ATOM    100  O   UNL A   1      45.351  24.098  37.368  1.00  0.00    -0.237 OA
ATOM    101  O   UNL A   1      46.838  25.283  38.932  1.00  0.00    -0.237 OA
ATOM    102  O   UNL A   1      44.411  25.650  39.037  1.00  0.00    -0.744 OA
ENDBRANCH  96  99
ENDBRANCH  69  92
ENDBRANCH  43  44
ENDBRANCH  36  38
ENDBRANCH  35  36
ENDBRANCH  34  35
ENDBRANCH  33  34
ENDBRANCH  32  33
ENDBRANCH   1  32
TORSDOF 22
ENDMDL
