MODEL 1
REMARK VINA RESULT:     -11.0      0.000      0.000
REMARK SMILES C[C@H]([C@@H](C)O)[N@H+]1CC[C@@](C)(C(=O)OCCOC(=O)c2ccc(-c3c4nc(c(-c5cccc(S(=O)(=O)[O-])c5F)c5ccc([nH]5)c(-c5cccc(S(=O)(=O)[O-])c5F)c5nc(c(-c6cccc(S(=O)(=O)[O-])c6F)c6ccc3[nH]6)C=C5)C=C4)cc2)C1
REMARK SMILES IDX 14 1 13 2 11 3 12 4 9 5 6 6 7 7 82 8 8 10 10 11 2 12 1 13
REMARK SMILES IDX 3 14 4 15 5 16 15 18 16 19 17 20 18 21 19 22 20 23 81 24
REMARK SMILES IDX 21 25 80 26 22 27 23 28 24 29 74 30 25 31 79 32 73 33 75 34
REMARK SMILES IDX 26 35 78 36 72 37 71 38 27 40 59 41 39 42 58 43 40 44 43 45
REMARK SMILES IDX 57 46 76 47 41 48 42 49 56 51 77 52 44 53 28 54 29 55 37 56
REMARK SMILES IDX 30 57 32 58 38 59 31 60 33 61 34 62 35 63 36 64 60 65 61 66
REMARK SMILES IDX 69 67 62 68 64 69 70 70 63 71 65 72 66 73 67 74 68 75 45 76
REMARK SMILES IDX 46 77 54 78 47 79 49 80 55 81 48 82 50 83 51 84 52 85 53 86
REMARK H PARENT 6 9 5 17 75 39 43 50
REMARK Flexibility Score: inf
ROOT
ATOM      1  C   UNL A   1      36.676  22.339  23.874  1.00  0.00     0.274 C 
ENDROOT
BRANCH   1   2
ATOM      2  O   UNL A   1      35.500  22.608  24.667  1.00  0.00    -0.461 OA
BRANCH   2   3
ATOM      3  C   UNL A   1      34.555  23.390  24.084  1.00  0.00     0.317 C 
ATOM      4  O   UNL A   1      34.722  24.572  23.800  1.00  0.00    -0.251 OA
BRANCH   3   5
ATOM      5  C   UNL A   1      33.270  22.639  23.753  1.00  0.00     0.119 C 
ATOM      6  N   UNL A   1      32.322  20.489  23.958  1.00  0.00    -0.330 N 
ATOM      7  C   UNL A   1      31.534  21.311  24.866  1.00  0.00     0.263 C 
ATOM      8  C   UNL A   1      33.607  21.150  23.778  1.00  0.00     0.281 C 
ATOM      9  H   UNL A   1      31.804  20.442  23.080  1.00  0.00     0.348 HD
ATOM     10  C   UNL A   1      32.120  22.726  24.769  1.00  0.00     0.086 C 
ATOM     11  C   UNL A   1      32.786  23.104  22.370  1.00  0.00     0.030 C 
BRANCH   6  12
ATOM     12  C   UNL A   1      32.404  19.036  24.218  1.00  0.00     0.209 C 
ATOM     13  C   UNL A   1      33.086  18.761  25.567  1.00  0.00     0.078 C 
BRANCH  12  14
ATOM     14  C   UNL A   1      32.940  18.094  23.086  1.00  0.00     0.169 C 
ATOM     15  C   UNL A   1      33.606  16.798  23.526  1.00  0.00     0.045 C 
BRANCH  14  16
ATOM     16  O   UNL A   1      31.890  17.768  22.168  1.00  0.00    -0.387 OA
ATOM     17  H   UNL A   1      32.252  17.705  21.271  1.00  0.00     0.211 HD
ENDBRANCH  14  16
ENDBRANCH  12  14
ENDBRANCH   6  12
ENDBRANCH   3   5
ENDBRANCH   2   3
ENDBRANCH   1   2
BRANCH   1  18
ATOM     18  C   UNL A   1      37.379  21.080  24.374  1.00  0.00     0.275 C 
BRANCH  18  19
ATOM     19  O   UNL A   1      37.719  21.229  25.763  1.00  0.00    -0.458 OA
BRANCH  19  20
ATOM     20  C   UNL A   1      39.036  21.159  26.055  1.00  0.00     0.338 C 
ATOM     21  O   UNL A   1      39.773  20.195  25.863  1.00  0.00    -0.246 OA
BRANCH  20  22
ATOM     22  C   UNL A   1      39.524  22.429  26.633  1.00  0.00     0.060 A 
ATOM     23  C   UNL A   1      39.024  23.661  26.206  1.00  0.00     0.016 A 
ATOM     24  C   UNL A   1      40.600  22.390  27.523  1.00  0.00     0.016 A 
ATOM     25  C   UNL A   1      39.685  24.839  26.564  1.00  0.00     0.010 A 
ATOM     26  C   UNL A   1      41.178  23.580  27.975  1.00  0.00     0.010 A 
ATOM     27  C   UNL A   1      40.763  24.820  27.467  1.00  0.00    -0.014 A 
BRANCH  27  28
ATOM     28  C   UNL A   1      41.441  26.083  27.893  1.00  0.00     0.031 A 
ATOM     29  C   UNL A   1      40.703  27.147  28.673  1.00  0.00     0.074 A 
ATOM     30  C   UNL A   1      42.725  26.305  27.542  1.00  0.00     0.049 A 
ATOM     31  N   UNL A   1      41.092  28.358  28.990  1.00  0.00    -0.248 NA
ATOM     32  C   UNL A   1      39.350  26.816  29.147  1.00  0.00     0.031 C 
ATOM     33  C   UNL A   1      43.563  25.381  26.776  1.00  0.00     0.029 A 
ATOM     34  N   UNL A   1      43.547  27.383  27.770  1.00  0.00    -0.354 N 
ATOM     35  C   UNL A   1      40.018  28.945  29.653  1.00  0.00     0.074 A 
ATOM     36  C   UNL A   1      38.959  27.961  29.691  1.00  0.00     0.031 C 
ATOM     37  C   UNL A   1      44.781  25.917  26.618  1.00  0.00     0.029 A 
ATOM     38  C   UNL A   1      44.790  27.256  27.195  1.00  0.00     0.049 A 
ATOM     39  H   UNL A   1      43.271  28.171  28.292  1.00  0.00     0.167 HD
ATOM     40  C   UNL A   1      39.926  30.182  30.200  1.00  0.00     0.034 A 
ATOM     41  C   UNL A   1      45.815  28.125  27.097  1.00  0.00     0.034 A 
ATOM     42  C   UNL A   1      40.996  31.143  30.231  1.00  0.00     0.049 A 
ATOM     43  C   UNL A   1      45.683  29.494  27.694  1.00  0.00     0.074 A 
ATOM     44  C   UNL A   1      41.008  32.398  30.818  1.00  0.00     0.029 A 
ATOM     45  N   UNL A   1      42.243  30.960  29.656  1.00  0.00    -0.354 N 
ATOM     46  N   UNL A   1      44.687  30.000  28.379  1.00  0.00    -0.248 NA
ATOM     47  C   UNL A   1      46.815  30.413  27.508  1.00  0.00     0.031 C 
ATOM     48  C   UNL A   1      42.262  32.976  30.590  1.00  0.00     0.029 A 
ATOM     49  C   UNL A   1      43.029  32.083  29.862  1.00  0.00     0.049 A 
ATOM     50  H   UNL A   1      42.528  30.151  29.173  1.00  0.00     0.167 HD
ATOM     51  C   UNL A   1      45.072  31.294  28.708  1.00  0.00     0.074 A 
ATOM     52  C   UNL A   1      46.407  31.482  28.179  1.00  0.00     0.031 C 
ATOM     53  C   UNL A   1      44.369  32.249  29.364  1.00  0.00     0.034 A 
BRANCH  40  54
ATOM     54  C   UNL A   1      38.631  30.560  30.872  1.00  0.00     0.023 A 
ATOM     55  C   UNL A   1      38.455  30.273  32.240  1.00  0.00     0.012 A 
ATOM     56  C   UNL A   1      37.631  31.270  30.179  1.00  0.00     0.148 A 
ATOM     57  C   UNL A   1      37.298  30.674  32.907  1.00  0.00     0.002 A 
ATOM     58  C   UNL A   1      36.492  31.692  30.858  1.00  0.00     0.091 A 
ATOM     59  F   UNL A   1      37.805  31.512  28.872  1.00  0.00    -0.205 F 
ATOM     60  C   UNL A   1      36.323  31.392  32.220  1.00  0.00     0.022 A 
BRANCH  58  61
ATOM     61  S   UNL A   1      35.211  32.676  30.067  1.00  0.00     0.127 S 
ATOM     62  O   UNL A   1      34.279  32.892  31.172  1.00  0.00    -0.237 OA
ATOM     63  O   UNL A   1      35.946  33.870  29.647  1.00  0.00    -0.237 OA
ATOM     64  O   UNL A   1      34.710  31.862  28.969  1.00  0.00    -0.744 OA
ENDBRANCH  58  61
ENDBRANCH  40  54
BRANCH  41  65
ATOM     65  C   UNL A   1      47.065  27.696  26.407  1.00  0.00     0.023 A 
ATOM     66  C   UNL A   1      47.996  26.898  27.098  1.00  0.00     0.012 A 
ATOM     67  C   UNL A   1      47.287  27.992  25.048  1.00  0.00     0.148 A 
ATOM     68  C   UNL A   1      49.124  26.401  26.444  1.00  0.00     0.002 A 
ATOM     69  C   UNL A   1      48.376  27.437  24.387  1.00  0.00     0.091 A 
ATOM     70  F   UNL A   1      46.409  28.782  24.412  1.00  0.00    -0.205 F 
ATOM     71  C   UNL A   1      49.304  26.652  25.085  1.00  0.00     0.022 A 
BRANCH  69  72
ATOM     72  S   UNL A   1      48.550  27.576  22.604  1.00  0.00     0.127 S 
ATOM     73  O   UNL A   1      48.649  26.177  22.199  1.00  0.00    -0.237 OA
ATOM     74  O   UNL A   1      47.307  28.243  22.215  1.00  0.00    -0.237 OA
ATOM     75  O   UNL A   1      49.743  28.391  22.408  1.00  0.00    -0.744 OA
ENDBRANCH  69  72
ENDBRANCH  41  65
BRANCH  53  76
ATOM     76  C   UNL A   1      45.021  33.593  29.532  1.00  0.00     0.023 A 
ATOM     77  C   UNL A   1      45.839  33.820  30.657  1.00  0.00     0.012 A 
ATOM     78  C   UNL A   1      44.874  34.606  28.566  1.00  0.00     0.148 A 
ATOM     79  C   UNL A   1      46.484  35.043  30.829  1.00  0.00     0.002 A 
ATOM     80  C   UNL A   1      45.549  35.812  28.728  1.00  0.00     0.091 A 
ATOM     81  F   UNL A   1      44.072  34.382  27.516  1.00  0.00    -0.205 F 
ATOM     82  C   UNL A   1      46.347  36.036  29.861  1.00  0.00     0.022 A 
BRANCH  80  83
ATOM     83  S   UNL A   1      45.479  37.110  27.486  1.00  0.00     0.127 S 
ATOM     84  O   UNL A   1      46.209  38.193  28.142  1.00  0.00    -0.237 OA
ATOM     85  O   UNL A   1      46.179  36.504  26.352  1.00  0.00    -0.237 OA
ATOM     86  O   UNL A   1      44.061  37.349  27.253  1.00  0.00    -0.744 OA
ENDBRANCH  80  83
ENDBRANCH  53  76
ENDBRANCH  27  28
ENDBRANCH  20  22
ENDBRANCH  19  20
ENDBRANCH  18  19
ENDBRANCH   1  18
TORSDOF 17
ENDMDL
MODEL 2
REMARK VINA RESULT:     -10.9      2.031      3.103
REMARK SMILES C[C@H]([C@@H](C)O)[N@H+]1CC[C@@](C)(C(=O)OCCOC(=O)c2ccc(-c3c4nc(c(-c5cccc(S(=O)(=O)[O-])c5F)c5ccc([nH]5)c(-c5cccc(S(=O)(=O)[O-])c5F)c5nc(c(-c6cccc(S(=O)(=O)[O-])c6F)c6ccc3[nH]6)C=C5)C=C4)cc2)C1
REMARK SMILES IDX 14 1 13 2 11 3 12 4 9 5 6 6 7 7 82 8 8 10 10 11 2 12 1 13
REMARK SMILES IDX 3 14 4 15 5 16 15 18 16 19 17 20 18 21 19 22 20 23 81 24
REMARK SMILES IDX 21 25 80 26 22 27 23 28 24 29 74 30 25 31 79 32 73 33 75 34
REMARK SMILES IDX 26 35 78 36 72 37 71 38 27 40 59 41 39 42 58 43 40 44 43 45
REMARK SMILES IDX 57 46 76 47 41 48 42 49 56 51 77 52 44 53 28 54 29 55 37 56
REMARK SMILES IDX 30 57 32 58 38 59 31 60 33 61 34 62 35 63 36 64 60 65 61 66
REMARK SMILES IDX 69 67 62 68 64 69 70 70 63 71 65 72 66 73 67 74 68 75 45 76
REMARK SMILES IDX 46 77 54 78 47 79 49 80 55 81 48 82 50 83 51 84 52 85 53 86
REMARK H PARENT 6 9 5 17 75 39 43 50
REMARK Flexibility Score: inf
ROOT
ATOM      1  C   UNL A   1      34.591  20.455  25.118  1.00  0.00     0.274 C 
ENDROOT
BRANCH   1   2
ATOM      2  O   UNL A   1      34.271  21.833  25.405  1.00  0.00    -0.461 OA
BRANCH   2   3
ATOM      3  C   UNL A   1      33.693  22.533  24.395  1.00  0.00     0.317 C 
ATOM      4  O   UNL A   1      32.729  22.136  23.749  1.00  0.00    -0.251 OA
BRANCH   3   5
ATOM      5  C   UNL A   1      34.322  23.904  24.173  1.00  0.00     0.119 C 
ATOM      6  N   UNL A   1      33.720  26.094  23.534  1.00  0.00    -0.330 N 
ATOM      7  C   UNL A   1      34.086  26.223  24.938  1.00  0.00     0.263 C 
ATOM      8  C   UNL A   1      33.351  24.703  23.307  1.00  0.00     0.281 C 
ATOM      9  H   UNL A   1      34.545  26.350  22.991  1.00  0.00     0.348 HD
ATOM     10  C   UNL A   1      34.482  24.815  25.401  1.00  0.00     0.086 C 
ATOM     11  C   UNL A   1      35.682  23.701  23.486  1.00  0.00     0.030 C 
BRANCH   6  12
ATOM     12  C   UNL A   1      32.787  27.084  22.957  1.00  0.00     0.209 C 
ATOM     13  C   UNL A   1      32.928  28.443  23.661  1.00  0.00     0.078 C 
BRANCH  12  14
ATOM     14  C   UNL A   1      31.286  26.680  22.754  1.00  0.00     0.169 C 
ATOM     15  C   UNL A   1      30.352  26.882  23.940  1.00  0.00     0.045 C 
BRANCH  14  16
ATOM     16  O   UNL A   1      30.731  27.366  21.626  1.00  0.00    -0.387 OA
ATOM     17  H   UNL A   1      31.448  27.737  21.088  1.00  0.00     0.211 HD
ENDBRANCH  14  16
ENDBRANCH  12  14
ENDBRANCH   6  12
ENDBRANCH   3   5
ENDBRANCH   2   3
ENDBRANCH   1   2
BRANCH   1  18
ATOM     18  C   UNL A   1      36.100  20.274  24.988  1.00  0.00     0.275 C 
BRANCH  18  19
ATOM     19  O   UNL A   1      36.781  21.345  25.664  1.00  0.00    -0.458 OA
BRANCH  19  20
ATOM     20  C   UNL A   1      38.124  21.223  25.751  1.00  0.00     0.338 C 
ATOM     21  O   UNL A   1      38.792  20.263  25.377  1.00  0.00    -0.246 OA
BRANCH  20  22
ATOM     22  C   UNL A   1      38.733  22.431  26.348  1.00  0.00     0.060 A 
ATOM     23  C   UNL A   1      38.194  23.700  26.130  1.00  0.00     0.016 A 
ATOM     24  C   UNL A   1      39.946  22.302  27.030  1.00  0.00     0.016 A 
ATOM     25  C   UNL A   1      38.933  24.835  26.472  1.00  0.00     0.010 A 
ATOM     26  C   UNL A   1      40.620  23.441  27.480  1.00  0.00     0.010 A 
ATOM     27  C   UNL A   1      40.151  24.726  27.167  1.00  0.00    -0.014 A 
BRANCH  27  28
ATOM     28  C   UNL A   1      40.921  25.939  27.581  1.00  0.00     0.031 A 
ATOM     29  C   UNL A   1      40.270  27.049  28.376  1.00  0.00     0.074 A 
ATOM     30  C   UNL A   1      42.210  26.074  27.207  1.00  0.00     0.049 A 
ATOM     31  N   UNL A   1      40.746  28.230  28.686  1.00  0.00    -0.248 NA
ATOM     32  C   UNL A   1      38.907  26.809  28.874  1.00  0.00     0.031 C 
ATOM     33  C   UNL A   1      42.969  25.097  26.425  1.00  0.00     0.029 A 
ATOM     34  N   UNL A   1      43.107  27.094  27.421  1.00  0.00    -0.354 N 
ATOM     35  C   UNL A   1      39.727  28.887  29.369  1.00  0.00     0.074 A 
ATOM     36  C   UNL A   1      38.604  27.977  29.426  1.00  0.00     0.031 C 
ATOM     37  C   UNL A   1      44.218  25.549  26.245  1.00  0.00     0.029 A 
ATOM     38  C   UNL A   1      44.328  26.884  26.823  1.00  0.00     0.049 A 
ATOM     39  H   UNL A   1      42.895  27.898  27.948  1.00  0.00     0.167 HD
ATOM     40  C   UNL A   1      39.729  30.126  29.919  1.00  0.00     0.034 A 
ATOM     41  C   UNL A   1      45.408  27.682  26.706  1.00  0.00     0.034 A 
ATOM     42  C   UNL A   1      40.861  31.013  29.931  1.00  0.00     0.049 A 
ATOM     43  C   UNL A   1      45.379  29.056  27.307  1.00  0.00     0.074 A 
ATOM     44  C   UNL A   1      40.969  32.263  30.519  1.00  0.00     0.029 A 
ATOM     45  N   UNL A   1      42.082  30.747  29.333  1.00  0.00    -0.354 N 
ATOM     46  N   UNL A   1      44.432  29.627  28.010  1.00  0.00    -0.248 NA
ATOM     47  C   UNL A   1      46.567  29.896  27.100  1.00  0.00     0.031 C 
ATOM     48  C   UNL A   1      42.256  32.756  30.268  1.00  0.00     0.029 A 
ATOM     49  C   UNL A   1      42.946  31.813  29.525  1.00  0.00     0.049 A 
ATOM     50  H   UNL A   1      42.303  29.922  28.844  1.00  0.00     0.167 HD
ATOM     51  C   UNL A   1      44.910  30.891  28.333  1.00  0.00     0.074 A 
ATOM     52  C   UNL A   1      46.245  30.989  27.779  1.00  0.00     0.031 C 
ATOM     53  C   UNL A   1      44.285  31.890  29.003  1.00  0.00     0.034 A 
BRANCH  40  54
ATOM     54  C   UNL A   1      38.475  30.590  30.615  1.00  0.00     0.023 A 
ATOM     55  C   UNL A   1      38.297  30.296  31.981  1.00  0.00     0.012 A 
ATOM     56  C   UNL A   1      37.521  31.383  29.947  1.00  0.00     0.148 A 
ATOM     57  C   UNL A   1      37.182  30.773  32.671  1.00  0.00     0.002 A 
ATOM     58  C   UNL A   1      36.426  31.878  30.648  1.00  0.00     0.091 A 
ATOM     59  F   UNL A   1      37.694  31.630  28.641  1.00  0.00    -0.205 F 
ATOM     60  C   UNL A   1      36.254  31.572  32.008  1.00  0.00     0.022 A 
BRANCH  58  61
ATOM     61  S   UNL A   1      35.212  32.965  29.889  1.00  0.00     0.127 S 
ATOM     62  O   UNL A   1      34.598  33.587  31.061  1.00  0.00    -0.237 OA
ATOM     63  O   UNL A   1      36.048  33.864  29.092  1.00  0.00    -0.237 OA
ATOM     64  O   UNL A   1      34.342  32.100  29.105  1.00  0.00    -0.744 OA
ENDBRANCH  58  61
ENDBRANCH  40  54
BRANCH  41  65
ATOM     65  C   UNL A   1      46.612  27.171  25.993  1.00  0.00     0.023 A 
ATOM     66  C   UNL A   1      46.757  27.417  24.616  1.00  0.00     0.012 A 
ATOM     67  C   UNL A   1      47.656  26.529  26.690  1.00  0.00     0.148 A 
ATOM     68  C   UNL A   1      47.920  27.036  23.947  1.00  0.00     0.002 A 
ATOM     69  C   UNL A   1      48.838  26.215  26.032  1.00  0.00     0.091 A 
ATOM     70  F   UNL A   1      47.489  26.269  27.996  1.00  0.00    -0.205 F 
ATOM     71  C   UNL A   1      48.969  26.455  24.657  1.00  0.00     0.022 A 
BRANCH  69  72
ATOM     72  S   UNL A   1      50.279  25.639  26.936  1.00  0.00     0.127 S 
ATOM     73  O   UNL A   1      50.568  26.777  27.804  1.00  0.00    -0.237 OA
ATOM     74  O   UNL A   1      49.769  24.453  27.627  1.00  0.00    -0.237 OA
ATOM     75  O   UNL A   1      51.270  25.342  25.910  1.00  0.00    -0.744 OA
ENDBRANCH  69  72
ENDBRANCH  41  65
BRANCH  53  76
ATOM     76  C   UNL A   1      45.030  33.187  29.160  1.00  0.00     0.023 A 
ATOM     77  C   UNL A   1      45.788  33.402  30.328  1.00  0.00     0.012 A 
ATOM     78  C   UNL A   1      45.028  34.162  28.145  1.00  0.00     0.148 A 
ATOM     79  C   UNL A   1      46.516  34.579  30.493  1.00  0.00     0.002 A 
ATOM     80  C   UNL A   1      45.783  35.319  28.303  1.00  0.00     0.091 A 
ATOM     81  F   UNL A   1      44.280  33.951  27.052  1.00  0.00    -0.205 F 
ATOM     82  C   UNL A   1      46.522  35.533  29.478  1.00  0.00     0.022 A 
BRANCH  80  83
ATOM     83  S   UNL A   1      45.899  36.559  27.006  1.00  0.00     0.127 S 
ATOM     84  O   UNL A   1      44.644  37.289  27.177  1.00  0.00    -0.237 OA
ATOM     85  O   UNL A   1      47.097  37.309  27.388  1.00  0.00    -0.237 OA
ATOM     86  O   UNL A   1      46.034  35.810  25.763  1.00  0.00    -0.744 OA
ENDBRANCH  80  83
ENDBRANCH  53  76
ENDBRANCH  27  28
ENDBRANCH  20  22
ENDBRANCH  19  20
ENDBRANCH  18  19
ENDBRANCH   1  18
TORSDOF 17
ENDMDL
MODEL 3
REMARK VINA RESULT:     -10.9      5.478     10.229
REMARK SMILES C[C@H]([C@@H](C)O)[N@H+]1CC[C@@](C)(C(=O)OCCOC(=O)c2ccc(-c3c4nc(c(-c5cccc(S(=O)(=O)[O-])c5F)c5ccc([nH]5)c(-c5cccc(S(=O)(=O)[O-])c5F)c5nc(c(-c6cccc(S(=O)(=O)[O-])c6F)c6ccc3[nH]6)C=C5)C=C4)cc2)C1
REMARK SMILES IDX 14 1 13 2 11 3 12 4 9 5 6 6 7 7 82 8 8 10 10 11 2 12 1 13
REMARK SMILES IDX 3 14 4 15 5 16 15 18 16 19 17 20 18 21 19 22 20 23 81 24
REMARK SMILES IDX 21 25 80 26 22 27 23 28 24 29 74 30 25 31 79 32 73 33 75 34
REMARK SMILES IDX 26 35 78 36 72 37 71 38 27 40 59 41 39 42 58 43 40 44 43 45
REMARK SMILES IDX 57 46 76 47 41 48 42 49 56 51 77 52 44 53 28 54 29 55 37 56
REMARK SMILES IDX 30 57 32 58 38 59 31 60 33 61 34 62 35 63 36 64 60 65 61 66
REMARK SMILES IDX 69 67 62 68 64 69 70 70 63 71 65 72 66 73 67 74 68 75 45 76
REMARK SMILES IDX 46 77 54 78 47 79 49 80 55 81 48 82 50 83 51 84 52 85 53 86
REMARK H PARENT 6 9 5 17 75 39 43 50
REMARK Flexibility Score: inf
ROOT
ATOM      1  C   UNL A   1      30.985  29.350  24.591  1.00  0.00     0.274 C 
ENDROOT
BRANCH   1   2
ATOM      2  O   UNL A   1      31.179  27.927  24.451  1.00  0.00    -0.461 OA
BRANCH   2   3
ATOM      3  C   UNL A   1      32.203  27.543  23.645  1.00  0.00     0.317 C 
ATOM      4  O   UNL A   1      32.420  28.020  22.536  1.00  0.00    -0.251 OA
BRANCH   3   5
ATOM      5  C   UNL A   1      33.109  26.492  24.279  1.00  0.00     0.119 C 
ATOM      6  N   UNL A   1      33.012  24.303  25.151  1.00  0.00    -0.330 N 
ATOM      7  C   UNL A   1      33.806  24.165  23.939  1.00  0.00     0.263 C 
ATOM      8  C   UNL A   1      32.201  25.503  25.006  1.00  0.00     0.281 C 
ATOM      9  H   UNL A   1      33.671  24.394  25.925  1.00  0.00     0.348 HD
ATOM     10  C   UNL A   1      33.893  25.571  23.330  1.00  0.00     0.086 C 
ATOM     11  C   UNL A   1      34.075  27.207  25.237  1.00  0.00     0.030 C 
BRANCH   6  12
ATOM     12  C   UNL A   1      32.281  23.119  25.651  1.00  0.00     0.209 C 
ATOM     13  C   UNL A   1      31.433  22.489  24.535  1.00  0.00     0.078 C 
BRANCH  12  14
ATOM     14  C   UNL A   1      31.489  23.232  26.999  1.00  0.00     0.169 C 
ATOM     15  C   UNL A   1      30.029  22.799  26.978  1.00  0.00     0.045 C 
BRANCH  14  16
ATOM     16  O   UNL A   1      32.156  22.503  28.035  1.00  0.00    -0.387 OA
ATOM     17  H   UNL A   1      31.499  22.101  28.623  1.00  0.00     0.211 HD
ENDBRANCH  14  16
ENDBRANCH  12  14
ENDBRANCH   6  12
ENDBRANCH   3   5
ENDBRANCH   2   3
ENDBRANCH   1   2
BRANCH   1  18
ATOM     18  C   UNL A   1      31.454  29.820  25.965  1.00  0.00     0.275 C 
BRANCH  18  19
ATOM     19  O   UNL A   1      32.742  30.448  25.853  1.00  0.00    -0.458 OA
BRANCH  19  20
ATOM     20  C   UNL A   1      33.077  31.281  26.863  1.00  0.00     0.338 C 
ATOM     21  O   UNL A   1      32.393  32.199  27.306  1.00  0.00    -0.246 OA
BRANCH  20  22
ATOM     22  C   UNL A   1      34.404  30.939  27.420  1.00  0.00     0.060 A 
ATOM     23  C   UNL A   1      34.749  29.619  27.716  1.00  0.00     0.016 A 
ATOM     24  C   UNL A   1      35.268  31.977  27.777  1.00  0.00     0.016 A 
ATOM     25  C   UNL A   1      35.886  29.356  28.484  1.00  0.00     0.010 A 
ATOM     26  C   UNL A   1      36.467  31.694  28.438  1.00  0.00     0.010 A 
ATOM     27  C   UNL A   1      36.773  30.386  28.845  1.00  0.00    -0.014 A 
BRANCH  27  28
ATOM     28  C   UNL A   1      38.018  30.103  29.624  1.00  0.00     0.031 A 
ATOM     29  C   UNL A   1      39.090  29.184  29.083  1.00  0.00     0.074 A 
ATOM     30  C   UNL A   1      38.176  30.640  30.851  1.00  0.00     0.049 A 
ATOM     31  N   UNL A   1      40.155  28.714  29.686  1.00  0.00    -0.248 NA
ATOM     32  C   UNL A   1      38.943  28.723  27.694  1.00  0.00     0.031 C 
ATOM     33  C   UNL A   1      37.222  31.530  31.513  1.00  0.00     0.029 A 
ATOM     34  N   UNL A   1      39.191  30.503  31.769  1.00  0.00    -0.354 N 
ATOM     35  C   UNL A   1      40.773  27.868  28.770  1.00  0.00     0.074 A 
ATOM     36  C   UNL A   1      39.964  27.885  27.571  1.00  0.00     0.031 C 
ATOM     37  C   UNL A   1      37.703  31.879  32.715  1.00  0.00     0.029 A 
ATOM     38  C   UNL A   1      38.958  31.173  32.947  1.00  0.00     0.049 A 
ATOM     39  H   UNL A   1      40.005  29.975  31.599  1.00  0.00     0.167 HD
ATOM     40  C   UNL A   1      41.920  27.158  28.902  1.00  0.00     0.034 A 
ATOM     41  C   UNL A   1      39.643  31.192  34.108  1.00  0.00     0.034 A 
ATOM     42  C   UNL A   1      42.769  27.188  30.063  1.00  0.00     0.049 A 
ATOM     43  C   UNL A   1      40.899  30.383  34.236  1.00  0.00     0.074 A 
ATOM     44  C   UNL A   1      43.981  26.546  30.259  1.00  0.00     0.029 A 
ATOM     45  N   UNL A   1      42.503  27.898  31.222  1.00  0.00    -0.354 N 
ATOM     46  N   UNL A   1      41.502  29.650  33.334  1.00  0.00    -0.248 NA
ATOM     47  C   UNL A   1      41.572  30.405  35.543  1.00  0.00     0.031 C 
ATOM     48  C   UNL A   1      44.443  26.863  31.542  1.00  0.00     0.029 A 
ATOM     49  C   UNL A   1      43.519  27.701  32.143  1.00  0.00     0.049 A 
ATOM     50  H   UNL A   1      41.709  28.461  31.369  1.00  0.00     0.167 HD
ATOM     51  C   UNL A   1      42.625  29.125  33.960  1.00  0.00     0.074 A 
ATOM     52  C   UNL A   1      42.639  29.653  35.309  1.00  0.00     0.031 C 
ATOM     53  C   UNL A   1      43.545  28.259  33.469  1.00  0.00     0.034 A 
BRANCH  40  54
ATOM     54  C   UNL A   1      42.367  26.318  27.734  1.00  0.00     0.023 A 
ATOM     55  C   UNL A   1      43.246  26.873  26.784  1.00  0.00     0.012 A 
ATOM     56  C   UNL A   1      41.991  24.965  27.623  1.00  0.00     0.148 A 
ATOM     57  C   UNL A   1      43.735  26.099  25.731  1.00  0.00     0.002 A 
ATOM     58  C   UNL A   1      42.504  24.191  26.587  1.00  0.00     0.091 A 
ATOM     59  F   UNL A   1      41.134  24.461  28.523  1.00  0.00    -0.205 F 
ATOM     60  C   UNL A   1      43.373  24.757  25.639  1.00  0.00     0.022 A 
BRANCH  58  61
ATOM     61  S   UNL A   1      42.141  22.437  26.426  1.00  0.00     0.127 S 
ATOM     62  O   UNL A   1      40.684  22.447  26.304  1.00  0.00    -0.237 OA
ATOM     63  O   UNL A   1      42.851  22.081  25.197  1.00  0.00    -0.237 OA
ATOM     64  O   UNL A   1      42.670  21.812  27.629  1.00  0.00    -0.744 OA
ENDBRANCH  58  61
ENDBRANCH  40  54
BRANCH  41  65
ATOM     65  C   UNL A   1      39.141  32.032  35.231  1.00  0.00     0.023 A 
ATOM     66  C   UNL A   1      38.305  31.455  36.205  1.00  0.00     0.012 A 
ATOM     67  C   UNL A   1      39.565  33.366  35.392  1.00  0.00     0.148 A 
ATOM     68  C   UNL A   1      37.903  32.193  37.319  1.00  0.00     0.002 A 
ATOM     69  C   UNL A   1      39.215  34.071  36.537  1.00  0.00     0.091 A 
ATOM     70  F   UNL A   1      40.333  33.913  34.438  1.00  0.00    -0.205 F 
ATOM     71  C   UNL A   1      38.374  33.492  37.497  1.00  0.00     0.022 A 
BRANCH  69  72
ATOM     72  S   UNL A   1      39.945  35.672  36.900  1.00  0.00     0.127 S 
ATOM     73  O   UNL A   1      39.251  36.051  38.127  1.00  0.00    -0.237 OA
ATOM     74  O   UNL A   1      41.362  35.345  37.070  1.00  0.00    -0.237 OA
ATOM     75  O   UNL A   1      39.666  36.486  35.723  1.00  0.00    -0.744 OA
ENDBRANCH  69  72
ENDBRANCH  41  65
BRANCH  53  76
ATOM     76  C   UNL A   1      44.638  27.811  34.401  1.00  0.00     0.023 A 
ATOM     77  C   UNL A   1      45.772  28.630  34.567  1.00  0.00     0.012 A 
ATOM     78  C   UNL A   1      44.525  26.623  35.147  1.00  0.00     0.148 A 
ATOM     79  C   UNL A   1      46.790  28.261  35.445  1.00  0.00     0.002 A 
ATOM     80  C   UNL A   1      45.529  26.279  36.046  1.00  0.00     0.091 A 
ATOM     81  F   UNL A   1      43.451  25.844  34.957  1.00  0.00    -0.205 F 
ATOM     82  C   UNL A   1      46.664  27.092  36.192  1.00  0.00     0.022 A 
BRANCH  80  83
ATOM     83  S   UNL A   1      45.402  24.825  37.096  1.00  0.00     0.127 S 
ATOM     84  O   UNL A   1      44.134  25.062  37.784  1.00  0.00    -0.237 OA
ATOM     85  O   UNL A   1      45.372  23.731  36.124  1.00  0.00    -0.237 OA
ATOM     86  O   UNL A   1      46.593  24.846  37.935  1.00  0.00    -0.744 OA
ENDBRANCH  80  83
ENDBRANCH  53  76
ENDBRANCH  27  28
ENDBRANCH  20  22
ENDBRANCH  19  20
ENDBRANCH  18  19
ENDBRANCH   1  18
TORSDOF 17
ENDMDL
