MODEL 1
REMARK VINA RESULT:     -10.9      0.000      0.000
REMARK SMILES CC(C)CCn1nc(C(=O)OCCOC(=O)c2ccc(-c3c4nc(c(-c5cccc(S(=O)(=O)[O-])c5F)c5ccc([nH]5)c(-c5cccc(S(=O)(=O)[O-])c5F)c5nc(c(-c6cccc(S(=O)(=O)[O-])c6F)c6ccc3[nH]6)C=C5)C=C4)cc2)c2c1CCN(C(=O)[C@@H]1CCc3nn(C)c(=O)n3C1)C2
REMARK SMILES IDX 12 1 11 2 9 3 10 4 8 5 6 6 7 7 81 8 80 9 82 10 98 11 83 12
REMARK SMILES IDX 84 13 5 14 4 15 2 16 1 17 3 18 85 19 86 20 87 21 88 22 97 23
REMARK SMILES IDX 89 24 96 25 90 26 94 27 91 28 92 29 95 30 93 31 13 32 14 33
REMARK SMILES IDX 15 34 16 35 17 36 18 37 79 38 19 39 78 40 20 41 21 42 22 43
REMARK SMILES IDX 72 44 23 45 77 46 71 47 73 48 24 49 76 50 70 51 69 52 25 54
REMARK SMILES IDX 57 55 37 56 56 57 38 58 41 59 55 60 74 61 39 62 40 63 54 65
REMARK SMILES IDX 75 66 42 67 26 68 27 69 35 70 28 71 30 72 36 73 29 74 31 75
REMARK SMILES IDX 32 76 33 77 34 78 58 79 59 80 67 81 60 82 62 83 68 84 61 85
REMARK SMILES IDX 63 86 64 87 65 88 66 89 43 90 44 91 52 92 45 93 47 94 53 95
REMARK SMILES IDX 46 96 48 97 49 98 50 99 51 100
REMARK H PARENT 73 53 41 64
REMARK Flexibility Score: inf
ROOT
ATOM      1  C   UNL A   1      34.480  34.303  31.029  1.00  0.00     0.275 C 
ENDROOT
BRANCH   1   2
ATOM      2  O   UNL A   1      35.866  34.165  31.366  1.00  0.00    -0.457 OA
BRANCH   2   3
ATOM      3  C   UNL A   1      36.279  34.694  32.565  1.00  0.00     0.359 C 
ATOM      4  O   UNL A   1      35.585  35.406  33.269  1.00  0.00    -0.244 OA
BRANCH   3   5
ATOM      5  C   UNL A   1      37.661  34.274  32.874  1.00  0.00     0.175 A 
ATOM      6  N   UNL A   1      39.798  34.111  32.768  1.00  0.00    -0.268 N 
ATOM      7  N   UNL A   1      38.735  34.666  32.148  1.00  0.00    -0.165 NA
ATOM      8  C   UNL A   1      39.418  33.223  33.730  1.00  0.00     0.046 A 
ATOM      9  C   UNL A   1      38.067  33.408  33.925  1.00  0.00     0.028 A 
ATOM     10  C   UNL A   1      40.229  32.227  34.472  1.00  0.00     0.078 C 
ATOM     11  C   UNL A   1      37.261  32.726  34.983  1.00  0.00     0.159 C 
ATOM     12  C   UNL A   1      39.239  31.221  35.117  1.00  0.00     0.126 C 
ATOM     13  N   UNL A   1      38.153  31.909  35.829  1.00  0.00    -0.338 N 
BRANCH   6  14
ATOM     14  C   UNL A   1      41.138  34.369  32.273  1.00  0.00     0.145 C 
BRANCH  14  15
ATOM     15  C   UNL A   1      41.478  33.769  30.900  1.00  0.00     0.027 C 
BRANCH  15  16
ATOM     16  C   UNL A   1      42.867  34.115  30.324  1.00  0.00    -0.016 C 
ATOM     17  C   UNL A   1      42.909  34.047  28.797  1.00  0.00     0.007 C 
ATOM     18  C   UNL A   1      43.273  35.526  30.770  1.00  0.00     0.007 C 
ENDBRANCH  15  16
ENDBRANCH  14  15
ENDBRANCH   6  14
BRANCH  13  19
ATOM     19  C   UNL A   1      37.748  31.691  37.124  1.00  0.00     0.227 C 
ATOM     20  O   UNL A   1      37.493  30.543  37.512  1.00  0.00    -0.274 OA
BRANCH  19  21
ATOM     21  C   UNL A   1      37.552  32.836  38.124  1.00  0.00     0.099 C 
ATOM     22  C   UNL A   1      38.743  33.737  38.468  1.00  0.00     0.023 C 
ATOM     23  C   UNL A   1      36.666  32.450  39.301  1.00  0.00     0.142 C 
ATOM     24  C   UNL A   1      39.444  33.487  39.800  1.00  0.00     0.078 C 
ATOM     25  N   UNL A   1      37.369  32.380  40.558  1.00  0.00    -0.278 N 
ATOM     26  C   UNL A   1      38.581  32.873  40.851  1.00  0.00     0.133 A 
ATOM     27  C   UNL A   1      36.849  31.921  41.741  1.00  0.00     0.345 A 
ATOM     28  N   UNL A   1      38.951  32.722  42.089  1.00  0.00    -0.155 NA
ATOM     29  N   UNL A   1      37.874  32.101  42.673  1.00  0.00    -0.216 N 
ATOM     30  O   UNL A   1      35.727  31.484  41.941  1.00  0.00    -0.246 OA
ATOM     31  C   UNL A   1      37.821  31.792  44.073  1.00  0.00     0.179 C 
ENDBRANCH  19  21
ENDBRANCH  13  19
ENDBRANCH   3   5
ENDBRANCH   2   3
ENDBRANCH   1   2
BRANCH   1  32
ATOM     32  C   UNL A   1      34.262  33.992  29.557  1.00  0.00     0.275 C 
BRANCH  32  33
ATOM     33  O   UNL A   1      35.431  33.406  28.987  1.00  0.00    -0.458 OA
BRANCH  33  34
ATOM     34  C   UNL A   1      35.294  32.138  28.537  1.00  0.00     0.338 C 
ATOM     35  O   UNL A   1      34.288  31.627  28.071  1.00  0.00    -0.246 OA
BRANCH  34  36
ATOM     36  C   UNL A   1      36.501  31.391  28.903  1.00  0.00     0.060 A 
ATOM     37  C   UNL A   1      37.593  32.078  29.437  1.00  0.00     0.016 A 
ATOM     38  C   UNL A   1      36.598  30.046  28.512  1.00  0.00     0.016 A 
ATOM     39  C   UNL A   1      38.819  31.434  29.482  1.00  0.00     0.010 A 
ATOM     40  C   UNL A   1      37.817  29.415  28.542  1.00  0.00     0.010 A 
ATOM     41  C   UNL A   1      38.928  30.127  28.980  1.00  0.00    -0.014 A 
BRANCH  41  42
ATOM     42  C   UNL A   1      40.184  29.410  29.122  1.00  0.00     0.031 A 
ATOM     43  C   UNL A   1      40.560  29.257  30.549  1.00  0.00     0.074 A 
ATOM     44  C   UNL A   1      40.825  28.820  28.090  1.00  0.00     0.049 A 
ATOM     45  N   UNL A   1      41.518  29.864  31.165  1.00  0.00    -0.248 NA
ATOM     46  C   UNL A   1      39.649  28.525  31.445  1.00  0.00     0.031 C 
ATOM     47  C   UNL A   1      40.356  28.702  26.703  1.00  0.00     0.029 A 
ATOM     48  N   UNL A   1      41.980  28.092  28.078  1.00  0.00    -0.354 N 
ATOM     49  C   UNL A   1      41.505  29.342  32.457  1.00  0.00     0.074 A 
ATOM     50  C   UNL A   1      40.215  28.739  32.635  1.00  0.00     0.031 C 
ATOM     51  C   UNL A   1      41.085  27.760  26.058  1.00  0.00     0.029 A 
ATOM     52  C   UNL A   1      42.160  27.319  26.929  1.00  0.00     0.049 A 
ATOM     53  H   UNL A   1      42.631  28.110  28.817  1.00  0.00     0.167 HD
ATOM     54  C   UNL A   1      42.678  29.150  33.119  1.00  0.00     0.034 A 
ATOM     55  C   UNL A   1      43.112  26.373  26.725  1.00  0.00     0.034 A 
ATOM     56  C   UNL A   1      43.751  29.840  32.448  1.00  0.00     0.049 A 
ATOM     57  C   UNL A   1      44.214  26.665  27.662  1.00  0.00     0.074 A 
ATOM     58  C   UNL A   1      44.179  31.139  32.299  1.00  0.00     0.029 A 
ATOM     59  N   UNL A   1      44.312  29.098  31.443  1.00  0.00    -0.354 N 
ATOM     60  N   UNL A   1      44.974  27.716  27.548  1.00  0.00    -0.248 NA
ATOM     61  C   UNL A   1      44.283  25.968  28.940  1.00  0.00     0.031 C 
ATOM     62  C   UNL A   1      44.896  31.178  31.067  1.00  0.00     0.029 A 
ATOM     63  C   UNL A   1      44.931  29.895  30.524  1.00  0.00     0.049 A 
ATOM     64  H   UNL A   1      44.275  28.115  31.390  1.00  0.00     0.167 HD
ATOM     65  C   UNL A   1      45.218  28.076  28.859  1.00  0.00     0.074 A 
ATOM     66  C   UNL A   1      44.957  26.879  29.648  1.00  0.00     0.031 C 
ATOM     67  C   UNL A   1      45.266  29.390  29.213  1.00  0.00     0.034 A 
BRANCH  54  68
ATOM     68  C   UNL A   1      42.999  27.966  34.017  1.00  0.00     0.023 A 
ATOM     69  C   UNL A   1      43.783  26.935  33.447  1.00  0.00     0.012 A 
ATOM     70  C   UNL A   1      42.340  27.660  35.231  1.00  0.00     0.148 A 
ATOM     71  C   UNL A   1      43.858  25.660  34.016  1.00  0.00     0.002 A 
ATOM     72  C   UNL A   1      42.467  26.409  35.828  1.00  0.00     0.091 A 
ATOM     73  F   UNL A   1      41.478  28.527  35.764  1.00  0.00    -0.205 F 
ATOM     74  C   UNL A   1      43.201  25.396  35.209  1.00  0.00     0.022 A 
BRANCH  72  75
ATOM     75  S   UNL A   1      41.653  26.013  37.383  1.00  0.00     0.127 S 
ATOM     76  O   UNL A   1      41.287  24.615  37.173  1.00  0.00    -0.237 OA
ATOM     77  O   UNL A   1      42.734  26.234  38.344  1.00  0.00    -0.237 OA
ATOM     78  O   UNL A   1      40.544  26.950  37.502  1.00  0.00    -0.744 OA
ENDBRANCH  72  75
ENDBRANCH  54  68
BRANCH  55  79
ATOM     79  C   UNL A   1      43.160  25.149  25.892  1.00  0.00     0.023 A 
ATOM     80  C   UNL A   1      44.214  24.973  24.967  1.00  0.00     0.012 A 
ATOM     81  C   UNL A   1      42.388  24.024  26.246  1.00  0.00     0.148 A 
ATOM     82  C   UNL A   1      44.528  23.708  24.458  1.00  0.00     0.002 A 
ATOM     83  C   UNL A   1      42.712  22.764  25.746  1.00  0.00     0.091 A 
ATOM     84  F   UNL A   1      41.407  24.181  27.143  1.00  0.00    -0.205 F 
ATOM     85  C   UNL A   1      43.789  22.600  24.862  1.00  0.00     0.022 A 
BRANCH  83  86
ATOM     86  S   UNL A   1      41.858  21.269  26.262  1.00  0.00     0.127 S 
ATOM     87  O   UNL A   1      40.467  21.590  25.944  1.00  0.00    -0.237 OA
ATOM     88  O   UNL A   1      42.465  20.260  25.397  1.00  0.00    -0.237 OA
ATOM     89  O   UNL A   1      42.135  21.124  27.686  1.00  0.00    -0.744 OA
ENDBRANCH  83  86
ENDBRANCH  55  79
BRANCH  67  90
ATOM     90  C   UNL A   1      45.539  30.385  28.126  1.00  0.00     0.023 A 
ATOM     91  C   UNL A   1      44.526  30.994  27.359  1.00  0.00     0.012 A 
ATOM     92  C   UNL A   1      46.873  30.777  27.940  1.00  0.00     0.148 A 
ATOM     93  C   UNL A   1      44.847  31.968  26.409  1.00  0.00     0.002 A 
ATOM     94  C   UNL A   1      47.182  31.774  27.031  1.00  0.00     0.091 A 
ATOM     95  F   UNL A   1      47.817  30.172  28.677  1.00  0.00    -0.205 F 
ATOM     96  C   UNL A   1      46.175  32.367  26.253  1.00  0.00     0.022 A 
BRANCH  94  97
ATOM     97  S   UNL A   1      48.853  32.404  26.874  1.00  0.00     0.127 S 
ATOM     98  O   UNL A   1      49.582  31.224  26.415  1.00  0.00    -0.237 OA
ATOM     99  O   UNL A   1      48.694  33.456  25.870  1.00  0.00    -0.237 OA
ATOM    100  O   UNL A   1      49.224  32.894  28.195  1.00  0.00    -0.744 OA
ENDBRANCH  94  97
ENDBRANCH  67  90
ENDBRANCH  41  42
ENDBRANCH  34  36
ENDBRANCH  33  34
ENDBRANCH  32  33
ENDBRANCH   1  32
TORSDOF 19
ENDMDL
MODEL 2
REMARK VINA RESULT:     -10.2      2.067      5.527
REMARK SMILES CC(C)CCn1nc(C(=O)OCCOC(=O)c2ccc(-c3c4nc(c(-c5cccc(S(=O)(=O)[O-])c5F)c5ccc([nH]5)c(-c5cccc(S(=O)(=O)[O-])c5F)c5nc(c(-c6cccc(S(=O)(=O)[O-])c6F)c6ccc3[nH]6)C=C5)C=C4)cc2)c2c1CCN(C(=O)[C@@H]1CCc3nn(C)c(=O)n3C1)C2
REMARK SMILES IDX 12 1 11 2 9 3 10 4 8 5 6 6 7 7 81 8 80 9 82 10 98 11 83 12
REMARK SMILES IDX 84 13 5 14 4 15 2 16 1 17 3 18 85 19 86 20 87 21 88 22 97 23
REMARK SMILES IDX 89 24 96 25 90 26 94 27 91 28 92 29 95 30 93 31 13 32 14 33
REMARK SMILES IDX 15 34 16 35 17 36 18 37 79 38 19 39 78 40 20 41 21 42 22 43
REMARK SMILES IDX 72 44 23 45 77 46 71 47 73 48 24 49 76 50 70 51 69 52 25 54
REMARK SMILES IDX 57 55 37 56 56 57 38 58 41 59 55 60 74 61 39 62 40 63 54 65
REMARK SMILES IDX 75 66 42 67 26 68 27 69 35 70 28 71 30 72 36 73 29 74 31 75
REMARK SMILES IDX 32 76 33 77 34 78 58 79 59 80 67 81 60 82 62 83 68 84 61 85
REMARK SMILES IDX 63 86 64 87 65 88 66 89 43 90 44 91 52 92 45 93 47 94 53 95
REMARK SMILES IDX 46 96 48 97 49 98 50 99 51 100
REMARK H PARENT 73 53 41 64
REMARK Flexibility Score: inf
ROOT
ATOM      1  C   UNL A   1      35.409  32.469  32.344  1.00  0.00     0.275 C 
ENDROOT
BRANCH   1   2
ATOM      2  O   UNL A   1      34.959  33.226  33.475  1.00  0.00    -0.457 OA
BRANCH   2   3
ATOM      3  C   UNL A   1      35.730  34.294  33.866  1.00  0.00     0.359 C 
ATOM      4  O   UNL A   1      35.566  35.433  33.467  1.00  0.00    -0.244 OA
BRANCH   3   5
ATOM      5  C   UNL A   1      36.764  33.867  34.830  1.00  0.00     0.175 A 
ATOM      6  N   UNL A   1      37.678  32.987  36.560  1.00  0.00    -0.268 N 
ATOM      7  N   UNL A   1      36.478  33.242  35.997  1.00  0.00    -0.165 NA
ATOM      8  C   UNL A   1      38.694  33.605  35.895  1.00  0.00     0.046 A 
ATOM      9  C   UNL A   1      38.168  34.056  34.704  1.00  0.00     0.028 A 
ATOM     10  C   UNL A   1      40.109  33.797  36.295  1.00  0.00     0.078 C 
ATOM     11  C   UNL A   1      38.965  34.686  33.609  1.00  0.00     0.159 C 
ATOM     12  C   UNL A   1      40.696  34.907  35.383  1.00  0.00     0.126 C 
ATOM     13  N   UNL A   1      40.397  34.660  33.966  1.00  0.00    -0.338 N 
BRANCH   6  14
ATOM     14  C   UNL A   1      37.745  32.270  37.822  1.00  0.00     0.145 C 
BRANCH  14  15
ATOM     15  C   UNL A   1      36.908  32.849  38.972  1.00  0.00     0.027 C 
BRANCH  15  16
ATOM     16  C   UNL A   1      37.415  32.566  40.401  1.00  0.00    -0.016 C 
ATOM     17  C   UNL A   1      36.750  33.454  41.454  1.00  0.00     0.007 C 
ATOM     18  C   UNL A   1      37.159  31.095  40.758  1.00  0.00     0.007 C 
ENDBRANCH  15  16
ENDBRANCH  14  15
ENDBRANCH   6  14
BRANCH  13  19
ATOM     19  C   UNL A   1      41.293  34.642  32.925  1.00  0.00     0.227 C 
ATOM     20  O   UNL A   1      42.308  35.350  32.965  1.00  0.00    -0.274 OA
BRANCH  19  21
ATOM     21  C   UNL A   1      41.070  33.797  31.666  1.00  0.00     0.099 C 
ATOM     22  C   UNL A   1      41.927  32.544  31.447  1.00  0.00     0.023 C 
ATOM     23  C   UNL A   1      40.819  34.638  30.422  1.00  0.00     0.142 C 
ATOM     24  C   UNL A   1      43.076  32.652  30.450  1.00  0.00     0.078 C 
ATOM     25  N   UNL A   1      41.883  34.573  29.452  1.00  0.00    -0.278 N 
ATOM     26  C   UNL A   1      42.880  33.678  29.384  1.00  0.00     0.133 A 
ATOM     27  C   UNL A   1      41.981  35.337  28.318  1.00  0.00     0.345 A 
ATOM     28  N   UNL A   1      43.673  33.815  28.362  1.00  0.00    -0.155 NA
ATOM     29  N   UNL A   1      43.135  34.877  27.677  1.00  0.00    -0.216 N 
ATOM     30  O   UNL A   1      41.211  36.203  27.936  1.00  0.00    -0.246 OA
ATOM     31  C   UNL A   1      43.663  35.345  26.429  1.00  0.00     0.179 C 
ENDBRANCH  19  21
ENDBRANCH  13  19
ENDBRANCH   3   5
ENDBRANCH   2   3
ENDBRANCH   1   2
BRANCH   1  32
ATOM     32  C   UNL A   1      34.894  33.091  31.056  1.00  0.00     0.275 C 
BRANCH  32  33
ATOM     33  O   UNL A   1      34.755  32.103  30.038  1.00  0.00    -0.458 OA
BRANCH  33  34
ATOM     34  C   UNL A   1      35.658  32.162  29.033  1.00  0.00     0.338 C 
ATOM     35  O   UNL A   1      35.500  32.659  27.930  1.00  0.00    -0.246 OA
BRANCH  34  36
ATOM     36  C   UNL A   1      36.807  31.329  29.401  1.00  0.00     0.060 A 
ATOM     37  C   UNL A   1      38.061  31.925  29.556  1.00  0.00     0.016 A 
ATOM     38  C   UNL A   1      36.654  29.934  29.381  1.00  0.00     0.016 A 
ATOM     39  C   UNL A   1      39.179  31.109  29.588  1.00  0.00     0.010 A 
ATOM     40  C   UNL A   1      37.765  29.127  29.397  1.00  0.00     0.010 A 
ATOM     41  C   UNL A   1      39.021  29.720  29.451  1.00  0.00    -0.014 A 
BRANCH  41  42
ATOM     42  C   UNL A   1      40.179  28.853  29.591  1.00  0.00     0.031 A 
ATOM     43  C   UNL A   1      40.520  28.632  31.018  1.00  0.00     0.074 A 
ATOM     44  C   UNL A   1      40.754  28.206  28.555  1.00  0.00     0.049 A 
ATOM     45  N   UNL A   1      41.537  29.108  31.652  1.00  0.00    -0.248 NA
ATOM     46  C   UNL A   1      39.517  28.003  31.894  1.00  0.00     0.031 C 
ATOM     47  C   UNL A   1      40.287  28.167  27.162  1.00  0.00     0.029 A 
ATOM     48  N   UNL A   1      41.811  27.342  28.539  1.00  0.00    -0.354 N 
ATOM     49  C   UNL A   1      41.449  28.571  32.934  1.00  0.00     0.074 A 
ATOM     50  C   UNL A   1      40.093  28.128  33.092  1.00  0.00     0.031 C 
ATOM     51  C   UNL A   1      40.902  27.154  26.507  1.00  0.00     0.029 A 
ATOM     52  C   UNL A   1      41.907  26.571  27.379  1.00  0.00     0.049 A 
ATOM     53  H   UNL A   1      42.452  27.268  29.284  1.00  0.00     0.167 HD
ATOM     54  C   UNL A   1      42.583  28.226  33.603  1.00  0.00     0.034 A 
ATOM     55  C   UNL A   1      42.738  25.519  27.166  1.00  0.00     0.034 A 
ATOM     56  C   UNL A   1      43.738  28.791  32.952  1.00  0.00     0.049 A 
ATOM     57  C   UNL A   1      43.858  25.659  28.117  1.00  0.00     0.074 A 
ATOM     58  C   UNL A   1      44.323  30.030  32.829  1.00  0.00     0.029 A 
ATOM     59  N   UNL A   1      44.215  28.001  31.939  1.00  0.00    -0.354 N 
ATOM     60  N   UNL A   1      44.741  26.611  28.027  1.00  0.00    -0.248 NA
ATOM     61  C   UNL A   1      43.829  24.939  29.383  1.00  0.00     0.031 C 
ATOM     62  C   UNL A   1      45.052  30.000  31.603  1.00  0.00     0.029 A 
ATOM     63  C   UNL A   1      44.935  28.731  31.039  1.00  0.00     0.049 A 
ATOM     64  H   UNL A   1      44.058  27.032  31.869  1.00  0.00     0.167 HD
ATOM     65  C   UNL A   1      45.015  26.917  29.345  1.00  0.00     0.074 A 
ATOM     66  C   UNL A   1      44.601  25.749  30.112  1.00  0.00     0.031 C 
ATOM     67  C   UNL A   1      45.220  28.210  29.723  1.00  0.00     0.034 A 
BRANCH  54  68
ATOM     68  C   UNL A   1      42.747  26.998  34.483  1.00  0.00     0.023 A 
ATOM     69  C   UNL A   1      41.562  26.310  34.836  1.00  0.00     0.012 A 
ATOM     70  C   UNL A   1      43.910  26.673  35.221  1.00  0.00     0.148 A 
ATOM     71  C   UNL A   1      41.521  25.400  35.897  1.00  0.00     0.002 A 
ATOM     72  C   UNL A   1      43.879  25.721  36.236  1.00  0.00     0.091 A 
ATOM     73  F   UNL A   1      45.034  27.366  35.044  1.00  0.00    -0.205 F 
ATOM     74  C   UNL A   1      42.681  25.103  36.598  1.00  0.00     0.022 A 
BRANCH  72  75
ATOM     75  S   UNL A   1      45.354  25.279  37.168  1.00  0.00     0.127 S 
ATOM     76  O   UNL A   1      46.251  24.840  36.103  1.00  0.00    -0.237 OA
ATOM     77  O   UNL A   1      45.704  26.557  37.787  1.00  0.00    -0.237 OA
ATOM     78  O   UNL A   1      44.935  24.251  38.111  1.00  0.00    -0.744 OA
ENDBRANCH  72  75
ENDBRANCH  54  68
BRANCH  55  79
ATOM     79  C   UNL A   1      42.645  24.312  26.313  1.00  0.00     0.023 A 
ATOM     80  C   UNL A   1      43.722  23.969  25.466  1.00  0.00     0.012 A 
ATOM     81  C   UNL A   1      41.670  23.330  26.584  1.00  0.00     0.148 A 
ATOM     82  C   UNL A   1      43.858  22.673  24.955  1.00  0.00     0.002 A 
ATOM     83  C   UNL A   1      41.816  22.038  26.082  1.00  0.00     0.091 A 
ATOM     84  F   UNL A   1      40.663  23.642  27.408  1.00  0.00    -0.205 F 
ATOM     85  C   UNL A   1      42.916  21.702  25.278  1.00  0.00     0.022 A 
BRANCH  83  86
ATOM     86  S   UNL A   1      40.686  20.704  26.501  1.00  0.00     0.127 S 
ATOM     87  O   UNL A   1      41.286  19.569  25.799  1.00  0.00    -0.237 OA
ATOM     88  O   UNL A   1      40.805  20.653  27.957  1.00  0.00    -0.237 OA
ATOM     89  O   UNL A   1      39.383  21.110  25.991  1.00  0.00    -0.744 OA
ENDBRANCH  83  86
ENDBRANCH  55  79
BRANCH  67  90
ATOM     90  C   UNL A   1      45.623  29.181  28.655  1.00  0.00     0.023 A 
ATOM     91  C   UNL A   1      44.701  29.938  27.905  1.00  0.00     0.012 A 
ATOM     92  C   UNL A   1      46.997  29.393  28.471  1.00  0.00     0.148 A 
ATOM     93  C   UNL A   1      45.149  30.879  26.973  1.00  0.00     0.002 A 
ATOM     94  C   UNL A   1      47.437  30.358  27.581  1.00  0.00     0.091 A 
ATOM     95  F   UNL A   1      47.852  28.650  29.191  1.00  0.00    -0.205 F 
ATOM     96  C   UNL A   1      46.518  31.097  26.819  1.00  0.00     0.022 A 
BRANCH  94  97
ATOM     97  S   UNL A   1      49.178  30.758  27.429  1.00  0.00     0.127 S 
ATOM     98  O   UNL A   1      49.154  31.863  26.473  1.00  0.00    -0.237 OA
ATOM     99  O   UNL A   1      49.528  31.138  28.798  1.00  0.00    -0.237 OA
ATOM    100  O   UNL A   1      49.831  29.542  26.963  1.00  0.00    -0.744 OA
ENDBRANCH  94  97
ENDBRANCH  67  90
ENDBRANCH  41  42
ENDBRANCH  34  36
ENDBRANCH  33  34
ENDBRANCH  32  33
ENDBRANCH   1  32
TORSDOF 19
ENDMDL
MODEL 3
REMARK VINA RESULT:      -9.7      2.437      4.556
REMARK SMILES CC(C)CCn1nc(C(=O)OCCOC(=O)c2ccc(-c3c4nc(c(-c5cccc(S(=O)(=O)[O-])c5F)c5ccc([nH]5)c(-c5cccc(S(=O)(=O)[O-])c5F)c5nc(c(-c6cccc(S(=O)(=O)[O-])c6F)c6ccc3[nH]6)C=C5)C=C4)cc2)c2c1CCN(C(=O)[C@@H]1CCc3nn(C)c(=O)n3C1)C2
REMARK SMILES IDX 12 1 11 2 9 3 10 4 8 5 6 6 7 7 81 8 80 9 82 10 98 11 83 12
REMARK SMILES IDX 84 13 5 14 4 15 2 16 1 17 3 18 85 19 86 20 87 21 88 22 97 23
REMARK SMILES IDX 89 24 96 25 90 26 94 27 91 28 92 29 95 30 93 31 13 32 14 33
REMARK SMILES IDX 15 34 16 35 17 36 18 37 79 38 19 39 78 40 20 41 21 42 22 43
REMARK SMILES IDX 72 44 23 45 77 46 71 47 73 48 24 49 76 50 70 51 69 52 25 54
REMARK SMILES IDX 57 55 37 56 56 57 38 58 41 59 55 60 74 61 39 62 40 63 54 65
REMARK SMILES IDX 75 66 42 67 26 68 27 69 35 70 28 71 30 72 36 73 29 74 31 75
REMARK SMILES IDX 32 76 33 77 34 78 58 79 59 80 67 81 60 82 62 83 68 84 61 85
REMARK SMILES IDX 63 86 64 87 65 88 66 89 43 90 44 91 52 92 45 93 47 94 53 95
REMARK SMILES IDX 46 96 48 97 49 98 50 99 51 100
REMARK H PARENT 73 53 41 64
REMARK Flexibility Score: inf
ROOT
ATOM      1  C   UNL A   1      35.882  32.471  32.761  1.00  0.00     0.275 C 
ENDROOT
BRANCH   1   2
ATOM      2  O   UNL A   1      35.192  33.041  33.880  1.00  0.00    -0.457 OA
BRANCH   2   3
ATOM      3  C   UNL A   1      35.721  34.183  34.431  1.00  0.00     0.359 C 
ATOM      4  O   UNL A   1      35.408  35.310  34.090  1.00  0.00    -0.244 OA
BRANCH   3   5
ATOM      5  C   UNL A   1      36.702  33.850  35.484  1.00  0.00     0.175 A 
ATOM      6  N   UNL A   1      37.520  33.146  37.338  1.00  0.00    -0.268 N 
ATOM      7  N   UNL A   1      36.352  33.350  36.693  1.00  0.00    -0.165 NA
ATOM      8  C   UNL A   1      38.575  33.685  36.664  1.00  0.00     0.046 A 
ATOM      9  C   UNL A   1      38.112  34.015  35.409  1.00  0.00     0.028 A 
ATOM     10  C   UNL A   1      39.971  33.907  37.112  1.00  0.00     0.078 C 
ATOM     11  C   UNL A   1      38.969  34.523  34.296  1.00  0.00     0.159 C 
ATOM     12  C   UNL A   1      40.615  34.913  36.122  1.00  0.00     0.126 C 
ATOM     13  N   UNL A   1      40.382  34.523  34.724  1.00  0.00    -0.338 N 
BRANCH   6  14
ATOM     14  C   UNL A   1      37.517  32.562  38.668  1.00  0.00     0.145 C 
BRANCH  14  15
ATOM     15  C   UNL A   1      37.265  33.534  39.831  1.00  0.00     0.027 C 
BRANCH  15  16
ATOM     16  C   UNL A   1      38.458  33.805  40.771  1.00  0.00    -0.016 C 
ATOM     17  C   UNL A   1      39.585  32.784  40.607  1.00  0.00     0.007 C 
ATOM     18  C   UNL A   1      39.017  35.209  40.503  1.00  0.00     0.007 C 
ENDBRANCH  15  16
ENDBRANCH  14  15
ENDBRANCH   6  14
BRANCH  13  19
ATOM     19  C   UNL A   1      41.327  34.392  33.735  1.00  0.00     0.227 C 
ATOM     20  O   UNL A   1      41.576  35.343  32.982  1.00  0.00    -0.274 OA
BRANCH  19  21
ATOM     21  C   UNL A   1      42.078  33.079  33.489  1.00  0.00     0.099 C 
ATOM     22  C   UNL A   1      41.409  31.754  33.873  1.00  0.00     0.023 C 
ATOM     23  C   UNL A   1      43.563  33.175  33.810  1.00  0.00     0.142 C 
ATOM     24  C   UNL A   1      41.876  31.088  35.164  1.00  0.00     0.078 C 
ATOM     25  N   UNL A   1      43.961  32.396  34.956  1.00  0.00    -0.278 N 
ATOM     26  C   UNL A   1      43.275  31.418  35.564  1.00  0.00     0.133 A 
ATOM     27  C   UNL A   1      45.199  32.414  35.545  1.00  0.00     0.345 A 
ATOM     28  N   UNL A   1      43.900  30.834  36.544  1.00  0.00    -0.155 NA
ATOM     29  N   UNL A   1      45.121  31.464  36.566  1.00  0.00    -0.216 N 
ATOM     30  O   UNL A   1      46.165  33.088  35.225  1.00  0.00    -0.246 OA
ATOM     31  C   UNL A   1      46.171  31.090  37.468  1.00  0.00     0.179 C 
ENDBRANCH  19  21
ENDBRANCH  13  19
ENDBRANCH   3   5
ENDBRANCH   2   3
ENDBRANCH   1   2
BRANCH   1  32
ATOM     32  C   UNL A   1      35.057  32.634  31.495  1.00  0.00     0.275 C 
BRANCH  32  33
ATOM     33  O   UNL A   1      35.509  31.744  30.478  1.00  0.00    -0.458 OA
BRANCH  33  34
ATOM     34  C   UNL A   1      36.579  32.161  29.764  1.00  0.00     0.338 C 
ATOM     35  O   UNL A   1      36.593  33.012  28.888  1.00  0.00    -0.246 OA
BRANCH  34  36
ATOM     36  C   UNL A   1      37.702  31.264  30.055  1.00  0.00     0.060 A 
ATOM     37  C   UNL A   1      38.957  31.811  30.330  1.00  0.00     0.016 A 
ATOM     38  C   UNL A   1      37.529  29.888  29.842  1.00  0.00     0.016 A 
ATOM     39  C   UNL A   1      40.062  30.976  30.291  1.00  0.00     0.010 A 
ATOM     40  C   UNL A   1      38.628  29.065  29.787  1.00  0.00     0.010 A 
ATOM     41  C   UNL A   1      39.889  29.622  29.962  1.00  0.00    -0.014 A 
BRANCH  41  42
ATOM     42  C   UNL A   1      41.029  28.721  30.023  1.00  0.00     0.031 A 
ATOM     43  C   UNL A   1      41.451  28.479  31.424  1.00  0.00     0.074 A 
ATOM     44  C   UNL A   1      41.519  28.068  28.949  1.00  0.00     0.049 A 
ATOM     45  N   UNL A   1      42.520  28.920  31.997  1.00  0.00    -0.248 NA
ATOM     46  C   UNL A   1      40.488  27.869  32.358  1.00  0.00     0.031 C 
ATOM     47  C   UNL A   1      40.966  28.055  27.587  1.00  0.00     0.029 A 
ATOM     48  N   UNL A   1      42.549  27.176  28.861  1.00  0.00    -0.354 N 
ATOM     49  C   UNL A   1      42.496  28.375  33.279  1.00  0.00     0.074 A 
ATOM     50  C   UNL A   1      41.141  27.968  33.517  1.00  0.00     0.031 C 
ATOM     51  C   UNL A   1      41.510  27.031  26.888  1.00  0.00     0.029 A 
ATOM     52  C   UNL A   1      42.550  26.413  27.691  1.00  0.00     0.049 A 
ATOM     53  H   UNL A   1      43.232  27.077  29.563  1.00  0.00     0.167 HD
ATOM     54  C   UNL A   1      43.659  27.993  33.873  1.00  0.00     0.034 A 
ATOM     55  C   UNL A   1      43.336  25.340  27.419  1.00  0.00     0.034 A 
ATOM     56  C   UNL A   1      44.787  28.531  33.155  1.00  0.00     0.049 A 
ATOM     57  C   UNL A   1      44.518  25.441  28.299  1.00  0.00     0.074 A 
ATOM     58  C   UNL A   1      45.398  29.754  33.005  1.00  0.00     0.029 A 
ATOM     59  N   UNL A   1      45.178  27.738  32.108  1.00  0.00    -0.354 N 
ATOM     60  N   UNL A   1      45.420  26.368  28.161  1.00  0.00    -0.248 NA
ATOM     61  C   UNL A   1      44.547  24.710  29.560  1.00  0.00     0.031 C 
ATOM     62  C   UNL A   1      46.048  29.716  31.735  1.00  0.00     0.029 A 
ATOM     63  C   UNL A   1      45.861  28.456  31.170  1.00  0.00     0.049 A 
ATOM     64  H   UNL A   1      44.989  26.774  32.042  1.00  0.00     0.167 HD
ATOM     65  C   UNL A   1      45.783  26.655  29.462  1.00  0.00     0.074 A 
ATOM     66  C   UNL A   1      45.386  25.492  30.245  1.00  0.00     0.031 C 
ATOM     67  C   UNL A   1      46.048  27.938  29.835  1.00  0.00     0.034 A 
BRANCH  54  68
ATOM     68  C   UNL A   1      43.844  26.753  34.732  1.00  0.00     0.023 A 
ATOM     69  C   UNL A   1      43.133  25.596  34.332  1.00  0.00     0.012 A 
ATOM     70  C   UNL A   1      44.393  26.737  36.036  1.00  0.00     0.148 A 
ATOM     71  C   UNL A   1      42.929  24.515  35.197  1.00  0.00     0.002 A 
ATOM     72  C   UNL A   1      44.241  25.635  36.872  1.00  0.00     0.091 A 
ATOM     73  F   UNL A   1      44.961  27.834  36.538  1.00  0.00    -0.205 F 
ATOM     74  C   UNL A   1      43.485  24.533  36.468  1.00  0.00     0.022 A 
BRANCH  72  75
ATOM     75  S   UNL A   1      44.953  25.591  38.524  1.00  0.00     0.127 S 
ATOM     76  O   UNL A   1      44.113  26.555  39.229  1.00  0.00    -0.237 OA
ATOM     77  O   UNL A   1      44.742  24.193  38.898  1.00  0.00    -0.237 OA
ATOM     78  O   UNL A   1      46.352  25.965  38.363  1.00  0.00    -0.744 OA
ENDBRANCH  72  75
ENDBRANCH  54  68
BRANCH  55  79
ATOM     79  C   UNL A   1      43.157  24.144  26.565  1.00  0.00     0.023 A 
ATOM     80  C   UNL A   1      44.256  23.627  25.843  1.00  0.00     0.012 A 
ATOM     81  C   UNL A   1      42.022  23.323  26.730  1.00  0.00     0.148 A 
ATOM     82  C   UNL A   1      44.251  22.316  25.354  1.00  0.00     0.002 A 
ATOM     83  C   UNL A   1      42.026  22.014  26.252  1.00  0.00     0.091 A 
ATOM     84  F   UNL A   1      40.989  23.798  27.437  1.00  0.00    -0.205 F 
ATOM     85  C   UNL A   1      43.144  21.503  25.575  1.00  0.00     0.022 A 
BRANCH  83  86
ATOM     86  S   UNL A   1      40.670  20.871  26.548  1.00  0.00     0.127 S 
ATOM     87  O   UNL A   1      41.118  19.679  25.829  1.00  0.00    -0.237 OA
ATOM     88  O   UNL A   1      40.690  20.750  28.004  1.00  0.00    -0.237 OA
ATOM     89  O   UNL A   1      39.485  21.506  25.986  1.00  0.00    -0.744 OA
ENDBRANCH  83  86
ENDBRANCH  55  79
BRANCH  67  90
ATOM     90  C   UNL A   1      46.411  28.908  28.751  1.00  0.00     0.023 A 
ATOM     91  C   UNL A   1      47.667  28.925  28.114  1.00  0.00     0.012 A 
ATOM     92  C   UNL A   1      45.402  29.775  28.307  1.00  0.00     0.148 A 
ATOM     93  C   UNL A   1      47.914  29.810  27.060  1.00  0.00     0.002 A 
ATOM     94  C   UNL A   1      45.635  30.618  27.233  1.00  0.00     0.091 A 
ATOM     95  F   UNL A   1      44.219  29.743  28.939  1.00  0.00    -0.205 F 
ATOM     96  C   UNL A   1      46.893  30.648  26.612  1.00  0.00     0.022 A 
BRANCH  94  97
ATOM     97  S   UNL A   1      44.326  31.630  26.544  1.00  0.00     0.127 S 
ATOM     98  O   UNL A   1      43.320  30.631  26.194  1.00  0.00    -0.237 OA
ATOM     99  O   UNL A   1      43.972  32.489  27.675  1.00  0.00    -0.237 OA
ATOM    100  O   UNL A   1      44.919  32.343  25.419  1.00  0.00    -0.744 OA
ENDBRANCH  94  97
ENDBRANCH  67  90
ENDBRANCH  41  42
ENDBRANCH  34  36
ENDBRANCH  33  34
ENDBRANCH  32  33
ENDBRANCH   1  32
TORSDOF 19
ENDMDL
