MODEL 1
REMARK VINA RESULT:     -11.5      0.000      0.000
REMARK SMILES CC[NH2+][C@@]1(C(=O)OCCOC(=O)c2ccc(-c3c4nc(c(-c5cccc(S(=O)(=O)[O-])c5F)c5ccc([nH]5)c(-c5cccc(S(=O)(=O)[O-])c5F)c5nc(c(-c6cccc(S(=O)(=O)[O-])c6F)c6ccc3[nH]6)C=C5)C=C4)cc2)CCC[C@@H](Sc2ncc(C)cn2)C1
REMARK SMILES IDX 9 1 8 2 7 3 5 4 6 5 4 6 76 7 88 8 77 9 79 10 78 11 3 12 2 15
REMARK SMILES IDX 1 16 80 17 81 18 82 19 87 20 83 21 86 22 84 23 85 24 10 25
REMARK SMILES IDX 11 26 12 27 13 28 14 29 75 30 15 31 74 32 16 33 17 34 18 35
REMARK SMILES IDX 68 36 19 37 73 38 67 39 69 40 20 41 72 42 66 43 65 44 21 46
REMARK SMILES IDX 53 47 33 48 52 49 34 50 37 51 51 52 70 53 35 54 36 55 50 57
REMARK SMILES IDX 71 58 38 59 22 60 23 61 31 62 24 63 26 64 32 65 25 66 27 67
REMARK SMILES IDX 28 68 29 69 30 70 54 71 55 72 63 73 56 74 58 75 64 76 57 77
REMARK SMILES IDX 59 78 60 79 61 80 62 81 39 82 40 83 48 84 41 85 43 86 49 87
REMARK SMILES IDX 42 88 44 89 45 90 46 91 47 92
REMARK H PARENT 3 13 3 14 69 45 37 56
REMARK Flexibility Score: inf
ROOT
ATOM      1  C   UNL A   1      37.119  20.969  24.576  1.00  0.00     0.275 C 
ENDROOT
BRANCH   1   2
ATOM      2  C   UNL A   1      36.333  22.179  24.086  1.00  0.00     0.274 C 
BRANCH   2   3
ATOM      3  O   UNL A   1      34.926  21.867  24.007  1.00  0.00    -0.457 OA
BRANCH   3   4
ATOM      4  C   UNL A   1      34.147  22.326  25.027  1.00  0.00     0.368 C 
ATOM      5  O   UNL A   1      34.589  22.942  25.992  1.00  0.00    -0.245 OA
BRANCH   4   6
ATOM      6  C   UNL A   1      32.634  21.932  24.867  1.00  0.00     0.195 C 
ATOM      7  C   UNL A   1      32.353  21.972  23.348  1.00  0.00     0.081 C 
ATOM      8  C   UNL A   1      31.674  22.862  25.650  1.00  0.00     0.096 C 
ATOM      9  C   UNL A   1      32.326  23.399  22.807  1.00  0.00     0.008 C 
ATOM     10  C   UNL A   1      31.417  24.237  25.010  1.00  0.00     0.061 C 
ATOM     11  C   UNL A   1      31.223  24.197  23.490  1.00  0.00     0.015 C 
BRANCH   6  12
ATOM     12  N   UNL A   1      32.515  20.552  25.432  1.00  0.00    -0.332 N 
ATOM     13  H   UNL A   1      33.306  20.412  26.061  1.00  0.00     0.347 HD
ATOM     14  H   UNL A   1      31.594  20.533  25.871  1.00  0.00     0.347 HD
BRANCH  12  15
ATOM     15  C   UNL A   1      32.499  19.431  24.497  1.00  0.00     0.257 C 
ATOM     16  C   UNL A   1      33.780  18.619  24.653  1.00  0.00     0.071 C 
ENDBRANCH  12  15
ENDBRANCH   6  12
BRANCH  10  17
ATOM     17  S   UNL A   1      30.036  25.142  25.840  1.00  0.00    -0.083 SA
BRANCH  17  18
ATOM     18  C   UNL A   1      30.758  26.749  26.069  1.00  0.00     0.187 A 
ATOM     19  N   UNL A   1      30.893  27.538  24.991  1.00  0.00    -0.231 NA
ATOM     20  N   UNL A   1      31.146  27.081  27.311  1.00  0.00    -0.231 NA
ATOM     21  C   UNL A   1      31.495  28.727  25.181  1.00  0.00     0.119 A 
ATOM     22  C   UNL A   1      31.726  28.291  27.448  1.00  0.00     0.119 A 
ATOM     23  C   UNL A   1      31.953  29.163  26.403  1.00  0.00    -0.014 A 
ATOM     24  C   UNL A   1      32.594  30.492  26.596  1.00  0.00     0.048 C 
ENDBRANCH  17  18
ENDBRANCH  10  17
ENDBRANCH   4   6
ENDBRANCH   3   4
ENDBRANCH   2   3
ENDBRANCH   1   2
BRANCH   1  25
ATOM     25  O   UNL A   1      37.596  21.218  25.907  1.00  0.00    -0.458 OA
BRANCH  25  26
ATOM     26  C   UNL A   1      38.936  21.148  26.069  1.00  0.00     0.338 C 
ATOM     27  O   UNL A   1      39.672  20.226  25.763  1.00  0.00    -0.246 OA
BRANCH  26  28
ATOM     28  C   UNL A   1      39.435  22.402  26.657  1.00  0.00     0.060 A 
ATOM     29  C   UNL A   1      38.909  23.619  26.230  1.00  0.00     0.016 A 
ATOM     30  C   UNL A   1      40.533  22.375  27.516  1.00  0.00     0.016 A 
ATOM     31  C   UNL A   1      39.566  24.806  26.549  1.00  0.00     0.010 A 
ATOM     32  C   UNL A   1      41.115  23.576  27.930  1.00  0.00     0.010 A 
ATOM     33  C   UNL A   1      40.681  24.806  27.402  1.00  0.00    -0.014 A 
BRANCH  33  34
ATOM     34  C   UNL A   1      41.415  26.073  27.697  1.00  0.00     0.031 A 
ATOM     35  C   UNL A   1      40.785  27.139  28.565  1.00  0.00     0.074 A 
ATOM     36  C   UNL A   1      42.652  26.283  27.201  1.00  0.00     0.049 A 
ATOM     37  N   UNL A   1      41.198  28.357  28.809  1.00  0.00    -0.248 NA
ATOM     38  C   UNL A   1      39.514  26.802  29.228  1.00  0.00     0.031 C 
ATOM     39  C   UNL A   1      43.391  25.352  26.347  1.00  0.00     0.029 A 
ATOM     40  N   UNL A   1      43.511  27.345  27.349  1.00  0.00    -0.354 N 
ATOM     41  C   UNL A   1      40.197  28.958  29.565  1.00  0.00     0.074 A 
ATOM     42  C   UNL A   1      39.165  27.964  29.761  1.00  0.00     0.031 C 
ATOM     43  C   UNL A   1      44.606  25.857  26.090  1.00  0.00     0.029 A 
ATOM     44  C   UNL A   1      44.711  27.181  26.695  1.00  0.00     0.049 A 
ATOM     45  H   UNL A   1      43.289  28.149  27.873  1.00  0.00     0.167 HD
ATOM     46  C   UNL A   1      40.146  30.216  30.064  1.00  0.00     0.034 A 
ATOM     47  C   UNL A   1      45.772  28.003  26.575  1.00  0.00     0.034 A 
ATOM     48  C   UNL A   1      41.218  31.170  29.974  1.00  0.00     0.049 A 
ATOM     49  C   UNL A   1      45.727  29.361  27.219  1.00  0.00     0.074 A 
ATOM     50  C   UNL A   1      41.270  32.458  30.481  1.00  0.00     0.029 A 
ATOM     51  N   UNL A   1      42.441  30.930  29.370  1.00  0.00    -0.354 N 
ATOM     52  N   UNL A   1      44.780  29.896  27.949  1.00  0.00    -0.248 NA
ATOM     53  C   UNL A   1      46.901  30.226  27.027  1.00  0.00     0.031 C 
ATOM     54  C   UNL A   1      42.532  32.991  30.196  1.00  0.00     0.029 A 
ATOM     55  C   UNL A   1      43.262  32.037  29.508  1.00  0.00     0.049 A 
ATOM     56  H   UNL A   1      42.690  30.096  28.909  1.00  0.00     0.167 HD
ATOM     57  C   UNL A   1      45.241  31.157  28.305  1.00  0.00     0.074 A 
ATOM     58  C   UNL A   1      46.572  31.290  27.748  1.00  0.00     0.031 C 
ATOM     59  C   UNL A   1      44.605  32.133  28.997  1.00  0.00     0.034 A 
BRANCH  46  60
ATOM     60  C   UNL A   1      38.897  30.628  30.798  1.00  0.00     0.023 A 
ATOM     61  C   UNL A   1      38.826  30.468  32.195  1.00  0.00     0.012 A 
ATOM     62  C   UNL A   1      37.822  31.230  30.114  1.00  0.00     0.148 A 
ATOM     63  C   UNL A   1      37.693  30.880  32.898  1.00  0.00     0.002 A 
ATOM     64  C   UNL A   1      36.712  31.670  30.827  1.00  0.00     0.091 A 
ATOM     65  F   UNL A   1      37.895  31.349  28.781  1.00  0.00    -0.205 F 
ATOM     66  C   UNL A   1      36.644  31.490  32.217  1.00  0.00     0.022 A 
BRANCH  64  67
ATOM     67  S   UNL A   1      35.350  32.532  30.031  1.00  0.00     0.127 S 
ATOM     68  O   UNL A   1      34.959  31.579  28.995  1.00  0.00    -0.237 OA
ATOM     69  O   UNL A   1      34.385  32.675  31.122  1.00  0.00    -0.237 OA
ATOM     70  O   UNL A   1      35.908  33.791  29.558  1.00  0.00    -0.744 OA
ENDBRANCH  64  67
ENDBRANCH  46  60
BRANCH  47  71
ATOM     71  C   UNL A   1      46.986  27.537  25.847  1.00  0.00     0.023 A 
ATOM     72  C   UNL A   1      47.884  26.668  26.499  1.00  0.00     0.012 A 
ATOM     73  C   UNL A   1      47.223  27.885  24.505  1.00  0.00     0.148 A 
ATOM     74  C   UNL A   1      48.999  26.164  25.827  1.00  0.00     0.002 A 
ATOM     75  C   UNL A   1      48.301  27.330  23.824  1.00  0.00     0.091 A 
ATOM     76  F   UNL A   1      46.381  28.738  23.906  1.00  0.00    -0.205 F 
ATOM     77  C   UNL A   1      49.198  26.480  24.486  1.00  0.00     0.022 A 
BRANCH  75  78
ATOM     78  S   UNL A   1      48.507  27.571  22.056  1.00  0.00     0.127 S 
ATOM     79  O   UNL A   1      49.626  28.508  22.006  1.00  0.00    -0.237 OA
ATOM     80  O   UNL A   1      48.814  26.221  21.583  1.00  0.00    -0.237 OA
ATOM     81  O   UNL A   1      47.219  28.078  21.598  1.00  0.00    -0.744 OA
ENDBRANCH  75  78
ENDBRANCH  47  71
BRANCH  59  82
ATOM     82  C   UNL A   1      45.335  33.432  29.189  1.00  0.00     0.023 A 
ATOM     83  C   UNL A   1      46.147  33.599  30.329  1.00  0.00     0.012 A 
ATOM     84  C   UNL A   1      45.273  34.457  28.228  1.00  0.00     0.148 A 
ATOM     85  C   UNL A   1      46.867  34.778  30.520  1.00  0.00     0.002 A 
ATOM     86  C   UNL A   1      46.021  35.617  28.408  1.00  0.00     0.091 A 
ATOM     87  F   UNL A   1      44.477  34.294  27.161  1.00  0.00    -0.205 F 
ATOM     88  C   UNL A   1      46.813  35.782  29.556  1.00  0.00     0.022 A 
BRANCH  86  89
ATOM     89  S   UNL A   1      46.047  36.915  27.167  1.00  0.00     0.127 S 
ATOM     90  O   UNL A   1      46.567  36.206  25.998  1.00  0.00    -0.237 OA
ATOM     91  O   UNL A   1      44.637  37.298  27.068  1.00  0.00    -0.237 OA
ATOM     92  O   UNL A   1      46.907  37.954  27.719  1.00  0.00    -0.744 OA
ENDBRANCH  86  89
ENDBRANCH  59  82
ENDBRANCH  33  34
ENDBRANCH  26  28
ENDBRANCH  25  26
ENDBRANCH   1  25
TORSDOF 18
ENDMDL
MODEL 2
REMARK VINA RESULT:     -11.2      1.686      2.194
REMARK SMILES CC[NH2+][C@@]1(C(=O)OCCOC(=O)c2ccc(-c3c4nc(c(-c5cccc(S(=O)(=O)[O-])c5F)c5ccc([nH]5)c(-c5cccc(S(=O)(=O)[O-])c5F)c5nc(c(-c6cccc(S(=O)(=O)[O-])c6F)c6ccc3[nH]6)C=C5)C=C4)cc2)CCC[C@@H](Sc2ncc(C)cn2)C1
REMARK SMILES IDX 9 1 8 2 7 3 5 4 6 5 4 6 76 7 88 8 77 9 79 10 78 11 3 12 2 15
REMARK SMILES IDX 1 16 80 17 81 18 82 19 87 20 83 21 86 22 84 23 85 24 10 25
REMARK SMILES IDX 11 26 12 27 13 28 14 29 75 30 15 31 74 32 16 33 17 34 18 35
REMARK SMILES IDX 68 36 19 37 73 38 67 39 69 40 20 41 72 42 66 43 65 44 21 46
REMARK SMILES IDX 53 47 33 48 52 49 34 50 37 51 51 52 70 53 35 54 36 55 50 57
REMARK SMILES IDX 71 58 38 59 22 60 23 61 31 62 24 63 26 64 32 65 25 66 27 67
REMARK SMILES IDX 28 68 29 69 30 70 54 71 55 72 63 73 56 74 58 75 64 76 57 77
REMARK SMILES IDX 59 78 60 79 61 80 62 81 39 82 40 83 48 84 41 85 43 86 49 87
REMARK SMILES IDX 42 88 44 89 45 90 46 91 47 92
REMARK H PARENT 3 13 3 14 69 45 37 56
REMARK Flexibility Score: inf
ROOT
ATOM      1  C   UNL A   1      36.336  20.367  24.820  1.00  0.00     0.275 C 
ENDROOT
BRANCH   1   2
ATOM      2  C   UNL A   1      34.849  20.698  24.805  1.00  0.00     0.274 C 
BRANCH   2   3
ATOM      3  O   UNL A   1      34.635  22.040  24.318  1.00  0.00    -0.457 OA
BRANCH   3   4
ATOM      4  C   UNL A   1      33.498  22.246  23.595  1.00  0.00     0.368 C 
ATOM      5  O   UNL A   1      32.819  21.337  23.127  1.00  0.00    -0.245 OA
BRANCH   4   6
ATOM      6  C   UNL A   1      33.181  23.769  23.374  1.00  0.00     0.195 C 
ATOM      7  C   UNL A   1      34.392  24.534  23.953  1.00  0.00     0.081 C 
ATOM      8  C   UNL A   1      31.853  24.219  24.034  1.00  0.00     0.096 C 
ATOM      9  C   UNL A   1      34.431  24.478  25.478  1.00  0.00     0.008 C 
ATOM     10  C   UNL A   1      31.907  24.418  25.558  1.00  0.00     0.061 C 
ATOM     11  C   UNL A   1      33.176  25.118  26.056  1.00  0.00     0.015 C 
BRANCH   6  12
ATOM     12  N   UNL A   1      33.052  23.943  21.894  1.00  0.00    -0.332 N 
ATOM     13  H   UNL A   1      33.975  23.786  21.488  1.00  0.00     0.347 HD
ATOM     14  H   UNL A   1      32.330  23.277  21.619  1.00  0.00     0.347 HD
BRANCH  12  15
ATOM     15  C   UNL A   1      32.572  25.230  21.397  1.00  0.00     0.257 C 
ATOM     16  C   UNL A   1      32.674  25.258  19.877  1.00  0.00     0.071 C 
ENDBRANCH  12  15
ENDBRANCH   6  12
BRANCH  10  17
ATOM     17  S   UNL A   1      30.385  25.246  26.204  1.00  0.00    -0.083 SA
BRANCH  17  18
ATOM     18  C   UNL A   1      30.923  26.936  26.307  1.00  0.00     0.187 A 
ATOM     19  N   UNL A   1      31.056  27.625  25.163  1.00  0.00    -0.231 NA
ATOM     20  N   UNL A   1      31.184  27.429  27.529  1.00  0.00    -0.231 NA
ATOM     21  C   UNL A   1      31.518  28.885  25.264  1.00  0.00     0.119 A 
ATOM     22  C   UNL A   1      31.626  28.701  27.575  1.00  0.00     0.119 A 
ATOM     23  C   UNL A   1      31.839  29.486  26.460  1.00  0.00    -0.014 A 
ATOM     24  C   UNL A   1      32.327  30.889  26.551  1.00  0.00     0.048 C 
ENDBRANCH  17  18
ENDBRANCH  10  17
ENDBRANCH   4   6
ENDBRANCH   3   4
ENDBRANCH   2   3
ENDBRANCH   1   2
BRANCH   1  25
ATOM     25  O   UNL A   1      37.065  21.481  25.359  1.00  0.00    -0.458 OA
BRANCH  25  26
ATOM     26  C   UNL A   1      38.348  21.227  25.701  1.00  0.00     0.338 C 
ATOM     27  O   UNL A   1      38.989  20.216  25.474  1.00  0.00    -0.246 OA
BRANCH  26  28
ATOM     28  C   UNL A   1      38.923  22.397  26.386  1.00  0.00     0.060 A 
ATOM     29  C   UNL A   1      38.375  23.659  26.170  1.00  0.00     0.016 A 
ATOM     30  C   UNL A   1      40.103  22.260  27.116  1.00  0.00     0.016 A 
ATOM     31  C   UNL A   1      39.079  24.795  26.566  1.00  0.00     0.010 A 
ATOM     32  C   UNL A   1      40.742  23.399  27.614  1.00  0.00     0.010 A 
ATOM     33  C   UNL A   1      40.275  24.686  27.292  1.00  0.00    -0.014 A 
BRANCH  33  34
ATOM     34  C   UNL A   1      41.055  25.904  27.665  1.00  0.00     0.031 A 
ATOM     35  C   UNL A   1      40.443  26.961  28.557  1.00  0.00     0.074 A 
ATOM     36  C   UNL A   1      42.316  26.077  27.218  1.00  0.00     0.049 A 
ATOM     37  N   UNL A   1      40.902  28.148  28.866  1.00  0.00    -0.248 NA
ATOM     38  C   UNL A   1      39.136  26.655  29.164  1.00  0.00     0.031 C 
ATOM     39  C   UNL A   1      43.041  25.150  26.349  1.00  0.00     0.029 A 
ATOM     40  N   UNL A   1      43.216  27.092  27.439  1.00  0.00    -0.354 N 
ATOM     41  C   UNL A   1      39.903  28.761  29.615  1.00  0.00     0.074 A 
ATOM     42  C   UNL A   1      38.822  27.809  29.735  1.00  0.00     0.031 C 
ATOM     43  C   UNL A   1      44.286  25.608  26.154  1.00  0.00     0.029 A 
ATOM     44  C   UNL A   1      44.428  26.900  26.818  1.00  0.00     0.049 A 
ATOM     45  H   UNL A   1      43.012  27.882  27.990  1.00  0.00     0.167 HD
ATOM     46  C   UNL A   1      39.891  29.999  30.166  1.00  0.00     0.034 A 
ATOM     47  C   UNL A   1      45.529  27.677  26.768  1.00  0.00     0.034 A 
ATOM     48  C   UNL A   1      41.007  30.906  30.152  1.00  0.00     0.049 A 
ATOM     49  C   UNL A   1      45.523  29.007  27.468  1.00  0.00     0.074 A 
ATOM     50  C   UNL A   1      41.099  32.167  30.715  1.00  0.00     0.029 A 
ATOM     51  N   UNL A   1      42.239  30.635  29.578  1.00  0.00    -0.354 N 
ATOM     52  N   UNL A   1      44.576  29.554  28.190  1.00  0.00    -0.248 NA
ATOM     53  C   UNL A   1      46.740  29.824  27.352  1.00  0.00     0.031 C 
ATOM     54  C   UNL A   1      42.392  32.653  30.495  1.00  0.00     0.029 A 
ATOM     55  C   UNL A   1      43.103  31.696  29.789  1.00  0.00     0.049 A 
ATOM     56  H   UNL A   1      42.465  29.811  29.090  1.00  0.00     0.167 HD
ATOM     57  C   UNL A   1      45.080  30.777  28.615  1.00  0.00     0.074 A 
ATOM     58  C   UNL A   1      46.434  30.872  28.107  1.00  0.00     0.031 C 
ATOM     59  C   UNL A   1      44.465  31.752  29.327  1.00  0.00     0.034 A 
BRANCH  46  60
ATOM     60  C   UNL A   1      38.637  30.437  30.877  1.00  0.00     0.023 A 
ATOM     61  C   UNL A   1      38.498  30.194  32.256  1.00  0.00     0.012 A 
ATOM     62  C   UNL A   1      37.629  31.144  30.192  1.00  0.00     0.148 A 
ATOM     63  C   UNL A   1      37.362  30.627  32.941  1.00  0.00     0.002 A 
ATOM     64  C   UNL A   1      36.516  31.603  30.889  1.00  0.00     0.091 A 
ATOM     65  F   UNL A   1      37.765  31.342  28.873  1.00  0.00    -0.205 F 
ATOM     66  C   UNL A   1      36.378  31.340  32.260  1.00  0.00     0.022 A 
BRANCH  64  67
ATOM     67  S   UNL A   1      35.240  32.593  30.099  1.00  0.00     0.127 S 
ATOM     68  O   UNL A   1      34.748  31.678  29.070  1.00  0.00    -0.237 OA
ATOM     69  O   UNL A   1      34.303  32.835  31.196  1.00  0.00    -0.237 OA
ATOM     70  O   UNL A   1      35.916  33.788  29.615  1.00  0.00    -0.744 OA
ENDBRANCH  64  67
ENDBRANCH  46  60
BRANCH  47  71
ATOM     71  C   UNL A   1      46.745  27.185  26.060  1.00  0.00     0.023 A 
ATOM     72  C   UNL A   1      46.896  27.458  24.687  1.00  0.00     0.012 A 
ATOM     73  C   UNL A   1      47.778  26.517  26.743  1.00  0.00     0.148 A 
ATOM     74  C   UNL A   1      48.050  27.066  24.007  1.00  0.00     0.002 A 
ATOM     75  C   UNL A   1      48.950  26.184  26.074  1.00  0.00     0.091 A 
ATOM     76  F   UNL A   1      47.609  26.233  28.042  1.00  0.00    -0.205 F 
ATOM     77  C   UNL A   1      49.084  26.445  24.703  1.00  0.00     0.022 A 
BRANCH  75  78
ATOM     78  S   UNL A   1      50.374  25.537  26.958  1.00  0.00     0.127 S 
ATOM     79  O   UNL A   1      50.668  26.619  27.894  1.00  0.00    -0.237 OA
ATOM     80  O   UNL A   1      49.841  24.320  27.572  1.00  0.00    -0.237 OA
ATOM     81  O   UNL A   1      51.371  25.289  25.924  1.00  0.00    -0.744 OA
ENDBRANCH  75  78
ENDBRANCH  47  71
BRANCH  59  82
ATOM     82  C   UNL A   1      45.246  33.007  29.598  1.00  0.00     0.023 A 
ATOM     83  C   UNL A   1      46.067  33.068  30.742  1.00  0.00     0.012 A 
ATOM     84  C   UNL A   1      45.220  34.094  28.705  1.00  0.00     0.148 A 
ATOM     85  C   UNL A   1      46.833  34.204  31.004  1.00  0.00     0.002 A 
ATOM     86  C   UNL A   1      46.013  35.210  28.956  1.00  0.00     0.091 A 
ATOM     87  F   UNL A   1      44.415  34.030  27.635  1.00  0.00    -0.205 F 
ATOM     88  C   UNL A   1      46.814  35.269  30.108  1.00  0.00     0.022 A 
BRANCH  86  89
ATOM     89  S   UNL A   1      46.085  36.583  27.801  1.00  0.00     0.127 S 
ATOM     90  O   UNL A   1      46.551  35.928  26.580  1.00  0.00    -0.237 OA
ATOM     91  O   UNL A   1      44.695  37.041  27.753  1.00  0.00    -0.237 OA
ATOM     92  O   UNL A   1      47.005  37.540  28.403  1.00  0.00    -0.744 OA
ENDBRANCH  86  89
ENDBRANCH  59  82
ENDBRANCH  33  34
ENDBRANCH  26  28
ENDBRANCH  25  26
ENDBRANCH   1  25
TORSDOF 18
ENDMDL
MODEL 3
REMARK VINA RESULT:     -11.2      5.226      7.621
REMARK SMILES CC[NH2+][C@@]1(C(=O)OCCOC(=O)c2ccc(-c3c4nc(c(-c5cccc(S(=O)(=O)[O-])c5F)c5ccc([nH]5)c(-c5cccc(S(=O)(=O)[O-])c5F)c5nc(c(-c6cccc(S(=O)(=O)[O-])c6F)c6ccc3[nH]6)C=C5)C=C4)cc2)CCC[C@@H](Sc2ncc(C)cn2)C1
REMARK SMILES IDX 9 1 8 2 7 3 5 4 6 5 4 6 76 7 88 8 77 9 79 10 78 11 3 12 2 15
REMARK SMILES IDX 1 16 80 17 81 18 82 19 87 20 83 21 86 22 84 23 85 24 10 25
REMARK SMILES IDX 11 26 12 27 13 28 14 29 75 30 15 31 74 32 16 33 17 34 18 35
REMARK SMILES IDX 68 36 19 37 73 38 67 39 69 40 20 41 72 42 66 43 65 44 21 46
REMARK SMILES IDX 53 47 33 48 52 49 34 50 37 51 51 52 70 53 35 54 36 55 50 57
REMARK SMILES IDX 71 58 38 59 22 60 23 61 31 62 24 63 26 64 32 65 25 66 27 67
REMARK SMILES IDX 28 68 29 69 30 70 54 71 55 72 63 73 56 74 58 75 64 76 57 77
REMARK SMILES IDX 59 78 60 79 61 80 62 81 39 82 40 83 48 84 41 85 43 86 49 87
REMARK SMILES IDX 42 88 44 89 45 90 46 91 47 92
REMARK H PARENT 3 13 3 14 69 45 37 56
REMARK Flexibility Score: inf
ROOT
ATOM      1  C   UNL A   1      31.701  30.621  25.917  1.00  0.00     0.275 C 
ENDROOT
BRANCH   1   2
ATOM      2  C   UNL A   1      32.075  29.284  25.289  1.00  0.00     0.274 C 
BRANCH   2   3
ATOM      3  O   UNL A   1      32.005  28.229  26.271  1.00  0.00    -0.457 OA
BRANCH   3   4
ATOM      4  C   UNL A   1      32.685  27.085  25.977  1.00  0.00     0.368 C 
ATOM      5  O   UNL A   1      33.910  27.017  25.936  1.00  0.00    -0.245 OA
BRANCH   4   6
ATOM      6  C   UNL A   1      31.737  25.878  25.641  1.00  0.00     0.195 C 
ATOM      7  C   UNL A   1      32.397  25.150  24.449  1.00  0.00     0.081 C 
ATOM      8  C   UNL A   1      30.286  26.312  25.312  1.00  0.00     0.096 C 
ATOM      9  C   UNL A   1      32.291  25.954  23.155  1.00  0.00     0.008 C 
ATOM     10  C   UNL A   1      30.078  26.909  23.910  1.00  0.00     0.061 C 
ATOM     11  C   UNL A   1      30.828  26.172  22.795  1.00  0.00     0.015 C 
BRANCH   6  12
ATOM     12  N   UNL A   1      31.705  25.035  26.876  1.00  0.00    -0.332 N 
ATOM     13  H   UNL A   1      32.516  25.291  27.440  1.00  0.00     0.347 HD
ATOM     14  H   UNL A   1      30.796  25.230  27.297  1.00  0.00     0.347 HD
BRANCH  12  15
ATOM     15  C   UNL A   1      31.729  23.584  26.713  1.00  0.00     0.257 C 
ATOM     16  C   UNL A   1      33.005  23.024  27.331  1.00  0.00     0.071 C 
ENDBRANCH  12  15
ENDBRANCH   6  12
BRANCH  10  17
ATOM     17  S   UNL A   1      28.286  27.105  23.499  1.00  0.00    -0.083 SA
BRANCH  17  18
ATOM     18  C   UNL A   1      28.245  28.779  22.905  1.00  0.00     0.187 A 
ATOM     19  N   UNL A   1      29.182  29.157  22.022  1.00  0.00    -0.231 NA
ATOM     20  N   UNL A   1      27.283  29.583  23.388  1.00  0.00    -0.231 NA
ATOM     21  C   UNL A   1      29.163  30.445  21.631  1.00  0.00     0.119 A 
ATOM     22  C   UNL A   1      27.299  30.858  22.950  1.00  0.00     0.119 A 
ATOM     23  C   UNL A   1      28.240  31.364  22.077  1.00  0.00    -0.014 A 
ATOM     24  C   UNL A   1      28.222  32.778  21.613  1.00  0.00     0.048 C 
ENDBRANCH  17  18
ENDBRANCH  10  17
ENDBRANCH   4   6
ENDBRANCH   3   4
ENDBRANCH   2   3
ENDBRANCH   1   2
BRANCH   1  25
ATOM     25  O   UNL A   1      32.312  30.726  27.213  1.00  0.00    -0.458 OA
BRANCH  25  26
ATOM     26  C   UNL A   1      33.164  31.764  27.373  1.00  0.00     0.338 C 
ATOM     27  O   UNL A   1      32.914  32.951  27.262  1.00  0.00    -0.246 OA
BRANCH  26  28
ATOM     28  C   UNL A   1      34.495  31.263  27.755  1.00  0.00     0.060 A 
ATOM     29  C   UNL A   1      34.682  29.899  27.965  1.00  0.00     0.016 A 
ATOM     30  C   UNL A   1      35.512  32.166  28.057  1.00  0.00     0.016 A 
ATOM     31  C   UNL A   1      35.836  29.451  28.607  1.00  0.00     0.010 A 
ATOM     32  C   UNL A   1      36.716  31.696  28.591  1.00  0.00     0.010 A 
ATOM     33  C   UNL A   1      36.871  30.340  28.933  1.00  0.00    -0.014 A 
BRANCH  33  34
ATOM     34  C   UNL A   1      38.080  29.866  29.671  1.00  0.00     0.031 A 
ATOM     35  C   UNL A   1      38.311  30.278  31.107  1.00  0.00     0.074 A 
ATOM     36  C   UNL A   1      38.980  29.058  29.071  1.00  0.00     0.049 A 
ATOM     37  N   UNL A   1      39.366  30.093  31.861  1.00  0.00    -0.248 NA
ATOM     38  C   UNL A   1      37.226  31.012  31.779  1.00  0.00     0.031 C 
ATOM     39  C   UNL A   1      38.898  28.577  27.691  1.00  0.00     0.029 A 
ATOM     40  N   UNL A   1      40.138  28.493  29.548  1.00  0.00    -0.354 N 
ATOM     41  C   UNL A   1      39.111  30.768  33.049  1.00  0.00     0.074 A 
ATOM     42  C   UNL A   1      37.792  31.349  32.929  1.00  0.00     0.031 C 
ATOM     43  C   UNL A   1      39.926  27.751  27.449  1.00  0.00     0.029 A 
ATOM     44  C   UNL A   1      40.785  27.701  28.627  1.00  0.00     0.049 A 
ATOM     45  H   UNL A   1      40.473  28.641  30.461  1.00  0.00     0.167 HD
ATOM     46  C   UNL A   1      39.896  30.885  34.148  1.00  0.00     0.034 A 
ATOM     47  C   UNL A   1      41.947  27.022  28.707  1.00  0.00     0.034 A 
ATOM     48  C   UNL A   1      41.156  30.214  34.321  1.00  0.00     0.049 A 
ATOM     49  C   UNL A   1      42.754  27.092  29.974  1.00  0.00     0.074 A 
ATOM     50  C   UNL A   1      42.004  30.244  35.415  1.00  0.00     0.029 A 
ATOM     51  N   UNL A   1      41.732  29.362  33.393  1.00  0.00    -0.354 N 
ATOM     52  N   UNL A   1      42.480  27.716  31.092  1.00  0.00    -0.248 NA
ATOM     53  C   UNL A   1      44.028  26.357  29.991  1.00  0.00     0.031 C 
ATOM     54  C   UNL A   1      43.086  29.396  35.154  1.00  0.00     0.029 A 
ATOM     55  C   UNL A   1      42.914  28.844  33.896  1.00  0.00     0.049 A 
ATOM     56  H   UNL A   1      41.357  29.156  32.506  1.00  0.00     0.167 HD
ATOM     57  C   UNL A   1      43.543  27.452  31.946  1.00  0.00     0.074 A 
ATOM     58  C   UNL A   1      44.446  26.572  31.232  1.00  0.00     0.031 C 
ATOM     59  C   UNL A   1      43.773  27.925  33.196  1.00  0.00     0.034 A 
BRANCH  46  60
ATOM     60  C   UNL A   1      39.393  31.741  35.280  1.00  0.00     0.023 A 
ATOM     61  C   UNL A   1      38.515  31.191  36.233  1.00  0.00     0.012 A 
ATOM     62  C   UNL A   1      39.840  33.069  35.434  1.00  0.00     0.148 A 
ATOM     63  C   UNL A   1      38.070  31.957  37.311  1.00  0.00     0.002 A 
ATOM     64  C   UNL A   1      39.419  33.814  36.531  1.00  0.00     0.091 A 
ATOM     65  F   UNL A   1      40.654  33.586  34.503  1.00  0.00    -0.205 F 
ATOM     66  C   UNL A   1      38.530  33.262  37.466  1.00  0.00     0.022 A 
BRANCH  64  67
ATOM     67  S   UNL A   1      40.025  35.478  36.841  1.00  0.00     0.127 S 
ATOM     68  O   UNL A   1      39.332  35.821  38.081  1.00  0.00    -0.237 OA
ATOM     69  O   UNL A   1      41.466  35.268  36.988  1.00  0.00    -0.237 OA
ATOM     70  O   UNL A   1      39.650  36.255  35.668  1.00  0.00    -0.744 OA
ENDBRANCH  64  67
ENDBRANCH  46  60
BRANCH  47  71
ATOM     71  C   UNL A   1      42.388  26.180  27.560  1.00  0.00     0.023 A 
ATOM     72  C   UNL A   1      43.302  26.713  26.629  1.00  0.00     0.012 A 
ATOM     73  C   UNL A   1      41.970  24.844  27.419  1.00  0.00     0.148 A 
ATOM     74  C   UNL A   1      43.782  25.932  25.577  1.00  0.00     0.002 A 
ATOM     75  C   UNL A   1      42.500  24.054  26.406  1.00  0.00     0.091 A 
ATOM     76  F   UNL A   1      41.075  24.358  28.291  1.00  0.00    -0.205 F 
ATOM     77  C   UNL A   1      43.396  24.599  25.475  1.00  0.00     0.022 A 
BRANCH  75  78
ATOM     78  S   UNL A   1      42.165  22.290  26.330  1.00  0.00     0.127 S 
ATOM     79  O   UNL A   1      42.666  21.831  27.623  1.00  0.00    -0.237 OA
ATOM     80  O   UNL A   1      40.710  22.248  26.184  1.00  0.00    -0.237 OA
ATOM     81  O   UNL A   1      42.890  21.825  25.154  1.00  0.00    -0.744 OA
ENDBRANCH  75  78
ENDBRANCH  47  71
BRANCH  59  82
ATOM     82  C   UNL A   1      45.049  27.507  33.870  1.00  0.00     0.023 A 
ATOM     83  C   UNL A   1      46.190  28.323  33.741  1.00  0.00     0.012 A 
ATOM     84  C   UNL A   1      45.110  26.353  34.672  1.00  0.00     0.148 A 
ATOM     85  C   UNL A   1      47.380  27.983  34.383  1.00  0.00     0.002 A 
ATOM     86  C   UNL A   1      46.291  26.038  35.337  1.00  0.00     0.091 A 
ATOM     87  F   UNL A   1      44.023  25.573  34.764  1.00  0.00    -0.205 F 
ATOM     88  C   UNL A   1      47.429  26.848  35.188  1.00  0.00     0.022 A 
BRANCH  86  89
ATOM     89  S   UNL A   1      46.393  24.628  36.445  1.00  0.00     0.127 S 
ATOM     90  O   UNL A   1      47.717  24.805  37.039  1.00  0.00    -0.237 OA
ATOM     91  O   UNL A   1      45.278  24.857  37.365  1.00  0.00    -0.237 OA
ATOM     92  O   UNL A   1      46.227  23.458  35.591  1.00  0.00    -0.744 OA
ENDBRANCH  86  89
ENDBRANCH  59  82
ENDBRANCH  33  34
ENDBRANCH  26  28
ENDBRANCH  25  26
ENDBRANCH   1  25
TORSDOF 18
ENDMDL
