MODEL 1
REMARK VINA RESULT:     -10.5      0.000      0.000
REMARK SMILES CCCCCC(=O)N1CCC[C@H](C(=O)OCCOC(=O)c2ccc(-c3c4nc(c(-c5cccc(S(=O)(=O)[O-])c5F)c5ccc([nH]5)c(-c5cccc(S(=O)(=O)[O-])c5F)c5nc(c(-c6cccc(S(=O)(=O)[O-])c6F)c6ccc3[nH]6)C=C5)C=C4)cc2)C1
REMARK SMILES IDX 16 1 15 2 13 3 14 4 12 5 8 6 9 7 84 8 10 9 11 10 6 11 7 12
REMARK SMILES IDX 5 13 4 14 3 15 2 16 1 17 17 18 18 19 19 20 20 21 21 22 22 23
REMARK SMILES IDX 83 24 23 25 82 26 24 27 25 28 26 29 76 30 27 31 81 32 75 33
REMARK SMILES IDX 77 34 28 35 80 36 74 37 73 38 29 40 61 41 41 42 60 43 42 44
REMARK SMILES IDX 45 45 59 46 78 47 43 48 44 49 58 51 79 52 46 53 30 54 31 55
REMARK SMILES IDX 39 56 32 57 34 58 40 59 33 60 35 61 36 62 37 63 38 64 62 65
REMARK SMILES IDX 63 66 71 67 64 68 66 69 72 70 65 71 67 72 68 73 69 74 70 75
REMARK SMILES IDX 47 76 48 77 56 78 49 79 51 80 57 81 50 82 52 83 53 84 54 85
REMARK SMILES IDX 55 86
REMARK H PARENT 77 39 45 50
REMARK Flexibility Score: inf
ROOT
ATOM      1  C   UNL A   1      36.586  22.287  23.758  1.00  0.00     0.274 C 
ENDROOT
BRANCH   1   2
ATOM      2  O   UNL A   1      35.231  22.537  24.169  1.00  0.00    -0.462 OA
BRANCH   2   3
ATOM      3  C   UNL A   1      34.771  23.805  24.036  1.00  0.00     0.310 C 
ATOM      4  O   UNL A   1      34.586  24.371  22.964  1.00  0.00    -0.252 OA
BRANCH   3   5
ATOM      5  C   UNL A   1      34.485  24.486  25.367  1.00  0.00     0.119 C 
ATOM      6  N   UNL A   1      32.091  23.958  25.467  1.00  0.00    -0.342 N 
ATOM      7  C   UNL A   1      31.696  25.362  25.450  1.00  0.00     0.119 C 
ATOM      8  C   UNL A   1      33.379  23.713  26.092  1.00  0.00     0.134 C 
ATOM      9  C   UNL A   1      32.737  26.248  24.774  1.00  0.00     0.022 C 
ATOM     10  C   UNL A   1      34.148  25.980  25.300  1.00  0.00     0.019 C 
BRANCH   6  11
ATOM     11  C   UNL A   1      31.567  23.090  24.520  1.00  0.00     0.222 C 
ATOM     12  O   UNL A   1      30.758  23.474  23.673  1.00  0.00    -0.275 OA
BRANCH  11  13
ATOM     13  C   UNL A   1      31.840  21.595  24.708  1.00  0.00     0.100 C 
BRANCH  13  14
ATOM     14  C   UNL A   1      32.387  20.751  23.555  1.00  0.00     0.010 C 
BRANCH  14  15
ATOM     15  C   UNL A   1      32.611  19.238  23.748  1.00  0.00     0.000 C 
BRANCH  15  16
ATOM     16  C   UNL A   1      33.340  18.774  25.013  1.00  0.00    -0.003 C 
ATOM     17  C   UNL A   1      32.661  17.593  25.688  1.00  0.00     0.004 C 
ENDBRANCH  15  16
ENDBRANCH  14  15
ENDBRANCH  13  14
ENDBRANCH  11  13
ENDBRANCH   6  11
ENDBRANCH   3   5
ENDBRANCH   2   3
ENDBRANCH   1   2
BRANCH   1  18
ATOM     18  C   UNL A   1      37.170  21.089  24.508  1.00  0.00     0.275 C 
BRANCH  18  19
ATOM     19  O   UNL A   1      37.604  21.454  25.830  1.00  0.00    -0.458 OA
BRANCH  19  20
ATOM     20  C   UNL A   1      38.916  21.241  26.081  1.00  0.00     0.338 C 
ATOM     21  O   UNL A   1      39.575  20.252  25.813  1.00  0.00    -0.246 OA
BRANCH  20  22
ATOM     22  C   UNL A   1      39.509  22.455  26.651  1.00  0.00     0.060 A 
ATOM     23  C   UNL A   1      39.047  23.695  26.204  1.00  0.00     0.016 A 
ATOM     24  C   UNL A   1      40.587  22.371  27.530  1.00  0.00     0.016 A 
ATOM     25  C   UNL A   1      39.685  24.863  26.601  1.00  0.00     0.010 A 
ATOM     26  C   UNL A   1      41.211  23.548  27.953  1.00  0.00     0.010 A 
ATOM     27  C   UNL A   1      40.779  24.797  27.471  1.00  0.00    -0.014 A 
BRANCH  27  28
ATOM     28  C   UNL A   1      41.499  26.035  27.855  1.00  0.00     0.031 A 
ATOM     29  C   UNL A   1      40.783  27.099  28.635  1.00  0.00     0.074 A 
ATOM     30  C   UNL A   1      42.778  26.206  27.473  1.00  0.00     0.049 A 
ATOM     31  N   UNL A   1      41.189  28.301  28.952  1.00  0.00    -0.248 NA
ATOM     32  C   UNL A   1      39.429  26.775  29.118  1.00  0.00     0.031 C 
ATOM     33  C   UNL A   1      43.573  25.234  26.719  1.00  0.00     0.029 A 
ATOM     34  N   UNL A   1      43.624  27.273  27.639  1.00  0.00    -0.354 N 
ATOM     35  C   UNL A   1      40.123  28.899  29.613  1.00  0.00     0.074 A 
ATOM     36  C   UNL A   1      39.056  27.923  29.669  1.00  0.00     0.031 C 
ATOM     37  C   UNL A   1      44.783  25.759  26.467  1.00  0.00     0.029 A 
ATOM     38  C   UNL A   1      44.832  27.118  26.999  1.00  0.00     0.049 A 
ATOM     39  H   UNL A   1      43.390  28.071  28.165  1.00  0.00     0.167 HD
ATOM     40  C   UNL A   1      40.047  30.147  30.130  1.00  0.00     0.034 A 
ATOM     41  C   UNL A   1      45.847  27.987  26.828  1.00  0.00     0.034 A 
ATOM     42  C   UNL A   1      41.133  31.088  30.123  1.00  0.00     0.049 A 
ATOM     43  C   UNL A   1      45.735  29.361  27.429  1.00  0.00     0.074 A 
ATOM     44  C   UNL A   1      41.178  32.353  30.682  1.00  0.00     0.029 A 
ATOM     45  N   UNL A   1      42.367  30.867  29.531  1.00  0.00    -0.354 N 
ATOM     46  N   UNL A   1      44.762  29.872  28.143  1.00  0.00    -0.248 NA
ATOM     47  C   UNL A   1      46.870  30.272  27.219  1.00  0.00     0.031 C 
ATOM     48  C   UNL A   1      42.436  32.903  30.416  1.00  0.00     0.029 A 
ATOM     49  C   UNL A   1      43.177  31.975  29.703  1.00  0.00     0.049 A 
ATOM     50  H   UNL A   1      42.627  30.045  29.057  1.00  0.00     0.167 HD
ATOM     51  C   UNL A   1      45.179  31.151  28.494  1.00  0.00     0.074 A 
ATOM     52  C   UNL A   1      46.503  31.328  27.933  1.00  0.00     0.031 C 
ATOM     53  C   UNL A   1      44.519  32.104  29.196  1.00  0.00     0.034 A 
BRANCH  40  54
ATOM     54  C   UNL A   1      38.756  30.569  30.777  1.00  0.00     0.023 A 
ATOM     55  C   UNL A   1      38.596  30.428  32.169  1.00  0.00     0.012 A 
ATOM     56  C   UNL A   1      37.743  31.189  30.020  1.00  0.00     0.148 A 
ATOM     57  C   UNL A   1      37.438  30.885  32.798  1.00  0.00     0.002 A 
ATOM     58  C   UNL A   1      36.607  31.675  30.658  1.00  0.00     0.091 A 
ATOM     59  F   UNL A   1      37.909  31.293  28.693  1.00  0.00    -0.205 F 
ATOM     60  C   UNL A   1      36.451  31.518  32.045  1.00  0.00     0.022 A 
BRANCH  58  61
ATOM     61  S   UNL A   1      35.311  32.566  29.790  1.00  0.00     0.127 S 
ATOM     62  O   UNL A   1      34.876  31.571  28.810  1.00  0.00    -0.237 OA
ATOM     63  O   UNL A   1      34.349  32.827  30.860  1.00  0.00    -0.237 OA
ATOM     64  O   UNL A   1      35.941  33.754  29.233  1.00  0.00    -0.744 OA
ENDBRANCH  58  61
ENDBRANCH  40  54
BRANCH  41  65
ATOM     65  C   UNL A   1      47.065  27.575  26.075  1.00  0.00     0.023 A 
ATOM     66  C   UNL A   1      48.088  26.877  26.745  1.00  0.00     0.012 A 
ATOM     67  C   UNL A   1      47.209  27.852  24.703  1.00  0.00     0.148 A 
ATOM     68  C   UNL A   1      49.245  26.490  26.067  1.00  0.00     0.002 A 
ATOM     69  C   UNL A   1      48.340  27.414  24.021  1.00  0.00     0.091 A 
ATOM     70  F   UNL A   1      46.239  28.541  24.083  1.00  0.00    -0.205 F 
ATOM     71  C   UNL A   1      49.367  26.748  24.704  1.00  0.00     0.022 A 
BRANCH  69  72
ATOM     72  S   UNL A   1      48.489  27.594  22.239  1.00  0.00     0.127 S 
ATOM     73  O   UNL A   1      48.742  26.220  21.818  1.00  0.00    -0.237 OA
ATOM     74  O   UNL A   1      47.175  28.120  21.866  1.00  0.00    -0.237 OA
ATOM     75  O   UNL A   1      49.582  28.539  22.047  1.00  0.00    -0.744 OA
ENDBRANCH  69  72
ENDBRANCH  41  65
BRANCH  53  76
ATOM     76  C   UNL A   1      45.225  33.411  29.431  1.00  0.00     0.023 A 
ATOM     77  C   UNL A   1      46.005  33.579  30.591  1.00  0.00     0.012 A 
ATOM     78  C   UNL A   1      45.183  34.436  28.467  1.00  0.00     0.148 A 
ATOM     79  C   UNL A   1      46.713  34.761  30.802  1.00  0.00     0.002 A 
ATOM     80  C   UNL A   1      45.926  35.594  28.663  1.00  0.00     0.091 A 
ATOM     81  F   UNL A   1      44.416  34.264  27.380  1.00  0.00    -0.205 F 
ATOM     82  C   UNL A   1      46.683  35.762  29.832  1.00  0.00     0.022 A 
BRANCH  80  83
ATOM     83  S   UNL A   1      46.015  36.891  27.422  1.00  0.00     0.127 S 
ATOM     84  O   UNL A   1      47.182  37.649  27.867  1.00  0.00    -0.237 OA
ATOM     85  O   UNL A   1      46.215  36.131  26.187  1.00  0.00    -0.237 OA
ATOM     86  O   UNL A   1      44.741  37.594  27.493  1.00  0.00    -0.744 OA
ENDBRANCH  80  83
ENDBRANCH  53  76
ENDBRANCH  27  28
ENDBRANCH  20  22
ENDBRANCH  19  20
ENDBRANCH  18  19
ENDBRANCH   1  18
TORSDOF 19
ENDMDL
MODEL 2
REMARK VINA RESULT:     -10.4      1.690      2.851
REMARK SMILES CCCCCC(=O)N1CCC[C@H](C(=O)OCCOC(=O)c2ccc(-c3c4nc(c(-c5cccc(S(=O)(=O)[O-])c5F)c5ccc([nH]5)c(-c5cccc(S(=O)(=O)[O-])c5F)c5nc(c(-c6cccc(S(=O)(=O)[O-])c6F)c6ccc3[nH]6)C=C5)C=C4)cc2)C1
REMARK SMILES IDX 16 1 15 2 13 3 14 4 12 5 8 6 9 7 84 8 10 9 11 10 6 11 7 12
REMARK SMILES IDX 5 13 4 14 3 15 2 16 1 17 17 18 18 19 19 20 20 21 21 22 22 23
REMARK SMILES IDX 83 24 23 25 82 26 24 27 25 28 26 29 76 30 27 31 81 32 75 33
REMARK SMILES IDX 77 34 28 35 80 36 74 37 73 38 29 40 61 41 41 42 60 43 42 44
REMARK SMILES IDX 45 45 59 46 78 47 43 48 44 49 58 51 79 52 46 53 30 54 31 55
REMARK SMILES IDX 39 56 32 57 34 58 40 59 33 60 35 61 36 62 37 63 38 64 62 65
REMARK SMILES IDX 63 66 71 67 64 68 66 69 72 70 65 71 67 72 68 73 69 74 70 75
REMARK SMILES IDX 47 76 48 77 56 78 49 79 51 80 57 81 50 82 52 83 53 84 54 85
REMARK SMILES IDX 55 86
REMARK H PARENT 77 39 45 50
REMARK Flexibility Score: inf
ROOT
ATOM      1  C   UNL A   1      35.664  22.500  24.185  1.00  0.00     0.274 C 
ENDROOT
BRANCH   1   2
ATOM      2  O   UNL A   1      34.308  22.023  24.165  1.00  0.00    -0.462 OA
BRANCH   2   3
ATOM      3  C   UNL A   1      33.451  22.565  25.065  1.00  0.00     0.310 C 
ATOM      4  O   UNL A   1      33.791  23.130  26.099  1.00  0.00    -0.252 OA
BRANCH   3   5
ATOM      5  C   UNL A   1      31.988  22.419  24.670  1.00  0.00     0.119 C 
ATOM      6  N   UNL A   1      31.838  24.454  23.308  1.00  0.00    -0.342 N 
ATOM      7  C   UNL A   1      30.829  25.057  24.171  1.00  0.00     0.119 C 
ATOM      8  C   UNL A   1      31.792  23.002  23.268  1.00  0.00     0.134 C 
ATOM      9  C   UNL A   1      30.902  24.531  25.601  1.00  0.00     0.022 C 
ATOM     10  C   UNL A   1      30.964  23.003  25.649  1.00  0.00     0.019 C 
BRANCH   6  11
ATOM     11  C   UNL A   1      33.007  25.151  23.033  1.00  0.00     0.222 C 
ATOM     12  O   UNL A   1      33.738  24.833  22.093  1.00  0.00    -0.275 OA
BRANCH  11  13
ATOM     13  C   UNL A   1      33.481  26.169  24.074  1.00  0.00     0.100 C 
BRANCH  13  14
ATOM     14  C   UNL A   1      33.682  27.637  23.693  1.00  0.00     0.010 C 
BRANCH  14  15
ATOM     15  C   UNL A   1      33.030  28.748  24.541  1.00  0.00     0.000 C 
BRANCH  15  16
ATOM     16  C   UNL A   1      31.707  28.432  25.245  1.00  0.00    -0.003 C 
ATOM     17  C   UNL A   1      31.867  28.238  26.744  1.00  0.00     0.004 C 
ENDBRANCH  15  16
ENDBRANCH  14  15
ENDBRANCH  13  14
ENDBRANCH  11  13
ENDBRANCH   6  11
ENDBRANCH   3   5
ENDBRANCH   2   3
ENDBRANCH   1   2
BRANCH   1  18
ATOM     18  C   UNL A   1      36.636  21.362  24.496  1.00  0.00     0.275 C 
BRANCH  18  19
ATOM     19  O   UNL A   1      37.159  21.464  25.833  1.00  0.00    -0.458 OA
BRANCH  19  20
ATOM     20  C   UNL A   1      38.490  21.253  25.945  1.00  0.00     0.338 C 
ATOM     21  O   UNL A   1      39.130  20.296  25.545  1.00  0.00    -0.246 OA
BRANCH  20  22
ATOM     22  C   UNL A   1      39.123  22.431  26.547  1.00  0.00     0.060 A 
ATOM     23  C   UNL A   1      38.659  23.697  26.180  1.00  0.00     0.016 A 
ATOM     24  C   UNL A   1      40.237  22.292  27.373  1.00  0.00     0.016 A 
ATOM     25  C   UNL A   1      39.330  24.836  26.605  1.00  0.00     0.010 A 
ATOM     26  C   UNL A   1      40.894  23.439  27.824  1.00  0.00     0.010 A 
ATOM     27  C   UNL A   1      40.459  24.716  27.423  1.00  0.00    -0.014 A 
BRANCH  27  28
ATOM     28  C   UNL A   1      41.211  25.925  27.834  1.00  0.00     0.031 A 
ATOM     29  C   UNL A   1      40.520  26.997  28.627  1.00  0.00     0.074 A 
ATOM     30  C   UNL A   1      42.499  26.065  27.465  1.00  0.00     0.049 A 
ATOM     31  N   UNL A   1      40.958  28.180  28.968  1.00  0.00    -0.248 NA
ATOM     32  C   UNL A   1      39.153  26.704  29.092  1.00  0.00     0.031 C 
ATOM     33  C   UNL A   1      43.271  25.083  26.702  1.00  0.00     0.029 A 
ATOM     34  N   UNL A   1      43.374  27.104  27.657  1.00  0.00    -0.354 N 
ATOM     35  C   UNL A   1      39.904  28.798  29.629  1.00  0.00     0.074 A 
ATOM     36  C   UNL A   1      38.809  27.853  29.660  1.00  0.00     0.031 C 
ATOM     37  C   UNL A   1      44.498  25.577  26.469  1.00  0.00     0.029 A 
ATOM     38  C   UNL A   1      44.582  26.924  27.024  1.00  0.00     0.049 A 
ATOM     39  H   UNL A   1      43.159  27.899  28.195  1.00  0.00     0.167 HD
ATOM     40  C   UNL A   1      39.860  30.038  30.168  1.00  0.00     0.034 A 
ATOM     41  C   UNL A   1      45.623  27.765  26.878  1.00  0.00     0.034 A 
ATOM     42  C   UNL A   1      40.974  30.947  30.187  1.00  0.00     0.049 A 
ATOM     43  C   UNL A   1      45.546  29.132  27.501  1.00  0.00     0.074 A 
ATOM     44  C   UNL A   1      41.050  32.201  30.767  1.00  0.00     0.029 A 
ATOM     45  N   UNL A   1      42.205  30.700  29.601  1.00  0.00    -0.354 N 
ATOM     46  N   UNL A   1      44.583  29.659  28.216  1.00  0.00    -0.248 NA
ATOM     47  C   UNL A   1      46.709  30.012  27.317  1.00  0.00     0.031 C 
ATOM     48  C   UNL A   1      42.326  32.718  30.522  1.00  0.00     0.029 A 
ATOM     49  C   UNL A   1      43.046  31.780  29.799  1.00  0.00     0.049 A 
ATOM     50  H   UNL A   1      42.445  29.879  29.115  1.00  0.00     0.167 HD
ATOM     51  C   UNL A   1      45.034  30.919  28.593  1.00  0.00     0.074 A 
ATOM     52  C   UNL A   1      46.368  31.066  28.046  1.00  0.00     0.031 C 
ATOM     53  C   UNL A   1      44.395  31.879  29.306  1.00  0.00     0.034 A 
BRANCH  40  54
ATOM     54  C   UNL A   1      38.576  30.487  30.811  1.00  0.00     0.023 A 
ATOM     55  C   UNL A   1      38.375  30.272  32.188  1.00  0.00     0.012 A 
ATOM     56  C   UNL A   1      37.614  31.201  30.071  1.00  0.00     0.148 A 
ATOM     57  C   UNL A   1      37.227  30.751  32.819  1.00  0.00     0.002 A 
ATOM     58  C   UNL A   1      36.489  31.706  30.713  1.00  0.00     0.091 A 
ATOM     59  F   UNL A   1      37.817  31.375  28.757  1.00  0.00    -0.205 F 
ATOM     60  C   UNL A   1      36.291  31.476  32.085  1.00  0.00     0.022 A 
BRANCH  58  61
ATOM     61  S   UNL A   1      35.260  32.712  29.872  1.00  0.00     0.127 S 
ATOM     62  O   UNL A   1      34.763  31.782  28.859  1.00  0.00    -0.237 OA
ATOM     63  O   UNL A   1      34.313  33.003  30.949  1.00  0.00    -0.237 OA
ATOM     64  O   UNL A   1      35.972  33.872  29.357  1.00  0.00    -0.744 OA
ENDBRANCH  58  61
ENDBRANCH  40  54
BRANCH  41  65
ATOM     65  C   UNL A   1      46.835  27.331  26.128  1.00  0.00     0.023 A 
ATOM     66  C   UNL A   1      46.911  27.564  24.741  1.00  0.00     0.012 A 
ATOM     67  C   UNL A   1      47.917  26.705  26.777  1.00  0.00     0.148 A 
ATOM     68  C   UNL A   1      48.029  27.156  24.012  1.00  0.00     0.002 A 
ATOM     69  C   UNL A   1      49.051  26.352  26.054  1.00  0.00     0.091 A 
ATOM     70  F   UNL A   1      47.820  26.464  28.094  1.00  0.00    -0.205 F 
ATOM     71  C   UNL A   1      49.102  26.561  24.669  1.00  0.00     0.022 A 
BRANCH  69  72
ATOM     72  S   UNL A   1      50.519  25.710  26.866  1.00  0.00     0.127 S 
ATOM     73  O   UNL A   1      50.023  24.470  27.454  1.00  0.00    -0.237 OA
ATOM     74  O   UNL A   1      51.445  25.533  25.745  1.00  0.00    -0.237 OA
ATOM     75  O   UNL A   1      50.918  26.754  27.802  1.00  0.00    -0.744 OA
ENDBRANCH  69  72
ENDBRANCH  41  65
BRANCH  53  76
ATOM     76  C   UNL A   1      45.137  33.160  29.570  1.00  0.00     0.023 A 
ATOM     77  C   UNL A   1      45.932  33.277  30.726  1.00  0.00     0.012 A 
ATOM     78  C   UNL A   1      45.114  34.212  28.634  1.00  0.00     0.148 A 
ATOM     79  C   UNL A   1      46.672  34.434  30.962  1.00  0.00     0.002 A 
ATOM     80  C   UNL A   1      45.888  35.345  28.854  1.00  0.00     0.091 A 
ATOM     81  F   UNL A   1      44.334  34.089  27.549  1.00  0.00    -0.205 F 
ATOM     82  C   UNL A   1      46.660  35.461  30.020  1.00  0.00     0.022 A 
BRANCH  80  83
ATOM     83  S   UNL A   1      46.001  36.672  27.648  1.00  0.00     0.127 S 
ATOM     84  O   UNL A   1      46.516  35.968  26.476  1.00  0.00    -0.237 OA
ATOM     85  O   UNL A   1      44.610  37.112  27.533  1.00  0.00    -0.237 OA
ATOM     86  O   UNL A   1      46.896  37.662  28.233  1.00  0.00    -0.744 OA
ENDBRANCH  80  83
ENDBRANCH  53  76
ENDBRANCH  27  28
ENDBRANCH  20  22
ENDBRANCH  19  20
ENDBRANCH  18  19
ENDBRANCH   1  18
TORSDOF 19
ENDMDL
MODEL 3
REMARK VINA RESULT:     -10.4      0.854      2.547
REMARK SMILES CCCCCC(=O)N1CCC[C@H](C(=O)OCCOC(=O)c2ccc(-c3c4nc(c(-c5cccc(S(=O)(=O)[O-])c5F)c5ccc([nH]5)c(-c5cccc(S(=O)(=O)[O-])c5F)c5nc(c(-c6cccc(S(=O)(=O)[O-])c6F)c6ccc3[nH]6)C=C5)C=C4)cc2)C1
REMARK SMILES IDX 16 1 15 2 13 3 14 4 12 5 8 6 9 7 84 8 10 9 11 10 6 11 7 12
REMARK SMILES IDX 5 13 4 14 3 15 2 16 1 17 17 18 18 19 19 20 20 21 21 22 22 23
REMARK SMILES IDX 83 24 23 25 82 26 24 27 25 28 26 29 76 30 27 31 81 32 75 33
REMARK SMILES IDX 77 34 28 35 80 36 74 37 73 38 29 40 61 41 41 42 60 43 42 44
REMARK SMILES IDX 45 45 59 46 78 47 43 48 44 49 58 51 79 52 46 53 30 54 31 55
REMARK SMILES IDX 39 56 32 57 34 58 40 59 33 60 35 61 36 62 37 63 38 64 62 65
REMARK SMILES IDX 63 66 71 67 64 68 66 69 72 70 65 71 67 72 68 73 69 74 70 75
REMARK SMILES IDX 47 76 48 77 56 78 49 79 51 80 57 81 50 82 52 83 53 84 54 85
REMARK SMILES IDX 55 86
REMARK H PARENT 77 39 45 50
REMARK Flexibility Score: inf
ROOT
ATOM      1  C   UNL A   1      36.156  22.453  23.738  1.00  0.00     0.274 C 
ENDROOT
BRANCH   1   2
ATOM      2  O   UNL A   1      34.889  22.964  24.189  1.00  0.00    -0.462 OA
BRANCH   2   3
ATOM      3  C   UNL A   1      33.979  23.283  23.236  1.00  0.00     0.310 C 
ATOM      4  O   UNL A   1      34.120  24.178  22.409  1.00  0.00    -0.252 OA
BRANCH   3   5
ATOM      5  C   UNL A   1      32.734  22.407  23.271  1.00  0.00     0.119 C 
ATOM      6  N   UNL A   1      31.319  23.946  24.555  1.00  0.00    -0.342 N 
ATOM      7  C   UNL A   1      31.167  23.012  25.665  1.00  0.00     0.119 C 
ATOM      8  C   UNL A   1      31.495  23.306  23.263  1.00  0.00     0.134 C 
ATOM      9  C   UNL A   1      32.334  22.035  25.764  1.00  0.00     0.022 C 
ATOM     10  C   UNL A   1      32.659  21.390  24.415  1.00  0.00     0.019 C 
BRANCH   6  11
ATOM     11  C   UNL A   1      31.793  25.228  24.801  1.00  0.00     0.222 C 
ATOM     12  O   UNL A   1      31.555  26.159  24.030  1.00  0.00    -0.275 OA
BRANCH  11  13
ATOM     13  C   UNL A   1      32.816  25.396  25.927  1.00  0.00     0.100 C 
BRANCH  13  14
ATOM     14  C   UNL A   1      33.635  26.683  26.050  1.00  0.00     0.010 C 
BRANCH  14  15
ATOM     15  C   UNL A   1      33.056  27.893  26.810  1.00  0.00     0.000 C 
BRANCH  15  16
ATOM     16  C   UNL A   1      33.260  29.286  26.206  1.00  0.00    -0.003 C 
ATOM     17  C   UNL A   1      33.012  29.322  24.707  1.00  0.00     0.004 C 
ENDBRANCH  15  16
ENDBRANCH  14  15
ENDBRANCH  13  14
ENDBRANCH  11  13
ENDBRANCH   6  11
ENDBRANCH   3   5
ENDBRANCH   2   3
ENDBRANCH   1   2
BRANCH   1  18
ATOM     18  C   UNL A   1      36.555  21.210  24.533  1.00  0.00     0.275 C 
BRANCH  18  19
ATOM     19  O   UNL A   1      37.145  21.559  25.799  1.00  0.00    -0.458 OA
BRANCH  19  20
ATOM     20  C   UNL A   1      38.472  21.320  25.896  1.00  0.00     0.338 C 
ATOM     21  O   UNL A   1      39.089  20.353  25.486  1.00  0.00    -0.246 OA
BRANCH  20  22
ATOM     22  C   UNL A   1      39.135  22.484  26.495  1.00  0.00     0.060 A 
ATOM     23  C   UNL A   1      38.667  23.758  26.168  1.00  0.00     0.016 A 
ATOM     24  C   UNL A   1      40.277  22.323  27.278  1.00  0.00     0.016 A 
ATOM     25  C   UNL A   1      39.361  24.886  26.588  1.00  0.00     0.010 A 
ATOM     26  C   UNL A   1      40.958  23.458  27.726  1.00  0.00     0.010 A 
ATOM     27  C   UNL A   1      40.518  24.744  27.363  1.00  0.00    -0.014 A 
BRANCH  27  28
ATOM     28  C   UNL A   1      41.293  25.940  27.768  1.00  0.00     0.031 A 
ATOM     29  C   UNL A   1      40.629  27.019  28.574  1.00  0.00     0.074 A 
ATOM     30  C   UNL A   1      42.577  26.064  27.381  1.00  0.00     0.049 A 
ATOM     31  N   UNL A   1      41.087  28.195  28.914  1.00  0.00    -0.248 NA
ATOM     32  C   UNL A   1      39.264  26.743  29.058  1.00  0.00     0.031 C 
ATOM     33  C   UNL A   1      43.324  25.075  26.603  1.00  0.00     0.029 A 
ATOM     34  N   UNL A   1      43.469  27.090  27.565  1.00  0.00    -0.354 N 
ATOM     35  C   UNL A   1      40.052  28.824  29.593  1.00  0.00     0.074 A 
ATOM     36  C   UNL A   1      38.945  27.894  29.636  1.00  0.00     0.031 C 
ATOM     37  C   UNL A   1      44.554  25.552  26.354  1.00  0.00     0.029 A 
ATOM     38  C   UNL A   1      44.666  26.895  26.914  1.00  0.00     0.049 A 
ATOM     39  H   UNL A   1      43.273  27.886  28.108  1.00  0.00     0.167 HD
ATOM     40  C   UNL A   1      40.033  30.063  30.137  1.00  0.00     0.034 A 
ATOM     41  C   UNL A   1      45.716  27.723  26.756  1.00  0.00     0.034 A 
ATOM     42  C   UNL A   1      41.160  30.955  30.143  1.00  0.00     0.049 A 
ATOM     43  C   UNL A   1      45.668  29.088  27.385  1.00  0.00     0.074 A 
ATOM     44  C   UNL A   1      41.262  32.206  30.728  1.00  0.00     0.029 A 
ATOM     45  N   UNL A   1      42.379  30.694  29.539  1.00  0.00    -0.354 N 
ATOM     46  N   UNL A   1      44.722  29.626  28.116  1.00  0.00    -0.248 NA
ATOM     47  C   UNL A   1      46.840  29.952  27.188  1.00  0.00     0.031 C 
ATOM     48  C   UNL A   1      42.542  32.706  30.466  1.00  0.00     0.029 A 
ATOM     49  C   UNL A   1      43.238  31.761  29.729  1.00  0.00     0.049 A 
ATOM     50  H   UNL A   1      42.601  29.871  29.047  1.00  0.00     0.167 HD
ATOM     51  C   UNL A   1      45.196  30.877  28.491  1.00  0.00     0.074 A 
ATOM     52  C   UNL A   1      46.524  31.008  27.926  1.00  0.00     0.031 C 
ATOM     53  C   UNL A   1      44.581  31.843  29.217  1.00  0.00     0.034 A 
BRANCH  40  54
ATOM     54  C   UNL A   1      38.766  30.526  30.801  1.00  0.00     0.023 A 
ATOM     55  C   UNL A   1      38.628  30.411  32.197  1.00  0.00     0.012 A 
ATOM     56  C   UNL A   1      37.754  31.160  30.052  1.00  0.00     0.148 A 
ATOM     57  C   UNL A   1      37.493  30.907  32.840  1.00  0.00     0.002 A 
ATOM     58  C   UNL A   1      36.643  31.684  30.703  1.00  0.00     0.091 A 
ATOM     59  F   UNL A   1      37.898  31.239  28.721  1.00  0.00    -0.205 F 
ATOM     60  C   UNL A   1      36.509  31.552  32.095  1.00  0.00     0.022 A 
BRANCH  58  61
ATOM     61  S   UNL A   1      35.353  32.593  29.845  1.00  0.00     0.127 S 
ATOM     62  O   UNL A   1      36.100  33.732  29.313  1.00  0.00    -0.237 OA
ATOM     63  O   UNL A   1      34.916  31.628  28.836  1.00  0.00    -0.237 OA
ATOM     64  O   UNL A   1      34.353  32.920  30.850  1.00  0.00    -0.744 OA
ENDBRANCH  58  61
ENDBRANCH  40  54
BRANCH  41  65
ATOM     65  C   UNL A   1      46.911  27.274  25.986  1.00  0.00     0.023 A 
ATOM     66  C   UNL A   1      47.844  26.414  26.597  1.00  0.00     0.012 A 
ATOM     67  C   UNL A   1      47.122  27.677  24.654  1.00  0.00     0.148 A 
ATOM     68  C   UNL A   1      48.978  25.989  25.905  1.00  0.00     0.002 A 
ATOM     69  C   UNL A   1      48.225  27.204  23.952  1.00  0.00     0.091 A 
ATOM     70  F   UNL A   1      46.239  28.517  24.092  1.00  0.00    -0.205 F 
ATOM     71  C   UNL A   1      49.163  26.373  24.580  1.00  0.00     0.022 A 
BRANCH  69  72
ATOM     72  S   UNL A   1      48.443  27.551  22.202  1.00  0.00     0.127 S 
ATOM     73  O   UNL A   1      49.589  28.455  22.214  1.00  0.00    -0.237 OA
ATOM     74  O   UNL A   1      48.713  26.222  21.650  1.00  0.00    -0.237 OA
ATOM     75  O   UNL A   1      47.174  28.124  21.771  1.00  0.00    -0.744 OA
ENDBRANCH  69  72
ENDBRANCH  41  65
BRANCH  53  76
ATOM     76  C   UNL A   1      45.345  33.112  29.475  1.00  0.00     0.023 A 
ATOM     77  C   UNL A   1      46.242  33.175  30.559  1.00  0.00     0.012 A 
ATOM     78  C   UNL A   1      45.237  34.209  28.599  1.00  0.00     0.148 A 
ATOM     79  C   UNL A   1      47.001  34.322  30.783  1.00  0.00     0.002 A 
ATOM     80  C   UNL A   1      46.029  35.333  28.803  1.00  0.00     0.091 A 
ATOM     81  F   UNL A   1      44.361  34.137  27.585  1.00  0.00    -0.205 F 
ATOM     82  C   UNL A   1      46.904  35.394  29.898  1.00  0.00     0.022 A 
BRANCH  80  83
ATOM     83  S   UNL A   1      46.031  36.718  27.659  1.00  0.00     0.127 S 
ATOM     84  O   UNL A   1      44.674  37.235  27.812  1.00  0.00    -0.237 OA
ATOM     85  O   UNL A   1      47.079  37.579  28.210  1.00  0.00    -0.237 OA
ATOM     86  O   UNL A   1      46.347  36.152  26.353  1.00  0.00    -0.744 OA
ENDBRANCH  80  83
ENDBRANCH  53  76
ENDBRANCH  27  28
ENDBRANCH  20  22
ENDBRANCH  19  20
ENDBRANCH  18  19
ENDBRANCH   1  18
TORSDOF 19
ENDMDL
