MODEL 1
REMARK VINA RESULT:     -11.0      0.000      0.000
REMARK SMILES O=C(OCCOC(=O)c1ccc(-c2c(F)cccc2F)cn1)c1ccc(-c2c3nc(c(-c4cccc(S(=O)(=O)[O-])c4F)c4ccc([nH]4)c(-c4cccc(S(=O)(=O)[O-])c4F)c4nc(c(-c5cccc(S(=O)(=O)[O-])c5F)c5ccc2[nH]5)C=C4)C=C3)cc1
REMARK SMILES IDX 4 1 3 2 2 3 1 4 23 5 24 6 85 7 25 8 84 9 26 10 27 11 28 12
REMARK SMILES IDX 78 13 29 14 83 15 77 16 79 17 30 18 82 19 76 20 75 21 31 23
REMARK SMILES IDX 63 24 43 25 62 26 44 27 47 28 61 29 80 30 45 31 46 32 60 34
REMARK SMILES IDX 81 35 48 36 32 37 33 38 41 39 34 40 36 41 42 42 35 43 37 44
REMARK SMILES IDX 38 45 39 46 40 47 64 48 65 49 73 50 66 51 68 52 74 53 67 54
REMARK SMILES IDX 69 55 70 56 71 57 72 58 49 59 50 60 58 61 51 62 53 63 59 64
REMARK SMILES IDX 52 65 54 66 55 67 56 68 57 69 5 70 6 71 7 72 8 73 9 74 10 75
REMARK SMILES IDX 22 76 11 77 21 78 12 79 13 80 14 81 19 82 15 83 16 84 18 85
REMARK SMILES IDX 20 86 17 87
REMARK H PARENT 79 22 47 33
REMARK Flexibility Score: inf
ROOT
ATOM      1  C   UNL A   1      33.087  34.743  28.753  1.00  0.00     0.275 C 
ENDROOT
BRANCH   1   2
ATOM      2  O   UNL A   1      34.374  34.125  28.578  1.00  0.00    -0.458 OA
BRANCH   2   3
ATOM      3  C   UNL A   1      34.644  32.867  28.150  1.00  0.00     0.338 C 
ATOM      4  O   UNL A   1      33.755  32.204  27.618  1.00  0.00    -0.246 OA
BRANCH   3   5
ATOM      5  C   UNL A   1      35.946  32.191  28.431  1.00  0.00     0.060 A 
ATOM      6  C   UNL A   1      36.195  30.830  28.251  1.00  0.00     0.016 A 
ATOM      7  C   UNL A   1      36.957  32.983  29.003  1.00  0.00     0.016 A 
ATOM      8  C   UNL A   1      37.435  30.280  28.583  1.00  0.00     0.010 A 
ATOM      9  C   UNL A   1      38.199  32.436  29.347  1.00  0.00     0.010 A 
ATOM     10  C   UNL A   1      38.436  31.073  29.151  1.00  0.00    -0.014 A 
BRANCH  10  11
ATOM     11  C   UNL A   1      39.653  30.412  29.671  1.00  0.00     0.031 A 
ATOM     12  C   UNL A   1      40.296  30.964  30.910  1.00  0.00     0.074 A 
ATOM     13  C   UNL A   1      40.124  29.290  29.097  1.00  0.00     0.049 A 
ATOM     14  N   UNL A   1      41.228  30.435  31.655  1.00  0.00    -0.248 NA
ATOM     15  C   UNL A   1      39.803  32.265  31.389  1.00  0.00     0.031 C 
ATOM     16  C   UNL A   1      39.566  28.659  27.905  1.00  0.00     0.029 A 
ATOM     17  N   UNL A   1      41.178  28.482  29.442  1.00  0.00    -0.354 N 
ATOM     18  C   UNL A   1      41.421  31.326  32.701  1.00  0.00     0.074 A 
ATOM     19  C   UNL A   1      40.538  32.449  32.475  1.00  0.00     0.031 C 
ATOM     20  C   UNL A   1      40.303  27.579  27.593  1.00  0.00     0.029 A 
ATOM     21  C   UNL A   1      41.368  27.428  28.579  1.00  0.00     0.049 A 
ATOM     22  H   UNL A   1      41.743  28.643  30.231  1.00  0.00     0.167 HD
ATOM     23  C   UNL A   1      42.239  31.206  33.772  1.00  0.00     0.034 A 
ATOM     24  C   UNL A   1      42.286  26.442  28.603  1.00  0.00     0.034 A 
ATOM     25  C   UNL A   1      43.128  30.097  33.978  1.00  0.00     0.049 A 
ATOM     26  C   UNL A   1      43.224  26.357  29.779  1.00  0.00     0.074 A 
ATOM     27  C   UNL A   1      43.988  29.864  35.035  1.00  0.00     0.029 A 
ATOM     28  N   UNL A   1      43.287  29.043  33.089  1.00  0.00    -0.354 N 
ATOM     29  N   UNL A   1      43.280  27.122  30.844  1.00  0.00    -0.248 NA
ATOM     30  C   UNL A   1      44.182  25.243  29.788  1.00  0.00     0.031 C 
ATOM     31  C   UNL A   1      44.686  28.680  34.773  1.00  0.00     0.029 A 
ATOM     32  C   UNL A   1      44.244  28.165  33.563  1.00  0.00     0.049 A 
ATOM     33  H   UNL A   1      42.792  28.937  32.245  1.00  0.00     0.167 HD
ATOM     34  C   UNL A   1      44.238  26.552  31.673  1.00  0.00     0.074 A 
ATOM     35  C   UNL A   1      44.733  25.374  30.988  1.00  0.00     0.031 C 
ATOM     36  C   UNL A   1      44.675  26.967  32.889  1.00  0.00     0.034 A 
BRANCH  23  37
ATOM     37  C   UNL A   1      42.176  32.297  34.804  1.00  0.00     0.023 A 
ATOM     38  C   UNL A   1      42.797  33.536  34.540  1.00  0.00     0.012 A 
ATOM     39  C   UNL A   1      41.513  32.101  36.029  1.00  0.00     0.148 A 
ATOM     40  C   UNL A   1      42.788  34.551  35.494  1.00  0.00     0.002 A 
ATOM     41  C   UNL A   1      41.480  33.131  36.962  1.00  0.00     0.091 A 
ATOM     42  F   UNL A   1      40.956  30.906  36.271  1.00  0.00    -0.205 F 
ATOM     43  C   UNL A   1      42.125  34.351  36.701  1.00  0.00     0.022 A 
BRANCH  41  44
ATOM     44  S   UNL A   1      40.610  32.985  38.526  1.00  0.00     0.127 S 
ATOM     45  O   UNL A   1      41.464  32.047  39.254  1.00  0.00    -0.237 OA
ATOM     46  O   UNL A   1      40.648  34.359  39.030  1.00  0.00    -0.237 OA
ATOM     47  O   UNL A   1      39.278  32.497  38.199  1.00  0.00    -0.744 OA
ENDBRANCH  41  44
ENDBRANCH  23  37
BRANCH  24  48
ATOM     48  C   UNL A   1      42.303  25.409  27.528  1.00  0.00     0.023 A 
ATOM     49  C   UNL A   1      43.191  25.544  26.444  1.00  0.00     0.012 A 
ATOM     50  C   UNL A   1      41.454  24.287  27.584  1.00  0.00     0.148 A 
ATOM     51  C   UNL A   1      43.212  24.596  25.419  1.00  0.00     0.002 A 
ATOM     52  C   UNL A   1      41.512  23.322  26.583  1.00  0.00     0.091 A 
ATOM     53  F   UNL A   1      40.606  24.182  28.617  1.00  0.00    -0.205 F 
ATOM     54  C   UNL A   1      42.381  23.481  25.493  1.00  0.00     0.022 A 
BRANCH  52  55
ATOM     55  S   UNL A   1      40.556  21.803  26.660  1.00  0.00     0.127 S 
ATOM     56  O   UNL A   1      41.236  20.972  25.669  1.00  0.00    -0.237 OA
ATOM     57  O   UNL A   1      40.753  21.391  28.051  1.00  0.00    -0.237 OA
ATOM     58  O   UNL A   1      39.189  22.186  26.337  1.00  0.00    -0.744 OA
ENDBRANCH  52  55
ENDBRANCH  24  48
BRANCH  36  59
ATOM     59  C   UNL A   1      45.711  26.124  33.581  1.00  0.00     0.023 A 
ATOM     60  C   UNL A   1      47.080  26.391  33.381  1.00  0.00     0.012 A 
ATOM     61  C   UNL A   1      45.327  25.125  34.497  1.00  0.00     0.148 A 
ATOM     62  C   UNL A   1      48.050  25.659  34.063  1.00  0.00     0.002 A 
ATOM     63  C   UNL A   1      46.299  24.433  35.209  1.00  0.00     0.091 A 
ATOM     64  F   UNL A   1      44.020  24.868  34.655  1.00  0.00    -0.205 F 
ATOM     65  C   UNL A   1      47.660  24.691  34.986  1.00  0.00     0.022 A 
BRANCH  63  66
ATOM     66  S   UNL A   1      45.872  23.246  36.488  1.00  0.00     0.127 S 
ATOM     67  O   UNL A   1      45.194  22.206  35.717  1.00  0.00    -0.237 OA
ATOM     68  O   UNL A   1      47.184  22.860  37.011  1.00  0.00    -0.237 OA
ATOM     69  O   UNL A   1      45.040  23.972  37.437  1.00  0.00    -0.744 OA
ENDBRANCH  63  66
ENDBRANCH  36  59
ENDBRANCH  10  11
ENDBRANCH   3   5
ENDBRANCH   2   3
ENDBRANCH   1   2
BRANCH   1  70
ATOM     70  C   UNL A   1      33.103  36.043  29.558  1.00  0.00     0.275 C 
BRANCH  70  71
ATOM     71  O   UNL A   1      32.353  35.961  30.775  1.00  0.00    -0.457 OA
BRANCH  71  72
ATOM     72  C   UNL A   1      33.056  36.295  31.894  1.00  0.00     0.357 C 
ATOM     73  O   UNL A   1      32.890  37.298  32.573  1.00  0.00    -0.244 OA
BRANCH  72  74
ATOM     74  C   UNL A   1      34.014  35.205  32.221  1.00  0.00     0.148 A 
ATOM     75  C   UNL A   1      35.384  35.404  32.114  1.00  0.00     0.037 A 
ATOM     76  N   UNL A   1      33.453  34.040  32.630  1.00  0.00    -0.249 NA
ATOM     77  C   UNL A   1      36.227  34.344  32.452  1.00  0.00     0.013 A 
ATOM     78  C   UNL A   1      34.303  33.028  32.920  1.00  0.00     0.121 A 
ATOM     79  C   UNL A   1      35.694  33.113  32.860  1.00  0.00     0.006 A 
BRANCH  79  80
ATOM     80  C   UNL A   1      36.547  31.982  33.235  1.00  0.00     0.055 A 
ATOM     81  C   UNL A   1      36.579  30.814  32.463  1.00  0.00     0.134 A 
ATOM     82  C   UNL A   1      37.388  32.025  34.355  1.00  0.00     0.134 A 
ATOM     83  F   UNL A   1      35.835  30.729  31.349  1.00  0.00    -0.206 F 
ATOM     84  C   UNL A   1      37.404  29.737  32.787  1.00  0.00     0.040 A 
ATOM     85  C   UNL A   1      38.220  30.956  34.695  1.00  0.00     0.040 A 
ATOM     86  F   UNL A   1      37.421  33.122  35.127  1.00  0.00    -0.206 F 
ATOM     87  C   UNL A   1      38.229  29.807  33.907  1.00  0.00     0.006 A 
ENDBRANCH  79  80
ENDBRANCH  72  74
ENDBRANCH  71  72
ENDBRANCH  70  71
ENDBRANCH   1  70
TORSDOF 15
ENDMDL
MODEL 2
REMARK VINA RESULT:     -10.8      3.377      5.854
REMARK SMILES O=C(OCCOC(=O)c1ccc(-c2c(F)cccc2F)cn1)c1ccc(-c2c3nc(c(-c4cccc(S(=O)(=O)[O-])c4F)c4ccc([nH]4)c(-c4cccc(S(=O)(=O)[O-])c4F)c4nc(c(-c5cccc(S(=O)(=O)[O-])c5F)c5ccc2[nH]5)C=C4)C=C3)cc1
REMARK SMILES IDX 4 1 3 2 2 3 1 4 23 5 24 6 85 7 25 8 84 9 26 10 27 11 28 12
REMARK SMILES IDX 78 13 29 14 83 15 77 16 79 17 30 18 82 19 76 20 75 21 31 23
REMARK SMILES IDX 63 24 43 25 62 26 44 27 47 28 61 29 80 30 45 31 46 32 60 34
REMARK SMILES IDX 81 35 48 36 32 37 33 38 41 39 34 40 36 41 42 42 35 43 37 44
REMARK SMILES IDX 38 45 39 46 40 47 64 48 65 49 73 50 66 51 68 52 74 53 67 54
REMARK SMILES IDX 69 55 70 56 71 57 72 58 49 59 50 60 58 61 51 62 53 63 59 64
REMARK SMILES IDX 52 65 54 66 55 67 56 68 57 69 5 70 6 71 7 72 8 73 9 74 10 75
REMARK SMILES IDX 22 76 11 77 21 78 12 79 13 80 14 81 19 82 15 83 16 84 18 85
REMARK SMILES IDX 20 86 17 87
REMARK H PARENT 79 22 47 33
REMARK Flexibility Score: inf
ROOT
ATOM      1  C   UNL A   1      32.893  30.132  26.049  1.00  0.00     0.275 C 
ENDROOT
BRANCH   1   2
ATOM      2  O   UNL A   1      32.680  31.178  27.013  1.00  0.00    -0.458 OA
BRANCH   2   3
ATOM      3  C   UNL A   1      33.613  31.908  27.672  1.00  0.00     0.338 C 
ATOM      4  O   UNL A   1      33.440  33.116  27.825  1.00  0.00    -0.246 OA
BRANCH   3   5
ATOM      5  C   UNL A   1      34.924  31.331  28.096  1.00  0.00     0.060 A 
ATOM      6  C   UNL A   1      35.105  30.042  28.599  1.00  0.00     0.016 A 
ATOM      7  C   UNL A   1      36.034  32.194  28.062  1.00  0.00     0.016 A 
ATOM      8  C   UNL A   1      36.366  29.605  29.010  1.00  0.00     0.010 A 
ATOM      9  C   UNL A   1      37.299  31.765  28.481  1.00  0.00     0.010 A 
ATOM     10  C   UNL A   1      37.466  30.468  28.973  1.00  0.00    -0.014 A 
BRANCH  10  11
ATOM     11  C   UNL A   1      38.729  30.030  29.603  1.00  0.00     0.031 A 
ATOM     12  C   UNL A   1      39.082  30.574  30.958  1.00  0.00     0.074 A 
ATOM     13  C   UNL A   1      39.506  29.102  29.016  1.00  0.00     0.049 A 
ATOM     14  N   UNL A   1      40.015  30.180  31.781  1.00  0.00    -0.248 NA
ATOM     15  C   UNL A   1      38.256  31.682  31.463  1.00  0.00     0.031 C 
ATOM     16  C   UNL A   1      39.248  28.496  27.713  1.00  0.00     0.029 A 
ATOM     17  N   UNL A   1      40.666  28.506  29.439  1.00  0.00    -0.354 N 
ATOM     18  C   UNL A   1      39.878  30.977  32.909  1.00  0.00     0.074 A 
ATOM     19  C   UNL A   1      38.797  31.903  32.651  1.00  0.00     0.031 C 
ATOM     20  C   UNL A   1      40.241  27.637  27.423  1.00  0.00     0.029 A 
ATOM     21  C   UNL A   1      41.189  27.614  28.532  1.00  0.00     0.049 A 
ATOM     22  H   UNL A   1      41.084  28.699  30.308  1.00  0.00     0.167 HD
ATOM     23  C   UNL A   1      40.570  30.921  34.070  1.00  0.00     0.034 A 
ATOM     24  C   UNL A   1      42.296  26.850  28.606  1.00  0.00     0.034 A 
ATOM     25  C   UNL A   1      41.656  30.012  34.311  1.00  0.00     0.049 A 
ATOM     26  C   UNL A   1      43.085  26.843  29.890  1.00  0.00     0.074 A 
ATOM     27  C   UNL A   1      42.416  29.858  35.456  1.00  0.00     0.029 A 
ATOM     28  N   UNL A   1      42.151  29.116  33.374  1.00  0.00    -0.354 N 
ATOM     29  N   UNL A   1      42.841  27.486  31.008  1.00  0.00    -0.248 NA
ATOM     30  C   UNL A   1      44.261  25.965  29.946  1.00  0.00     0.031 C 
ATOM     31  C   UNL A   1      43.388  28.885  35.202  1.00  0.00     0.029 A 
ATOM     32  C   UNL A   1      43.219  28.417  33.907  1.00  0.00     0.049 A 
ATOM     33  H   UNL A   1      41.795  28.997  32.464  1.00  0.00     0.167 HD
ATOM     34  C   UNL A   1      43.799  27.049  31.916  1.00  0.00     0.074 A 
ATOM     35  C   UNL A   1      44.624  26.083  31.217  1.00  0.00     0.031 C 
ATOM     36  C   UNL A   1      43.985  27.417  33.208  1.00  0.00     0.034 A 
BRANCH  23  37
ATOM     37  C   UNL A   1      40.143  31.858  35.165  1.00  0.00     0.023 A 
ATOM     38  C   UNL A   1      40.728  33.139  35.247  1.00  0.00     0.012 A 
ATOM     39  C   UNL A   1      39.172  31.478  36.109  1.00  0.00     0.148 A 
ATOM     40  C   UNL A   1      40.380  34.014  36.274  1.00  0.00     0.002 A 
ATOM     41  C   UNL A   1      38.805  32.369  37.111  1.00  0.00     0.091 A 
ATOM     42  F   UNL A   1      38.650  30.246  36.029  1.00  0.00    -0.205 F 
ATOM     43  C   UNL A   1      39.414  33.632  37.202  1.00  0.00     0.022 A 
BRANCH  41  44
ATOM     44  S   UNL A   1      37.536  31.987  38.323  1.00  0.00     0.127 S 
ATOM     45  O   UNL A   1      37.235  30.591  38.005  1.00  0.00    -0.237 OA
ATOM     46  O   UNL A   1      38.247  32.184  39.587  1.00  0.00    -0.237 OA
ATOM     47  O   UNL A   1      36.455  32.931  38.081  1.00  0.00    -0.744 OA
ENDBRANCH  41  44
ENDBRANCH  23  37
BRANCH  24  48
ATOM     48  C   UNL A   1      42.672  25.964  27.467  1.00  0.00     0.023 A 
ATOM     49  C   UNL A   1      43.533  26.445  26.463  1.00  0.00     0.012 A 
ATOM     50  C   UNL A   1      42.192  24.642  27.385  1.00  0.00     0.148 A 
ATOM     51  C   UNL A   1      43.886  25.636  25.380  1.00  0.00     0.002 A 
ATOM     52  C   UNL A   1      42.582  23.827  26.328  1.00  0.00     0.091 A 
ATOM     53  F   UNL A   1      41.362  24.206  28.344  1.00  0.00    -0.205 F 
ATOM     54  C   UNL A   1      43.418  24.325  25.317  1.00  0.00     0.022 A 
BRANCH  52  55
ATOM     55  S   UNL A   1      42.116  22.094  26.231  1.00  0.00     0.127 S 
ATOM     56  O   UNL A   1      42.900  21.638  25.086  1.00  0.00    -0.237 OA
ATOM     57  O   UNL A   1      42.566  21.586  27.528  1.00  0.00    -0.237 OA
ATOM     58  O   UNL A   1      40.671  22.089  26.054  1.00  0.00    -0.744 OA
ENDBRANCH  52  55
ENDBRANCH  24  48
BRANCH  36  59
ATOM     59  C   UNL A   1      45.096  26.747  33.969  1.00  0.00     0.023 A 
ATOM     60  C   UNL A   1      46.407  27.256  33.890  1.00  0.00     0.012 A 
ATOM     61  C   UNL A   1      44.824  25.667  34.832  1.00  0.00     0.148 A 
ATOM     62  C   UNL A   1      47.435  26.683  34.637  1.00  0.00     0.002 A 
ATOM     63  C   UNL A   1      45.843  25.133  35.611  1.00  0.00     0.091 A 
ATOM     64  F   UNL A   1      43.574  25.180  34.875  1.00  0.00    -0.205 F 
ATOM     65  C   UNL A   1      47.150  25.633  35.507  1.00  0.00     0.022 A 
BRANCH  63  66
ATOM     66  S   UNL A   1      45.533  23.848  36.828  1.00  0.00     0.127 S 
ATOM     67  O   UNL A   1      46.852  23.685  37.433  1.00  0.00    -0.237 OA
ATOM     68  O   UNL A   1      44.536  24.474  37.699  1.00  0.00    -0.237 OA
ATOM     69  O   UNL A   1      45.036  22.705  36.075  1.00  0.00    -0.744 OA
ENDBRANCH  63  66
ENDBRANCH  36  59
ENDBRANCH  10  11
ENDBRANCH   3   5
ENDBRANCH   2   3
ENDBRANCH   1   2
BRANCH   1  70
ATOM     70  C   UNL A   1      31.619  29.580  25.409  1.00  0.00     0.275 C 
BRANCH  70  71
ATOM     71  O   UNL A   1      31.644  28.158  25.244  1.00  0.00    -0.457 OA
BRANCH  71  72
ATOM     72  C   UNL A   1      32.188  27.735  24.067  1.00  0.00     0.357 C 
ATOM     73  O   UNL A   1      32.115  28.315  22.995  1.00  0.00    -0.244 OA
BRANCH  72  74
ATOM     74  C   UNL A   1      32.966  26.489  24.301  1.00  0.00     0.148 A 
ATOM     75  C   UNL A   1      33.156  25.997  25.585  1.00  0.00     0.037 A 
ATOM     76  N   UNL A   1      33.449  25.886  23.185  1.00  0.00    -0.249 NA
ATOM     77  C   UNL A   1      33.882  24.813  25.731  1.00  0.00     0.013 A 
ATOM     78  C   UNL A   1      34.172  24.758  23.372  1.00  0.00     0.121 A 
ATOM     79  C   UNL A   1      34.419  24.166  24.611  1.00  0.00     0.006 A 
BRANCH  79  80
ATOM     80  C   UNL A   1      35.175  22.915  24.724  1.00  0.00     0.055 A 
ATOM     81  C   UNL A   1      36.576  22.919  24.768  1.00  0.00     0.134 A 
ATOM     82  C   UNL A   1      34.541  21.669  24.823  1.00  0.00     0.134 A 
ATOM     83  F   UNL A   1      37.242  24.083  24.728  1.00  0.00    -0.206 F 
ATOM     84  C   UNL A   1      37.313  21.743  24.903  1.00  0.00     0.040 A 
ATOM     85  C   UNL A   1      35.263  20.482  24.958  1.00  0.00     0.040 A 
ATOM     86  F   UNL A   1      33.201  21.596  24.807  1.00  0.00    -0.206 F 
ATOM     87  C   UNL A   1      36.655  20.519  24.999  1.00  0.00     0.006 A 
ENDBRANCH  79  80
ENDBRANCH  72  74
ENDBRANCH  71  72
ENDBRANCH  70  71
ENDBRANCH   1  70
TORSDOF 15
ENDMDL
MODEL 3
REMARK VINA RESULT:     -10.7      3.482      5.856
REMARK SMILES O=C(OCCOC(=O)c1ccc(-c2c(F)cccc2F)cn1)c1ccc(-c2c3nc(c(-c4cccc(S(=O)(=O)[O-])c4F)c4ccc([nH]4)c(-c4cccc(S(=O)(=O)[O-])c4F)c4nc(c(-c5cccc(S(=O)(=O)[O-])c5F)c5ccc2[nH]5)C=C4)C=C3)cc1
REMARK SMILES IDX 4 1 3 2 2 3 1 4 23 5 24 6 85 7 25 8 84 9 26 10 27 11 28 12
REMARK SMILES IDX 78 13 29 14 83 15 77 16 79 17 30 18 82 19 76 20 75 21 31 23
REMARK SMILES IDX 63 24 43 25 62 26 44 27 47 28 61 29 80 30 45 31 46 32 60 34
REMARK SMILES IDX 81 35 48 36 32 37 33 38 41 39 34 40 36 41 42 42 35 43 37 44
REMARK SMILES IDX 38 45 39 46 40 47 64 48 65 49 73 50 66 51 68 52 74 53 67 54
REMARK SMILES IDX 69 55 70 56 71 57 72 58 49 59 50 60 58 61 51 62 53 63 59 64
REMARK SMILES IDX 52 65 54 66 55 67 56 68 57 69 5 70 6 71 7 72 8 73 9 74 10 75
REMARK SMILES IDX 22 76 11 77 21 78 12 79 13 80 14 81 19 82 15 83 16 84 18 85
REMARK SMILES IDX 20 86 17 87
REMARK H PARENT 79 22 47 33
REMARK Flexibility Score: inf
ROOT
ATOM      1  C   UNL A   1      31.377  31.052  25.876  1.00  0.00     0.275 C 
ENDROOT
BRANCH   1   2
ATOM      2  O   UNL A   1      32.390  30.740  26.848  1.00  0.00    -0.458 OA
BRANCH   2   3
ATOM      3  C   UNL A   1      33.307  31.576  27.395  1.00  0.00     0.338 C 
ATOM      4  O   UNL A   1      33.096  32.788  27.398  1.00  0.00    -0.246 OA
BRANCH   3   5
ATOM      5  C   UNL A   1      34.641  31.098  27.867  1.00  0.00     0.060 A 
ATOM      6  C   UNL A   1      34.936  29.784  28.233  1.00  0.00     0.016 A 
ATOM      7  C   UNL A   1      35.638  32.076  28.034  1.00  0.00     0.016 A 
ATOM      8  C   UNL A   1      36.205  29.441  28.704  1.00  0.00     0.010 A 
ATOM      9  C   UNL A   1      36.909  31.740  28.514  1.00  0.00     0.010 A 
ATOM     10  C   UNL A   1      37.193  30.417  28.867  1.00  0.00    -0.014 A 
BRANCH  10  11
ATOM     11  C   UNL A   1      38.447  30.047  29.555  1.00  0.00     0.031 A 
ATOM     12  C   UNL A   1      38.702  30.596  30.928  1.00  0.00     0.074 A 
ATOM     13  C   UNL A   1      39.303  29.170  28.999  1.00  0.00     0.049 A 
ATOM     14  N   UNL A   1      39.616  30.248  31.793  1.00  0.00    -0.248 NA
ATOM     15  C   UNL A   1      37.791  31.650  31.400  1.00  0.00     0.031 C 
ATOM     16  C   UNL A   1      39.144  28.562  27.681  1.00  0.00     0.029 A 
ATOM     17  N   UNL A   1      40.474  28.637  29.475  1.00  0.00    -0.354 N 
ATOM     18  C   UNL A   1      39.379  31.024  32.920  1.00  0.00     0.074 A 
ATOM     19  C   UNL A   1      38.260  31.890  32.615  1.00  0.00     0.031 C 
ATOM     20  C   UNL A   1      40.197  27.764  27.434  1.00  0.00     0.029 A 
ATOM     21  C   UNL A   1      41.090  27.784  28.588  1.00  0.00     0.049 A 
ATOM     22  H   UNL A   1      40.838  28.845  30.364  1.00  0.00     0.167 HD
ATOM     23  C   UNL A   1      40.016  30.997  34.112  1.00  0.00     0.034 A 
ATOM     24  C   UNL A   1      42.235  27.084  28.711  1.00  0.00     0.034 A 
ATOM     25  C   UNL A   1      41.139  30.149  34.399  1.00  0.00     0.049 A 
ATOM     26  C   UNL A   1      42.959  27.110  30.032  1.00  0.00     0.074 A 
ATOM     27  C   UNL A   1      41.850  30.028  35.579  1.00  0.00     0.029 A 
ATOM     28  N   UNL A   1      41.730  29.292  33.482  1.00  0.00    -0.354 N 
ATOM     29  N   UNL A   1      42.625  27.726  31.141  1.00  0.00    -0.248 NA
ATOM     30  C   UNL A   1      44.180  26.299  30.139  1.00  0.00     0.031 C 
ATOM     31  C   UNL A   1      42.888  29.113  35.366  1.00  0.00     0.029 A 
ATOM     32  C   UNL A   1      42.809  28.650  34.061  1.00  0.00     0.049 A 
ATOM     33  H   UNL A   1      41.426  29.162  32.555  1.00  0.00     0.167 HD
ATOM     34  C   UNL A   1      43.562  27.336  32.091  1.00  0.00     0.074 A 
ATOM     35  C   UNL A   1      44.473  26.426  31.426  1.00  0.00     0.031 C 
ATOM     36  C   UNL A   1      43.664  27.702  33.394  1.00  0.00     0.034 A 
BRANCH  23  37
ATOM     37  C   UNL A   1      39.483  31.898  35.191  1.00  0.00     0.023 A 
ATOM     38  C   UNL A   1      38.461  31.428  36.042  1.00  0.00     0.012 A 
ATOM     39  C   UNL A   1      39.985  33.201  35.364  1.00  0.00     0.148 A 
ATOM     40  C   UNL A   1      37.921  32.255  37.026  1.00  0.00     0.002 A 
ATOM     41  C   UNL A   1      39.464  34.007  36.369  1.00  0.00     0.091 A 
ATOM     42  F   UNL A   1      40.935  33.637  34.525  1.00  0.00    -0.205 F 
ATOM     43  C   UNL A   1      38.426  33.541  37.193  1.00  0.00     0.022 A 
BRANCH  41  44
ATOM     44  S   UNL A   1      40.083  35.662  36.694  1.00  0.00     0.127 S 
ATOM     45  O   UNL A   1      41.524  35.427  36.778  1.00  0.00    -0.237 OA
ATOM     46  O   UNL A   1      39.653  36.392  35.501  1.00  0.00    -0.237 OA
ATOM     47  O   UNL A   1      39.445  36.091  37.930  1.00  0.00    -0.744 OA
ENDBRANCH  41  44
ENDBRANCH  23  37
BRANCH  24  48
ATOM     48  C   UNL A   1      42.715  26.232  27.586  1.00  0.00     0.023 A 
ATOM     49  C   UNL A   1      43.644  26.751  26.664  1.00  0.00     0.012 A 
ATOM     50  C   UNL A   1      42.267  24.905  27.436  1.00  0.00     0.148 A 
ATOM     51  C   UNL A   1      44.095  25.974  25.594  1.00  0.00     0.002 A 
ATOM     52  C   UNL A   1      42.754  24.121  26.394  1.00  0.00     0.091 A 
ATOM     53  F   UNL A   1      41.372  24.432  28.316  1.00  0.00    -0.205 F 
ATOM     54  C   UNL A   1      43.658  24.658  25.465  1.00  0.00     0.022 A 
BRANCH  52  55
ATOM     55  S   UNL A   1      42.329  22.384  26.222  1.00  0.00     0.127 S 
ATOM     56  O   UNL A   1      42.849  21.825  27.466  1.00  0.00    -0.237 OA
ATOM     57  O   UNL A   1      40.869  22.437  26.131  1.00  0.00    -0.237 OA
ATOM     58  O   UNL A   1      42.989  21.942  25.001  1.00  0.00    -0.744 OA
ENDBRANCH  52  55
ENDBRANCH  24  48
BRANCH  36  59
ATOM     59  C   UNL A   1      44.774  27.088  34.203  1.00  0.00     0.023 A 
ATOM     60  C   UNL A   1      46.023  27.733  34.281  1.00  0.00     0.012 A 
ATOM     61  C   UNL A   1      44.548  25.920  34.958  1.00  0.00     0.148 A 
ATOM     62  C   UNL A   1      47.041  27.209  35.077  1.00  0.00     0.002 A 
ATOM     63  C   UNL A   1      45.551  25.431  35.786  1.00  0.00     0.091 A 
ATOM     64  F   UNL A   1      43.360  25.307  34.851  1.00  0.00    -0.205 F 
ATOM     65  C   UNL A   1      46.800  26.067  35.839  1.00  0.00     0.022 A 
BRANCH  63  66
ATOM     66  S   UNL A   1      45.281  24.027  36.875  1.00  0.00     0.127 S 
ATOM     67  O   UNL A   1      44.235  24.533  37.760  1.00  0.00    -0.237 OA
ATOM     68  O   UNL A   1      44.842  22.986  35.944  1.00  0.00    -0.237 OA
ATOM     69  O   UNL A   1      46.568  23.763  37.503  1.00  0.00    -0.744 OA
ENDBRANCH  63  66
ENDBRANCH  36  59
ENDBRANCH  10  11
ENDBRANCH   3   5
ENDBRANCH   2   3
ENDBRANCH   1   2
BRANCH   1  70
ATOM     70  C   UNL A   1      31.133  29.962  24.831  1.00  0.00     0.275 C 
BRANCH  70  71
ATOM     71  O   UNL A   1      31.941  28.797  25.034  1.00  0.00    -0.457 OA
BRANCH  71  72
ATOM     72  C   UNL A   1      32.571  28.346  23.912  1.00  0.00     0.357 C 
ATOM     73  O   UNL A   1      32.678  28.953  22.857  1.00  0.00    -0.244 OA
BRANCH  72  74
ATOM     74  C   UNL A   1      33.191  27.023  24.191  1.00  0.00     0.148 A 
ATOM     75  C   UNL A   1      33.463  26.623  25.491  1.00  0.00     0.037 A 
ATOM     76  N   UNL A   1      33.451  26.260  23.099  1.00  0.00    -0.249 NA
ATOM     77  C   UNL A   1      34.030  25.361  25.683  1.00  0.00     0.013 A 
ATOM     78  C   UNL A   1      34.028  25.057  23.326  1.00  0.00     0.121 A 
ATOM     79  C   UNL A   1      34.336  24.545  24.586  1.00  0.00     0.006 A 
BRANCH  79  80
ATOM     80  C   UNL A   1      34.920  23.211  24.748  1.00  0.00     0.055 A 
ATOM     81  C   UNL A   1      34.122  22.061  24.685  1.00  0.00     0.134 A 
ATOM     82  C   UNL A   1      36.294  23.019  24.941  1.00  0.00     0.134 A 
ATOM     83  F   UNL A   1      32.805  22.174  24.453  1.00  0.00    -0.206 F 
ATOM     84  C   UNL A   1      34.661  20.781  24.809  1.00  0.00     0.040 A 
ATOM     85  C   UNL A   1      36.851  21.745  25.068  1.00  0.00     0.040 A 
ATOM     86  F   UNL A   1      37.118  24.077  24.991  1.00  0.00    -0.206 F 
ATOM     87  C   UNL A   1      36.031  20.620  25.001  1.00  0.00     0.006 A 
ENDBRANCH  79  80
ENDBRANCH  72  74
ENDBRANCH  71  72
ENDBRANCH  70  71
ENDBRANCH   1  70
TORSDOF 15
ENDMDL
