MODEL 1
REMARK VINA RESULT:     -11.5      0.000      0.000
REMARK SMILES COc1cc(N[C@H]2C=C[C@@H](C(=O)OCCOC(=O)c3ccc(-c4c5nc(c(-c6cccc(S(=O)(=O)[O-])c6F)c6ccc([nH]6)c(-c6cccc(S(=O)(=O)[O-])c6F)c6nc(c(-c7cccc(S(=O)(=O)[O-])c7F)c7ccc4[nH]7)C=C6)C=C5)cc3)C2)c([N+](=O)[O-])cc1F
REMARK SMILES IDX 14 1 13 2 11 3 12 4 10 5 7 6 8 7 82 8 9 9 6 10 5 12 3 13
REMARK SMILES IDX 4 14 88 15 87 16 89 17 83 18 2 19 1 20 84 21 85 22 86 23
REMARK SMILES IDX 15 24 16 25 17 26 18 27 19 28 20 29 81 30 21 31 80 32 22 33
REMARK SMILES IDX 23 34 24 35 74 36 25 37 79 38 73 39 75 40 26 41 78 42 72 43
REMARK SMILES IDX 71 44 27 46 59 47 39 48 58 49 40 50 43 51 57 52 76 53 41 54
REMARK SMILES IDX 42 55 56 57 77 58 44 59 28 60 29 61 37 62 30 63 32 64 38 65
REMARK SMILES IDX 31 66 33 67 34 68 35 69 36 70 60 71 61 72 69 73 62 74 64 75
REMARK SMILES IDX 70 76 63 77 65 78 66 79 67 80 68 81 45 82 46 83 54 84 47 85
REMARK SMILES IDX 49 86 55 87 48 88 50 89 51 90 52 91 53 92
REMARK H PARENT 6 11 75 45 43 56
REMARK Flexibility Score: inf
ROOT
ATOM      1  C   UNL A   1      36.115  20.074  24.886  1.00  0.00     0.274 C 
ENDROOT
BRANCH   1   2
ATOM      2  O   UNL A   1      35.636  21.067  25.815  1.00  0.00    -0.462 OA
BRANCH   2   3
ATOM      3  C   UNL A   1      34.714  21.953  25.367  1.00  0.00     0.312 C 
ATOM      4  O   UNL A   1      33.917  21.723  24.463  1.00  0.00    -0.252 OA
BRANCH   3   5
ATOM      5  C   UNL A   1      34.740  23.285  26.121  1.00  0.00     0.124 C 
ATOM      6  C   UNL A   1      34.177  25.620  25.623  1.00  0.00     0.103 C 
ATOM      7  C   UNL A   1      33.066  24.927  26.330  1.00  0.00    -0.006 C 
ATOM      8  C   UNL A   1      35.221  24.531  25.354  1.00  0.00     0.048 C 
ATOM      9  C   UNL A   1      33.369  23.655  26.606  1.00  0.00    -0.014 C 
BRANCH   6  10
ATOM     10  N   UNL A   1      33.697  26.314  24.439  1.00  0.00    -0.373 N 
ATOM     11  H   UNL A   1      34.192  26.099  23.615  1.00  0.00     0.161 HD
BRANCH  10  12
ATOM     12  C   UNL A   1      32.668  27.220  24.266  1.00  0.00     0.117 A 
ATOM     13  C   UNL A   1      31.620  29.387  24.812  1.00  0.00     0.157 A 
ATOM     14  C   UNL A   1      32.678  28.475  24.901  1.00  0.00     0.082 A 
ATOM     15  C   UNL A   1      30.534  29.083  24.005  1.00  0.00     0.172 A 
ATOM     16  C   UNL A   1      30.489  27.883  23.313  1.00  0.00     0.131 A 
ATOM     17  F   UNL A   1      29.521  29.947  23.850  1.00  0.00    -0.203 F 
ATOM     18  C   UNL A   1      31.543  26.957  23.442  1.00  0.00     0.295 A 
BRANCH  13  19
ATOM     19  O   UNL A   1      31.782  30.551  25.514  1.00  0.00    -0.494 OA
ATOM     20  C   UNL A   1      31.941  30.364  26.918  1.00  0.00     0.278 C 
ENDBRANCH  13  19
BRANCH  18  21
ATOM     21  N   UNL A   1      31.425  25.707  22.667  1.00  0.00     0.065 N 
ATOM     22  O   UNL A   1      32.155  25.543  21.677  1.00  0.00    -0.258 OA
ATOM     23  O   UNL A   1      30.588  24.873  23.049  1.00  0.00    -0.258 OA
ENDBRANCH  18  21
ENDBRANCH  10  12
ENDBRANCH   6  10
ENDBRANCH   3   5
ENDBRANCH   2   3
ENDBRANCH   1   2
BRANCH   1  24
ATOM     24  C   UNL A   1      37.645  20.098  24.852  1.00  0.00     0.275 C 
BRANCH  24  25
ATOM     25  O   UNL A   1      38.145  21.145  25.701  1.00  0.00    -0.458 OA
BRANCH  25  26
ATOM     26  C   UNL A   1      39.356  20.898  26.255  1.00  0.00     0.338 C 
ATOM     27  O   UNL A   1      39.991  19.858  26.224  1.00  0.00    -0.246 OA
BRANCH  26  28
ATOM     28  C   UNL A   1      39.915  22.162  26.750  1.00  0.00     0.060 A 
ATOM     29  C   UNL A   1      39.510  23.334  26.107  1.00  0.00     0.016 A 
ATOM     30  C   UNL A   1      40.849  22.203  27.782  1.00  0.00     0.016 A 
ATOM     31  C   UNL A   1      40.044  24.558  26.478  1.00  0.00     0.010 A 
ATOM     32  C   UNL A   1      41.386  23.436  28.159  1.00  0.00     0.010 A 
ATOM     33  C   UNL A   1      40.997  24.615  27.499  1.00  0.00    -0.014 A 
BRANCH  33  34
ATOM     34  C   UNL A   1      41.635  25.910  27.825  1.00  0.00     0.031 A 
ATOM     35  C   UNL A   1      40.858  26.937  28.595  1.00  0.00     0.074 A 
ATOM     36  C   UNL A   1      42.902  26.145  27.442  1.00  0.00     0.049 A 
ATOM     37  N   UNL A   1      41.190  28.163  28.897  1.00  0.00    -0.248 NA
ATOM     38  C   UNL A   1      39.530  26.534  29.088  1.00  0.00     0.031 C 
ATOM     39  C   UNL A   1      43.755  25.197  26.724  1.00  0.00     0.029 A 
ATOM     40  N   UNL A   1      43.690  27.258  27.590  1.00  0.00    -0.354 N 
ATOM     41  C   UNL A   1      40.099  28.695  29.572  1.00  0.00     0.074 A 
ATOM     42  C   UNL A   1      39.093  27.657  29.640  1.00  0.00     0.031 C 
ATOM     43  C   UNL A   1      44.943  25.773  26.480  1.00  0.00     0.029 A 
ATOM     44  C   UNL A   1      44.919  27.144  26.982  1.00  0.00     0.049 A 
ATOM     45  H   UNL A   1      43.404  28.060  28.084  1.00  0.00     0.167 HD
ATOM     46  C   UNL A   1      39.959  29.934  30.094  1.00  0.00     0.034 A 
ATOM     47  C   UNL A   1      45.899  28.054  26.821  1.00  0.00     0.034 A 
ATOM     48  C   UNL A   1      40.986  30.938  30.055  1.00  0.00     0.049 A 
ATOM     49  C   UNL A   1      45.708  29.431  27.398  1.00  0.00     0.074 A 
ATOM     50  C   UNL A   1      40.956  32.216  30.581  1.00  0.00     0.029 A 
ATOM     51  N   UNL A   1      42.229  30.775  29.461  1.00  0.00    -0.354 N 
ATOM     52  N   UNL A   1      44.695  29.902  28.086  1.00  0.00    -0.248 NA
ATOM     53  C   UNL A   1      46.798  30.397  27.198  1.00  0.00     0.031 C 
ATOM     54  C   UNL A   1      42.175  32.835  30.288  1.00  0.00     0.029 A 
ATOM     55  C   UNL A   1      42.974  31.932  29.603  1.00  0.00     0.049 A 
ATOM     56  H   UNL A   1      42.536  29.959  29.007  1.00  0.00     0.167 HD
ATOM     57  C   UNL A   1      45.034  31.205  28.424  1.00  0.00     0.074 A 
ATOM     58  C   UNL A   1      46.357  31.445  27.882  1.00  0.00     0.031 C 
ATOM     59  C   UNL A   1      44.312  32.128  29.104  1.00  0.00     0.034 A 
BRANCH  46  60
ATOM     60  C   UNL A   1      38.662  30.277  30.775  1.00  0.00     0.023 A 
ATOM     61  C   UNL A   1      38.481  29.952  32.134  1.00  0.00     0.012 A 
ATOM     62  C   UNL A   1      37.662  31.002  30.096  1.00  0.00     0.148 A 
ATOM     63  C   UNL A   1      37.318  30.332  32.804  1.00  0.00     0.002 A 
ATOM     64  C   UNL A   1      36.526  31.414  30.781  1.00  0.00     0.091 A 
ATOM     65  F   UNL A   1      37.847  31.280  28.797  1.00  0.00    -0.205 F 
ATOM     66  C   UNL A   1      36.349  31.073  32.133  1.00  0.00     0.022 A 
BRANCH  64  67
ATOM     67  S   UNL A   1      35.255  32.437  30.030  1.00  0.00     0.127 S 
ATOM     68  O   UNL A   1      34.769  31.566  28.961  1.00  0.00    -0.237 OA
ATOM     69  O   UNL A   1      34.317  32.622  31.138  1.00  0.00    -0.237 OA
ATOM     70  O   UNL A   1      35.924  33.651  29.585  1.00  0.00    -0.744 OA
ENDBRANCH  64  67
ENDBRANCH  46  60
BRANCH  47  71
ATOM     71  C   UNL A   1      47.153  27.673  26.110  1.00  0.00     0.023 A 
ATOM     72  C   UNL A   1      48.171  27.002  26.813  1.00  0.00     0.012 A 
ATOM     73  C   UNL A   1      47.316  27.915  24.731  1.00  0.00     0.148 A 
ATOM     74  C   UNL A   1      49.335  26.594  26.160  1.00  0.00     0.002 A 
ATOM     75  C   UNL A   1      48.452  27.454  24.075  1.00  0.00     0.091 A 
ATOM     76  F   UNL A   1      46.345  28.575  24.082  1.00  0.00    -0.205 F 
ATOM     77  C   UNL A   1      49.469  26.807  24.791  1.00  0.00     0.022 A 
BRANCH  75  78
ATOM     78  S   UNL A   1      48.641  27.558  22.291  1.00  0.00     0.127 S 
ATOM     79  O   UNL A   1      47.438  28.290  21.904  1.00  0.00    -0.237 OA
ATOM     80  O   UNL A   1      49.890  28.310  22.162  1.00  0.00    -0.237 OA
ATOM     81  O   UNL A   1      48.722  26.180  21.825  1.00  0.00    -0.744 OA
ENDBRANCH  75  78
ENDBRANCH  47  71
BRANCH  59  82
ATOM     82  C   UNL A   1      44.931  33.480  29.333  1.00  0.00     0.023 A 
ATOM     83  C   UNL A   1      45.710  33.702  30.484  1.00  0.00     0.012 A 
ATOM     84  C   UNL A   1      44.847  34.483  28.346  1.00  0.00     0.148 A 
ATOM     85  C   UNL A   1      46.384  34.910  30.659  1.00  0.00     0.002 A 
ATOM     86  C   UNL A   1      45.560  35.663  28.504  1.00  0.00     0.091 A 
ATOM     87  F   UNL A   1      44.085  34.253  27.266  1.00  0.00    -0.205 F 
ATOM     88  C   UNL A   1      46.322  35.883  29.663  1.00  0.00     0.022 A 
BRANCH  86  89
ATOM     89  S   UNL A   1      45.627  36.927  27.228  1.00  0.00     0.127 S 
ATOM     90  O   UNL A   1      44.208  37.163  26.969  1.00  0.00    -0.237 OA
ATOM     91  O   UNL A   1      46.315  38.022  27.911  1.00  0.00    -0.237 OA
ATOM     92  O   UNL A   1      46.373  36.341  26.122  1.00  0.00    -0.744 OA
ENDBRANCH  86  89
ENDBRANCH  59  82
ENDBRANCH  33  34
ENDBRANCH  26  28
ENDBRANCH  25  26
ENDBRANCH  24  25
ENDBRANCH   1  24
TORSDOF 18
ENDMDL
MODEL 2
REMARK VINA RESULT:     -11.5      1.698      2.113
REMARK SMILES COc1cc(N[C@H]2C=C[C@@H](C(=O)OCCOC(=O)c3ccc(-c4c5nc(c(-c6cccc(S(=O)(=O)[O-])c6F)c6ccc([nH]6)c(-c6cccc(S(=O)(=O)[O-])c6F)c6nc(c(-c7cccc(S(=O)(=O)[O-])c7F)c7ccc4[nH]7)C=C6)C=C5)cc3)C2)c([N+](=O)[O-])cc1F
REMARK SMILES IDX 14 1 13 2 11 3 12 4 10 5 7 6 8 7 82 8 9 9 6 10 5 12 3 13
REMARK SMILES IDX 4 14 88 15 87 16 89 17 83 18 2 19 1 20 84 21 85 22 86 23
REMARK SMILES IDX 15 24 16 25 17 26 18 27 19 28 20 29 81 30 21 31 80 32 22 33
REMARK SMILES IDX 23 34 24 35 74 36 25 37 79 38 73 39 75 40 26 41 78 42 72 43
REMARK SMILES IDX 71 44 27 46 59 47 39 48 58 49 40 50 43 51 57 52 76 53 41 54
REMARK SMILES IDX 42 55 56 57 77 58 44 59 28 60 29 61 37 62 30 63 32 64 38 65
REMARK SMILES IDX 31 66 33 67 34 68 35 69 36 70 60 71 61 72 69 73 62 74 64 75
REMARK SMILES IDX 70 76 63 77 65 78 66 79 67 80 68 81 45 82 46 83 54 84 47 85
REMARK SMILES IDX 49 86 55 87 48 88 50 89 51 90 52 91 53 92
REMARK H PARENT 6 11 75 45 43 56
REMARK Flexibility Score: inf
ROOT
ATOM      1  C   UNL A   1      35.051  20.771  24.968  1.00  0.00     0.274 C 
ENDROOT
BRANCH   1   2
ATOM      2  O   UNL A   1      34.202  21.857  24.548  1.00  0.00    -0.462 OA
BRANCH   2   3
ATOM      3  C   UNL A   1      34.046  22.899  25.402  1.00  0.00     0.312 C 
ATOM      4  O   UNL A   1      33.585  22.801  26.535  1.00  0.00    -0.252 OA
BRANCH   3   5
ATOM      5  C   UNL A   1      34.529  24.231  24.824  1.00  0.00     0.124 C 
ATOM      6  C   UNL A   1      33.661  25.908  23.257  1.00  0.00     0.103 C 
ATOM      7  C   UNL A   1      33.413  26.298  24.672  1.00  0.00    -0.006 C 
ATOM      8  C   UNL A   1      34.264  24.501  23.331  1.00  0.00     0.048 C 
ATOM      9  C   UNL A   1      33.887  25.389  25.529  1.00  0.00    -0.014 C 
BRANCH   6  10
ATOM     10  N   UNL A   1      32.451  26.015  22.460  1.00  0.00    -0.373 N 
ATOM     11  H   UNL A   1      32.561  25.749  21.518  1.00  0.00     0.161 HD
BRANCH  10  12
ATOM     12  C   UNL A   1      31.172  26.423  22.792  1.00  0.00     0.117 A 
ATOM     13  C   UNL A   1      29.406  28.147  22.753  1.00  0.00     0.157 A 
ATOM     14  C   UNL A   1      30.665  27.666  22.373  1.00  0.00     0.082 A 
ATOM     15  C   UNL A   1      28.579  27.339  23.518  1.00  0.00     0.172 A 
ATOM     16  C   UNL A   1      29.003  26.082  23.920  1.00  0.00     0.131 A 
ATOM     17  F   UNL A   1      27.347  27.736  23.864  1.00  0.00    -0.203 F 
ATOM     18  C   UNL A   1      30.288  25.626  23.563  1.00  0.00     0.295 A 
BRANCH  13  19
ATOM     19  O   UNL A   1      29.080  29.388  22.278  1.00  0.00    -0.494 OA
ATOM     20  C   UNL A   1      30.166  30.079  21.666  1.00  0.00     0.278 C 
ENDBRANCH  13  19
BRANCH  18  21
ATOM     21  N   UNL A   1      30.661  24.273  24.021  1.00  0.00     0.065 N 
ATOM     22  O   UNL A   1      30.964  23.416  23.177  1.00  0.00    -0.258 OA
ATOM     23  O   UNL A   1      30.652  24.060  25.244  1.00  0.00    -0.258 OA
ENDBRANCH  18  21
ENDBRANCH  10  12
ENDBRANCH   6  10
ENDBRANCH   3   5
ENDBRANCH   2   3
ENDBRANCH   1   2
BRANCH   1  24
ATOM     24  C   UNL A   1      36.513  21.119  24.676  1.00  0.00     0.275 C 
BRANCH  24  25
ATOM     25  O   UNL A   1      37.166  21.566  25.877  1.00  0.00    -0.458 OA
BRANCH  25  26
ATOM     26  C   UNL A   1      38.488  21.282  25.943  1.00  0.00     0.338 C 
ATOM     27  O   UNL A   1      39.064  20.304  25.498  1.00  0.00    -0.246 OA
BRANCH  26  28
ATOM     28  C   UNL A   1      39.197  22.455  26.471  1.00  0.00     0.060 A 
ATOM     29  C   UNL A   1      38.705  23.712  26.111  1.00  0.00     0.016 A 
ATOM     30  C   UNL A   1      40.340  22.336  27.256  1.00  0.00     0.016 A 
ATOM     31  C   UNL A   1      39.359  24.864  26.521  1.00  0.00     0.010 A 
ATOM     32  C   UNL A   1      41.000  23.496  27.671  1.00  0.00     0.010 A 
ATOM     33  C   UNL A   1      40.520  24.763  27.292  1.00  0.00    -0.014 A 
BRANCH  33  34
ATOM     34  C   UNL A   1      41.268  25.990  27.645  1.00  0.00     0.031 A 
ATOM     35  C   UNL A   1      40.585  27.062  28.441  1.00  0.00     0.074 A 
ATOM     36  C   UNL A   1      42.549  26.124  27.261  1.00  0.00     0.049 A 
ATOM     37  N   UNL A   1      41.022  28.248  28.770  1.00  0.00    -0.248 NA
ATOM     38  C   UNL A   1      39.229  26.763  28.932  1.00  0.00     0.031 C 
ATOM     39  C   UNL A   1      43.315  25.123  26.516  1.00  0.00     0.029 A 
ATOM     40  N   UNL A   1      43.430  27.162  27.429  1.00  0.00    -0.354 N 
ATOM     41  C   UNL A   1      39.983  28.855  29.462  1.00  0.00     0.074 A 
ATOM     42  C   UNL A   1      38.892  27.907  29.513  1.00  0.00     0.031 C 
ATOM     43  C   UNL A   1      44.547  25.601  26.279  1.00  0.00     0.029 A 
ATOM     44  C   UNL A   1      44.642  26.956  26.812  1.00  0.00     0.049 A 
ATOM     45  H   UNL A   1      43.216  27.974  27.943  1.00  0.00     0.167 HD
ATOM     46  C   UNL A   1      39.952  30.090  30.013  1.00  0.00     0.034 A 
ATOM     47  C   UNL A   1      45.697  27.783  26.666  1.00  0.00     0.034 A 
ATOM     48  C   UNL A   1      41.061  31.002  29.992  1.00  0.00     0.049 A 
ATOM     49  C   UNL A   1      45.627  29.157  27.276  1.00  0.00     0.074 A 
ATOM     50  C   UNL A   1      41.143  32.266  30.546  1.00  0.00     0.029 A 
ATOM     51  N   UNL A   1      42.283  30.747  29.387  1.00  0.00    -0.354 N 
ATOM     52  N   UNL A   1      44.661  29.697  27.979  1.00  0.00    -0.248 NA
ATOM     53  C   UNL A   1      46.795  30.030  27.091  1.00  0.00     0.031 C 
ATOM     54  C   UNL A   1      42.409  32.785  30.261  1.00  0.00     0.029 A 
ATOM     55  C   UNL A   1      43.126  31.833  29.551  1.00  0.00     0.049 A 
ATOM     56  H   UNL A   1      42.518  29.918  28.913  1.00  0.00     0.167 HD
ATOM     57  C   UNL A   1      45.112  30.959  28.344  1.00  0.00     0.074 A 
ATOM     58  C   UNL A   1      46.448  31.097  27.801  1.00  0.00     0.031 C 
ATOM     59  C   UNL A   1      44.473  31.924  29.049  1.00  0.00     0.034 A 
BRANCH  46  60
ATOM     60  C   UNL A   1      38.691  30.526  30.709  1.00  0.00     0.023 A 
ATOM     61  C   UNL A   1      38.580  30.382  32.105  1.00  0.00     0.012 A 
ATOM     62  C   UNL A   1      37.659  31.165  29.993  1.00  0.00     0.148 A 
ATOM     63  C   UNL A   1      37.453  30.853  32.778  1.00  0.00     0.002 A 
ATOM     64  C   UNL A   1      36.559  31.670  30.675  1.00  0.00     0.091 A 
ATOM     65  F   UNL A   1      37.777  31.272  28.661  1.00  0.00    -0.205 F 
ATOM     66  C   UNL A   1      36.450  31.508  32.067  1.00  0.00     0.022 A 
BRANCH  64  67
ATOM     67  S   UNL A   1      35.251  32.596  29.863  1.00  0.00     0.127 S 
ATOM     68  O   UNL A   1      34.333  32.845  30.974  1.00  0.00    -0.237 OA
ATOM     69  O   UNL A   1      35.965  33.780  29.387  1.00  0.00    -0.237 OA
ATOM     70  O   UNL A   1      34.733  31.729  28.814  1.00  0.00    -0.744 OA
ENDBRANCH  64  67
ENDBRANCH  46  60
BRANCH  47  71
ATOM     71  C   UNL A   1      46.911  27.312  25.940  1.00  0.00     0.023 A 
ATOM     72  C   UNL A   1      47.048  27.592  24.567  1.00  0.00     0.012 A 
ATOM     73  C   UNL A   1      47.954  26.644  26.612  1.00  0.00     0.148 A 
ATOM     74  C   UNL A   1      48.195  27.202  23.874  1.00  0.00     0.002 A 
ATOM     75  C   UNL A   1      49.118  26.311  25.928  1.00  0.00     0.091 A 
ATOM     76  F   UNL A   1      47.797  26.367  27.915  1.00  0.00    -0.205 F 
ATOM     77  C   UNL A   1      49.234  26.575  24.556  1.00  0.00     0.022 A 
BRANCH  75  78
ATOM     78  S   UNL A   1      50.561  25.633  26.758  1.00  0.00     0.127 S 
ATOM     79  O   UNL A   1      50.928  26.723  27.659  1.00  0.00    -0.237 OA
ATOM     80  O   UNL A   1      50.004  24.450  27.416  1.00  0.00    -0.237 OA
ATOM     81  O   UNL A   1      51.518  25.336  25.701  1.00  0.00    -0.744 OA
ENDBRANCH  75  78
ENDBRANCH  47  71
BRANCH  59  82
ATOM     82  C   UNL A   1      45.207  33.213  29.305  1.00  0.00     0.023 A 
ATOM     83  C   UNL A   1      46.099  33.301  30.390  1.00  0.00     0.012 A 
ATOM     84  C   UNL A   1      45.109  34.286  28.397  1.00  0.00     0.148 A 
ATOM     85  C   UNL A   1      46.872  34.446  30.578  1.00  0.00     0.002 A 
ATOM     86  C   UNL A   1      45.917  35.402  28.563  1.00  0.00     0.091 A 
ATOM     87  F   UNL A   1      44.240  34.184  27.380  1.00  0.00    -0.205 F 
ATOM     88  C   UNL A   1      46.793  35.488  29.657  1.00  0.00     0.022 A 
BRANCH  86  89
ATOM     89  S   UNL A   1      45.963  36.745  27.369  1.00  0.00     0.127 S 
ATOM     90  O   UNL A   1      46.241  36.028  26.126  1.00  0.00    -0.237 OA
ATOM     91  O   UNL A   1      44.611  37.295  27.468  1.00  0.00    -0.237 OA
ATOM     92  O   UNL A   1      47.017  37.645  27.819  1.00  0.00    -0.744 OA
ENDBRANCH  86  89
ENDBRANCH  59  82
ENDBRANCH  33  34
ENDBRANCH  26  28
ENDBRANCH  25  26
ENDBRANCH  24  25
ENDBRANCH   1  24
TORSDOF 18
ENDMDL
MODEL 3
REMARK VINA RESULT:     -11.4      0.393      7.537
REMARK SMILES COc1cc(N[C@H]2C=C[C@@H](C(=O)OCCOC(=O)c3ccc(-c4c5nc(c(-c6cccc(S(=O)(=O)[O-])c6F)c6ccc([nH]6)c(-c6cccc(S(=O)(=O)[O-])c6F)c6nc(c(-c7cccc(S(=O)(=O)[O-])c7F)c7ccc4[nH]7)C=C6)C=C5)cc3)C2)c([N+](=O)[O-])cc1F
REMARK SMILES IDX 14 1 13 2 11 3 12 4 10 5 7 6 8 7 82 8 9 9 6 10 5 12 3 13
REMARK SMILES IDX 4 14 88 15 87 16 89 17 83 18 2 19 1 20 84 21 85 22 86 23
REMARK SMILES IDX 15 24 16 25 17 26 18 27 19 28 20 29 81 30 21 31 80 32 22 33
REMARK SMILES IDX 23 34 24 35 74 36 25 37 79 38 73 39 75 40 26 41 78 42 72 43
REMARK SMILES IDX 71 44 27 46 59 47 39 48 58 49 40 50 43 51 57 52 76 53 41 54
REMARK SMILES IDX 42 55 56 57 77 58 44 59 28 60 29 61 37 62 30 63 32 64 38 65
REMARK SMILES IDX 31 66 33 67 34 68 35 69 36 70 60 71 61 72 69 73 62 74 64 75
REMARK SMILES IDX 70 76 63 77 65 78 66 79 67 80 68 81 45 82 46 83 54 84 47 85
REMARK SMILES IDX 49 86 55 87 48 88 50 89 51 90 52 91 53 92
REMARK H PARENT 6 11 75 45 43 56
REMARK Flexibility Score: inf
ROOT
ATOM      1  C   UNL A   1      36.039  20.011  24.927  1.00  0.00     0.274 C 
ENDROOT
BRANCH   1   2
ATOM      2  O   UNL A   1      35.700  21.149  25.743  1.00  0.00    -0.462 OA
BRANCH   2   3
ATOM      3  C   UNL A   1      34.655  21.917  25.347  1.00  0.00     0.312 C 
ATOM      4  O   UNL A   1      33.853  21.596  24.477  1.00  0.00    -0.252 OA
BRANCH   3   5
ATOM      5  C   UNL A   1      34.551  23.237  26.116  1.00  0.00     0.124 C 
ATOM      6  C   UNL A   1      33.890  25.543  25.604  1.00  0.00     0.103 C 
ATOM      7  C   UNL A   1      32.774  24.778  26.224  1.00  0.00    -0.006 C 
ATOM      8  C   UNL A   1      35.012  24.520  25.399  1.00  0.00     0.048 C 
ATOM      9  C   UNL A   1      33.130  23.521  26.507  1.00  0.00    -0.014 C 
BRANCH   6  10
ATOM     10  N   UNL A   1      33.455  26.226  24.397  1.00  0.00    -0.373 N 
ATOM     11  H   UNL A   1      33.909  25.926  23.576  1.00  0.00     0.161 HD
BRANCH  10  12
ATOM     12  C   UNL A   1      32.515  27.220  24.198  1.00  0.00     0.117 A 
ATOM     13  C   UNL A   1      31.514  29.374  24.868  1.00  0.00     0.157 A 
ATOM     14  C   UNL A   1      32.496  28.383  24.988  1.00  0.00     0.082 A 
ATOM     15  C   UNL A   1      30.550  29.253  23.879  1.00  0.00     0.172 A 
ATOM     16  C   UNL A   1      30.547  28.153  23.035  1.00  0.00     0.131 A 
ATOM     17  F   UNL A   1      29.622  30.200  23.694  1.00  0.00    -0.203 F 
ATOM     18  C   UNL A   1      31.518  27.143  23.192  1.00  0.00     0.295 A 
BRANCH  13  19
ATOM     19  O   UNL A   1      31.629  30.427  25.735  1.00  0.00    -0.494 OA
ATOM     20  C   UNL A   1      32.566  30.213  26.787  1.00  0.00     0.278 C 
ENDBRANCH  13  19
BRANCH  18  21
ATOM     21  N   UNL A   1      31.453  26.010  22.248  1.00  0.00     0.065 N 
ATOM     22  O   UNL A   1      31.497  26.240  21.030  1.00  0.00    -0.258 OA
ATOM     23  O   UNL A   1      31.354  24.870  22.729  1.00  0.00    -0.258 OA
ENDBRANCH  18  21
ENDBRANCH  10  12
ENDBRANCH   6  10
ENDBRANCH   3   5
ENDBRANCH   2   3
ENDBRANCH   1   2
BRANCH   1  24
ATOM     24  C   UNL A   1      37.551  19.778  24.973  1.00  0.00     0.275 C 
BRANCH  24  25
ATOM     25  O   UNL A   1      38.225  20.969  25.414  1.00  0.00    -0.458 OA
BRANCH  25  26
ATOM     26  C   UNL A   1      39.377  20.753  26.091  1.00  0.00     0.338 C 
ATOM     27  O   UNL A   1      40.000  19.710  26.187  1.00  0.00    -0.246 OA
BRANCH  26  28
ATOM     28  C   UNL A   1      39.904  22.044  26.550  1.00  0.00     0.060 A 
ATOM     29  C   UNL A   1      39.236  23.194  26.122  1.00  0.00     0.016 A 
ATOM     30  C   UNL A   1      41.050  22.137  27.336  1.00  0.00     0.016 A 
ATOM     31  C   UNL A   1      39.713  24.450  26.465  1.00  0.00     0.010 A 
ATOM     32  C   UNL A   1      41.531  23.402  27.683  1.00  0.00     0.010 A 
ATOM     33  C   UNL A   1      40.873  24.562  27.236  1.00  0.00    -0.014 A 
BRANCH  33  34
ATOM     34  C   UNL A   1      41.431  25.904  27.516  1.00  0.00     0.031 A 
ATOM     35  C   UNL A   1      42.805  26.245  27.022  1.00  0.00     0.074 A 
ATOM     36  C   UNL A   1      40.698  26.803  28.195  1.00  0.00     0.049 A 
ATOM     37  N   UNL A   1      43.516  27.319  27.241  1.00  0.00    -0.248 NA
ATOM     38  C   UNL A   1      43.473  25.245  26.171  1.00  0.00     0.031 C 
ATOM     39  C   UNL A   1      39.336  26.583  28.686  1.00  0.00     0.029 A 
ATOM     40  N   UNL A   1      40.998  28.077  28.604  1.00  0.00    -0.354 N 
ATOM     41  C   UNL A   1      44.729  27.107  26.598  1.00  0.00     0.074 A 
ATOM     42  C   UNL A   1      44.659  25.803  25.975  1.00  0.00     0.031 C 
ATOM     43  C   UNL A   1      38.923  27.679  29.342  1.00  0.00     0.029 A 
ATOM     44  C   UNL A   1      40.006  28.658  29.359  1.00  0.00     0.049 A 
ATOM     45  H   UNL A   1      41.842  28.532  28.379  1.00  0.00     0.167 HD
ATOM     46  C   UNL A   1      45.796  27.934  26.529  1.00  0.00     0.034 A 
ATOM     47  C   UNL A   1      39.987  29.834  30.018  1.00  0.00     0.034 A 
ATOM     48  C   UNL A   1      45.830  29.245  27.116  1.00  0.00     0.049 A 
ATOM     49  C   UNL A   1      41.196  30.727  29.936  1.00  0.00     0.074 A 
ATOM     50  C   UNL A   1      46.853  30.175  27.079  1.00  0.00     0.029 A 
ATOM     51  N   UNL A   1      44.795  29.812  27.844  1.00  0.00    -0.354 N 
ATOM     52  N   UNL A   1      42.313  30.540  29.276  1.00  0.00    -0.248 NA
ATOM     53  C   UNL A   1      41.138  31.998  30.671  1.00  0.00     0.031 C 
ATOM     54  C   UNL A   1      46.444  31.299  27.802  1.00  0.00     0.029 A 
ATOM     55  C   UNL A   1      45.156  31.080  28.266  1.00  0.00     0.049 A 
ATOM     56  H   UNL A   1      43.933  29.379  28.033  1.00  0.00     0.167 HD
ATOM     57  C   UNL A   1      43.080  31.678  29.491  1.00  0.00     0.074 A 
ATOM     58  C   UNL A   1      42.291  32.560  30.328  1.00  0.00     0.031 C 
ATOM     59  C   UNL A   1      44.331  31.962  29.052  1.00  0.00     0.034 A 
BRANCH  46  60
ATOM     60  C   UNL A   1      47.010  27.466  25.773  1.00  0.00     0.023 A 
ATOM     61  C   UNL A   1      47.909  26.570  26.384  1.00  0.00     0.012 A 
ATOM     62  C   UNL A   1      47.209  27.840  24.429  1.00  0.00     0.148 A 
ATOM     63  C   UNL A   1      48.996  26.063  25.673  1.00  0.00     0.002 A 
ATOM     64  C   UNL A   1      48.270  27.298  23.714  1.00  0.00     0.091 A 
ATOM     65  F   UNL A   1      46.353  28.711  23.876  1.00  0.00    -0.205 F 
ATOM     66  C   UNL A   1      49.169  26.415  24.337  1.00  0.00     0.022 A 
BRANCH  64  67
ATOM     67  S   UNL A   1      48.535  27.626  21.968  1.00  0.00     0.127 S 
ATOM     68  O   UNL A   1      49.546  28.682  22.018  1.00  0.00    -0.237 OA
ATOM     69  O   UNL A   1      49.026  26.336  21.485  1.00  0.00    -0.237 OA
ATOM     70  O   UNL A   1      47.243  28.031  21.432  1.00  0.00    -0.744 OA
ENDBRANCH  64  67
ENDBRANCH  46  60
BRANCH  47  71
ATOM     71  C   UNL A   1      38.769  30.237  30.779  1.00  0.00     0.023 A 
ATOM     72  C   UNL A   1      38.695  29.968  32.158  1.00  0.00     0.012 A 
ATOM     73  C   UNL A   1      37.715  30.936  30.158  1.00  0.00     0.148 A 
ATOM     74  C   UNL A   1      37.586  30.375  32.903  1.00  0.00     0.002 A 
ATOM     75  C   UNL A   1      36.642  31.389  30.916  1.00  0.00     0.091 A 
ATOM     76  F   UNL A   1      37.793  31.164  28.838  1.00  0.00    -0.205 F 
ATOM     77  C   UNL A   1      36.568  31.096  32.286  1.00  0.00     0.022 A 
BRANCH  75  78
ATOM     78  S   UNL A   1      35.359  32.447  30.233  1.00  0.00     0.127 S 
ATOM     79  O   UNL A   1      36.126  33.620  29.822  1.00  0.00    -0.237 OA
ATOM     80  O   UNL A   1      34.846  31.629  29.133  1.00  0.00    -0.237 OA
ATOM     81  O   UNL A   1      34.408  32.659  31.316  1.00  0.00    -0.744 OA
ENDBRANCH  75  78
ENDBRANCH  47  71
BRANCH  59  82
ATOM     82  C   UNL A   1      44.930  33.287  29.438  1.00  0.00     0.023 A 
ATOM     83  C   UNL A   1      45.721  33.380  30.598  1.00  0.00     0.012 A 
ATOM     84  C   UNL A   1      44.815  34.401  28.583  1.00  0.00     0.148 A 
ATOM     85  C   UNL A   1      46.377  34.570  30.912  1.00  0.00     0.002 A 
ATOM     86  C   UNL A   1      45.510  35.567  28.876  1.00  0.00     0.091 A 
ATOM     87  F   UNL A   1      44.043  34.292  27.492  1.00  0.00    -0.205 F 
ATOM     88  C   UNL A   1      46.285  35.656  30.045  1.00  0.00     0.022 A 
BRANCH  86  89
ATOM     89  S   UNL A   1      45.539  36.978  27.764  1.00  0.00     0.127 S 
ATOM     90  O   UNL A   1      46.106  36.390  26.552  1.00  0.00    -0.237 OA
ATOM     91  O   UNL A   1      44.121  37.327  27.669  1.00  0.00    -0.237 OA
ATOM     92  O   UNL A   1      46.367  37.985  28.415  1.00  0.00    -0.744 OA
ENDBRANCH  86  89
ENDBRANCH  59  82
ENDBRANCH  33  34
ENDBRANCH  26  28
ENDBRANCH  25  26
ENDBRANCH  24  25
ENDBRANCH   1  24
TORSDOF 18
ENDMDL
