MODEL 1
REMARK VINA RESULT:     -10.1      0.000      0.000
REMARK SMILES CC(C)C[C@H](NC(=O)CNC(=O)[C@@H](NC(=O)OCc1ccccc1)C(C)C)C(=O)N[C@@H](C)C(=O)OCCOC(=O)c1ccc(-c2c3nc(c(-c4cccc(S(=O)(=O)[O-])c4F)c4ccc([nH]4)c(-c4cccc(S(=O)(=O)[O-])c4F)c4nc(c(-c5cccc(S(=O)(=O)[O-])c5F)c5ccc2[nH]5)C=C4)C=C3)cc1
REMARK SMILES IDX 31 1 32 2 30 3 28 4 29 5 5 7 4 8 2 9 1 10 3 11 6 12 7 13
REMARK SMILES IDX 8 15 9 16 10 17 11 18 12 20 13 21 14 22 15 23 16 25 17 26
REMARK SMILES IDX 18 27 19 28 20 29 24 30 21 31 23 32 22 33 25 34 26 35 27 36
REMARK SMILES IDX 33 37 34 38 35 39 36 40 37 41 38 42 39 43 40 44 41 45 42 46
REMARK SMILES IDX 103 47 43 48 102 49 44 50 45 51 46 52 96 53 47 54 101 55
REMARK SMILES IDX 95 56 97 57 48 58 100 59 94 60 93 61 49 63 81 64 61 65 80 66
REMARK SMILES IDX 62 67 65 68 79 69 98 70 63 71 64 72 78 74 99 75 66 76 50 77
REMARK SMILES IDX 51 78 59 79 52 80 54 81 60 82 53 83 55 84 56 85 57 86 58 87
REMARK SMILES IDX 82 88 83 89 91 90 84 91 86 92 92 93 85 94 87 95 88 96 89 97
REMARK SMILES IDX 90 98 67 99 68 100 76 101 69 102 71 103 77 104 70 105 72 106
REMARK SMILES IDX 73 107 74 108 75 109
REMARK H PARENT 30 6 6 14 10 19 14 24 97 62 65 73
REMARK Flexibility Score: inf
ROOT
ATOM      1  C   UNL A   1      36.878  21.938  25.344  1.00  0.00     0.189 C 
ATOM      2  C   UNL A   1      37.687  23.159  25.778  1.00  0.00     0.043 C 
ENDROOT
BRANCH   1   3
ATOM      3  N   UNL A   1      35.867  21.649  26.377  1.00  0.00    -0.341 N 
ATOM      4  C   UNL A   1      34.511  21.519  26.277  1.00  0.00     0.243 C 
ATOM      5  O   UNL A   1      33.858  21.408  27.319  1.00  0.00    -0.273 OA
ATOM      6  H   UNL A   1      36.227  21.532  27.285  1.00  0.00     0.164 HD
BRANCH   4   7
ATOM      7  C   UNL A   1      33.836  21.347  24.906  1.00  0.00     0.171 C 
BRANCH   7   8
ATOM      8  C   UNL A   1      33.931  19.873  24.545  1.00  0.00     0.038 C 
BRANCH   8   9
ATOM      9  C   UNL A   1      32.672  18.982  24.446  1.00  0.00    -0.015 C 
ATOM     10  C   UNL A   1      32.659  18.162  23.155  1.00  0.00     0.007 C 
ATOM     11  C   UNL A   1      32.614  17.994  25.625  1.00  0.00     0.007 C 
ENDBRANCH   8   9
ENDBRANCH   7   8
BRANCH   7  12
ATOM     12  N   UNL A   1      34.401  22.352  23.967  1.00  0.00    -0.343 N 
ATOM     13  C   UNL A   1      34.139  23.562  23.421  1.00  0.00     0.240 C 
ATOM     14  H   UNL A   1      35.263  22.024  23.623  1.00  0.00     0.164 HD
ATOM     15  O   UNL A   1      35.139  24.121  22.940  1.00  0.00    -0.273 OA
BRANCH  13  16
ATOM     16  C   UNL A   1      32.810  24.326  23.405  1.00  0.00     0.216 C 
BRANCH  16  17
ATOM     17  N   UNL A   1      32.378  24.796  22.119  1.00  0.00    -0.345 N 
ATOM     18  C   UNL A   1      32.040  25.992  21.606  1.00  0.00     0.243 C 
ATOM     19  H   UNL A   1      32.314  24.071  21.456  1.00  0.00     0.164 HD
ATOM     20  O   UNL A   1      31.517  25.954  20.488  1.00  0.00    -0.273 OA
BRANCH  18  21
ATOM     21  C   UNL A   1      32.113  27.369  22.277  1.00  0.00     0.177 C 
BRANCH  21  22
ATOM     22  N   UNL A   1      30.855  28.053  22.498  1.00  0.00    -0.309 N 
ATOM     23  C   UNL A   1      29.666  27.679  23.007  1.00  0.00     0.408 C 
ATOM     24  H   UNL A   1      30.874  28.996  22.214  1.00  0.00     0.167 HD
ATOM     25  O   UNL A   1      28.680  28.358  22.782  1.00  0.00    -0.225 OA
BRANCH  23  26
ATOM     26  O   UNL A   1      29.725  26.561  23.755  1.00  0.00    -0.445 OA
BRANCH  26  27
ATOM     27  C   UNL A   1      30.153  26.800  25.105  1.00  0.00     0.270 C 
BRANCH  27  28
ATOM     28  C   UNL A   1      30.669  25.555  25.809  1.00  0.00    -0.011 A 
ATOM     29  C   UNL A   1      29.884  24.399  25.830  1.00  0.00     0.007 A 
ATOM     30  C   UNL A   1      31.907  25.526  26.472  1.00  0.00     0.007 A 
ATOM     31  C   UNL A   1      30.313  23.265  26.525  1.00  0.00     0.000 A 
ATOM     32  C   UNL A   1      32.330  24.405  27.182  1.00  0.00     0.000 A 
ATOM     33  C   UNL A   1      31.530  23.271  27.208  1.00  0.00     0.000 A 
ENDBRANCH  27  28
ENDBRANCH  26  27
ENDBRANCH  23  26
ENDBRANCH  21  22
BRANCH  21  34
ATOM     34  C   UNL A   1      33.330  27.409  23.223  1.00  0.00     0.015 C 
ATOM     35  C   UNL A   1      34.568  27.909  22.429  1.00  0.00     0.010 C 
ATOM     36  C   UNL A   1      33.186  28.301  24.433  1.00  0.00     0.010 C 
ENDBRANCH  21  34
ENDBRANCH  18  21
ENDBRANCH  16  17
ENDBRANCH  13  16
ENDBRANCH   7  12
ENDBRANCH   4   7
ENDBRANCH   1   3
BRANCH   1  37
ATOM     37  C   UNL A   1      37.836  20.770  25.004  1.00  0.00     0.328 C 
ATOM     38  O   UNL A   1      37.529  19.847  24.256  1.00  0.00    -0.250 OA
BRANCH  37  39
ATOM     39  O   UNL A   1      38.995  20.816  25.732  1.00  0.00    -0.461 OA
BRANCH  39  40
ATOM     40  C   UNL A   1      39.822  19.623  25.685  1.00  0.00     0.274 C 
BRANCH  40  41
ATOM     41  C   UNL A   1      40.613  19.409  27.001  1.00  0.00     0.275 C 
BRANCH  41  42
ATOM     42  O   UNL A   1      42.064  19.573  26.975  1.00  0.00    -0.458 OA
BRANCH  42  43
ATOM     43  C   UNL A   1      42.515  20.641  26.286  1.00  0.00     0.338 C 
ATOM     44  O   UNL A   1      43.234  20.561  25.298  1.00  0.00    -0.246 OA
BRANCH  43  45
ATOM     45  C   UNL A   1      42.150  21.996  26.776  1.00  0.00     0.060 A 
ATOM     46  C   UNL A   1      42.370  22.987  25.829  1.00  0.00     0.016 A 
ATOM     47  C   UNL A   1      41.993  22.379  28.117  1.00  0.00     0.016 A 
ATOM     48  C   UNL A   1      42.649  24.288  26.247  1.00  0.00     0.010 A 
ATOM     49  C   UNL A   1      42.126  23.754  28.503  1.00  0.00     0.010 A 
ATOM     50  C   UNL A   1      42.503  24.745  27.580  1.00  0.00    -0.014 A 
BRANCH  50  51
ATOM     51  C   UNL A   1      42.725  26.235  27.811  1.00  0.00     0.031 A 
ATOM     52  C   UNL A   1      41.691  27.295  28.200  1.00  0.00     0.074 A 
ATOM     53  C   UNL A   1      44.009  26.662  27.796  1.00  0.00     0.049 A 
ATOM     54  N   UNL A   1      41.863  28.381  28.931  1.00  0.00    -0.248 NA
ATOM     55  C   UNL A   1      40.305  27.145  27.750  1.00  0.00     0.031 C 
ATOM     56  C   UNL A   1      45.170  25.859  27.389  1.00  0.00     0.029 A 
ATOM     57  N   UNL A   1      44.560  27.874  28.130  1.00  0.00    -0.354 N 
ATOM     58  C   UNL A   1      40.593  28.914  29.179  1.00  0.00     0.074 A 
ATOM     59  C   UNL A   1      39.668  28.099  28.433  1.00  0.00     0.031 C 
ATOM     60  C   UNL A   1      46.287  26.566  27.554  1.00  0.00     0.029 A 
ATOM     61  C   UNL A   1      45.900  27.934  27.846  1.00  0.00     0.049 A 
ATOM     62  H   UNL A   1      44.050  28.616  28.529  1.00  0.00     0.167 HD
ATOM     63  C   UNL A   1      40.236  30.002  29.915  1.00  0.00     0.034 A 
ATOM     64  C   UNL A   1      46.708  28.988  27.652  1.00  0.00     0.034 A 
ATOM     65  C   UNL A   1      41.124  31.121  30.107  1.00  0.00     0.049 A 
ATOM     66  C   UNL A   1      46.183  30.349  27.927  1.00  0.00     0.074 A 
ATOM     67  C   UNL A   1      40.821  32.390  30.574  1.00  0.00     0.029 A 
ATOM     68  N   UNL A   1      42.422  31.169  29.630  1.00  0.00    -0.354 N 
ATOM     69  N   UNL A   1      45.048  30.689  28.484  1.00  0.00    -0.248 NA
ATOM     70  C   UNL A   1      47.047  31.472  27.560  1.00  0.00     0.031 C 
ATOM     71  C   UNL A   1      41.876  33.240  30.212  1.00  0.00     0.029 A 
ATOM     72  C   UNL A   1      42.873  32.476  29.628  1.00  0.00     0.049 A 
ATOM     73  H   UNL A   1      42.946  30.390  29.336  1.00  0.00     0.167 HD
ATOM     74  C   UNL A   1      45.071  32.071  28.565  1.00  0.00     0.074 A 
ATOM     75  C   UNL A   1      46.337  32.500  28.004  1.00  0.00     0.031 C 
ATOM     76  C   UNL A   1      44.131  32.902  29.072  1.00  0.00     0.034 A 
BRANCH  63  77
ATOM     77  C   UNL A   1      38.820  30.163  30.441  1.00  0.00     0.023 A 
ATOM     78  C   UNL A   1      38.493  29.570  31.684  1.00  0.00     0.012 A 
ATOM     79  C   UNL A   1      37.877  31.018  29.843  1.00  0.00     0.148 A 
ATOM     80  C   UNL A   1      37.244  29.764  32.283  1.00  0.00     0.002 A 
ATOM     81  C   UNL A   1      36.640  31.231  30.456  1.00  0.00     0.091 A 
ATOM     82  F   UNL A   1      38.215  31.628  28.700  1.00  0.00    -0.205 F 
ATOM     83  C   UNL A   1      36.317  30.596  31.668  1.00  0.00     0.022 A 
BRANCH  81  84
ATOM     84  S   UNL A   1      35.387  32.328  29.779  1.00  0.00     0.127 S 
ATOM     85  O   UNL A   1      34.896  31.547  28.643  1.00  0.00    -0.237 OA
ATOM     86  O   UNL A   1      34.443  32.446  30.889  1.00  0.00    -0.237 OA
ATOM     87  O   UNL A   1      36.081  33.557  29.422  1.00  0.00    -0.744 OA
ENDBRANCH  81  84
ENDBRANCH  63  77
BRANCH  64  88
ATOM     88  C   UNL A   1      48.016  28.740  26.990  1.00  0.00     0.023 A 
ATOM     89  C   UNL A   1      49.203  28.716  27.735  1.00  0.00     0.012 A 
ATOM     90  C   UNL A   1      48.047  28.396  25.617  1.00  0.00     0.148 A 
ATOM     91  C   UNL A   1      50.401  28.345  27.122  1.00  0.00     0.002 A 
ATOM     92  C   UNL A   1      49.222  27.944  25.042  1.00  0.00     0.091 A 
ATOM     93  F   UNL A   1      46.904  28.457  24.917  1.00  0.00    -0.205 F 
ATOM     94  C   UNL A   1      50.407  27.935  25.788  1.00  0.00     0.022 A 
BRANCH  92  95
ATOM     95  S   UNL A   1      49.239  27.212  23.400  1.00  0.00     0.127 S 
ATOM     96  O   UNL A   1      48.718  28.302  22.581  1.00  0.00    -0.237 OA
ATOM     97  O   UNL A   1      50.660  26.919  23.208  1.00  0.00    -0.237 OA
ATOM     98  O   UNL A   1      48.400  26.024  23.498  1.00  0.00    -0.744 OA
ENDBRANCH  92  95
ENDBRANCH  64  88
BRANCH  76  99
ATOM     99  C   UNL A   1      44.448  34.368  29.081  1.00  0.00     0.023 A 
ATOM    100  C   UNL A   1      44.095  35.183  27.989  1.00  0.00     0.012 A 
ATOM    101  C   UNL A   1      45.071  34.938  30.204  1.00  0.00     0.148 A 
ATOM    102  C   UNL A   1      44.397  36.543  28.001  1.00  0.00     0.002 A 
ATOM    103  C   UNL A   1      45.310  36.302  30.237  1.00  0.00     0.091 A 
ATOM    104  F   UNL A   1      45.428  34.133  31.217  1.00  0.00    -0.205 F 
ATOM    105  C   UNL A   1      44.991  37.105  29.130  1.00  0.00     0.022 A 
BRANCH 103 106
ATOM    106  S   UNL A   1      45.961  37.113  31.698  1.00  0.00     0.127 S 
ATOM    107  O   UNL A   1      45.073  36.605  32.742  1.00  0.00    -0.237 OA
ATOM    108  O   UNL A   1      47.329  36.597  31.755  1.00  0.00    -0.237 OA
ATOM    109  O   UNL A   1      45.868  38.543  31.435  1.00  0.00    -0.744 OA
ENDBRANCH 103 106
ENDBRANCH  76  99
ENDBRANCH  50  51
ENDBRANCH  43  45
ENDBRANCH  42  43
ENDBRANCH  41  42
ENDBRANCH  40  41
ENDBRANCH  39  40
ENDBRANCH  37  39
ENDBRANCH   1  37
TORSDOF 27
ENDMDL
MODEL 2
REMARK VINA RESULT:      -9.9      2.304      2.750
REMARK SMILES CC(C)C[C@H](NC(=O)CNC(=O)[C@@H](NC(=O)OCc1ccccc1)C(C)C)C(=O)N[C@@H](C)C(=O)OCCOC(=O)c1ccc(-c2c3nc(c(-c4cccc(S(=O)(=O)[O-])c4F)c4ccc([nH]4)c(-c4cccc(S(=O)(=O)[O-])c4F)c4nc(c(-c5cccc(S(=O)(=O)[O-])c5F)c5ccc2[nH]5)C=C4)C=C3)cc1
REMARK SMILES IDX 31 1 32 2 30 3 28 4 29 5 5 7 4 8 2 9 1 10 3 11 6 12 7 13
REMARK SMILES IDX 8 15 9 16 10 17 11 18 12 20 13 21 14 22 15 23 16 25 17 26
REMARK SMILES IDX 18 27 19 28 20 29 24 30 21 31 23 32 22 33 25 34 26 35 27 36
REMARK SMILES IDX 33 37 34 38 35 39 36 40 37 41 38 42 39 43 40 44 41 45 42 46
REMARK SMILES IDX 103 47 43 48 102 49 44 50 45 51 46 52 96 53 47 54 101 55
REMARK SMILES IDX 95 56 97 57 48 58 100 59 94 60 93 61 49 63 81 64 61 65 80 66
REMARK SMILES IDX 62 67 65 68 79 69 98 70 63 71 64 72 78 74 99 75 66 76 50 77
REMARK SMILES IDX 51 78 59 79 52 80 54 81 60 82 53 83 55 84 56 85 57 86 58 87
REMARK SMILES IDX 82 88 83 89 91 90 84 91 86 92 92 93 85 94 87 95 88 96 89 97
REMARK SMILES IDX 90 98 67 99 68 100 76 101 69 102 71 103 77 104 70 105 72 106
REMARK SMILES IDX 73 107 74 108 75 109
REMARK H PARENT 30 6 6 14 10 19 14 24 97 62 65 73
REMARK Flexibility Score: inf
ROOT
ATOM      1  C   UNL A   1      37.032  22.145  25.456  1.00  0.00     0.189 C 
ATOM      2  C   UNL A   1      37.657  23.518  25.695  1.00  0.00     0.043 C 
ENDROOT
BRANCH   1   3
ATOM      3  N   UNL A   1      35.967  21.929  26.451  1.00  0.00    -0.341 N 
ATOM      4  C   UNL A   1      34.628  21.715  26.284  1.00  0.00     0.243 C 
ATOM      5  O   UNL A   1      33.911  21.696  27.289  1.00  0.00    -0.273 OA
ATOM      6  H   UNL A   1      36.269  21.943  27.388  1.00  0.00     0.164 HD
BRANCH   4   7
ATOM      7  C   UNL A   1      34.057  21.340  24.906  1.00  0.00     0.171 C 
BRANCH   7   8
ATOM      8  C   UNL A   1      34.363  19.868  24.683  1.00  0.00     0.038 C 
BRANCH   8   9
ATOM      9  C   UNL A   1      33.266  18.872  24.245  1.00  0.00    -0.015 C 
ATOM     10  C   UNL A   1      32.631  18.166  25.444  1.00  0.00     0.007 C 
ATOM     11  C   UNL A   1      32.143  19.603  23.487  1.00  0.00     0.007 C 
ENDBRANCH   8   9
ENDBRANCH   7   8
BRANCH   7  12
ATOM     12  N   UNL A   1      34.538  22.332  23.907  1.00  0.00    -0.343 N 
ATOM     13  C   UNL A   1      34.175  23.479  23.289  1.00  0.00     0.240 C 
ATOM     14  H   UNL A   1      35.424  22.057  23.580  1.00  0.00     0.164 HD
ATOM     15  O   UNL A   1      35.125  24.092  22.773  1.00  0.00    -0.273 OA
BRANCH  13  16
ATOM     16  C   UNL A   1      32.787  24.126  23.233  1.00  0.00     0.216 C 
BRANCH  16  17
ATOM     17  N   UNL A   1      32.411  24.682  21.963  1.00  0.00    -0.345 N 
ATOM     18  C   UNL A   1      32.121  25.915  21.511  1.00  0.00     0.243 C 
ATOM     19  H   UNL A   1      32.352  23.999  21.256  1.00  0.00     0.164 HD
ATOM     20  O   UNL A   1      31.636  25.957  20.376  1.00  0.00    -0.273 OA
BRANCH  18  21
ATOM     21  C   UNL A   1      32.205  27.248  22.264  1.00  0.00     0.177 C 
BRANCH  21  22
ATOM     22  N   UNL A   1      30.950  27.839  22.685  1.00  0.00    -0.309 N 
ATOM     23  C   UNL A   1      29.823  27.344  23.231  1.00  0.00     0.408 C 
ATOM     24  H   UNL A   1      30.915  28.812  22.540  1.00  0.00     0.167 HD
ATOM     25  O   UNL A   1      28.800  28.005  23.189  1.00  0.00    -0.225 OA
BRANCH  23  26
ATOM     26  O   UNL A   1      29.982  26.136  23.803  1.00  0.00    -0.445 OA
BRANCH  26  27
ATOM     27  C   UNL A   1      30.370  26.204  25.183  1.00  0.00     0.270 C 
BRANCH  27  28
ATOM     28  C   UNL A   1      30.141  24.909  25.946  1.00  0.00    -0.011 A 
ATOM     29  C   UNL A   1      28.917  24.694  26.587  1.00  0.00     0.007 A 
ATOM     30  C   UNL A   1      31.128  23.917  26.056  1.00  0.00     0.007 A 
ATOM     31  C   UNL A   1      28.709  23.538  27.344  1.00  0.00     0.000 A 
ATOM     32  C   UNL A   1      30.932  22.773  26.825  1.00  0.00     0.000 A 
ATOM     33  C   UNL A   1      29.718  22.584  27.471  1.00  0.00     0.000 A 
ENDBRANCH  27  28
ENDBRANCH  26  27
ENDBRANCH  23  26
ENDBRANCH  21  22
BRANCH  21  34
ATOM     34  C   UNL A   1      33.527  27.302  23.056  1.00  0.00     0.015 C 
ATOM     35  C   UNL A   1      34.384  28.483  22.524  1.00  0.00     0.010 C 
ATOM     36  C   UNL A   1      33.386  27.489  24.548  1.00  0.00     0.010 C 
ENDBRANCH  21  34
ENDBRANCH  18  21
ENDBRANCH  16  17
ENDBRANCH  13  16
ENDBRANCH   7  12
ENDBRANCH   4   7
ENDBRANCH   1   3
BRANCH   1  37
ATOM     37  C   UNL A   1      38.141  21.064  25.422  1.00  0.00     0.328 C 
ATOM     38  O   UNL A   1      37.980  19.953  24.925  1.00  0.00    -0.250 OA
BRANCH  37  39
ATOM     39  O   UNL A   1      39.257  21.439  26.121  1.00  0.00    -0.461 OA
BRANCH  39  40
ATOM     40  C   UNL A   1      40.204  20.380  26.421  1.00  0.00     0.274 C 
BRANCH  40  41
ATOM     41  C   UNL A   1      41.202  20.786  27.534  1.00  0.00     0.275 C 
BRANCH  41  42
ATOM     42  O   UNL A   1      42.458  21.421  27.146  1.00  0.00    -0.458 OA
BRANCH  42  43
ATOM     43  C   UNL A   1      42.354  22.387  26.210  1.00  0.00     0.338 C 
ATOM     44  O   UNL A   1      42.651  22.230  25.032  1.00  0.00    -0.246 OA
BRANCH  43  45
ATOM     45  C   UNL A   1      41.888  23.732  26.638  1.00  0.00     0.060 A 
ATOM     46  C   UNL A   1      42.516  24.763  25.952  1.00  0.00     0.016 A 
ATOM     47  C   UNL A   1      41.224  24.037  27.837  1.00  0.00     0.016 A 
ATOM     48  C   UNL A   1      42.665  26.006  26.566  1.00  0.00     0.010 A 
ATOM     49  C   UNL A   1      41.256  25.367  28.370  1.00  0.00     0.010 A 
ATOM     50  C   UNL A   1      42.017  26.383  27.768  1.00  0.00    -0.014 A 
BRANCH  50  51
ATOM     51  C   UNL A   1      42.199  27.833  28.206  1.00  0.00     0.031 A 
ATOM     52  C   UNL A   1      41.114  28.870  28.510  1.00  0.00     0.074 A 
ATOM     53  C   UNL A   1      43.464  28.225  28.484  1.00  0.00     0.049 A 
ATOM     54  N   UNL A   1      41.148  29.863  29.380  1.00  0.00    -0.248 NA
ATOM     55  C   UNL A   1      39.840  28.808  27.791  1.00  0.00     0.031 C 
ATOM     56  C   UNL A   1      44.677  27.441  28.216  1.00  0.00     0.029 A 
ATOM     57  N   UNL A   1      43.946  29.377  29.052  1.00  0.00    -0.354 N 
ATOM     58  C   UNL A   1      39.856  30.399  29.441  1.00  0.00     0.074 A 
ATOM     59  C   UNL A   1      39.088  29.696  28.445  1.00  0.00     0.031 C 
ATOM     60  C   UNL A   1      45.745  28.096  28.669  1.00  0.00     0.029 A 
ATOM     61  C   UNL A   1      45.316  29.432  29.037  1.00  0.00     0.049 A 
ATOM     62  H   UNL A   1      43.373  30.083  29.429  1.00  0.00     0.167 HD
ATOM     63  C   UNL A   1      39.370  31.407  30.216  1.00  0.00     0.034 A 
ATOM     64  C   UNL A   1      46.151  30.479  29.122  1.00  0.00     0.034 A 
ATOM     65  C   UNL A   1      40.210  32.473  30.699  1.00  0.00     0.049 A 
ATOM     66  C   UNL A   1      45.589  31.815  29.445  1.00  0.00     0.074 A 
ATOM     67  C   UNL A   1      39.829  33.691  31.241  1.00  0.00     0.029 A 
ATOM     68  N   UNL A   1      41.576  32.541  30.486  1.00  0.00    -0.354 N 
ATOM     69  N   UNL A   1      44.370  32.121  29.812  1.00  0.00    -0.248 NA
ATOM     70  C   UNL A   1      46.514  32.948  29.379  1.00  0.00     0.031 C 
ATOM     71  C   UNL A   1      40.938  34.547  31.186  1.00  0.00     0.029 A 
ATOM     72  C   UNL A   1      42.025  33.827  30.718  1.00  0.00     0.049 A 
ATOM     73  H   UNL A   1      42.143  31.785  30.210  1.00  0.00     0.167 HD
ATOM     74  C   UNL A   1      44.385  33.484  30.053  1.00  0.00     0.074 A 
ATOM     75  C   UNL A   1      45.737  33.940  29.795  1.00  0.00     0.031 C 
ATOM     76  C   UNL A   1      43.368  34.278  30.464  1.00  0.00     0.034 A 
BRANCH  63  77
ATOM     77  C   UNL A   1      37.881  31.546  30.478  1.00  0.00     0.023 A 
ATOM     78  C   UNL A   1      37.354  30.993  31.669  1.00  0.00     0.012 A 
ATOM     79  C   UNL A   1      37.038  32.348  29.687  1.00  0.00     0.148 A 
ATOM     80  C   UNL A   1      36.014  31.173  32.031  1.00  0.00     0.002 A 
ATOM     81  C   UNL A   1      35.708  32.548  30.064  1.00  0.00     0.091 A 
ATOM     82  F   UNL A   1      37.559  32.923  28.595  1.00  0.00    -0.205 F 
ATOM     83  C   UNL A   1      35.192  31.952  31.227  1.00  0.00     0.022 A 
BRANCH  81  84
ATOM     84  S   UNL A   1      34.570  33.579  29.130  1.00  0.00     0.127 S 
ATOM     85  O   UNL A   1      35.470  34.602  28.597  1.00  0.00    -0.237 OA
ATOM     86  O   UNL A   1      34.050  32.645  28.132  1.00  0.00    -0.237 OA
ATOM     87  O   UNL A   1      33.591  34.067  30.091  1.00  0.00    -0.744 OA
ENDBRANCH  81  84
ENDBRANCH  63  77
BRANCH  64  88
ATOM     88  C   UNL A   1      47.561  30.272  28.696  1.00  0.00     0.023 A 
ATOM     89  C   UNL A   1      47.955  30.527  27.376  1.00  0.00     0.012 A 
ATOM     90  C   UNL A   1      48.538  29.939  29.665  1.00  0.00     0.148 A 
ATOM     91  C   UNL A   1      49.306  30.460  27.030  1.00  0.00     0.002 A 
ATOM     92  C   UNL A   1      49.881  29.964  29.332  1.00  0.00     0.091 A 
ATOM     93  F   UNL A   1      48.133  29.667  30.915  1.00  0.00    -0.205 F 
ATOM     94  C   UNL A   1      50.268  30.206  28.009  1.00  0.00     0.022 A 
BRANCH  92  95
ATOM     95  S   UNL A   1      51.159  29.850  30.590  1.00  0.00     0.127 S 
ATOM     96  O   UNL A   1      50.758  30.900  31.521  1.00  0.00    -0.237 OA
ATOM     97  O   UNL A   1      50.984  28.484  31.087  1.00  0.00    -0.237 OA
ATOM     98  O   UNL A   1      52.417  30.063  29.884  1.00  0.00    -0.744 OA
ENDBRANCH  92  95
ENDBRANCH  64  88
BRANCH  76  99
ATOM     99  C   UNL A   1      43.685  35.725  30.700  1.00  0.00     0.023 A 
ATOM    100  C   UNL A   1      44.206  36.152  31.936  1.00  0.00     0.012 A 
ATOM    101  C   UNL A   1      43.492  36.656  29.665  1.00  0.00     0.148 A 
ATOM    102  C   UNL A   1      44.493  37.498  32.149  1.00  0.00     0.002 A 
ATOM    103  C   UNL A   1      43.841  37.983  29.862  1.00  0.00     0.091 A 
ATOM    104  F   UNL A   1      42.962  36.229  28.509  1.00  0.00    -0.205 F 
ATOM    105  C   UNL A   1      44.324  38.410  31.109  1.00  0.00     0.022 A 
BRANCH 103 106
ATOM    106  S   UNL A   1      43.763  39.188  28.537  1.00  0.00     0.127 S 
ATOM    107  O   UNL A   1      42.325  39.268  28.290  1.00  0.00    -0.237 OA
ATOM    108  O   UNL A   1      44.343  40.376  29.165  1.00  0.00    -0.237 OA
ATOM    109  O   UNL A   1      44.558  38.636  27.448  1.00  0.00    -0.744 OA
ENDBRANCH 103 106
ENDBRANCH  76  99
ENDBRANCH  50  51
ENDBRANCH  43  45
ENDBRANCH  42  43
ENDBRANCH  41  42
ENDBRANCH  40  41
ENDBRANCH  39  40
ENDBRANCH  37  39
ENDBRANCH   1  37
TORSDOF 27
ENDMDL
MODEL 3
REMARK VINA RESULT:      -9.9      1.568      2.542
REMARK SMILES CC(C)C[C@H](NC(=O)CNC(=O)[C@@H](NC(=O)OCc1ccccc1)C(C)C)C(=O)N[C@@H](C)C(=O)OCCOC(=O)c1ccc(-c2c3nc(c(-c4cccc(S(=O)(=O)[O-])c4F)c4ccc([nH]4)c(-c4cccc(S(=O)(=O)[O-])c4F)c4nc(c(-c5cccc(S(=O)(=O)[O-])c5F)c5ccc2[nH]5)C=C4)C=C3)cc1
REMARK SMILES IDX 31 1 32 2 30 3 28 4 29 5 5 7 4 8 2 9 1 10 3 11 6 12 7 13
REMARK SMILES IDX 8 15 9 16 10 17 11 18 12 20 13 21 14 22 15 23 16 25 17 26
REMARK SMILES IDX 18 27 19 28 20 29 24 30 21 31 23 32 22 33 25 34 26 35 27 36
REMARK SMILES IDX 33 37 34 38 35 39 36 40 37 41 38 42 39 43 40 44 41 45 42 46
REMARK SMILES IDX 103 47 43 48 102 49 44 50 45 51 46 52 96 53 47 54 101 55
REMARK SMILES IDX 95 56 97 57 48 58 100 59 94 60 93 61 49 63 81 64 61 65 80 66
REMARK SMILES IDX 62 67 65 68 79 69 98 70 63 71 64 72 78 74 99 75 66 76 50 77
REMARK SMILES IDX 51 78 59 79 52 80 54 81 60 82 53 83 55 84 56 85 57 86 58 87
REMARK SMILES IDX 82 88 83 89 91 90 84 91 86 92 92 93 85 94 87 95 88 96 89 97
REMARK SMILES IDX 90 98 67 99 68 100 76 101 69 102 71 103 77 104 70 105 72 106
REMARK SMILES IDX 73 107 74 108 75 109
REMARK H PARENT 30 6 6 14 10 19 14 24 97 62 65 73
REMARK Flexibility Score: inf
ROOT
ATOM      1  C   UNL A   1      36.621  21.016  25.945  1.00  0.00     0.189 C 
ATOM      2  C   UNL A   1      36.112  20.321  24.684  1.00  0.00     0.043 C 
ENDROOT
BRANCH   1   3
ATOM      3  N   UNL A   1      35.465  21.376  26.785  1.00  0.00    -0.341 N 
ATOM      4  C   UNL A   1      34.206  21.775  26.435  1.00  0.00     0.243 C 
ATOM      5  O   UNL A   1      33.445  22.154  27.330  1.00  0.00    -0.273 OA
ATOM      6  H   UNL A   1      35.625  21.320  27.754  1.00  0.00     0.164 HD
BRANCH   4   7
ATOM      7  C   UNL A   1      33.696  21.598  24.996  1.00  0.00     0.171 C 
BRANCH   7   8
ATOM      8  C   UNL A   1      33.768  20.113  24.677  1.00  0.00     0.038 C 
BRANCH   8   9
ATOM      9  C   UNL A   1      32.493  19.248  24.562  1.00  0.00    -0.015 C 
ATOM     10  C   UNL A   1      32.307  18.700  23.147  1.00  0.00     0.007 C 
ATOM     11  C   UNL A   1      32.567  18.046  25.521  1.00  0.00     0.007 C 
ENDBRANCH   8   9
ENDBRANCH   7   8
BRANCH   7  12
ATOM     12  N   UNL A   1      34.416  22.556  24.114  1.00  0.00    -0.343 N 
ATOM     13  C   UNL A   1      34.253  23.301  22.997  1.00  0.00     0.240 C 
ATOM     14  H   UNL A   1      35.326  22.695  24.463  1.00  0.00     0.164 HD
ATOM     15  O   UNL A   1      35.085  24.216  22.880  1.00  0.00    -0.273 OA
BRANCH  13  16
ATOM     16  C   UNL A   1      33.144  23.199  21.944  1.00  0.00     0.216 C 
BRANCH  16  17
ATOM     17  N   UNL A   1      31.850  23.663  22.356  1.00  0.00    -0.345 N 
ATOM     18  C   UNL A   1      31.400  24.575  23.237  1.00  0.00     0.243 C 
ATOM     19  H   UNL A   1      31.118  23.206  21.882  1.00  0.00     0.164 HD
ATOM     20  O   UNL A   1      30.185  24.539  23.454  1.00  0.00    -0.273 OA
BRANCH  18  21
ATOM     21  C   UNL A   1      32.214  25.562  24.083  1.00  0.00     0.177 C 
BRANCH  21  22
ATOM     22  N   UNL A   1      33.135  26.424  23.371  1.00  0.00    -0.309 N 
ATOM     23  C   UNL A   1      33.001  27.289  22.346  1.00  0.00     0.408 C 
ATOM     24  H   UNL A   1      34.057  26.365  23.709  1.00  0.00     0.167 HD
ATOM     25  O   UNL A   1      33.992  27.643  21.732  1.00  0.00    -0.225 OA
BRANCH  23  26
ATOM     26  O   UNL A   1      31.733  27.689  22.137  1.00  0.00    -0.445 OA
BRANCH  26  27
ATOM     27  C   UNL A   1      31.407  28.921  22.798  1.00  0.00     0.270 C 
BRANCH  27  28
ATOM     28  C   UNL A   1      29.916  29.117  23.021  1.00  0.00    -0.011 A 
ATOM     29  C   UNL A   1      29.080  27.999  23.114  1.00  0.00     0.007 A 
ATOM     30  C   UNL A   1      29.331  30.390  23.114  1.00  0.00     0.007 A 
ATOM     31  C   UNL A   1      27.699  28.159  23.258  1.00  0.00     0.000 A 
ATOM     32  C   UNL A   1      27.953  30.554  23.237  1.00  0.00     0.000 A 
ATOM     33  C   UNL A   1      27.136  29.434  23.309  1.00  0.00     0.000 A 
ENDBRANCH  27  28
ENDBRANCH  26  27
ENDBRANCH  23  26
ENDBRANCH  21  22
BRANCH  21  34
ATOM     34  C   UNL A   1      31.393  25.963  25.324  1.00  0.00     0.015 C 
ATOM     35  C   UNL A   1      31.644  24.923  26.451  1.00  0.00     0.010 C 
ATOM     36  C   UNL A   1      31.702  27.325  25.898  1.00  0.00     0.010 C 
ENDBRANCH  21  34
ENDBRANCH  18  21
ENDBRANCH  16  17
ENDBRANCH  13  16
ENDBRANCH   7  12
ENDBRANCH   4   7
ENDBRANCH   1   3
BRANCH   1  37
ATOM     37  C   UNL A   1      37.553  22.190  25.556  1.00  0.00     0.328 C 
ATOM     38  O   UNL A   1      37.137  23.261  25.124  1.00  0.00    -0.250 OA
BRANCH  37  39
ATOM     39  O   UNL A   1      38.877  21.849  25.619  1.00  0.00    -0.461 OA
BRANCH  39  40
ATOM     40  C   UNL A   1      39.185  20.452  25.372  1.00  0.00     0.274 C 
BRANCH  40  41
ATOM     41  C   UNL A   1      40.252  19.906  26.355  1.00  0.00     0.275 C 
BRANCH  41  42
ATOM     42  O   UNL A   1      41.542  19.483  25.818  1.00  0.00    -0.458 OA
BRANCH  42  43
ATOM     43  C   UNL A   1      42.551  20.365  25.971  1.00  0.00     0.338 C 
ATOM     44  O   UNL A   1      43.704  20.149  25.621  1.00  0.00    -0.246 OA
BRANCH  43  45
ATOM     45  C   UNL A   1      42.255  21.661  26.637  1.00  0.00     0.060 A 
ATOM     46  C   UNL A   1      42.271  22.734  25.756  1.00  0.00     0.016 A 
ATOM     47  C   UNL A   1      42.345  21.926  28.012  1.00  0.00     0.016 A 
ATOM     48  C   UNL A   1      42.595  24.005  26.228  1.00  0.00     0.010 A 
ATOM     49  C   UNL A   1      42.518  23.268  28.486  1.00  0.00     0.010 A 
ATOM     50  C   UNL A   1      42.692  24.345  27.600  1.00  0.00    -0.014 A 
BRANCH  50  51
ATOM     51  C   UNL A   1      42.922  25.819  27.916  1.00  0.00     0.031 A 
ATOM     52  C   UNL A   1      41.873  26.897  28.203  1.00  0.00     0.074 A 
ATOM     53  C   UNL A   1      44.207  26.205  28.090  1.00  0.00     0.049 A 
ATOM     54  N   UNL A   1      41.974  27.951  28.992  1.00  0.00    -0.248 NA
ATOM     55  C   UNL A   1      40.558  26.807  27.566  1.00  0.00     0.031 C 
ATOM     56  C   UNL A   1      45.390  25.380  27.812  1.00  0.00     0.029 A 
ATOM     57  N   UNL A   1      44.740  27.387  28.541  1.00  0.00    -0.354 N 
ATOM     58  C   UNL A   1      40.697  28.516  29.088  1.00  0.00     0.074 A 
ATOM     59  C   UNL A   1      39.859  27.756  28.194  1.00  0.00     0.031 C 
ATOM     60  C   UNL A   1      46.493  26.045  28.152  1.00  0.00     0.029 A 
ATOM     61  C   UNL A   1      46.107  27.413  28.442  1.00  0.00     0.049 A 
ATOM     62  H   UNL A   1      44.201  28.130  28.896  1.00  0.00     0.167 HD
ATOM     63  C   UNL A   1      40.273  29.588  29.811  1.00  0.00     0.034 A 
ATOM     64  C   UNL A   1      46.962  28.447  28.399  1.00  0.00     0.034 A 
ATOM     65  C   UNL A   1      41.157  30.671  30.162  1.00  0.00     0.049 A 
ATOM     66  C   UNL A   1      46.441  29.814  28.653  1.00  0.00     0.074 A 
ATOM     67  C   UNL A   1      40.827  31.932  30.633  1.00  0.00     0.029 A 
ATOM     68  N   UNL A   1      42.508  30.695  29.866  1.00  0.00    -0.354 N 
ATOM     69  N   UNL A   1      45.251  30.170  29.065  1.00  0.00    -0.248 NA
ATOM     70  C   UNL A   1      47.377  30.921  28.448  1.00  0.00     0.031 C 
ATOM     71  C   UNL A   1      41.944  32.760  30.449  1.00  0.00     0.029 A 
ATOM     72  C   UNL A   1      42.990  31.986  29.975  1.00  0.00     0.049 A 
ATOM     73  H   UNL A   1      43.046  29.910  29.616  1.00  0.00     0.167 HD
ATOM     74  C   UNL A   1      45.300  31.548  29.202  1.00  0.00     0.074 A 
ATOM     75  C   UNL A   1      46.642  31.956  28.832  1.00  0.00     0.031 C 
ATOM     76  C   UNL A   1      44.322  32.390  29.610  1.00  0.00     0.034 A 
BRANCH  63  77
ATOM     77  C   UNL A   1      38.804  29.776  30.148  1.00  0.00     0.023 A 
ATOM     78  C   UNL A   1      38.354  29.386  31.431  1.00  0.00     0.012 A 
ATOM     79  C   UNL A   1      37.914  30.479  29.316  1.00  0.00     0.148 A 
ATOM     80  C   UNL A   1      37.041  29.626  31.852  1.00  0.00     0.002 A 
ATOM     81  C   UNL A   1      36.612  30.740  29.748  1.00  0.00     0.091 A 
ATOM     82  F   UNL A   1      38.365  30.904  28.128  1.00  0.00    -0.205 F 
ATOM     83  C   UNL A   1      36.170  30.304  31.009  1.00  0.00     0.022 A 
BRANCH  81  84
ATOM     84  S   UNL A   1      35.418  31.656  28.764  1.00  0.00     0.127 S 
ATOM     85  O   UNL A   1      34.803  30.585  27.979  1.00  0.00    -0.237 OA
ATOM     86  O   UNL A   1      34.550  32.236  29.788  1.00  0.00    -0.237 OA
ATOM     87  O   UNL A   1      36.190  32.617  27.989  1.00  0.00    -0.744 OA
ENDBRANCH  81  84
ENDBRANCH  63  77
BRANCH  64  88
ATOM     88  C   UNL A   1      48.341  28.181  27.909  1.00  0.00     0.023 A 
ATOM     89  C   UNL A   1      49.391  27.962  28.810  1.00  0.00     0.012 A 
ATOM     90  C   UNL A   1      48.566  28.018  26.521  1.00  0.00     0.148 A 
ATOM     91  C   UNL A   1      50.646  27.577  28.335  1.00  0.00     0.002 A 
ATOM     92  C   UNL A   1      49.787  27.549  26.068  1.00  0.00     0.091 A 
ATOM     93  F   UNL A   1      47.554  28.264  25.675  1.00  0.00    -0.205 F 
ATOM     94  C   UNL A   1      50.837  27.345  26.972  1.00  0.00     0.022 A 
BRANCH  92  95
ATOM     95  S   UNL A   1      50.018  27.039  24.360  1.00  0.00     0.127 S 
ATOM     96  O   UNL A   1      48.964  26.042  24.199  1.00  0.00    -0.237 OA
ATOM     97  O   UNL A   1      49.800  28.291  23.631  1.00  0.00    -0.237 OA
ATOM     98  O   UNL A   1      51.388  26.545  24.286  1.00  0.00    -0.744 OA
ENDBRANCH  92  95
ENDBRANCH  64  88
BRANCH  76  99
ATOM     99  C   UNL A   1      44.675  33.844  29.717  1.00  0.00     0.023 A 
ATOM    100  C   UNL A   1      45.138  34.381  30.933  1.00  0.00     0.012 A 
ATOM    101  C   UNL A   1      44.575  34.669  28.583  1.00  0.00     0.148 A 
ATOM    102  C   UNL A   1      45.458  35.733  31.026  1.00  0.00     0.002 A 
ATOM    103  C   UNL A   1      44.957  35.998  28.666  1.00  0.00     0.091 A 
ATOM    104  F   UNL A   1      44.098  34.140  27.446  1.00  0.00    -0.205 F 
ATOM    105  C   UNL A   1      45.382  36.538  29.890  1.00  0.00     0.022 A 
BRANCH 103 106
ATOM    106  S   UNL A   1      44.999  37.062  27.223  1.00  0.00     0.127 S 
ATOM    107  O   UNL A   1      43.576  37.205  26.917  1.00  0.00    -0.237 OA
ATOM    108  O   UNL A   1      45.635  38.270  27.748  1.00  0.00    -0.237 OA
ATOM    109  O   UNL A   1      45.788  36.352  26.226  1.00  0.00    -0.744 OA
ENDBRANCH 103 106
ENDBRANCH  76  99
ENDBRANCH  50  51
ENDBRANCH  43  45
ENDBRANCH  42  43
ENDBRANCH  41  42
ENDBRANCH  40  41
ENDBRANCH  39  40
ENDBRANCH  37  39
ENDBRANCH   1  37
TORSDOF 27
ENDMDL
