MODEL 1
REMARK VINA RESULT:     -11.1      0.000      0.000
REMARK SMILES CC[C@@H](C)N(C)C(=O)N1[C@@H](C(=O)OCCOC(=O)c2ccc(-c3c4nc(c(-c5cccc(S(=O)(=O)[O-])c5F)c5ccc([nH]5)c(-c5cccc(S(=O)(=O)[O-])c5F)c5nc(c(-c6cccc(S(=O)(=O)[O-])c6F)c6ccc3[nH]6)C=C5)C=C4)cc2)CC[C@H]2CCCC[C@H]21
REMARK SMILES IDX 14 1 13 2 11 3 12 4 10 5 9 6 89 7 82 8 84 9 88 10 83 11
REMARK SMILES IDX 85 12 87 13 86 14 7 15 8 16 5 17 6 18 3 19 4 20 2 21 1 22
REMARK SMILES IDX 15 23 16 24 17 25 18 26 19 27 20 28 81 29 21 30 80 31 22 32
REMARK SMILES IDX 23 33 24 34 74 35 25 36 79 37 73 38 75 39 26 40 78 41 72 42
REMARK SMILES IDX 71 43 27 45 59 46 39 47 58 48 40 49 43 50 57 51 76 52 41 53
REMARK SMILES IDX 42 54 56 56 77 57 44 58 28 59 29 60 37 61 30 62 32 63 38 64
REMARK SMILES IDX 31 65 33 66 34 67 35 68 36 69 60 70 61 71 69 72 62 73 64 74
REMARK SMILES IDX 70 75 63 76 65 77 66 78 67 79 68 80 45 81 46 82 54 83 47 84
REMARK SMILES IDX 49 85 55 86 48 87 50 88 51 89 52 90 53 91
REMARK H PARENT 75 44 43 55
REMARK Flexibility Score: inf
ROOT
ATOM      1  C   UNL A   1      31.719  28.771  27.265  1.00  0.00     0.274 C 
ENDROOT
BRANCH   1   2
ATOM      2  O   UNL A   1      32.340  27.805  26.397  1.00  0.00    -0.461 OA
BRANCH   2   3
ATOM      3  C   UNL A   1      31.771  26.568  26.403  1.00  0.00     0.329 C 
ATOM      4  O   UNL A   1      30.628  26.342  26.788  1.00  0.00    -0.250 OA
BRANCH   3   5
ATOM      5  C   UNL A   1      32.731  25.467  25.911  1.00  0.00     0.197 C 
ATOM      6  N   UNL A   1      32.753  25.144  24.473  1.00  0.00    -0.308 N 
ATOM      7  C   UNL A   1      33.759  24.150  24.058  1.00  0.00     0.091 C 
ATOM      8  C   UNL A   1      32.679  24.207  26.780  1.00  0.00     0.038 C 
ATOM      9  C   UNL A   1      33.861  22.906  24.962  1.00  0.00     0.012 C 
ATOM     10  C   UNL A   1      33.770  23.747  22.580  1.00  0.00     0.025 C 
ATOM     11  C   UNL A   1      33.853  23.288  26.448  1.00  0.00     0.008 C 
ATOM     12  C   UNL A   1      32.842  21.798  24.674  1.00  0.00     0.006 C 
ATOM     13  C   UNL A   1      32.891  22.556  22.193  1.00  0.00     0.002 C 
ATOM     14  C   UNL A   1      32.164  21.826  23.315  1.00  0.00     0.000 C 
BRANCH   6  15
ATOM     15  C   UNL A   1      31.648  25.434  23.702  1.00  0.00     0.320 C 
ATOM     16  O   UNL A   1      30.601  24.804  23.813  1.00  0.00    -0.248 OA
BRANCH  15  17
ATOM     17  N   UNL A   1      31.818  26.440  22.756  1.00  0.00    -0.325 N 
ATOM     18  C   UNL A   1      31.955  26.187  21.318  1.00  0.00     0.149 C 
BRANCH  17  19
ATOM     19  C   UNL A   1      31.533  27.844  23.112  1.00  0.00     0.083 C 
ATOM     20  C   UNL A   1      30.203  28.362  22.548  1.00  0.00     0.031 C 
BRANCH  19  21
ATOM     21  C   UNL A   1      32.733  28.742  22.759  1.00  0.00     0.021 C 
ATOM     22  C   UNL A   1      34.028  28.322  23.436  1.00  0.00     0.006 C 
ENDBRANCH  19  21
ENDBRANCH  17  19
ENDBRANCH  15  17
ENDBRANCH   6  15
ENDBRANCH   3   5
ENDBRANCH   2   3
ENDBRANCH   1   2
BRANCH   1  23
ATOM     23  C   UNL A   1      31.745  30.191  26.687  1.00  0.00     0.275 C 
BRANCH  23  24
ATOM     24  O   UNL A   1      33.081  30.630  26.370  1.00  0.00    -0.458 OA
BRANCH  24  25
ATOM     25  C   UNL A   1      33.589  31.564  27.205  1.00  0.00     0.338 C 
ATOM     26  O   UNL A   1      32.994  32.539  27.652  1.00  0.00    -0.246 OA
BRANCH  25  27
ATOM     27  C   UNL A   1      34.923  31.170  27.689  1.00  0.00     0.060 A 
ATOM     28  C   UNL A   1      35.156  29.805  27.889  1.00  0.00     0.016 A 
ATOM     29  C   UNL A   1      35.904  32.106  28.021  1.00  0.00     0.016 A 
ATOM     30  C   UNL A   1      36.363  29.362  28.415  1.00  0.00     0.010 A 
ATOM     31  C   UNL A   1      37.110  31.663  28.581  1.00  0.00     0.010 A 
ATOM     32  C   UNL A   1      37.333  30.291  28.798  1.00  0.00    -0.014 A 
BRANCH  32  33
ATOM     33  C   UNL A   1      38.506  29.811  29.567  1.00  0.00     0.031 A 
ATOM     34  C   UNL A   1      38.652  30.235  31.002  1.00  0.00     0.074 A 
ATOM     35  C   UNL A   1      39.388  28.960  29.015  1.00  0.00     0.049 A 
ATOM     36  N   UNL A   1      39.594  29.942  31.859  1.00  0.00    -0.248 NA
ATOM     37  C   UNL A   1      37.590  31.098  31.545  1.00  0.00     0.031 C 
ATOM     38  C   UNL A   1      39.322  28.444  27.648  1.00  0.00     0.029 A 
ATOM     39  N   UNL A   1      40.518  28.384  29.538  1.00  0.00    -0.354 N 
ATOM     40  C   UNL A   1      39.258  30.607  33.031  1.00  0.00     0.074 A 
ATOM     41  C   UNL A   1      38.027  31.323  32.776  1.00  0.00     0.031 C 
ATOM     42  C   UNL A   1      40.378  27.642  27.434  1.00  0.00     0.029 A 
ATOM     43  C   UNL A   1      41.207  27.608  28.637  1.00  0.00     0.049 A 
ATOM     44  H   UNL A   1      40.807  28.514  30.471  1.00  0.00     0.167 HD
ATOM     45  C   UNL A   1      39.908  30.612  34.219  1.00  0.00     0.034 A 
ATOM     46  C   UNL A   1      42.383  26.961  28.767  1.00  0.00     0.034 A 
ATOM     47  C   UNL A   1      41.119  29.882  34.478  1.00  0.00     0.049 A 
ATOM     48  C   UNL A   1      43.101  27.009  30.091  1.00  0.00     0.074 A 
ATOM     49  C   UNL A   1      41.853  29.818  35.648  1.00  0.00     0.029 A 
ATOM     50  N   UNL A   1      41.774  29.088  33.550  1.00  0.00    -0.354 N 
ATOM     51  N   UNL A   1      42.734  27.581  31.212  1.00  0.00    -0.248 NA
ATOM     52  C   UNL A   1      44.384  26.295  30.177  1.00  0.00     0.031 C 
ATOM     53  C   UNL A   1      42.963  28.994  35.423  1.00  0.00     0.029 A 
ATOM     54  C   UNL A   1      42.907  28.529  34.119  1.00  0.00     0.049 A 
ATOM     55  H   UNL A   1      41.479  28.942  32.622  1.00  0.00     0.167 HD
ATOM     56  C   UNL A   1      43.718  27.270  32.143  1.00  0.00     0.074 A 
ATOM     57  C   UNL A   1      44.687  26.435  31.460  1.00  0.00     0.031 C 
ATOM     58  C   UNL A   1      43.825  27.652  33.440  1.00  0.00     0.034 A 
BRANCH  45  59
ATOM     59  C   UNL A   1      39.305  31.422  35.335  1.00  0.00     0.023 A 
ATOM     60  C   UNL A   1      38.349  30.832  36.187  1.00  0.00     0.012 A 
ATOM     61  C   UNL A   1      39.703  32.754  35.559  1.00  0.00     0.148 A 
ATOM     62  C   UNL A   1      37.777  31.564  37.226  1.00  0.00     0.002 A 
ATOM     63  C   UNL A   1      39.157  33.465  36.622  1.00  0.00     0.091 A 
ATOM     64  F   UNL A   1      40.592  33.305  34.721  1.00  0.00    -0.205 F 
ATOM     65  C   UNL A   1      38.188  32.875  37.450  1.00  0.00     0.022 A 
BRANCH  63  66
ATOM     66  S   UNL A   1      39.670  35.137  37.031  1.00  0.00     0.127 S 
ATOM     67  O   UNL A   1      38.904  35.391  38.250  1.00  0.00    -0.237 OA
ATOM     68  O   UNL A   1      41.110  34.976  37.238  1.00  0.00    -0.237 OA
ATOM     69  O   UNL A   1      39.312  35.958  35.882  1.00  0.00    -0.744 OA
ENDBRANCH  63  66
ENDBRANCH  45  59
BRANCH  46  70
ATOM     70  C   UNL A   1      42.942  26.183  27.624  1.00  0.00     0.023 A 
ATOM     71  C   UNL A   1      43.935  26.762  26.809  1.00  0.00     0.012 A 
ATOM     72  C   UNL A   1      42.499  24.876  27.342  1.00  0.00     0.148 A 
ATOM     73  C   UNL A   1      44.452  26.065  25.715  1.00  0.00     0.002 A 
ATOM     74  C   UNL A   1      43.059  24.168  26.285  1.00  0.00     0.091 A 
ATOM     75  F   UNL A   1      41.537  24.351  28.112  1.00  0.00    -0.205 F 
ATOM     76  C   UNL A   1      44.023  24.766  25.460  1.00  0.00     0.022 A 
BRANCH  74  77
ATOM     77  S   UNL A   1      42.655  22.446  25.966  1.00  0.00     0.127 S 
ATOM     78  O   UNL A   1      43.350  21.768  27.057  1.00  0.00    -0.237 OA
ATOM     79  O   UNL A   1      41.195  22.452  26.072  1.00  0.00    -0.237 OA
ATOM     80  O   UNL A   1      43.153  22.172  24.625  1.00  0.00    -0.744 OA
ENDBRANCH  74  77
ENDBRANCH  46  70
BRANCH  58  81
ATOM     81  C   UNL A   1      45.011  27.145  34.220  1.00  0.00     0.023 A 
ATOM     82  C   UNL A   1      46.195  27.906  34.265  1.00  0.00     0.012 A 
ATOM     83  C   UNL A   1      44.928  25.948  34.959  1.00  0.00     0.148 A 
ATOM     84  C   UNL A   1      47.294  27.464  35.003  1.00  0.00     0.002 A 
ATOM     85  C   UNL A   1      46.011  25.539  35.730  1.00  0.00     0.091 A 
ATOM     86  F   UNL A   1      43.801  25.225  34.887  1.00  0.00    -0.205 F 
ATOM     87  C   UNL A   1      47.197  26.289  35.745  1.00  0.00     0.022 A 
BRANCH  85  88
ATOM     88  S   UNL A   1      45.933  24.088  36.787  1.00  0.00     0.127 S 
ATOM     89  O   UNL A   1      47.262  24.090  37.396  1.00  0.00    -0.237 OA
ATOM     90  O   UNL A   1      44.842  24.424  37.703  1.00  0.00    -0.237 OA
ATOM     91  O   UNL A   1      45.646  22.969  35.900  1.00  0.00    -0.744 OA
ENDBRANCH  85  88
ENDBRANCH  58  81
ENDBRANCH  32  33
ENDBRANCH  25  27
ENDBRANCH  24  25
ENDBRANCH  23  24
ENDBRANCH   1  23
TORSDOF 18
ENDMDL
MODEL 2
REMARK VINA RESULT:     -10.9      5.163      7.696
REMARK SMILES CC[C@@H](C)N(C)C(=O)N1[C@@H](C(=O)OCCOC(=O)c2ccc(-c3c4nc(c(-c5cccc(S(=O)(=O)[O-])c5F)c5ccc([nH]5)c(-c5cccc(S(=O)(=O)[O-])c5F)c5nc(c(-c6cccc(S(=O)(=O)[O-])c6F)c6ccc3[nH]6)C=C5)C=C4)cc2)CC[C@H]2CCCC[C@H]21
REMARK SMILES IDX 14 1 13 2 11 3 12 4 10 5 9 6 89 7 82 8 84 9 88 10 83 11
REMARK SMILES IDX 85 12 87 13 86 14 7 15 8 16 5 17 6 18 3 19 4 20 2 21 1 22
REMARK SMILES IDX 15 23 16 24 17 25 18 26 19 27 20 28 81 29 21 30 80 31 22 32
REMARK SMILES IDX 23 33 24 34 74 35 25 36 79 37 73 38 75 39 26 40 78 41 72 42
REMARK SMILES IDX 71 43 27 45 59 46 39 47 58 48 40 49 43 50 57 51 76 52 41 53
REMARK SMILES IDX 42 54 56 56 77 57 44 58 28 59 29 60 37 61 30 62 32 63 38 64
REMARK SMILES IDX 31 65 33 66 34 67 35 68 36 69 60 70 61 71 69 72 62 73 64 74
REMARK SMILES IDX 70 75 63 76 65 77 66 78 67 79 68 80 45 81 46 82 54 83 47 84
REMARK SMILES IDX 49 85 55 86 48 87 50 88 51 89 52 90 53 91
REMARK H PARENT 75 44 43 55
REMARK Flexibility Score: inf
ROOT
ATOM      1  C   UNL A   1      35.724  21.733  24.372  1.00  0.00     0.274 C 
ENDROOT
BRANCH   1   2
ATOM      2  O   UNL A   1      35.584  23.163  24.466  1.00  0.00    -0.461 OA
BRANCH   2   3
ATOM      3  C   UNL A   1      34.778  23.730  23.527  1.00  0.00     0.329 C 
ATOM      4  O   UNL A   1      34.677  23.323  22.374  1.00  0.00    -0.250 OA
BRANCH   3   5
ATOM      5  C   UNL A   1      34.032  24.972  24.054  1.00  0.00     0.197 C 
ATOM      6  N   UNL A   1      32.805  24.773  24.847  1.00  0.00    -0.308 N 
ATOM      7  C   UNL A   1      32.196  25.996  25.398  1.00  0.00     0.091 C 
ATOM      8  C   UNL A   1      33.850  26.050  22.981  1.00  0.00     0.038 C 
ATOM      9  C   UNL A   1      32.096  27.177  24.413  1.00  0.00     0.012 C 
ATOM     10  C   UNL A   1      30.887  25.831  26.177  1.00  0.00     0.025 C 
ATOM     11  C   UNL A   1      33.398  27.362  23.622  1.00  0.00     0.008 C 
ATOM     12  C   UNL A   1      30.883  27.153  23.476  1.00  0.00     0.006 C 
ATOM     13  C   UNL A   1      29.594  25.927  25.364  1.00  0.00     0.002 C 
ATOM     14  C   UNL A   1      29.718  26.269  23.886  1.00  0.00     0.000 C 
BRANCH   6  15
ATOM     15  C   UNL A   1      32.094  23.601  24.701  1.00  0.00     0.320 C 
ATOM     16  O   UNL A   1      31.189  23.494  23.881  1.00  0.00    -0.248 OA
BRANCH  15  17
ATOM     17  N   UNL A   1      32.431  22.576  25.581  1.00  0.00    -0.325 N 
ATOM     18  C   UNL A   1      32.761  22.795  26.993  1.00  0.00     0.149 C 
BRANCH  17  19
ATOM     19  C   UNL A   1      32.147  21.173  25.223  1.00  0.00     0.083 C 
ATOM     20  C   UNL A   1      32.901  20.154  26.087  1.00  0.00     0.031 C 
BRANCH  19  21
ATOM     21  C   UNL A   1      32.345  20.954  23.712  1.00  0.00     0.021 C 
ATOM     22  C   UNL A   1      32.527  19.495  23.326  1.00  0.00     0.006 C 
ENDBRANCH  19  21
ENDBRANCH  17  19
ENDBRANCH  15  17
ENDBRANCH   6  15
ENDBRANCH   3   5
ENDBRANCH   2   3
ENDBRANCH   1   2
BRANCH   1  23
ATOM     23  C   UNL A   1      37.174  21.266  24.546  1.00  0.00     0.275 C 
BRANCH  23  24
ATOM     24  O   UNL A   1      37.595  21.282  25.925  1.00  0.00    -0.458 OA
BRANCH  24  25
ATOM     25  C   UNL A   1      38.926  21.152  26.117  1.00  0.00     0.338 C 
ATOM     26  O   UNL A   1      39.624  20.209  25.759  1.00  0.00    -0.246 OA
BRANCH  25  27
ATOM     27  C   UNL A   1      39.506  22.394  26.656  1.00  0.00     0.060 A 
ATOM     28  C   UNL A   1      39.036  23.603  26.130  1.00  0.00     0.016 A 
ATOM     29  C   UNL A   1      40.540  22.391  27.594  1.00  0.00     0.016 A 
ATOM     30  C   UNL A   1      39.587  24.813  26.532  1.00  0.00     0.010 A 
ATOM     31  C   UNL A   1      41.119  23.609  27.977  1.00  0.00     0.010 A 
ATOM     32  C   UNL A   1      40.657  24.821  27.431  1.00  0.00    -0.014 A 
BRANCH  32  33
ATOM     33  C   UNL A   1      41.375  26.096  27.663  1.00  0.00     0.031 A 
ATOM     34  C   UNL A   1      40.686  27.183  28.440  1.00  0.00     0.074 A 
ATOM     35  C   UNL A   1      42.644  26.255  27.247  1.00  0.00     0.049 A 
ATOM     36  N   UNL A   1      41.119  28.375  28.757  1.00  0.00    -0.248 NA
ATOM     37  C   UNL A   1      39.330  26.884  28.930  1.00  0.00     0.031 C 
ATOM     38  C   UNL A   1      43.429  25.254  26.527  1.00  0.00     0.029 A 
ATOM     39  N   UNL A   1      43.492  27.326  27.366  1.00  0.00    -0.354 N 
ATOM     40  C   UNL A   1      40.082  28.980  29.455  1.00  0.00     0.074 A 
ATOM     41  C   UNL A   1      38.995  28.025  29.513  1.00  0.00     0.031 C 
ATOM     42  C   UNL A   1      44.640  25.766  26.251  1.00  0.00     0.029 A 
ATOM     43  C   UNL A   1      44.707  27.137  26.751  1.00  0.00     0.049 A 
ATOM     44  H   UNL A   1      43.255  28.152  27.848  1.00  0.00     0.167 HD
ATOM     45  C   UNL A   1      40.041  30.213  30.012  1.00  0.00     0.034 A 
ATOM     46  C   UNL A   1      45.744  27.984  26.595  1.00  0.00     0.034 A 
ATOM     47  C   UNL A   1      41.130  31.151  29.973  1.00  0.00     0.049 A 
ATOM     48  C   UNL A   1      45.659  29.363  27.197  1.00  0.00     0.074 A 
ATOM     49  C   UNL A   1      41.188  32.425  30.509  1.00  0.00     0.029 A 
ATOM     50  N   UNL A   1      42.351  30.916  29.363  1.00  0.00    -0.354 N 
ATOM     51  N   UNL A   1      44.701  29.894  27.918  1.00  0.00    -0.248 NA
ATOM     52  C   UNL A   1      46.814  30.250  26.990  1.00  0.00     0.031 C 
ATOM     53  C   UNL A   1      42.445  32.966  30.210  1.00  0.00     0.029 A 
ATOM     54  C   UNL A   1      43.174  32.021  29.506  1.00  0.00     0.049 A 
ATOM     55  H   UNL A   1      42.598  30.086  28.895  1.00  0.00     0.167 HD
ATOM     56  C   UNL A   1      45.149  31.161  28.278  1.00  0.00     0.074 A 
ATOM     57  C   UNL A   1      46.477  31.307  27.717  1.00  0.00     0.031 C 
ATOM     58  C   UNL A   1      44.515  32.124  28.992  1.00  0.00     0.034 A 
BRANCH  45  59
ATOM     59  C   UNL A   1      38.777  30.608  30.726  1.00  0.00     0.023 A 
ATOM     60  C   UNL A   1      38.646  30.348  32.106  1.00  0.00     0.012 A 
ATOM     61  C   UNL A   1      37.733  31.263  30.044  1.00  0.00     0.148 A 
ATOM     62  C   UNL A   1      37.483  30.705  32.788  1.00  0.00     0.002 A 
ATOM     63  C   UNL A   1      36.593  31.651  30.740  1.00  0.00     0.091 A 
ATOM     64  F   UNL A   1      37.865  31.476  28.728  1.00  0.00    -0.205 F 
ATOM     65  C   UNL A   1      36.463  31.364  32.108  1.00  0.00     0.022 A 
BRANCH  63  66
ATOM     66  S   UNL A   1      35.254  32.564  29.966  1.00  0.00     0.127 S 
ATOM     67  O   UNL A   1      34.795  31.614  28.954  1.00  0.00    -0.237 OA
ATOM     68  O   UNL A   1      34.328  32.760  31.083  1.00  0.00    -0.237 OA
ATOM     69  O   UNL A   1      35.850  33.790  29.451  1.00  0.00    -0.744 OA
ENDBRANCH  63  66
ENDBRANCH  45  59
BRANCH  46  70
ATOM     70  C   UNL A   1      46.969  27.545  25.865  1.00  0.00     0.023 A 
ATOM     71  C   UNL A   1      47.971  26.834  26.553  1.00  0.00     0.012 A 
ATOM     72  C   UNL A   1      47.144  27.825  24.495  1.00  0.00     0.148 A 
ATOM     73  C   UNL A   1      49.139  26.438  25.899  1.00  0.00     0.002 A 
ATOM     74  C   UNL A   1      48.284  27.380  23.837  1.00  0.00     0.091 A 
ATOM     75  F   UNL A   1      46.192  28.524  23.863  1.00  0.00    -0.205 F 
ATOM     76  C   UNL A   1      49.291  26.701  24.540  1.00  0.00     0.022 A 
BRANCH  74  77
ATOM     77  S   UNL A   1      48.500  27.565  22.063  1.00  0.00     0.127 S 
ATOM     78  O   UNL A   1      49.715  28.371  21.992  1.00  0.00    -0.237 OA
ATOM     79  O   UNL A   1      48.655  26.175  21.629  1.00  0.00    -0.237 OA
ATOM     80  O   UNL A   1      47.281  28.205  21.588  1.00  0.00    -0.744 OA
ENDBRANCH  74  77
ENDBRANCH  46  70
BRANCH  58  81
ATOM     81  C   UNL A   1      45.260  33.410  29.239  1.00  0.00     0.023 A 
ATOM     82  C   UNL A   1      46.044  33.552  30.401  1.00  0.00     0.012 A 
ATOM     83  C   UNL A   1      45.235  34.451  28.290  1.00  0.00     0.148 A 
ATOM     84  C   UNL A   1      46.761  34.726  30.633  1.00  0.00     0.002 A 
ATOM     85  C   UNL A   1      45.990  35.599  28.506  1.00  0.00     0.091 A 
ATOM     86  F   UNL A   1      44.466  34.308  27.200  1.00  0.00    -0.205 F 
ATOM     87  C   UNL A   1      46.744  35.743  29.681  1.00  0.00     0.022 A 
BRANCH  85  88
ATOM     88  S   UNL A   1      46.095  36.913  27.286  1.00  0.00     0.127 S 
ATOM     89  O   UNL A   1      47.001  37.856  27.939  1.00  0.00    -0.237 OA
ATOM     90  O   UNL A   1      46.665  36.223  26.128  1.00  0.00    -0.237 OA
ATOM     91  O   UNL A   1      44.729  37.381  27.090  1.00  0.00    -0.744 OA
ENDBRANCH  85  88
ENDBRANCH  58  81
ENDBRANCH  32  33
ENDBRANCH  25  27
ENDBRANCH  24  25
ENDBRANCH  23  24
ENDBRANCH   1  23
TORSDOF 18
ENDMDL
MODEL 3
REMARK VINA RESULT:     -10.9      0.904      7.846
REMARK SMILES CC[C@@H](C)N(C)C(=O)N1[C@@H](C(=O)OCCOC(=O)c2ccc(-c3c4nc(c(-c5cccc(S(=O)(=O)[O-])c5F)c5ccc([nH]5)c(-c5cccc(S(=O)(=O)[O-])c5F)c5nc(c(-c6cccc(S(=O)(=O)[O-])c6F)c6ccc3[nH]6)C=C5)C=C4)cc2)CC[C@H]2CCCC[C@H]21
REMARK SMILES IDX 14 1 13 2 11 3 12 4 10 5 9 6 89 7 82 8 84 9 88 10 83 11
REMARK SMILES IDX 85 12 87 13 86 14 7 15 8 16 5 17 6 18 3 19 4 20 2 21 1 22
REMARK SMILES IDX 15 23 16 24 17 25 18 26 19 27 20 28 81 29 21 30 80 31 22 32
REMARK SMILES IDX 23 33 24 34 74 35 25 36 79 37 73 38 75 39 26 40 78 41 72 42
REMARK SMILES IDX 71 43 27 45 59 46 39 47 58 48 40 49 43 50 57 51 76 52 41 53
REMARK SMILES IDX 42 54 56 56 77 57 44 58 28 59 29 60 37 61 30 62 32 63 38 64
REMARK SMILES IDX 31 65 33 66 34 67 35 68 36 69 60 70 61 71 69 72 62 73 64 74
REMARK SMILES IDX 70 75 63 76 65 77 66 78 67 79 68 80 45 81 46 82 54 83 47 84
REMARK SMILES IDX 49 85 55 86 48 87 50 88 51 89 52 90 53 91
REMARK H PARENT 75 44 43 55
REMARK Flexibility Score: inf
ROOT
ATOM      1  C   UNL A   1      32.994  28.877  25.017  1.00  0.00     0.274 C 
ENDROOT
BRANCH   1   2
ATOM      2  O   UNL A   1      33.460  27.984  26.045  1.00  0.00    -0.461 OA
BRANCH   2   3
ATOM      3  C   UNL A   1      32.875  26.754  26.054  1.00  0.00     0.329 C 
ATOM      4  O   UNL A   1      31.843  26.490  26.663  1.00  0.00    -0.250 OA
BRANCH   3   5
ATOM      5  C   UNL A   1      33.671  25.710  25.247  1.00  0.00     0.197 C 
ATOM      6  N   UNL A   1      33.068  25.158  24.020  1.00  0.00    -0.308 N 
ATOM      7  C   UNL A   1      33.921  24.237  23.248  1.00  0.00     0.091 C 
ATOM      8  C   UNL A   1      34.272  24.613  26.132  1.00  0.00     0.038 C 
ATOM      9  C   UNL A   1      34.667  23.180  24.086  1.00  0.00     0.012 C 
ATOM     10  C   UNL A   1      33.303  23.598  22.000  1.00  0.00     0.025 C 
ATOM     11  C   UNL A   1      35.296  23.799  25.341  1.00  0.00     0.008 C 
ATOM     12  C   UNL A   1      33.858  21.926  24.436  1.00  0.00     0.006 C 
ATOM     13  C   UNL A   1      32.583  22.264  22.203  1.00  0.00     0.002 C 
ATOM     14  C   UNL A   1      32.625  21.648  23.594  1.00  0.00     0.000 C 
BRANCH   6  15
ATOM     15  C   UNL A   1      31.697  25.182  23.877  1.00  0.00     0.320 C 
ATOM     16  O   UNL A   1      30.981  24.317  24.369  1.00  0.00    -0.248 OA
BRANCH  15  17
ATOM     17  N   UNL A   1      31.190  26.213  23.091  1.00  0.00    -0.325 N 
ATOM     18  C   UNL A   1      31.378  26.294  21.639  1.00  0.00     0.149 C 
BRANCH  17  19
ATOM     19  C   UNL A   1      30.147  27.108  23.630  1.00  0.00     0.083 C 
ATOM     20  C   UNL A   1      28.803  26.409  23.872  1.00  0.00     0.031 C 
BRANCH  19  21
ATOM     21  C   UNL A   1      30.026  28.375  22.763  1.00  0.00     0.021 C 
ATOM     22  C   UNL A   1      28.707  29.109  22.937  1.00  0.00     0.006 C 
ENDBRANCH  19  21
ENDBRANCH  17  19
ENDBRANCH  15  17
ENDBRANCH   6  15
ENDBRANCH   3   5
ENDBRANCH   2   3
ENDBRANCH   1   2
BRANCH   1  23
ATOM     23  C   UNL A   1      32.184  30.054  25.576  1.00  0.00     0.275 C 
BRANCH  23  24
ATOM     24  O   UNL A   1      32.467  30.303  26.967  1.00  0.00    -0.458 OA
BRANCH  24  25
ATOM     25  C   UNL A   1      33.173  31.428  27.214  1.00  0.00     0.338 C 
ATOM     26  O   UNL A   1      32.755  32.579  27.143  1.00  0.00    -0.246 OA
BRANCH  25  27
ATOM     27  C   UNL A   1      34.496  31.109  27.777  1.00  0.00     0.060 A 
ATOM     28  C   UNL A   1      34.719  29.788  28.181  1.00  0.00     0.016 A 
ATOM     29  C   UNL A   1      35.475  32.083  27.986  1.00  0.00     0.016 A 
ATOM     30  C   UNL A   1      35.913  29.426  28.791  1.00  0.00     0.010 A 
ATOM     31  C   UNL A   1      36.667  31.725  28.631  1.00  0.00     0.010 A 
ATOM     32  C   UNL A   1      36.880  30.400  29.053  1.00  0.00    -0.014 A 
BRANCH  32  33
ATOM     33  C   UNL A   1      38.035  30.038  29.908  1.00  0.00     0.031 A 
ATOM     34  C   UNL A   1      39.075  29.101  29.359  1.00  0.00     0.074 A 
ATOM     35  C   UNL A   1      38.187  30.587  31.125  1.00  0.00     0.049 A 
ATOM     36  N   UNL A   1      40.161  28.646  29.927  1.00  0.00    -0.248 NA
ATOM     37  C   UNL A   1      38.867  28.619  27.983  1.00  0.00     0.031 C 
ATOM     38  C   UNL A   1      37.269  31.543  31.742  1.00  0.00     0.029 A 
ATOM     39  N   UNL A   1      39.172  30.413  32.065  1.00  0.00    -0.354 N 
ATOM     40  C   UNL A   1      40.749  27.802  28.994  1.00  0.00     0.074 A 
ATOM     41  C   UNL A   1      39.899  27.804  27.823  1.00  0.00     0.031 C 
ATOM     42  C   UNL A   1      37.723  31.856  32.967  1.00  0.00     0.029 A 
ATOM     43  C   UNL A   1      38.948  31.105  33.231  1.00  0.00     0.049 A 
ATOM     44  H   UNL A   1      39.963  29.845  31.917  1.00  0.00     0.167 HD
ATOM     45  C   UNL A   1      41.901  27.098  29.096  1.00  0.00     0.034 A 
ATOM     46  C   UNL A   1      39.647  31.115  34.384  1.00  0.00     0.034 A 
ATOM     47  C   UNL A   1      42.756  27.115  30.252  1.00  0.00     0.049 A 
ATOM     48  C   UNL A   1      40.908  30.297  34.481  1.00  0.00     0.074 A 
ATOM     49  C   UNL A   1      43.946  26.440  30.453  1.00  0.00     0.029 A 
ATOM     50  N   UNL A   1      42.511  27.847  31.403  1.00  0.00    -0.354 N 
ATOM     51  N   UNL A   1      41.491  29.562  33.565  1.00  0.00    -0.248 NA
ATOM     52  C   UNL A   1      41.627  30.334  35.764  1.00  0.00     0.031 C 
ATOM     53  C   UNL A   1      44.415  26.754  31.734  1.00  0.00     0.029 A 
ATOM     54  C   UNL A   1      43.527  27.640  32.322  1.00  0.00     0.049 A 
ATOM     55  H   UNL A   1      41.729  28.428  31.548  1.00  0.00     0.167 HD
ATOM     56  C   UNL A   1      42.659  29.078  34.147  1.00  0.00     0.074 A 
ATOM     57  C   UNL A   1      42.713  29.625  35.487  1.00  0.00     0.031 C 
ATOM     58  C   UNL A   1      43.593  28.242  33.629  1.00  0.00     0.034 A 
BRANCH  45  59
ATOM     59  C   UNL A   1      42.309  26.263  27.913  1.00  0.00     0.023 A 
ATOM     60  C   UNL A   1      43.114  26.831  26.903  1.00  0.00     0.012 A 
ATOM     61  C   UNL A   1      41.924  24.913  27.812  1.00  0.00     0.148 A 
ATOM     62  C   UNL A   1      43.503  26.076  25.798  1.00  0.00     0.002 A 
ATOM     63  C   UNL A   1      42.349  24.155  26.726  1.00  0.00     0.091 A 
ATOM     64  F   UNL A   1      41.136  24.400  28.767  1.00  0.00    -0.205 F 
ATOM     65  C   UNL A   1      43.130  24.738  25.714  1.00  0.00     0.022 A 
BRANCH  63  66
ATOM     66  S   UNL A   1      41.975  22.406  26.563  1.00  0.00     0.127 S 
ATOM     67  O   UNL A   1      42.523  21.870  27.807  1.00  0.00    -0.237 OA
ATOM     68  O   UNL A   1      40.513  22.408  26.491  1.00  0.00    -0.237 OA
ATOM     69  O   UNL A   1      42.641  21.967  25.343  1.00  0.00    -0.744 OA
ENDBRANCH  63  66
ENDBRANCH  45  59
BRANCH  46  70
ATOM     70  C   UNL A   1      39.189  31.950  35.532  1.00  0.00     0.023 A 
ATOM     71  C   UNL A   1      38.241  31.432  36.435  1.00  0.00     0.012 A 
ATOM     72  C   UNL A   1      39.690  33.252  35.734  1.00  0.00     0.148 A 
ATOM     73  C   UNL A   1      37.775  32.206  37.499  1.00  0.00     0.002 A 
ATOM     74  C   UNL A   1      39.263  33.996  36.828  1.00  0.00     0.091 A 
ATOM     75  F   UNL A   1      40.572  33.738  34.851  1.00  0.00    -0.205 F 
ATOM     76  C   UNL A   1      38.293  33.482  37.702  1.00  0.00     0.022 A 
BRANCH  74  77
ATOM     77  S   UNL A   1      39.973  35.596  37.234  1.00  0.00     0.127 S 
ATOM     78  O   UNL A   1      39.295  35.915  38.487  1.00  0.00    -0.237 OA
ATOM     79  O   UNL A   1      41.395  35.273  37.366  1.00  0.00    -0.237 OA
ATOM     80  O   UNL A   1      39.661  36.457  36.102  1.00  0.00    -0.744 OA
ENDBRANCH  74  77
ENDBRANCH  46  70
BRANCH  58  81
ATOM     81  C   UNL A   1      44.773  27.894  34.498  1.00  0.00     0.023 A 
ATOM     82  C   UNL A   1      45.914  28.721  34.492  1.00  0.00     0.012 A 
ATOM     83  C   UNL A   1      44.727  26.786  35.367  1.00  0.00     0.148 A 
ATOM     84  C   UNL A   1      47.005  28.428  35.310  1.00  0.00     0.002 A 
ATOM     85  C   UNL A   1      45.799  26.528  36.213  1.00  0.00     0.091 A 
ATOM     86  F   UNL A   1      43.642  25.997  35.343  1.00  0.00    -0.205 F 
ATOM     87  C   UNL A   1      46.943  27.340  36.178  1.00  0.00     0.022 A 
BRANCH  85  88
ATOM     88  S   UNL A   1      45.758  25.203  37.426  1.00  0.00     0.127 S 
ATOM     89  O   UNL A   1      44.463  25.424  38.066  1.00  0.00    -0.237 OA
ATOM     90  O   UNL A   1      45.829  24.006  36.588  1.00  0.00    -0.237 OA
ATOM     91  O   UNL A   1      46.925  25.409  38.274  1.00  0.00    -0.744 OA
ENDBRANCH  85  88
ENDBRANCH  58  81
ENDBRANCH  32  33
ENDBRANCH  25  27
ENDBRANCH  24  25
ENDBRANCH  23  24
ENDBRANCH   1  23
TORSDOF 18
ENDMDL
