MODEL 1
REMARK VINA RESULT:     -12.2      0.000      0.000
REMARK SMILES Cc1cc(N2N=C(C(=O)OCCOC(=O)c3ccc(-c4c5nc(c(-c6cccc(S(=O)(=O)[O-])c6F)c6ccc([nH]6)c(-c6cccc(S(=O)(=O)[O-])c6F)c6nc(c(-c7cccc(S(=O)(=O)[O-])c7F)c7ccc4[nH]7)C=C6)C=C5)cc3)C[C@H]2c2ccccc2)c([N+](=O)[O-])cc1C
REMARK SMILES IDX 12 1 11 2 10 3 8 4 9 5 7 6 5 7 6 8 80 9 79 10 4 11 1 12 2 13
REMARK SMILES IDX 3 14 92 15 91 16 93 17 87 18 88 19 89 20 90 21 81 22 82 23
REMARK SMILES IDX 86 24 83 25 85 26 84 27 13 28 14 29 15 30 16 31 17 32 78 33
REMARK SMILES IDX 18 34 77 35 19 36 20 37 21 38 71 39 22 40 76 41 70 42 72 43
REMARK SMILES IDX 23 44 75 45 69 46 68 47 24 49 56 50 36 51 55 52 37 53 40 54
REMARK SMILES IDX 54 55 73 56 38 57 39 58 53 60 74 61 41 62 25 63 26 64 34 65
REMARK SMILES IDX 27 66 29 67 35 68 28 69 30 70 31 71 32 72 33 73 57 74 58 75
REMARK SMILES IDX 66 76 59 77 61 78 67 79 60 80 62 81 63 82 64 83 65 84 42 85
REMARK SMILES IDX 43 86 51 87 44 88 46 89 52 90 45 91 47 92 48 93 49 94 50 95
REMARK H PARENT 72 48 40 59
REMARK Flexibility Score: inf
ROOT
ATOM      1  C   UNL A   1      37.154  20.287  25.009  1.00  0.00     0.275 C 
ENDROOT
BRANCH   1   2
ATOM      2  C   UNL A   1      35.680  20.554  25.326  1.00  0.00     0.275 C 
BRANCH   2   3
ATOM      3  O   UNL A   1      35.580  21.486  26.419  1.00  0.00    -0.458 OA
BRANCH   3   4
ATOM      4  C   UNL A   1      34.365  22.032  26.617  1.00  0.00     0.354 C 
ATOM      5  O   UNL A   1      33.391  21.527  27.130  1.00  0.00    -0.245 OA
BRANCH   4   6
ATOM      6  C   UNL A   1      34.360  23.440  26.077  1.00  0.00     0.148 C 
ATOM      7  N   UNL A   1      33.791  25.435  25.689  1.00  0.00    -0.250 N 
ATOM      8  N   UNL A   1      33.475  24.330  26.416  1.00  0.00    -0.169 NA
ATOM      9  C   UNL A   1      34.761  25.172  24.621  1.00  0.00     0.144 C 
ATOM     10  C   UNL A   1      35.439  23.899  25.148  1.00  0.00     0.098 C 
BRANCH   7  11
ATOM     11  C   UNL A   1      33.254  26.674  25.998  1.00  0.00     0.138 A 
ATOM     12  C   UNL A   1      34.665  30.014  27.216  1.00  0.00     0.045 C 
ATOM     13  C   UNL A   1      33.662  28.992  26.754  1.00  0.00    -0.046 A 
ATOM     14  C   UNL A   1      34.120  27.707  26.394  1.00  0.00     0.039 A 
ATOM     15  C   UNL A   1      32.289  29.281  26.674  1.00  0.00    -0.041 A 
ATOM     16  C   UNL A   1      31.411  28.276  26.248  1.00  0.00     0.091 A 
ATOM     17  C   UNL A   1      31.714  30.640  26.977  1.00  0.00     0.045 C 
ATOM     18  C   UNL A   1      31.889  26.989  25.939  1.00  0.00     0.294 A 
BRANCH  18  19
ATOM     19  N   UNL A   1      30.896  25.981  25.588  1.00  0.00     0.065 N 
ATOM     20  O   UNL A   1      30.729  25.740  24.383  1.00  0.00    -0.258 OA
ATOM     21  O   UNL A   1      30.217  25.489  26.502  1.00  0.00    -0.258 OA
ENDBRANCH  18  19
ENDBRANCH   7  11
BRANCH   9  22
ATOM     22  C   UNL A   1      34.034  25.027  23.287  1.00  0.00    -0.023 A 
ATOM     23  C   UNL A   1      33.641  23.789  22.753  1.00  0.00     0.006 A 
ATOM     24  C   UNL A   1      33.656  26.194  22.596  1.00  0.00     0.006 A 
ATOM     25  C   UNL A   1      32.904  23.719  21.568  1.00  0.00     0.000 A 
ATOM     26  C   UNL A   1      32.902  26.123  21.423  1.00  0.00     0.000 A 
ATOM     27  C   UNL A   1      32.529  24.885  20.908  1.00  0.00     0.000 A 
ENDBRANCH   9  22
ENDBRANCH   4   6
ENDBRANCH   3   4
ENDBRANCH   2   3
ENDBRANCH   1   2
BRANCH   1  28
ATOM     28  O   UNL A   1      37.959  21.435  25.341  1.00  0.00    -0.458 OA
BRANCH  28  29
ATOM     29  C   UNL A   1      39.055  21.157  26.091  1.00  0.00     0.338 C 
ATOM     30  O   UNL A   1      39.602  20.074  26.214  1.00  0.00    -0.246 OA
BRANCH  29  31
ATOM     31  C   UNL A   1      39.618  22.411  26.614  1.00  0.00     0.060 A 
ATOM     32  C   UNL A   1      39.108  23.602  26.100  1.00  0.00     0.016 A 
ATOM     33  C   UNL A   1      40.668  22.434  27.532  1.00  0.00     0.016 A 
ATOM     34  C   UNL A   1      39.653  24.825  26.476  1.00  0.00     0.010 A 
ATOM     35  C   UNL A   1      41.216  23.666  27.914  1.00  0.00     0.010 A 
ATOM     36  C   UNL A   1      40.726  24.869  27.372  1.00  0.00    -0.014 A 
BRANCH  36  37
ATOM     37  C   UNL A   1      41.342  26.180  27.696  1.00  0.00     0.031 A 
ATOM     38  C   UNL A   1      42.734  26.499  27.230  1.00  0.00     0.074 A 
ATOM     39  C   UNL A   1      40.636  27.095  28.389  1.00  0.00     0.049 A 
ATOM     40  N   UNL A   1      43.442  27.581  27.435  1.00  0.00    -0.248 NA
ATOM     41  C   UNL A   1      43.428  25.470  26.439  1.00  0.00     0.031 C 
ATOM     42  C   UNL A   1      39.276  26.904  28.894  1.00  0.00     0.029 A 
ATOM     43  N   UNL A   1      40.969  28.363  28.796  1.00  0.00    -0.354 N 
ATOM     44  C   UNL A   1      44.680  27.343  26.851  1.00  0.00     0.074 A 
ATOM     45  C   UNL A   1      44.625  26.017  26.272  1.00  0.00     0.031 C 
ATOM     46  C   UNL A   1      38.891  28.014  29.545  1.00  0.00     0.029 A 
ATOM     47  C   UNL A   1      39.983  28.983  29.526  1.00  0.00     0.049 A 
ATOM     48  H   UNL A   1      41.832  28.788  28.583  1.00  0.00     0.167 HD
ATOM     49  C   UNL A   1      45.756  28.161  26.786  1.00  0.00     0.034 A 
ATOM     50  C   UNL A   1      39.965  30.191  30.124  1.00  0.00     0.034 A 
ATOM     51  C   UNL A   1      45.781  29.513  27.282  1.00  0.00     0.049 A 
ATOM     52  C   UNL A   1      41.162  31.094  29.996  1.00  0.00     0.074 A 
ATOM     53  C   UNL A   1      46.797  30.447  27.177  1.00  0.00     0.029 A 
ATOM     54  N   UNL A   1      44.745  30.124  27.969  1.00  0.00    -0.354 N 
ATOM     55  N   UNL A   1      42.273  30.900  29.328  1.00  0.00    -0.248 NA
ATOM     56  C   UNL A   1      41.093  32.391  30.683  1.00  0.00     0.031 C 
ATOM     57  C   UNL A   1      46.376  31.624  27.804  1.00  0.00     0.029 A 
ATOM     58  C   UNL A   1      45.100  31.420  28.303  1.00  0.00     0.049 A 
ATOM     59  H   UNL A   1      43.884  29.700  28.188  1.00  0.00     0.167 HD
ATOM     60  C   UNL A   1      43.027  32.054  29.501  1.00  0.00     0.074 A 
ATOM     61  C   UNL A   1      42.233  32.956  30.308  1.00  0.00     0.031 C 
ATOM     62  C   UNL A   1      44.277  32.330  29.056  1.00  0.00     0.034 A 
BRANCH  49  63
ATOM     63  C   UNL A   1      46.997  27.645  26.112  1.00  0.00     0.023 A 
ATOM     64  C   UNL A   1      47.897  26.844  26.840  1.00  0.00     0.012 A 
ATOM     65  C   UNL A   1      47.223  27.877  24.741  1.00  0.00     0.148 A 
ATOM     66  C   UNL A   1      49.013  26.288  26.215  1.00  0.00     0.002 A 
ATOM     67  C   UNL A   1      48.322  27.295  24.119  1.00  0.00     0.091 A 
ATOM     68  F   UNL A   1      46.365  28.661  24.074  1.00  0.00    -0.205 F 
ATOM     69  C   UNL A   1      49.220  26.504  24.855  1.00  0.00     0.022 A 
BRANCH  67  70
ATOM     70  S   UNL A   1      48.636  27.462  22.358  1.00  0.00     0.127 S 
ATOM     71  O   UNL A   1      49.940  28.124  22.351  1.00  0.00    -0.237 OA
ATOM     72  O   UNL A   1      48.660  26.068  21.912  1.00  0.00    -0.237 OA
ATOM     73  O   UNL A   1      47.531  28.248  21.827  1.00  0.00    -0.744 OA
ENDBRANCH  67  70
ENDBRANCH  49  63
BRANCH  50  74
ATOM     74  C   UNL A   1      38.748  30.636  30.858  1.00  0.00     0.023 A 
ATOM     75  C   UNL A   1      38.551  30.218  32.187  1.00  0.00     0.012 A 
ATOM     76  C   UNL A   1      37.802  31.491  30.262  1.00  0.00     0.148 A 
ATOM     77  C   UNL A   1      37.424  30.626  32.901  1.00  0.00     0.002 A 
ATOM     78  C   UNL A   1      36.707  31.935  30.996  1.00  0.00     0.091 A 
ATOM     79  F   UNL A   1      37.984  31.860  28.985  1.00  0.00    -0.205 F 
ATOM     80  C   UNL A   1      36.508  31.494  32.312  1.00  0.00     0.022 A 
BRANCH  78  81
ATOM     81  S   UNL A   1      35.581  33.159  30.319  1.00  0.00     0.127 S 
ATOM     82  O   UNL A   1      35.132  33.859  31.519  1.00  0.00    -0.237 OA
ATOM     83  O   UNL A   1      36.449  33.945  29.440  1.00  0.00    -0.237 OA
ATOM     84  O   UNL A   1      34.576  32.376  29.609  1.00  0.00    -0.744 OA
ENDBRANCH  78  81
ENDBRANCH  50  74
BRANCH  62  85
ATOM     85  C   UNL A   1      44.870  33.662  29.428  1.00  0.00     0.023 A 
ATOM     86  C   UNL A   1      45.633  33.766  30.607  1.00  0.00     0.012 A 
ATOM     87  C   UNL A   1      44.737  34.783  28.588  1.00  0.00     0.148 A 
ATOM     88  C   UNL A   1      46.237  34.973  30.956  1.00  0.00     0.002 A 
ATOM     89  C   UNL A   1      45.372  35.974  28.924  1.00  0.00     0.091 A 
ATOM     90  F   UNL A   1      43.987  34.674  27.481  1.00  0.00    -0.205 F 
ATOM     91  C   UNL A   1      46.117  36.074  30.111  1.00  0.00     0.022 A 
BRANCH  89  92
ATOM     92  S   UNL A   1      45.327  37.404  27.837  1.00  0.00     0.127 S 
ATOM     93  O   UNL A   1      43.898  37.709  27.800  1.00  0.00    -0.237 OA
ATOM     94  O   UNL A   1      46.139  38.384  28.558  1.00  0.00    -0.237 OA
ATOM     95  O   UNL A   1      45.914  36.953  26.581  1.00  0.00    -0.744 OA
ENDBRANCH  89  92
ENDBRANCH  62  85
ENDBRANCH  36  37
ENDBRANCH  29  31
ENDBRANCH  28  29
ENDBRANCH   1  28
TORSDOF 17
ENDMDL
MODEL 2
REMARK VINA RESULT:     -12.2      1.768      7.722
REMARK SMILES Cc1cc(N2N=C(C(=O)OCCOC(=O)c3ccc(-c4c5nc(c(-c6cccc(S(=O)(=O)[O-])c6F)c6ccc([nH]6)c(-c6cccc(S(=O)(=O)[O-])c6F)c6nc(c(-c7cccc(S(=O)(=O)[O-])c7F)c7ccc4[nH]7)C=C6)C=C5)cc3)C[C@H]2c2ccccc2)c([N+](=O)[O-])cc1C
REMARK SMILES IDX 12 1 11 2 10 3 8 4 9 5 7 6 5 7 6 8 80 9 79 10 4 11 1 12 2 13
REMARK SMILES IDX 3 14 92 15 91 16 93 17 87 18 88 19 89 20 90 21 81 22 82 23
REMARK SMILES IDX 86 24 83 25 85 26 84 27 13 28 14 29 15 30 16 31 17 32 78 33
REMARK SMILES IDX 18 34 77 35 19 36 20 37 21 38 71 39 22 40 76 41 70 42 72 43
REMARK SMILES IDX 23 44 75 45 69 46 68 47 24 49 56 50 36 51 55 52 37 53 40 54
REMARK SMILES IDX 54 55 73 56 38 57 39 58 53 60 74 61 41 62 25 63 26 64 34 65
REMARK SMILES IDX 27 66 29 67 35 68 28 69 30 70 31 71 32 72 33 73 57 74 58 75
REMARK SMILES IDX 66 76 59 77 61 78 67 79 60 80 62 81 63 82 64 83 65 84 42 85
REMARK SMILES IDX 43 86 51 87 44 88 46 89 52 90 45 91 47 92 48 93 49 94 50 95
REMARK H PARENT 72 48 40 59
REMARK Flexibility Score: inf
ROOT
ATOM      1  C   UNL A   1      39.326  19.194  26.089  1.00  0.00     0.275 C 
ENDROOT
BRANCH   1   2
ATOM      2  C   UNL A   1      38.184  19.887  25.341  1.00  0.00     0.275 C 
BRANCH   2   3
ATOM      3  O   UNL A   1      38.611  21.190  24.904  1.00  0.00    -0.458 OA
BRANCH   3   4
ATOM      4  C   UNL A   1      38.268  22.220  25.702  1.00  0.00     0.354 C 
ATOM      5  O   UNL A   1      38.857  22.644  26.672  1.00  0.00    -0.245 OA
BRANCH   4   6
ATOM      6  C   UNL A   1      36.971  22.815  25.215  1.00  0.00     0.148 C 
ATOM      7  N   UNL A   1      35.096  23.782  25.189  1.00  0.00    -0.250 N 
ATOM      8  N   UNL A   1      36.142  23.448  25.991  1.00  0.00    -0.169 NA
ATOM      9  C   UNL A   1      35.113  23.098  23.893  1.00  0.00     0.144 C 
ATOM     10  C   UNL A   1      36.602  22.747  23.767  1.00  0.00     0.098 C 
BRANCH   7  11
ATOM     11  C   UNL A   1      34.156  24.718  25.590  1.00  0.00     0.138 A 
ATOM     12  C   UNL A   1      33.720  28.491  25.137  1.00  0.00     0.045 C 
ATOM     13  C   UNL A   1      33.428  27.080  25.573  1.00  0.00    -0.046 A 
ATOM     14  C   UNL A   1      34.319  26.055  25.190  1.00  0.00     0.039 A 
ATOM     15  C   UNL A   1      32.300  26.760  26.348  1.00  0.00    -0.041 A 
ATOM     16  C   UNL A   1      32.099  25.426  26.728  1.00  0.00     0.091 A 
ATOM     17  C   UNL A   1      31.263  27.774  26.751  1.00  0.00     0.045 C 
ATOM     18  C   UNL A   1      33.027  24.431  26.372  1.00  0.00     0.294 A 
BRANCH  18  19
ATOM     19  N   UNL A   1      32.785  23.087  26.883  1.00  0.00     0.065 N 
ATOM     20  O   UNL A   1      33.573  22.650  27.735  1.00  0.00    -0.258 OA
ATOM     21  O   UNL A   1      31.865  22.428  26.375  1.00  0.00    -0.258 OA
ENDBRANCH  18  19
ENDBRANCH   7  11
BRANCH   9  22
ATOM     22  C   UNL A   1      34.156  21.909  23.923  1.00  0.00    -0.023 A 
ATOM     23  C   UNL A   1      32.969  21.855  23.173  1.00  0.00     0.006 A 
ATOM     24  C   UNL A   1      34.519  20.771  24.666  1.00  0.00     0.006 A 
ATOM     25  C   UNL A   1      32.171  20.709  23.173  1.00  0.00     0.000 A 
ATOM     26  C   UNL A   1      33.731  19.619  24.649  1.00  0.00     0.000 A 
ATOM     27  C   UNL A   1      32.555  19.589  23.904  1.00  0.00     0.000 A 
ENDBRANCH   9  22
ENDBRANCH   4   6
ENDBRANCH   3   4
ENDBRANCH   2   3
ENDBRANCH   1   2
BRANCH   1  28
ATOM     28  O   UNL A   1      40.561  19.322  25.359  1.00  0.00    -0.458 OA
BRANCH  28  29
ATOM     29  C   UNL A   1      41.671  19.388  26.135  1.00  0.00     0.338 C 
ATOM     30  O   UNL A   1      42.451  18.481  26.376  1.00  0.00    -0.246 OA
BRANCH  29  31
ATOM     31  C   UNL A   1      41.915  20.787  26.520  1.00  0.00     0.060 A 
ATOM     32  C   UNL A   1      41.974  21.728  25.494  1.00  0.00     0.016 A 
ATOM     33  C   UNL A   1      42.153  21.168  27.840  1.00  0.00     0.016 A 
ATOM     34  C   UNL A   1      42.292  23.053  25.769  1.00  0.00     0.010 A 
ATOM     35  C   UNL A   1      42.472  22.505  28.118  1.00  0.00     0.010 A 
ATOM     36  C   UNL A   1      42.564  23.452  27.082  1.00  0.00    -0.014 A 
BRANCH  36  37
ATOM     37  C   UNL A   1      42.980  24.854  27.339  1.00  0.00     0.031 A 
ATOM     38  C   UNL A   1      42.042  25.809  28.022  1.00  0.00     0.074 A 
ATOM     39  C   UNL A   1      44.212  25.261  26.979  1.00  0.00     0.049 A 
ATOM     40  N   UNL A   1      42.222  27.073  28.311  1.00  0.00    -0.248 NA
ATOM     41  C   UNL A   1      40.729  25.282  28.428  1.00  0.00     0.031 C 
ATOM     42  C   UNL A   1      45.213  24.427  26.312  1.00  0.00     0.029 A 
ATOM     43  N   UNL A   1      44.829  26.479  27.117  1.00  0.00    -0.354 N 
ATOM     44  C   UNL A   1      41.031  27.508  28.878  1.00  0.00     0.074 A 
ATOM     45  C   UNL A   1      40.136  26.370  28.904  1.00  0.00     0.031 C 
ATOM     46  C   UNL A   1      46.318  25.159  26.096  1.00  0.00     0.029 A 
ATOM     47  C   UNL A   1      46.097  26.517  26.584  1.00  0.00     0.049 A 
ATOM     48  H   UNL A   1      44.405  27.251  27.557  1.00  0.00     0.167 HD
ATOM     49  C   UNL A   1      40.718  28.737  29.350  1.00  0.00     0.034 A 
ATOM     50  C   UNL A   1      46.977  27.534  26.489  1.00  0.00     0.034 A 
ATOM     51  C   UNL A   1      41.637  29.844  29.407  1.00  0.00     0.049 A 
ATOM     52  C   UNL A   1      46.614  28.876  27.063  1.00  0.00     0.074 A 
ATOM     53  C   UNL A   1      41.435  31.100  29.955  1.00  0.00     0.029 A 
ATOM     54  N   UNL A   1      42.928  29.829  28.907  1.00  0.00    -0.354 N 
ATOM     55  N   UNL A   1      45.532  29.231  27.712  1.00  0.00    -0.248 NA
ATOM     56  C   UNL A   1      47.604  29.952  26.915  1.00  0.00     0.031 C 
ATOM     57  C   UNL A   1      42.606  31.846  29.783  1.00  0.00     0.029 A 
ATOM     58  C   UNL A   1      43.534  31.055  29.124  1.00  0.00     0.049 A 
ATOM     59  H   UNL A   1      43.353  29.060  28.462  1.00  0.00     0.167 HD
ATOM     60  C   UNL A   1      45.716  30.562  28.061  1.00  0.00     0.074 A 
ATOM     61  C   UNL A   1      47.028  30.943  27.584  1.00  0.00     0.031 C 
ATOM     62  C   UNL A   1      44.863  31.403  28.696  1.00  0.00     0.034 A 
BRANCH  49  63
ATOM     63  C   UNL A   1      39.334  28.954  29.895  1.00  0.00     0.023 A 
ATOM     64  C   UNL A   1      39.037  28.549  31.211  1.00  0.00     0.012 A 
ATOM     65  C   UNL A   1      38.360  29.637  29.140  1.00  0.00     0.148 A 
ATOM     66  C   UNL A   1      37.784  28.811  31.765  1.00  0.00     0.002 A 
ATOM     67  C   UNL A   1      37.124  29.920  29.711  1.00  0.00     0.091 A 
ATOM     68  F   UNL A   1      38.658  29.992  27.883  1.00  0.00    -0.205 F 
ATOM     69  C   UNL A   1      36.833  29.505  31.021  1.00  0.00     0.022 A 
BRANCH  67  70
ATOM     70  S   UNL A   1      35.858  30.865  28.854  1.00  0.00     0.127 S 
ATOM     71  O   UNL A   1      35.122  31.455  29.972  1.00  0.00    -0.237 OA
ATOM     72  O   UNL A   1      36.653  31.818  28.078  1.00  0.00    -0.237 OA
ATOM     73  O   UNL A   1      35.115  29.904  28.052  1.00  0.00    -0.744 OA
ENDBRANCH  67  70
ENDBRANCH  49  63
BRANCH  50  74
ATOM     74  C   UNL A   1      48.309  27.304  25.866  1.00  0.00     0.023 A 
ATOM     75  C   UNL A   1      49.378  26.855  26.665  1.00  0.00     0.012 A 
ATOM     76  C   UNL A   1      48.519  27.498  24.488  1.00  0.00     0.148 A 
ATOM     77  C   UNL A   1      50.635  26.625  26.106  1.00  0.00     0.002 A 
ATOM     78  C   UNL A   1      49.761  27.217  23.928  1.00  0.00     0.091 A 
ATOM     79  F   UNL A   1      47.503  27.954  23.741  1.00  0.00    -0.205 F 
ATOM     80  C   UNL A   1      50.825  26.793  24.736  1.00  0.00     0.022 A 
BRANCH  78  81
ATOM     81  S   UNL A   1      50.007  27.290  22.150  1.00  0.00     0.127 S 
ATOM     82  O   UNL A   1      51.373  26.795  22.010  1.00  0.00    -0.237 OA
ATOM     83  O   UNL A   1      48.973  26.385  21.644  1.00  0.00    -0.237 OA
ATOM     84  O   UNL A   1      49.785  28.690  21.809  1.00  0.00    -0.744 OA
ENDBRANCH  78  81
ENDBRANCH  50  74
BRANCH  62  85
ATOM     85  C   UNL A   1      45.317  32.821  28.914  1.00  0.00     0.023 A 
ATOM     86  C   UNL A   1      46.025  33.140  30.090  1.00  0.00     0.012 A 
ATOM     87  C   UNL A   1      45.114  33.814  27.938  1.00  0.00     0.148 A 
ATOM     88  C   UNL A   1      46.503  34.432  30.301  1.00  0.00     0.002 A 
ATOM     89  C   UNL A   1      45.625  35.092  28.139  1.00  0.00     0.091 A 
ATOM     90  F   UNL A   1      44.416  33.501  26.836  1.00  0.00    -0.205 F 
ATOM     91  C   UNL A   1      46.314  35.405  29.322  1.00  0.00     0.022 A 
BRANCH  89  92
ATOM     92  S   UNL A   1      45.488  36.369  26.882  1.00  0.00     0.127 S 
ATOM     93  O   UNL A   1      46.081  35.712  25.719  1.00  0.00    -0.237 OA
ATOM     94  O   UNL A   1      44.043  36.578  26.791  1.00  0.00    -0.237 OA
ATOM     95  O   UNL A   1      46.222  37.512  27.411  1.00  0.00    -0.744 OA
ENDBRANCH  89  92
ENDBRANCH  62  85
ENDBRANCH  36  37
ENDBRANCH  29  31
ENDBRANCH  28  29
ENDBRANCH   1  28
TORSDOF 17
ENDMDL
MODEL 3
REMARK VINA RESULT:     -12.0      5.545      8.743
REMARK SMILES Cc1cc(N2N=C(C(=O)OCCOC(=O)c3ccc(-c4c5nc(c(-c6cccc(S(=O)(=O)[O-])c6F)c6ccc([nH]6)c(-c6cccc(S(=O)(=O)[O-])c6F)c6nc(c(-c7cccc(S(=O)(=O)[O-])c7F)c7ccc4[nH]7)C=C6)C=C5)cc3)C[C@H]2c2ccccc2)c([N+](=O)[O-])cc1C
REMARK SMILES IDX 12 1 11 2 10 3 8 4 9 5 7 6 5 7 6 8 80 9 79 10 4 11 1 12 2 13
REMARK SMILES IDX 3 14 92 15 91 16 93 17 87 18 88 19 89 20 90 21 81 22 82 23
REMARK SMILES IDX 86 24 83 25 85 26 84 27 13 28 14 29 15 30 16 31 17 32 78 33
REMARK SMILES IDX 18 34 77 35 19 36 20 37 21 38 71 39 22 40 76 41 70 42 72 43
REMARK SMILES IDX 23 44 75 45 69 46 68 47 24 49 56 50 36 51 55 52 37 53 40 54
REMARK SMILES IDX 54 55 73 56 38 57 39 58 53 60 74 61 41 62 25 63 26 64 34 65
REMARK SMILES IDX 27 66 29 67 35 68 28 69 30 70 31 71 32 72 33 73 57 74 58 75
REMARK SMILES IDX 66 76 59 77 61 78 67 79 60 80 62 81 63 82 64 83 65 84 42 85
REMARK SMILES IDX 43 86 51 87 44 88 46 89 52 90 45 91 47 92 48 93 49 94 50 95
REMARK H PARENT 72 48 40 59
REMARK Flexibility Score: inf
ROOT
ATOM      1  C   UNL A   1      32.765  32.743  27.598  1.00  0.00     0.275 C 
ENDROOT
BRANCH   1   2
ATOM      2  C   UNL A   1      33.880  31.698  27.518  1.00  0.00     0.275 C 
BRANCH   2   3
ATOM      3  O   UNL A   1      33.320  30.416  27.180  1.00  0.00    -0.458 OA
BRANCH   3   4
ATOM      4  C   UNL A   1      34.164  29.368  27.251  1.00  0.00     0.354 C 
ATOM      5  O   UNL A   1      35.346  29.375  27.513  1.00  0.00    -0.245 OA
BRANCH   4   6
ATOM      6  C   UNL A   1      33.410  28.102  26.934  1.00  0.00     0.148 C 
ATOM      7  N   UNL A   1      32.907  26.218  26.126  1.00  0.00    -0.250 N 
ATOM      8  N   UNL A   1      33.901  27.143  26.207  1.00  0.00    -0.169 NA
ATOM      9  C   UNL A   1      31.610  26.715  26.592  1.00  0.00     0.144 C 
ATOM     10  C   UNL A   1      32.048  27.867  27.508  1.00  0.00     0.098 C 
BRANCH   7  11
ATOM     11  C   UNL A   1      33.161  24.931  25.681  1.00  0.00     0.138 A 
ATOM     12  C   UNL A   1      34.036  21.604  27.354  1.00  0.00     0.045 C 
ATOM     13  C   UNL A   1      33.717  22.594  26.266  1.00  0.00    -0.046 A 
ATOM     14  C   UNL A   1      33.422  23.926  26.627  1.00  0.00     0.039 A 
ATOM     15  C   UNL A   1      33.708  22.230  24.909  1.00  0.00    -0.041 A 
ATOM     16  C   UNL A   1      33.416  23.209  23.949  1.00  0.00     0.091 A 
ATOM     17  C   UNL A   1      33.949  20.823  24.432  1.00  0.00     0.045 C 
ATOM     18  C   UNL A   1      33.170  24.540  24.334  1.00  0.00     0.294 A 
BRANCH  18  19
ATOM     19  N   UNL A   1      32.960  25.509  23.265  1.00  0.00     0.065 N 
ATOM     20  O   UNL A   1      31.939  25.384  22.573  1.00  0.00    -0.258 OA
ATOM     21  O   UNL A   1      33.853  26.344  23.053  1.00  0.00    -0.258 OA
ENDBRANCH  18  19
ENDBRANCH   7  11
BRANCH   9  22
ATOM     22  C   UNL A   1      30.750  27.116  25.396  1.00  0.00    -0.023 A 
ATOM     23  C   UNL A   1      31.001  28.254  24.612  1.00  0.00     0.006 A 
ATOM     24  C   UNL A   1      29.706  26.259  25.000  1.00  0.00     0.006 A 
ATOM     25  C   UNL A   1      30.233  28.529  23.478  1.00  0.00     0.000 A 
ATOM     26  C   UNL A   1      28.952  26.525  23.856  1.00  0.00     0.000 A 
ATOM     27  C   UNL A   1      29.214  27.662  23.096  1.00  0.00     0.000 A 
ENDBRANCH   9  22
ENDBRANCH   4   6
ENDBRANCH   3   4
ENDBRANCH   2   3
ENDBRANCH   1   2
BRANCH   1  28
ATOM     28  O   UNL A   1      33.311  34.074  27.515  1.00  0.00    -0.458 OA
BRANCH  28  29
ATOM     29  C   UNL A   1      33.327  34.752  28.690  1.00  0.00     0.338 C 
ATOM     30  O   UNL A   1      32.508  35.570  29.075  1.00  0.00    -0.246 OA
BRANCH  29  31
ATOM     31  C   UNL A   1      34.403  34.223  29.543  1.00  0.00     0.060 A 
ATOM     32  C   UNL A   1      35.711  34.381  29.089  1.00  0.00     0.016 A 
ATOM     33  C   UNL A   1      34.148  33.526  30.723  1.00  0.00     0.016 A 
ATOM     34  C   UNL A   1      36.775  33.828  29.792  1.00  0.00     0.010 A 
ATOM     35  C   UNL A   1      35.220  32.970  31.435  1.00  0.00     0.010 A 
ATOM     36  C   UNL A   1      36.539  33.099  30.962  1.00  0.00    -0.014 A 
BRANCH  36  37
ATOM     37  C   UNL A   1      37.683  32.451  31.651  1.00  0.00     0.031 A 
ATOM     38  C   UNL A   1      38.455  31.355  30.972  1.00  0.00     0.074 A 
ATOM     39  C   UNL A   1      38.044  32.867  32.881  1.00  0.00     0.049 A 
ATOM     40  N   UNL A   1      39.467  30.659  31.424  1.00  0.00    -0.248 NA
ATOM     41  C   UNL A   1      38.033  30.983  29.611  1.00  0.00     0.031 C 
ATOM     42  C   UNL A   1      37.376  33.922  33.642  1.00  0.00     0.029 A 
ATOM     43  N   UNL A   1      39.056  32.446  33.707  1.00  0.00    -0.354 N 
ATOM     44  C   UNL A   1      39.766  29.733  30.433  1.00  0.00     0.074 A 
ATOM     45  C   UNL A   1      38.836  29.960  29.348  1.00  0.00     0.031 C 
ATOM     46  C   UNL A   1      37.994  34.066  34.826  1.00  0.00     0.029 A 
ATOM     47  C   UNL A   1      39.083  33.097  34.918  1.00  0.00     0.049 A 
ATOM     48  H   UNL A   1      39.701  31.746  33.456  1.00  0.00     0.167 HD
ATOM     49  C   UNL A   1      40.739  28.792  30.421  1.00  0.00     0.034 A 
ATOM     50  C   UNL A   1      39.886  32.926  35.987  1.00  0.00     0.034 A 
ATOM     51  C   UNL A   1      41.721  28.624  31.460  1.00  0.00     0.049 A 
ATOM     52  C   UNL A   1      40.985  31.900  35.924  1.00  0.00     0.074 A 
ATOM     53  C   UNL A   1      42.801  27.757  31.489  1.00  0.00     0.029 A 
ATOM     54  N   UNL A   1      41.748  29.337  32.647  1.00  0.00    -0.354 N 
ATOM     55  N   UNL A   1      41.333  31.125  34.927  1.00  0.00    -0.248 NA
ATOM     56  C   UNL A   1      41.819  31.745  37.124  1.00  0.00     0.031 C 
ATOM     57  C   UNL A   1      43.480  27.945  32.698  1.00  0.00     0.029 A 
ATOM     58  C   UNL A   1      42.820  28.925  33.421  1.00  0.00     0.049 A 
ATOM     59  H   UNL A   1      41.102  30.034  32.903  1.00  0.00     0.167 HD
ATOM     60  C   UNL A   1      42.432  30.401  35.372  1.00  0.00     0.074 A 
ATOM     61  C   UNL A   1      42.715  30.855  36.717  1.00  0.00     0.031 C 
ATOM     62  C   UNL A   1      43.127  29.427  34.735  1.00  0.00     0.034 A 
BRANCH  49  63
ATOM     63  C   UNL A   1      40.833  27.887  29.223  1.00  0.00     0.023 A 
ATOM     64  C   UNL A   1      40.000  26.754  29.146  1.00  0.00     0.012 A 
ATOM     65  C   UNL A   1      41.674  28.208  28.141  1.00  0.00     0.148 A 
ATOM     66  C   UNL A   1      40.012  25.945  28.010  1.00  0.00     0.002 A 
ATOM     67  C   UNL A   1      41.658  27.413  27.000  1.00  0.00     0.091 A 
ATOM     68  F   UNL A   1      42.473  29.279  28.247  1.00  0.00    -0.205 F 
ATOM     69  C   UNL A   1      40.832  26.280  26.934  1.00  0.00     0.022 A 
BRANCH  67  70
ATOM     70  S   UNL A   1      42.629  27.800  25.539  1.00  0.00     0.127 S 
ATOM     71  O   UNL A   1      42.537  26.552  24.782  1.00  0.00    -0.237 OA
ATOM     72  O   UNL A   1      41.886  28.919  24.958  1.00  0.00    -0.237 OA
ATOM     73  O   UNL A   1      43.960  28.143  26.021  1.00  0.00    -0.744 OA
ENDBRANCH  67  70
ENDBRANCH  49  63
BRANCH  50  74
ATOM     74  C   UNL A   1      39.710  33.783  37.192  1.00  0.00     0.023 A 
ATOM     75  C   UNL A   1      40.198  35.104  37.177  1.00  0.00     0.012 A 
ATOM     76  C   UNL A   1      39.040  33.314  38.336  1.00  0.00     0.148 A 
ATOM     77  C   UNL A   1      40.040  35.932  38.289  1.00  0.00     0.002 A 
ATOM     78  C   UNL A   1      38.840  34.162  39.421  1.00  0.00     0.091 A 
ATOM     79  F   UNL A   1      38.604  32.045  38.351  1.00  0.00    -0.205 F 
ATOM     80  C   UNL A   1      39.350  35.467  39.406  1.00  0.00     0.022 A 
BRANCH  78  81
ATOM     81  S   UNL A   1      37.840  33.644  40.821  1.00  0.00     0.127 S 
ATOM     82  O   UNL A   1      36.583  33.274  40.178  1.00  0.00    -0.237 OA
ATOM     83  O   UNL A   1      38.604  32.520  41.365  1.00  0.00    -0.237 OA
ATOM     84  O   UNL A   1      37.804  34.812  41.694  1.00  0.00    -0.744 OA
ENDBRANCH  78  81
ENDBRANCH  50  74
BRANCH  62  85
ATOM     85  C   UNL A   1      44.264  28.782  35.481  1.00  0.00     0.023 A 
ATOM     86  C   UNL A   1      45.570  29.276  35.298  1.00  0.00     0.012 A 
ATOM     87  C   UNL A   1      44.039  27.747  36.407  1.00  0.00     0.148 A 
ATOM     88  C   UNL A   1      46.639  28.735  36.010  1.00  0.00     0.002 A 
ATOM     89  C   UNL A   1      45.105  27.235  37.140  1.00  0.00     0.091 A 
ATOM     90  F   UNL A   1      42.793  27.271  36.551  1.00  0.00    -0.205 F 
ATOM     91  C   UNL A   1      46.406  27.723  36.939  1.00  0.00     0.022 A 
BRANCH  89  92
ATOM     92  S   UNL A   1      44.860  25.989  38.412  1.00  0.00     0.127 S 
ATOM     93  O   UNL A   1      44.339  24.865  37.636  1.00  0.00    -0.237 OA
ATOM     94  O   UNL A   1      46.212  25.793  38.936  1.00  0.00    -0.237 OA
ATOM     95  O   UNL A   1      43.934  26.588  39.366  1.00  0.00    -0.744 OA
ENDBRANCH  89  92
ENDBRANCH  62  85
ENDBRANCH  36  37
ENDBRANCH  29  31
ENDBRANCH  28  29
ENDBRANCH   1  28
TORSDOF 17
ENDMDL
