MODEL 1
REMARK VINA RESULT:     -11.4      0.000      0.000
REMARK SMILES CC(C)[C@@H]1CCCN1C(=O)N1CCO[C@H](CC(=O)OCCOC(=O)c2ccc(-c3c4nc(c(-c5cccc(S(=O)(=O)[O-])c5F)c5ccc([nH]5)c(-c5cccc(S(=O)(=O)[O-])c5F)c5nc(c(-c6cccc(S(=O)(=O)[O-])c6F)c6ccc3[nH]6)C=C5)C=C4)cc2)C1
REMARK SMILES IDX 20 1 19 2 17 3 18 4 16 5 15 6 11 7 12 8 88 9 13 10 14 11
REMARK SMILES IDX 9 12 10 13 8 14 4 15 5 16 6 17 7 18 2 19 1 20 3 21 21 22
REMARK SMILES IDX 22 23 23 24 24 25 25 26 26 27 87 28 27 29 86 30 28 31 29 32
REMARK SMILES IDX 30 33 80 34 31 35 85 36 79 37 81 38 32 39 84 40 78 41 77 42
REMARK SMILES IDX 33 44 65 45 45 46 64 47 46 48 49 49 63 50 82 51 47 52 48 53
REMARK SMILES IDX 62 55 83 56 50 57 34 58 35 59 43 60 36 61 38 62 44 63 37 64
REMARK SMILES IDX 39 65 40 66 41 67 42 68 66 69 67 70 75 71 68 72 70 73 76 74
REMARK SMILES IDX 69 75 71 76 72 77 73 78 74 79 51 80 52 81 60 82 53 83 55 84
REMARK SMILES IDX 61 85 54 86 56 87 57 88 58 89 59 90
REMARK H PARENT 81 43 49 54
REMARK Flexibility Score: inf
ROOT
ATOM      1  C   UNL A   1      31.419  29.557  24.249  1.00  0.00     0.274 C 
ENDROOT
BRANCH   1   2
ATOM      2  O   UNL A   1      30.423  28.519  24.177  1.00  0.00    -0.462 OA
BRANCH   2   3
ATOM      3  C   UNL A   1      30.923  27.286  23.952  1.00  0.00     0.308 C 
ATOM      4  O   UNL A   1      31.778  27.035  23.104  1.00  0.00    -0.252 OA
BRANCH   3   5
ATOM      5  C   UNL A   1      30.240  26.169  24.667  1.00  0.00     0.156 C 
BRANCH   5   6
ATOM      6  C   UNL A   1      30.425  25.751  26.126  1.00  0.00     0.149 C 
ATOM      7  N   UNL A   1      32.699  25.016  25.803  1.00  0.00    -0.320 N 
ATOM      8  C   UNL A   1      32.472  23.760  26.501  1.00  0.00     0.150 C 
ATOM      9  C   UNL A   1      31.894  26.052  26.449  1.00  0.00     0.154 C 
ATOM     10  C   UNL A   1      30.985  23.373  26.385  1.00  0.00     0.182 C 
ATOM     11  O   UNL A   1      30.048  24.445  26.569  1.00  0.00    -0.374 OA
BRANCH   7  12
ATOM     12  C   UNL A   1      33.951  25.368  25.380  1.00  0.00     0.320 C 
ATOM     13  O   UNL A   1      34.260  26.560  25.317  1.00  0.00    -0.248 OA
BRANCH  12  14
ATOM     14  N   UNL A   1      34.778  24.366  24.888  1.00  0.00    -0.321 N 
ATOM     15  C   UNL A   1      34.961  23.679  23.570  1.00  0.00     0.089 C 
ATOM     16  C   UNL A   1      36.046  22.626  23.893  1.00  0.00     0.027 C 
ATOM     17  C   UNL A   1      36.930  23.335  24.891  1.00  0.00     0.024 C 
ATOM     18  C   UNL A   1      35.914  24.058  25.756  1.00  0.00     0.122 C 
BRANCH  15  19
ATOM     19  C   UNL A   1      33.785  23.049  22.748  1.00  0.00     0.005 C 
ATOM     20  C   UNL A   1      32.913  22.013  23.477  1.00  0.00     0.009 C 
ATOM     21  C   UNL A   1      32.843  24.014  22.061  1.00  0.00     0.009 C 
ENDBRANCH  15  19
ENDBRANCH  12  14
ENDBRANCH   7  12
ENDBRANCH   5   6
ENDBRANCH   3   5
ENDBRANCH   2   3
ENDBRANCH   1   2
BRANCH   1  22
ATOM     22  C   UNL A   1      31.638  30.067  25.676  1.00  0.00     0.275 C 
BRANCH  22  23
ATOM     23  O   UNL A   1      33.029  30.163  26.024  1.00  0.00    -0.458 OA
BRANCH  23  24
ATOM     24  C   UNL A   1      33.325  31.135  26.921  1.00  0.00     0.338 C 
ATOM     25  O   UNL A   1      32.595  32.032  27.305  1.00  0.00    -0.246 OA
BRANCH  24  26
ATOM     26  C   UNL A   1      34.653  30.890  27.498  1.00  0.00     0.060 A 
ATOM     27  C   UNL A   1      34.989  29.586  27.877  1.00  0.00     0.016 A 
ATOM     28  C   UNL A   1      35.518  31.948  27.756  1.00  0.00     0.016 A 
ATOM     29  C   UNL A   1      36.196  29.322  28.508  1.00  0.00     0.010 A 
ATOM     30  C   UNL A   1      36.727  31.688  28.402  1.00  0.00     0.010 A 
ATOM     31  C   UNL A   1      37.063  30.377  28.788  1.00  0.00    -0.014 A 
BRANCH  31  32
ATOM     32  C   UNL A   1      38.293  30.141  29.571  1.00  0.00     0.031 A 
ATOM     33  C   UNL A   1      39.333  29.217  29.014  1.00  0.00     0.074 A 
ATOM     34  C   UNL A   1      38.441  30.713  30.778  1.00  0.00     0.049 A 
ATOM     35  N   UNL A   1      40.372  28.693  29.602  1.00  0.00    -0.248 NA
ATOM     36  C   UNL A   1      39.170  28.822  27.603  1.00  0.00     0.031 C 
ATOM     37  C   UNL A   1      37.511  31.671  31.378  1.00  0.00     0.029 A 
ATOM     38  N   UNL A   1      39.410  30.541  31.730  1.00  0.00    -0.354 N 
ATOM     39  C   UNL A   1      40.955  27.857  28.659  1.00  0.00     0.074 A 
ATOM     40  C   UNL A   1      40.162  27.955  27.452  1.00  0.00     0.031 C 
ATOM     41  C   UNL A   1      37.937  31.977  32.614  1.00  0.00     0.029 A 
ATOM     42  C   UNL A   1      39.134  31.194  32.909  1.00  0.00     0.049 A 
ATOM     43  H   UNL A   1      40.223  30.006  31.585  1.00  0.00     0.167 HD
ATOM     44  C   UNL A   1      42.053  27.079  28.793  1.00  0.00     0.034 A 
ATOM     45  C   UNL A   1      39.752  31.124  34.103  1.00  0.00     0.034 A 
ATOM     46  C   UNL A   1      42.843  27.025  29.993  1.00  0.00     0.049 A 
ATOM     47  C   UNL A   1      40.949  30.222  34.240  1.00  0.00     0.074 A 
ATOM     48  C   UNL A   1      43.991  26.296  30.239  1.00  0.00     0.029 A 
ATOM     49  N   UNL A   1      42.560  27.735  31.152  1.00  0.00    -0.354 N 
ATOM     50  N   UNL A   1      41.526  29.473  33.330  1.00  0.00    -0.248 NA
ATOM     51  C   UNL A   1      41.588  30.161  35.561  1.00  0.00     0.031 C 
ATOM     52  C   UNL A   1      44.394  26.553  31.554  1.00  0.00     0.029 A 
ATOM     53  C   UNL A   1      43.509  27.459  32.119  1.00  0.00     0.049 A 
ATOM     54  H   UNL A   1      41.797  28.346  31.268  1.00  0.00     0.167 HD
ATOM     55  C   UNL A   1      42.617  28.884  33.954  1.00  0.00     0.074 A 
ATOM     56  C   UNL A   1      42.625  29.369  35.320  1.00  0.00     0.031 C 
ATOM     57  C   UNL A   1      43.525  28.011  33.450  1.00  0.00     0.034 A 
BRANCH  44  58
ATOM     58  C   UNL A   1      42.463  26.239  27.614  1.00  0.00     0.023 A 
ATOM     59  C   UNL A   1      43.302  26.785  26.623  1.00  0.00     0.012 A 
ATOM     60  C   UNL A   1      42.036  24.901  27.498  1.00  0.00     0.148 A 
ATOM     61  C   UNL A   1      43.683  26.026  25.517  1.00  0.00     0.002 A 
ATOM     62  C   UNL A   1      42.452  24.137  26.414  1.00  0.00     0.091 A 
ATOM     63  F   UNL A   1      41.214  24.407  28.434  1.00  0.00    -0.205 F 
ATOM     64  C   UNL A   1      43.266  24.701  25.417  1.00  0.00     0.022 A 
BRANCH  62  65
ATOM     65  S   UNL A   1      42.022  22.402  26.237  1.00  0.00     0.127 S 
ATOM     66  O   UNL A   1      42.574  21.834  27.466  1.00  0.00    -0.237 OA
ATOM     67  O   UNL A   1      40.560  22.446  26.189  1.00  0.00    -0.237 OA
ATOM     68  O   UNL A   1      42.652  21.960  25.000  1.00  0.00    -0.744 OA
ENDBRANCH  62  65
ENDBRANCH  44  58
BRANCH  45  69
ATOM     69  C   UNL A   1      39.266  31.951  35.242  1.00  0.00     0.023 A 
ATOM     70  C   UNL A   1      38.361  31.385  36.161  1.00  0.00     0.012 A 
ATOM     71  C   UNL A   1      39.722  33.268  35.452  1.00  0.00     0.148 A 
ATOM     72  C   UNL A   1      37.907  32.120  37.257  1.00  0.00     0.002 A 
ATOM     73  C   UNL A   1      39.306  33.976  36.574  1.00  0.00     0.091 A 
ATOM     74  F   UNL A   1      40.569  33.797  34.556  1.00  0.00    -0.205 F 
ATOM     75  C   UNL A   1      38.387  33.409  37.470  1.00  0.00     0.022 A 
BRANCH  73  76
ATOM     76  S   UNL A   1      39.969  35.592  36.996  1.00  0.00     0.127 S 
ATOM     77  O   UNL A   1      39.261  35.893  38.235  1.00  0.00    -0.237 OA
ATOM     78  O   UNL A   1      41.396  35.302  37.155  1.00  0.00    -0.237 OA
ATOM     79  O   UNL A   1      39.658  36.452  35.862  1.00  0.00    -0.744 OA
ENDBRANCH  73  76
ENDBRANCH  45  69
BRANCH  57  80
ATOM     80  C   UNL A   1      44.636  27.560  34.360  1.00  0.00     0.023 A 
ATOM     81  C   UNL A   1      45.818  28.319  34.449  1.00  0.00     0.012 A 
ATOM     82  C   UNL A   1      44.456  26.447  35.204  1.00  0.00     0.148 A 
ATOM     83  C   UNL A   1      46.815  27.964  35.356  1.00  0.00     0.002 A 
ATOM     84  C   UNL A   1      45.433  26.127  36.138  1.00  0.00     0.091 A 
ATOM     85  F   UNL A   1      43.327  25.731  35.086  1.00  0.00    -0.205 F 
ATOM     86  C   UNL A   1      46.617  26.879  36.208  1.00  0.00     0.022 A 
BRANCH  84  87
ATOM     87  S   UNL A   1      45.224  24.810  37.340  1.00  0.00     0.127 S 
ATOM     88  O   UNL A   1      43.960  25.183  37.972  1.00  0.00    -0.237 OA
ATOM     89  O   UNL A   1      45.155  23.622  36.488  1.00  0.00    -0.237 OA
ATOM     90  O   UNL A   1      46.394  24.866  38.207  1.00  0.00    -0.744 OA
ENDBRANCH  84  87
ENDBRANCH  57  80
ENDBRANCH  31  32
ENDBRANCH  24  26
ENDBRANCH  23  24
ENDBRANCH  22  23
ENDBRANCH   1  22
TORSDOF 18
ENDMDL
MODEL 2
REMARK VINA RESULT:     -11.2      1.019      1.714
REMARK SMILES CC(C)[C@@H]1CCCN1C(=O)N1CCO[C@H](CC(=O)OCCOC(=O)c2ccc(-c3c4nc(c(-c5cccc(S(=O)(=O)[O-])c5F)c5ccc([nH]5)c(-c5cccc(S(=O)(=O)[O-])c5F)c5nc(c(-c6cccc(S(=O)(=O)[O-])c6F)c6ccc3[nH]6)C=C5)C=C4)cc2)C1
REMARK SMILES IDX 20 1 19 2 17 3 18 4 16 5 15 6 11 7 12 8 88 9 13 10 14 11
REMARK SMILES IDX 9 12 10 13 8 14 4 15 5 16 6 17 7 18 2 19 1 20 3 21 21 22
REMARK SMILES IDX 22 23 23 24 24 25 25 26 26 27 87 28 27 29 86 30 28 31 29 32
REMARK SMILES IDX 30 33 80 34 31 35 85 36 79 37 81 38 32 39 84 40 78 41 77 42
REMARK SMILES IDX 33 44 65 45 45 46 64 47 46 48 49 49 63 50 82 51 47 52 48 53
REMARK SMILES IDX 62 55 83 56 50 57 34 58 35 59 43 60 36 61 38 62 44 63 37 64
REMARK SMILES IDX 39 65 40 66 41 67 42 68 66 69 67 70 75 71 68 72 70 73 76 74
REMARK SMILES IDX 69 75 71 76 72 77 73 78 74 79 51 80 52 81 60 82 53 83 55 84
REMARK SMILES IDX 61 85 54 86 56 87 57 88 58 89 59 90
REMARK H PARENT 81 43 49 54
REMARK Flexibility Score: inf
ROOT
ATOM      1  C   UNL A   1      31.502  28.986  25.000  1.00  0.00     0.274 C 
ENDROOT
BRANCH   1   2
ATOM      2  O   UNL A   1      32.125  27.763  25.438  1.00  0.00    -0.462 OA
BRANCH   2   3
ATOM      3  C   UNL A   1      31.276  26.882  26.007  1.00  0.00     0.308 C 
ATOM      4  O   UNL A   1      30.803  27.013  27.135  1.00  0.00    -0.252 OA
BRANCH   3   5
ATOM      5  C   UNL A   1      31.072  25.605  25.263  1.00  0.00     0.156 C 
BRANCH   5   6
ATOM      6  C   UNL A   1      30.324  25.409  23.943  1.00  0.00     0.149 C 
ATOM      7  N   UNL A   1      32.319  24.872  22.699  1.00  0.00    -0.320 N 
ATOM      8  C   UNL A   1      31.981  25.784  21.618  1.00  0.00     0.150 C 
ATOM      9  C   UNL A   1      31.079  24.291  23.215  1.00  0.00     0.154 C 
ATOM     10  C   UNL A   1      31.094  26.919  22.165  1.00  0.00     0.182 C 
ATOM     11  O   UNL A   1      30.061  26.515  23.077  1.00  0.00    -0.374 OA
BRANCH   7  12
ATOM     12  C   UNL A   1      33.407  24.049  22.609  1.00  0.00     0.320 C 
ATOM     13  O   UNL A   1      33.751  23.610  21.509  1.00  0.00    -0.248 OA
BRANCH  12  14
ATOM     14  N   UNL A   1      33.993  23.612  23.791  1.00  0.00    -0.321 N 
ATOM     15  C   UNL A   1      34.382  22.286  24.368  1.00  0.00     0.089 C 
ATOM     16  C   UNL A   1      34.908  22.675  25.768  1.00  0.00     0.027 C 
ATOM     17  C   UNL A   1      35.582  24.004  25.528  1.00  0.00     0.024 C 
ATOM     18  C   UNL A   1      34.616  24.680  24.571  1.00  0.00     0.122 C 
BRANCH  15  19
ATOM     19  C   UNL A   1      33.414  21.056  24.446  1.00  0.00     0.005 C 
ATOM     20  C   UNL A   1      34.063  19.683  24.690  1.00  0.00     0.009 C 
ATOM     21  C   UNL A   1      32.246  21.169  25.401  1.00  0.00     0.009 C 
ENDBRANCH  15  19
ENDBRANCH  12  14
ENDBRANCH   7  12
ENDBRANCH   5   6
ENDBRANCH   3   5
ENDBRANCH   2   3
ENDBRANCH   1   2
BRANCH   1  22
ATOM     22  C   UNL A   1      31.779  30.159  25.945  1.00  0.00     0.275 C 
BRANCH  22  23
ATOM     23  O   UNL A   1      33.183  30.376  26.164  1.00  0.00    -0.458 OA
BRANCH  23  24
ATOM     24  C   UNL A   1      33.475  31.316  27.095  1.00  0.00     0.338 C 
ATOM     25  O   UNL A   1      32.743  32.199  27.507  1.00  0.00    -0.246 OA
BRANCH  24  26
ATOM     26  C   UNL A   1      34.801  31.052  27.668  1.00  0.00     0.060 A 
ATOM     27  C   UNL A   1      35.080  29.769  28.149  1.00  0.00     0.016 A 
ATOM     28  C   UNL A   1      35.723  32.083  27.821  1.00  0.00     0.016 A 
ATOM     29  C   UNL A   1      36.285  29.497  28.779  1.00  0.00     0.010 A 
ATOM     30  C   UNL A   1      36.930  31.816  28.466  1.00  0.00     0.010 A 
ATOM     31  C   UNL A   1      37.210  30.526  28.955  1.00  0.00    -0.014 A 
BRANCH  31  32
ATOM     32  C   UNL A   1      38.443  30.293  29.734  1.00  0.00     0.031 A 
ATOM     33  C   UNL A   1      39.476  29.360  29.181  1.00  0.00     0.074 A 
ATOM     34  C   UNL A   1      38.599  30.877  30.934  1.00  0.00     0.049 A 
ATOM     35  N   UNL A   1      40.517  28.838  29.770  1.00  0.00    -0.248 NA
ATOM     36  C   UNL A   1      39.305  28.950  27.776  1.00  0.00     0.031 C 
ATOM     37  C   UNL A   1      37.676  31.845  31.529  1.00  0.00     0.029 A 
ATOM     38  N   UNL A   1      39.573  30.712  31.884  1.00  0.00    -0.354 N 
ATOM     39  C   UNL A   1      41.091  27.990  28.832  1.00  0.00     0.074 A 
ATOM     40  C   UNL A   1      40.292  28.079  27.629  1.00  0.00     0.031 C 
ATOM     41  C   UNL A   1      38.109  32.162  32.760  1.00  0.00     0.029 A 
ATOM     42  C   UNL A   1      39.305  31.377  33.056  1.00  0.00     0.049 A 
ATOM     43  H   UNL A   1      40.383  30.172  31.740  1.00  0.00     0.167 HD
ATOM     44  C   UNL A   1      42.187  27.210  28.969  1.00  0.00     0.034 A 
ATOM     45  C   UNL A   1      39.929  31.318  34.248  1.00  0.00     0.034 A 
ATOM     46  C   UNL A   1      42.983  27.165  30.165  1.00  0.00     0.049 A 
ATOM     47  C   UNL A   1      41.123  30.412  34.388  1.00  0.00     0.074 A 
ATOM     48  C   UNL A   1      44.129  26.433  30.413  1.00  0.00     0.029 A 
ATOM     49  N   UNL A   1      42.709  27.888  31.318  1.00  0.00    -0.354 N 
ATOM     50  N   UNL A   1      41.692  29.652  33.483  1.00  0.00    -0.248 NA
ATOM     51  C   UNL A   1      41.769  30.362  35.707  1.00  0.00     0.031 C 
ATOM     52  C   UNL A   1      44.540  26.703  31.722  1.00  0.00     0.029 A 
ATOM     53  C   UNL A   1      43.662  27.618  32.283  1.00  0.00     0.049 A 
ATOM     54  H   UNL A   1      41.949  28.503  31.432  1.00  0.00     0.167 HD
ATOM     55  C   UNL A   1      42.785  29.065  34.108  1.00  0.00     0.074 A 
ATOM     56  C   UNL A   1      42.802  29.564  35.468  1.00  0.00     0.031 C 
ATOM     57  C   UNL A   1      43.687  28.183  33.608  1.00  0.00     0.034 A 
BRANCH  44  58
ATOM     58  C   UNL A   1      42.587  26.356  27.796  1.00  0.00     0.023 A 
ATOM     59  C   UNL A   1      43.459  26.874  26.818  1.00  0.00     0.012 A 
ATOM     60  C   UNL A   1      42.120  25.032  27.674  1.00  0.00     0.148 A 
ATOM     61  C   UNL A   1      43.831  26.102  25.718  1.00  0.00     0.002 A 
ATOM     62  C   UNL A   1      42.528  24.254  26.596  1.00  0.00     0.091 A 
ATOM     63  F   UNL A   1      41.268  24.565  28.598  1.00  0.00    -0.205 F 
ATOM     64  C   UNL A   1      43.374  24.791  25.612  1.00  0.00     0.022 A 
BRANCH  62  65
ATOM     65  S   UNL A   1      42.045  22.534  26.414  1.00  0.00     0.127 S 
ATOM     66  O   UNL A   1      40.587  22.635  26.399  1.00  0.00    -0.237 OA
ATOM     67  O   UNL A   1      42.645  22.176  25.128  1.00  0.00    -0.237 OA
ATOM     68  O   UNL A   1      42.616  21.838  27.559  1.00  0.00    -0.744 OA
ENDBRANCH  62  65
ENDBRANCH  44  58
BRANCH  45  69
ATOM     69  C   UNL A   1      39.452  32.158  35.382  1.00  0.00     0.023 A 
ATOM     70  C   UNL A   1      38.579  31.593  36.332  1.00  0.00     0.012 A 
ATOM     71  C   UNL A   1      39.887  33.487  35.554  1.00  0.00     0.148 A 
ATOM     72  C   UNL A   1      38.135  32.342  37.423  1.00  0.00     0.002 A 
ATOM     73  C   UNL A   1      39.482  34.210  36.671  1.00  0.00     0.091 A 
ATOM     74  F   UNL A   1      40.702  34.014  34.630  1.00  0.00    -0.205 F 
ATOM     75  C   UNL A   1      38.594  33.644  37.599  1.00  0.00     0.022 A 
BRANCH  73  76
ATOM     76  S   UNL A   1      40.122  35.847  37.045  1.00  0.00     0.127 S 
ATOM     77  O   UNL A   1      41.554  35.590  37.161  1.00  0.00    -0.237 OA
ATOM     78  O   UNL A   1      39.725  36.606  35.858  1.00  0.00    -0.237 OA
ATOM     79  O   UNL A   1      39.450  36.261  38.270  1.00  0.00    -0.744 OA
ENDBRANCH  73  76
ENDBRANCH  45  69
BRANCH  57  80
ATOM     80  C   UNL A   1      44.801  27.737  34.516  1.00  0.00     0.023 A 
ATOM     81  C   UNL A   1      45.972  28.511  34.617  1.00  0.00     0.012 A 
ATOM     82  C   UNL A   1      44.632  26.613  35.349  1.00  0.00     0.148 A 
ATOM     83  C   UNL A   1      46.971  28.160  35.524  1.00  0.00     0.002 A 
ATOM     84  C   UNL A   1      45.611  26.297  36.282  1.00  0.00     0.091 A 
ATOM     85  F   UNL A   1      43.514  25.884  35.220  1.00  0.00    -0.205 F 
ATOM     86  C   UNL A   1      46.784  27.063  36.364  1.00  0.00     0.022 A 
BRANCH  84  87
ATOM     87  S   UNL A   1      45.415  24.964  37.470  1.00  0.00     0.127 S 
ATOM     88  O   UNL A   1      44.248  25.411  38.228  1.00  0.00    -0.237 OA
ATOM     89  O   UNL A   1      45.177  23.810  36.603  1.00  0.00    -0.237 OA
ATOM     90  O   UNL A   1      46.662  24.909  38.222  1.00  0.00    -0.744 OA
ENDBRANCH  84  87
ENDBRANCH  57  80
ENDBRANCH  31  32
ENDBRANCH  24  26
ENDBRANCH  23  24
ENDBRANCH  22  23
ENDBRANCH   1  22
TORSDOF 18
ENDMDL
MODEL 3
REMARK VINA RESULT:     -11.2      1.531      2.442
REMARK SMILES CC(C)[C@@H]1CCCN1C(=O)N1CCO[C@H](CC(=O)OCCOC(=O)c2ccc(-c3c4nc(c(-c5cccc(S(=O)(=O)[O-])c5F)c5ccc([nH]5)c(-c5cccc(S(=O)(=O)[O-])c5F)c5nc(c(-c6cccc(S(=O)(=O)[O-])c6F)c6ccc3[nH]6)C=C5)C=C4)cc2)C1
REMARK SMILES IDX 20 1 19 2 17 3 18 4 16 5 15 6 11 7 12 8 88 9 13 10 14 11
REMARK SMILES IDX 9 12 10 13 8 14 4 15 5 16 6 17 7 18 2 19 1 20 3 21 21 22
REMARK SMILES IDX 22 23 23 24 24 25 25 26 26 27 87 28 27 29 86 30 28 31 29 32
REMARK SMILES IDX 30 33 80 34 31 35 85 36 79 37 81 38 32 39 84 40 78 41 77 42
REMARK SMILES IDX 33 44 65 45 45 46 64 47 46 48 49 49 63 50 82 51 47 52 48 53
REMARK SMILES IDX 62 55 83 56 50 57 34 58 35 59 43 60 36 61 38 62 44 63 37 64
REMARK SMILES IDX 39 65 40 66 41 67 42 68 66 69 67 70 75 71 68 72 70 73 76 74
REMARK SMILES IDX 69 75 71 76 72 77 73 78 74 79 51 80 52 81 60 82 53 83 55 84
REMARK SMILES IDX 61 85 54 86 56 87 57 88 58 89 59 90
REMARK H PARENT 81 43 49 54
REMARK Flexibility Score: inf
ROOT
ATOM      1  C   UNL A   1      32.132  28.194  27.312  1.00  0.00     0.274 C 
ENDROOT
BRANCH   1   2
ATOM      2  O   UNL A   1      31.039  27.368  26.866  1.00  0.00    -0.462 OA
BRANCH   2   3
ATOM      3  C   UNL A   1      31.414  26.307  26.122  1.00  0.00     0.308 C 
ATOM      4  O   UNL A   1      32.292  25.512  26.452  1.00  0.00    -0.252 OA
BRANCH   3   5
ATOM      5  C   UNL A   1      30.832  26.238  24.750  1.00  0.00     0.156 C 
BRANCH   5   6
ATOM      6  C   UNL A   1      31.031  27.233  23.606  1.00  0.00     0.149 C 
ATOM      7  N   UNL A   1      32.754  25.923  22.543  1.00  0.00    -0.320 N 
ATOM      8  C   UNL A   1      33.633  27.071  22.383  1.00  0.00     0.150 C 
ATOM      9  C   UNL A   1      31.372  26.376  22.381  1.00  0.00     0.154 C 
ATOM     10  C   UNL A   1      33.323  28.109  23.478  1.00  0.00     0.182 C 
ATOM     11  O   UNL A   1      31.930  28.336  23.741  1.00  0.00    -0.374 OA
BRANCH   7  12
ATOM     12  C   UNL A   1      33.081  24.707  22.009  1.00  0.00     0.320 C 
ATOM     13  O   UNL A   1      33.089  24.561  20.785  1.00  0.00    -0.248 OA
BRANCH  12  14
ATOM     14  N   UNL A   1      33.244  23.635  22.879  1.00  0.00    -0.321 N 
ATOM     15  C   UNL A   1      33.888  23.428  24.215  1.00  0.00     0.089 C 
ATOM     16  C   UNL A   1      33.684  21.913  24.449  1.00  0.00     0.027 C 
ATOM     17  C   UNL A   1      32.333  21.646  23.831  1.00  0.00     0.024 C 
ATOM     18  C   UNL A   1      32.389  22.490  22.571  1.00  0.00     0.122 C 
BRANCH  15  19
ATOM     19  C   UNL A   1      35.356  23.862  24.548  1.00  0.00     0.005 C 
ATOM     20  C   UNL A   1      35.807  23.702  26.009  1.00  0.00     0.009 C 
ATOM     21  C   UNL A   1      36.451  23.281  23.681  1.00  0.00     0.009 C 
ENDBRANCH  15  19
ENDBRANCH  12  14
ENDBRANCH   7  12
ENDBRANCH   5   6
ENDBRANCH   3   5
ENDBRANCH   2   3
ENDBRANCH   1   2
BRANCH   1  22
ATOM     22  C   UNL A   1      31.967  29.661  26.903  1.00  0.00     0.275 C 
BRANCH  22  23
ATOM     23  O   UNL A   1      33.204  30.262  26.486  1.00  0.00    -0.458 OA
BRANCH  23  24
ATOM     24  C   UNL A   1      33.634  31.280  27.270  1.00  0.00     0.338 C 
ATOM     25  O   UNL A   1      32.999  32.257  27.626  1.00  0.00    -0.246 OA
BRANCH  24  26
ATOM     26  C   UNL A   1      34.985  30.987  27.767  1.00  0.00     0.060 A 
ATOM     27  C   UNL A   1      35.302  29.669  28.108  1.00  0.00     0.016 A 
ATOM     28  C   UNL A   1      35.895  32.016  27.990  1.00  0.00     0.016 A 
ATOM     29  C   UNL A   1      36.534  29.359  28.665  1.00  0.00     0.010 A 
ATOM     30  C   UNL A   1      37.129  31.710  28.562  1.00  0.00     0.010 A 
ATOM     31  C   UNL A   1      37.448  30.384  28.911  1.00  0.00    -0.014 A 
BRANCH  31  32
ATOM     32  C   UNL A   1      38.712  30.099  29.618  1.00  0.00     0.031 A 
ATOM     33  C   UNL A   1      39.663  29.108  29.021  1.00  0.00     0.074 A 
ATOM     34  C   UNL A   1      38.969  30.691  30.798  1.00  0.00     0.049 A 
ATOM     35  N   UNL A   1      40.709  28.542  29.555  1.00  0.00    -0.248 NA
ATOM     36  C   UNL A   1      39.387  28.690  27.635  1.00  0.00     0.031 C 
ATOM     37  C   UNL A   1      38.131  31.711  31.431  1.00  0.00     0.029 A 
ATOM     38  N   UNL A   1      39.988  30.489  31.691  1.00  0.00    -0.354 N 
ATOM     39  C   UNL A   1      41.184  27.654  28.599  1.00  0.00     0.074 A 
ATOM     40  C   UNL A   1      40.320  27.767  27.444  1.00  0.00     0.031 C 
ATOM     41  C   UNL A   1      38.653  32.022  32.628  1.00  0.00     0.029 A 
ATOM     42  C   UNL A   1      39.824  31.182  32.866  1.00  0.00     0.049 A 
ATOM     43  H   UNL A   1      40.760  29.907  31.508  1.00  0.00     0.167 HD
ATOM     44  C   UNL A   1      42.247  26.822  28.683  1.00  0.00     0.034 A 
ATOM     45  C   UNL A   1      40.514  31.107  34.020  1.00  0.00     0.034 A 
ATOM     46  C   UNL A   1      43.109  26.752  29.831  1.00  0.00     0.049 A 
ATOM     47  C   UNL A   1      41.669  30.144  34.103  1.00  0.00     0.074 A 
ATOM     48  C   UNL A   1      44.230  25.968  30.022  1.00  0.00     0.029 A 
ATOM     49  N   UNL A   1      42.941  27.504  30.986  1.00  0.00    -0.354 N 
ATOM     50  N   UNL A   1      42.144  29.345  33.179  1.00  0.00    -0.248 NA
ATOM     51  C   UNL A   1      42.389  30.080  35.382  1.00  0.00     0.031 C 
ATOM     52  C   UNL A   1      44.732  26.233  31.300  1.00  0.00     0.029 A 
ATOM     53  C   UNL A   1      43.935  27.198  31.897  1.00  0.00     0.049 A 
ATOM     54  H   UNL A   1      42.220  28.158  31.135  1.00  0.00     0.167 HD
ATOM     55  C   UNL A   1      43.242  28.712  33.747  1.00  0.00     0.074 A 
ATOM     56  C   UNL A   1      43.365  29.227  35.096  1.00  0.00     0.031 C 
ATOM     57  C   UNL A   1      44.068  27.779  33.210  1.00  0.00     0.034 A 
BRANCH  44  58
ATOM     58  C   UNL A   1      42.533  25.933  27.503  1.00  0.00     0.023 A 
ATOM     59  C   UNL A   1      43.305  26.421  26.430  1.00  0.00     0.012 A 
ATOM     60  C   UNL A   1      42.058  24.607  27.465  1.00  0.00     0.148 A 
ATOM     61  C   UNL A   1      43.571  25.617  25.322  1.00  0.00     0.002 A 
ATOM     62  C   UNL A   1      42.361  23.798  26.376  1.00  0.00     0.091 A 
ATOM     63  F   UNL A   1      41.300  24.169  28.480  1.00  0.00    -0.205 F 
ATOM     64  C   UNL A   1      43.108  24.304  25.300  1.00  0.00     0.022 A 
BRANCH  62  65
ATOM     65  S   UNL A   1      41.865  22.073  26.292  1.00  0.00     0.127 S 
ATOM     66  O   UNL A   1      42.690  21.582  25.189  1.00  0.00    -0.237 OA
ATOM     67  O   UNL A   1      42.252  21.572  27.611  1.00  0.00    -0.237 OA
ATOM     68  O   UNL A   1      40.429  22.084  26.049  1.00  0.00    -0.744 OA
ENDBRANCH  62  65
ENDBRANCH  44  58
BRANCH  45  69
ATOM     69  C   UNL A   1      40.148  31.985  35.166  1.00  0.00     0.023 A 
ATOM     70  C   UNL A   1      40.764  33.246  35.286  1.00  0.00     0.012 A 
ATOM     71  C   UNL A   1      39.168  31.608  36.106  1.00  0.00     0.148 A 
ATOM     72  C   UNL A   1      40.424  34.107  36.331  1.00  0.00     0.002 A 
ATOM     73  C   UNL A   1      38.797  32.492  37.114  1.00  0.00     0.091 A 
ATOM     74  F   UNL A   1      38.606  30.397  35.987  1.00  0.00    -0.205 F 
ATOM     75  C   UNL A   1      39.434  33.736  37.236  1.00  0.00     0.022 A 
BRANCH  73  76
ATOM     76  S   UNL A   1      37.445  32.150  38.247  1.00  0.00     0.127 S 
ATOM     77  O   UNL A   1      38.022  32.540  39.529  1.00  0.00    -0.237 OA
ATOM     78  O   UNL A   1      36.397  33.041  37.745  1.00  0.00    -0.237 OA
ATOM     79  O   UNL A   1      37.150  30.732  38.089  1.00  0.00    -0.744 OA
ENDBRANCH  73  76
ENDBRANCH  45  69
BRANCH  57  80
ATOM     80  C   UNL A   1      45.210  27.290  34.057  1.00  0.00     0.023 A 
ATOM     81  C   UNL A   1      46.428  27.996  34.065  1.00  0.00     0.012 A 
ATOM     82  C   UNL A   1      45.032  26.196  34.927  1.00  0.00     0.148 A 
ATOM     83  C   UNL A   1      47.462  27.608  34.916  1.00  0.00     0.002 A 
ATOM     84  C   UNL A   1      46.050  25.844  35.805  1.00  0.00     0.091 A 
ATOM     85  F   UNL A   1      43.869  25.530  34.887  1.00  0.00    -0.205 F 
ATOM     86  C   UNL A   1      47.267  26.543  35.794  1.00  0.00     0.022 A 
BRANCH  84  87
ATOM     87  S   UNL A   1      45.855  24.552  37.037  1.00  0.00     0.127 S 
ATOM     88  O   UNL A   1      47.148  24.594  37.718  1.00  0.00    -0.237 OA
ATOM     89  O   UNL A   1      44.730  25.048  37.830  1.00  0.00    -0.237 OA
ATOM     90  O   UNL A   1      45.581  23.328  36.297  1.00  0.00    -0.744 OA
ENDBRANCH  84  87
ENDBRANCH  57  80
ENDBRANCH  31  32
ENDBRANCH  24  26
ENDBRANCH  23  24
ENDBRANCH  22  23
ENDBRANCH   1  22
TORSDOF 18
ENDMDL
