MODEL 1
REMARK VINA RESULT:     -13.1      0.000      0.000
REMARK SMILES CC(C)=C1[C@H]2CC[C@@H]1[C@@H](C(=O)Nc1cc(C)cc(C)c1)[C@@H]2C(=O)OCCOC(=O)c1ccc(-c2c3nc(c(-c4cccc(S(=O)(=O)[O-])c4F)c4ccc([nH]4)c(-c4cccc(S(=O)(=O)[O-])c4F)c4nc(c(-c5cccc(S(=O)(=O)[O-])c5F)c5ccc2[nH]5)C=C4)C=C3)cc1
REMARK SMILES IDX 26 1 25 2 24 3 22 4 23 5 21 6 1 7 2 8 3 9 4 10 5 11 8 12
REMARK SMILES IDX 6 13 7 14 9 15 10 16 11 17 12 18 13 20 14 21 20 22 15 23
REMARK SMILES IDX 18 24 16 25 17 26 19 27 27 28 28 29 29 30 30 31 31 32 92 33
REMARK SMILES IDX 32 34 91 35 33 36 34 37 35 38 85 39 36 40 90 41 84 42 86 43
REMARK SMILES IDX 37 44 89 45 83 46 82 47 38 49 70 50 50 51 69 52 51 53 54 54
REMARK SMILES IDX 68 55 87 56 52 57 53 58 67 60 88 61 55 62 39 63 40 64 48 65
REMARK SMILES IDX 41 66 43 67 49 68 42 69 44 70 45 71 46 72 47 73 71 74 72 75
REMARK SMILES IDX 80 76 73 77 75 78 81 79 74 80 76 81 77 82 78 83 79 84 56 85
REMARK SMILES IDX 57 86 65 87 58 88 60 89 66 90 59 91 61 92 62 93 63 94 64 95
REMARK H PARENT 12 19 86 48 54 59
REMARK Flexibility Score: inf
ROOT
ATOM      1  C   UNL A   1      31.476  32.059  26.751  1.00  0.00     0.275 C 
ENDROOT
BRANCH   1   2
ATOM      2  C   UNL A   1      31.367  30.720  26.022  1.00  0.00     0.274 C 
BRANCH   2   3
ATOM      3  O   UNL A   1      32.194  29.715  26.644  1.00  0.00    -0.462 OA
BRANCH   3   4
ATOM      4  C   UNL A   1      31.705  28.451  26.658  1.00  0.00     0.310 C 
ATOM      5  O   UNL A   1      31.280  27.882  27.658  1.00  0.00    -0.252 OA
BRANCH   4   6
ATOM      6  C   UNL A   1      31.793  27.744  25.320  1.00  0.00     0.119 C 
ATOM      7  C   UNL A   1      32.645  24.639  21.938  1.00  0.00     0.039 C 
ATOM      8  C   UNL A   1      31.904  24.901  23.220  1.00  0.00    -0.077 C 
ATOM      9  C   UNL A   1      30.670  24.068  23.424  1.00  0.00     0.039 C 
ATOM     10  C   UNL A   1      32.329  25.792  24.131  1.00  0.00    -0.064 C 
ATOM     11  C   UNL A   1      31.764  26.207  25.465  1.00  0.00     0.030 C 
ATOM     12  C   UNL A   1      33.585  26.617  24.182  1.00  0.00     0.029 C 
ATOM     13  C   UNL A   1      32.919  25.699  26.333  1.00  0.00     0.009 C 
ATOM     14  C   UNL A   1      34.166  26.052  25.496  1.00  0.00     0.009 C 
ATOM     15  C   UNL A   1      33.012  28.027  24.432  1.00  0.00     0.101 C 
BRANCH  15  16
ATOM     16  C   UNL A   1      32.917  28.800  23.102  1.00  0.00     0.228 C 
ATOM     17  O   UNL A   1      33.981  29.008  22.494  1.00  0.00    -0.274 OA
ATOM     18  N   UNL A   1      31.806  29.125  22.393  1.00  0.00    -0.326 N 
ATOM     19  H   UNL A   1      32.014  29.376  21.464  1.00  0.00     0.169 HD
BRANCH  18  20
ATOM     20  C   UNL A   1      30.437  29.190  22.666  1.00  0.00     0.041 A 
ATOM     21  C   UNL A   1      29.690  30.357  22.573  1.00  0.00     0.029 A 
ATOM     22  C   UNL A   1      29.779  27.991  22.950  1.00  0.00     0.029 A 
ATOM     23  C   UNL A   1      28.350  30.389  22.979  1.00  0.00    -0.049 A 
ATOM     24  C   UNL A   1      28.425  27.984  23.314  1.00  0.00    -0.049 A 
ATOM     25  C   UNL A   1      27.626  31.698  23.099  1.00  0.00     0.044 C 
ATOM     26  C   UNL A   1      27.728  29.196  23.363  1.00  0.00     0.007 A 
ATOM     27  C   UNL A   1      27.763  26.716  23.762  1.00  0.00     0.044 C 
ENDBRANCH  18  20
ENDBRANCH  15  16
ENDBRANCH   4   6
ENDBRANCH   3   4
ENDBRANCH   2   3
ENDBRANCH   1   2
BRANCH   1  28
ATOM     28  O   UNL A   1      32.763  32.667  26.539  1.00  0.00    -0.458 OA
BRANCH  28  29
ATOM     29  C   UNL A   1      33.253  33.321  27.614  1.00  0.00     0.338 C 
ATOM     30  O   UNL A   1      32.733  34.264  28.199  1.00  0.00    -0.246 OA
BRANCH  29  31
ATOM     31  C   UNL A   1      34.484  32.673  28.080  1.00  0.00     0.060 A 
ATOM     32  C   UNL A   1      34.406  31.355  28.534  1.00  0.00     0.016 A 
ATOM     33  C   UNL A   1      35.680  33.385  28.171  1.00  0.00     0.016 A 
ATOM     34  C   UNL A   1      35.510  30.754  29.131  1.00  0.00     0.010 A 
ATOM     35  C   UNL A   1      36.797  32.772  28.749  1.00  0.00     0.010 A 
ATOM     36  C   UNL A   1      36.711  31.464  29.259  1.00  0.00    -0.014 A 
BRANCH  36  37
ATOM     37  C   UNL A   1      37.864  30.850  29.961  1.00  0.00     0.031 A 
ATOM     38  C   UNL A   1      38.191  31.257  31.372  1.00  0.00     0.074 A 
ATOM     39  C   UNL A   1      38.622  29.938  29.327  1.00  0.00     0.049 A 
ATOM     40  N   UNL A   1      39.182  30.870  32.132  1.00  0.00    -0.248 NA
ATOM     41  C   UNL A   1      37.288  32.231  32.007  1.00  0.00     0.031 C 
ATOM     42  C   UNL A   1      38.412  29.472  27.956  1.00  0.00     0.029 A 
ATOM     43  N   UNL A   1      39.736  29.253  29.747  1.00  0.00    -0.354 N 
ATOM     44  C   UNL A   1      39.049  31.580  33.319  1.00  0.00     0.074 A 
ATOM     45  C   UNL A   1      37.883  32.426  33.177  1.00  0.00     0.031 C 
ATOM     46  C   UNL A   1      39.372  28.588  27.642  1.00  0.00     0.029 A 
ATOM     47  C   UNL A   1      40.279  28.442  28.778  1.00  0.00     0.049 A 
ATOM     48  H   UNL A   1      40.109  29.335  30.654  1.00  0.00     0.167 HD
ATOM     49  C   UNL A   1      39.816  31.519  34.434  1.00  0.00     0.034 A 
ATOM     50  C   UNL A   1      41.388  27.678  28.800  1.00  0.00     0.034 A 
ATOM     51  C   UNL A   1      40.947  30.642  34.593  1.00  0.00     0.049 A 
ATOM     52  C   UNL A   1      42.206  27.608  30.062  1.00  0.00     0.074 A 
ATOM     53  C   UNL A   1      41.761  30.477  35.699  1.00  0.00     0.029 A 
ATOM     54  N   UNL A   1      41.421  29.779  33.617  1.00  0.00    -0.354 N 
ATOM     55  N   UNL A   1      42.001  28.204  31.212  1.00  0.00    -0.248 NA
ATOM     56  C   UNL A   1      43.387  26.733  30.040  1.00  0.00     0.031 C 
ATOM     57  C   UNL A   1      42.730  29.515  35.391  1.00  0.00     0.029 A 
ATOM     58  C   UNL A   1      42.514  29.076  34.095  1.00  0.00     0.049 A 
ATOM     59  H   UNL A   1      41.037  29.681  32.715  1.00  0.00     0.167 HD
ATOM     60  C   UNL A   1      43.008  27.753  32.058  1.00  0.00     0.074 A 
ATOM     61  C   UNL A   1      43.807  26.816  31.296  1.00  0.00     0.031 C 
ATOM     62  C   UNL A   1      43.261  28.100  33.345  1.00  0.00     0.034 A 
BRANCH  49  63
ATOM     63  C   UNL A   1      39.429  32.393  35.598  1.00  0.00     0.023 A 
ATOM     64  C   UNL A   1      38.652  31.851  36.640  1.00  0.00     0.012 A 
ATOM     65  C   UNL A   1      39.878  33.725  35.689  1.00  0.00     0.148 A 
ATOM     66  C   UNL A   1      38.305  32.628  37.745  1.00  0.00     0.002 A 
ATOM     67  C   UNL A   1      39.558  34.483  36.812  1.00  0.00     0.091 A 
ATOM     68  F   UNL A   1      40.594  34.231  34.676  1.00  0.00    -0.205 F 
ATOM     69  C   UNL A   1      38.767  33.938  37.835  1.00  0.00     0.022 A 
BRANCH  67  70
ATOM     70  S   UNL A   1      40.167  36.157  37.046  1.00  0.00     0.127 S 
ATOM     71  O   UNL A   1      39.389  36.596  38.203  1.00  0.00    -0.237 OA
ATOM     72  O   UNL A   1      41.589  35.938  37.317  1.00  0.00    -0.237 OA
ATOM     73  O   UNL A   1      39.893  36.857  35.799  1.00  0.00    -0.744 OA
ENDBRANCH  67  70
ENDBRANCH  49  63
BRANCH  50  74
ATOM     74  C   UNL A   1      41.751  26.869  27.604  1.00  0.00     0.023 A 
ATOM     75  C   UNL A   1      42.373  27.499  26.510  1.00  0.00     0.012 A 
ATOM     76  C   UNL A   1      41.521  25.481  27.557  1.00  0.00     0.148 A 
ATOM     77  C   UNL A   1      42.741  26.766  25.381  1.00  0.00     0.002 A 
ATOM     78  C   UNL A   1      41.938  24.746  26.452  1.00  0.00     0.091 A 
ATOM     79  F   UNL A   1      40.907  24.901  28.599  1.00  0.00    -0.205 F 
ATOM     80  C   UNL A   1      42.535  25.389  25.357  1.00  0.00     0.022 A 
BRANCH  78  81
ATOM     81  S   UNL A   1      41.831  22.954  26.404  1.00  0.00     0.127 S 
ATOM     82  O   UNL A   1      40.388  22.738  26.445  1.00  0.00    -0.237 OA
ATOM     83  O   UNL A   1      42.465  22.641  25.123  1.00  0.00    -0.237 OA
ATOM     84  O   UNL A   1      42.580  22.493  27.565  1.00  0.00    -0.744 OA
ENDBRANCH  78  81
ENDBRANCH  50  74
BRANCH  62  85
ATOM     85  C   UNL A   1      44.436  27.446  34.023  1.00  0.00     0.023 A 
ATOM     86  C   UNL A   1      45.709  28.043  33.933  1.00  0.00     0.012 A 
ATOM     87  C   UNL A   1      44.271  26.281  34.796  1.00  0.00     0.148 A 
ATOM     88  C   UNL A   1      46.805  27.474  34.580  1.00  0.00     0.002 A 
ATOM     89  C   UNL A   1      45.361  25.742  35.471  1.00  0.00     0.091 A 
ATOM     90  F   UNL A   1      43.058  25.711  34.850  1.00  0.00    -0.205 F 
ATOM     91  C   UNL A   1      46.630  26.331  35.357  1.00  0.00     0.022 A 
BRANCH  89  92
ATOM     92  S   UNL A   1      45.191  24.320  36.558  1.00  0.00     0.127 S 
ATOM     93  O   UNL A   1      44.693  23.298  35.639  1.00  0.00    -0.237 OA
ATOM     94  O   UNL A   1      46.564  24.106  37.019  1.00  0.00    -0.237 OA
ATOM     95  O   UNL A   1      44.268  24.739  37.604  1.00  0.00    -0.744 OA
ENDBRANCH  89  92
ENDBRANCH  62  85
ENDBRANCH  36  37
ENDBRANCH  29  31
ENDBRANCH  28  29
ENDBRANCH   1  28
TORSDOF 16
ENDMDL
MODEL 2
REMARK VINA RESULT:     -12.9      5.038      9.962
REMARK SMILES CC(C)=C1[C@H]2CC[C@@H]1[C@@H](C(=O)Nc1cc(C)cc(C)c1)[C@@H]2C(=O)OCCOC(=O)c1ccc(-c2c3nc(c(-c4cccc(S(=O)(=O)[O-])c4F)c4ccc([nH]4)c(-c4cccc(S(=O)(=O)[O-])c4F)c4nc(c(-c5cccc(S(=O)(=O)[O-])c5F)c5ccc2[nH]5)C=C4)C=C3)cc1
REMARK SMILES IDX 26 1 25 2 24 3 22 4 23 5 21 6 1 7 2 8 3 9 4 10 5 11 8 12
REMARK SMILES IDX 6 13 7 14 9 15 10 16 11 17 12 18 13 20 14 21 20 22 15 23
REMARK SMILES IDX 18 24 16 25 17 26 19 27 27 28 28 29 29 30 30 31 31 32 92 33
REMARK SMILES IDX 32 34 91 35 33 36 34 37 35 38 85 39 36 40 90 41 84 42 86 43
REMARK SMILES IDX 37 44 89 45 83 46 82 47 38 49 70 50 50 51 69 52 51 53 54 54
REMARK SMILES IDX 68 55 87 56 52 57 53 58 67 60 88 61 55 62 39 63 40 64 48 65
REMARK SMILES IDX 41 66 43 67 49 68 42 69 44 70 45 71 46 72 47 73 71 74 72 75
REMARK SMILES IDX 80 76 73 77 75 78 81 79 74 80 76 81 77 82 78 83 79 84 56 85
REMARK SMILES IDX 57 86 65 87 58 88 60 89 66 90 59 91 61 92 62 93 63 94 64 95
REMARK H PARENT 12 19 86 48 54 59
REMARK Flexibility Score: inf
ROOT
ATOM      1  C   UNL A   1      37.011  20.337  25.022  1.00  0.00     0.275 C 
ENDROOT
BRANCH   1   2
ATOM      2  C   UNL A   1      35.605  20.918  25.170  1.00  0.00     0.274 C 
BRANCH   2   3
ATOM      3  O   UNL A   1      35.521  22.238  24.598  1.00  0.00    -0.462 OA
BRANCH   3   4
ATOM      4  C   UNL A   1      35.087  23.228  25.417  1.00  0.00     0.310 C 
ATOM      5  O   UNL A   1      35.553  23.467  26.526  1.00  0.00    -0.252 OA
BRANCH   4   6
ATOM      6  C   UNL A   1      33.897  23.996  24.875  1.00  0.00     0.119 C 
ATOM      7  C   UNL A   1      29.573  25.510  23.971  1.00  0.00     0.039 C 
ATOM      8  C   UNL A   1      30.626  25.328  25.031  1.00  0.00    -0.077 C 
ATOM      9  C   UNL A   1      30.505  26.247  26.213  1.00  0.00     0.039 C 
ATOM     10  C   UNL A   1      31.584  24.391  24.943  1.00  0.00    -0.064 C 
ATOM     11  C   UNL A   1      32.716  24.027  25.868  1.00  0.00     0.030 C 
ATOM     12  C   UNL A   1      31.799  23.302  23.928  1.00  0.00     0.029 C 
ATOM     13  C   UNL A   1      32.235  22.616  26.220  1.00  0.00     0.009 C 
ATOM     14  C   UNL A   1      31.684  22.091  24.879  1.00  0.00     0.009 C 
ATOM     15  C   UNL A   1      33.279  23.527  23.551  1.00  0.00     0.101 C 
BRANCH  15  16
ATOM     16  C   UNL A   1      33.370  24.345  22.248  1.00  0.00     0.228 C 
ATOM     17  O   UNL A   1      33.583  23.712  21.200  1.00  0.00    -0.274 OA
ATOM     18  N   UNL A   1      33.059  25.652  22.050  1.00  0.00    -0.326 N 
ATOM     19  H   UNL A   1      32.946  25.870  21.096  1.00  0.00     0.169 HD
BRANCH  18  20
ATOM     20  C   UNL A   1      32.862  26.762  22.874  1.00  0.00     0.041 A 
ATOM     21  C   UNL A   1      33.708  27.100  23.923  1.00  0.00     0.029 A 
ATOM     22  C   UNL A   1      31.810  27.624  22.553  1.00  0.00     0.029 A 
ATOM     23  C   UNL A   1      33.392  28.151  24.792  1.00  0.00    -0.049 A 
ATOM     24  C   UNL A   1      31.498  28.713  23.379  1.00  0.00    -0.049 A 
ATOM     25  C   UNL A   1      34.181  28.354  26.052  1.00  0.00     0.044 C 
ATOM     26  C   UNL A   1      32.273  28.946  24.520  1.00  0.00     0.007 A 
ATOM     27  C   UNL A   1      30.280  29.546  23.112  1.00  0.00     0.044 C 
ENDBRANCH  18  20
ENDBRANCH  15  16
ENDBRANCH   4   6
ENDBRANCH   3   4
ENDBRANCH   2   3
ENDBRANCH   1   2
BRANCH   1  28
ATOM     28  O   UNL A   1      38.011  21.370  25.066  1.00  0.00    -0.458 OA
BRANCH  28  29
ATOM     29  C   UNL A   1      39.023  21.130  25.928  1.00  0.00     0.338 C 
ATOM     30  O   UNL A   1      39.544  20.046  26.164  1.00  0.00    -0.246 OA
BRANCH  29  31
ATOM     31  C   UNL A   1      39.513  22.392  26.494  1.00  0.00     0.060 A 
ATOM     32  C   UNL A   1      38.938  23.583  26.049  1.00  0.00     0.016 A 
ATOM     33  C   UNL A   1      40.598  22.411  27.372  1.00  0.00     0.016 A 
ATOM     34  C   UNL A   1      39.475  24.807  26.436  1.00  0.00     0.010 A 
ATOM     35  C   UNL A   1      41.121  23.642  27.781  1.00  0.00     0.010 A 
ATOM     36  C   UNL A   1      40.583  24.846  27.293  1.00  0.00    -0.014 A 
BRANCH  36  37
ATOM     37  C   UNL A   1      41.201  26.147  27.647  1.00  0.00     0.031 A 
ATOM     38  C   UNL A   1      42.618  26.444  27.240  1.00  0.00     0.074 A 
ATOM     39  C   UNL A   1      40.493  27.055  28.343  1.00  0.00     0.049 A 
ATOM     40  N   UNL A   1      43.345  27.500  27.497  1.00  0.00    -0.248 NA
ATOM     41  C   UNL A   1      43.310  25.415  26.447  1.00  0.00     0.031 C 
ATOM     42  C   UNL A   1      39.116  26.877  28.804  1.00  0.00     0.029 A 
ATOM     43  N   UNL A   1      40.842  28.301  28.802  1.00  0.00    -0.354 N 
ATOM     44  C   UNL A   1      44.591  27.250  26.934  1.00  0.00     0.074 A 
ATOM     45  C   UNL A   1      44.523  25.938  26.325  1.00  0.00     0.031 C 
ATOM     46  C   UNL A   1      38.740  27.968  29.490  1.00  0.00     0.029 A 
ATOM     47  C   UNL A   1      39.855  28.910  29.540  1.00  0.00     0.049 A 
ATOM     48  H   UNL A   1      41.715  28.717  28.619  1.00  0.00     0.167 HD
ATOM     49  C   UNL A   1      45.686  28.047  26.908  1.00  0.00     0.034 A 
ATOM     50  C   UNL A   1      39.854  30.089  30.192  1.00  0.00     0.034 A 
ATOM     51  C   UNL A   1      45.737  29.371  27.471  1.00  0.00     0.049 A 
ATOM     52  C   UNL A   1      41.074  30.967  30.123  1.00  0.00     0.074 A 
ATOM     53  C   UNL A   1      46.787  30.273  27.459  1.00  0.00     0.029 A 
ATOM     54  N   UNL A   1      44.693  29.985  28.145  1.00  0.00    -0.354 N 
ATOM     55  N   UNL A   1      42.205  30.759  29.493  1.00  0.00    -0.248 NA
ATOM     56  C   UNL A   1      41.006  32.256  30.826  1.00  0.00     0.031 C 
ATOM     57  C   UNL A   1      46.377  31.432  28.127  1.00  0.00     0.029 A 
ATOM     58  C   UNL A   1      45.070  31.255  28.550  1.00  0.00     0.049 A 
ATOM     59  H   UNL A   1      43.812  29.578  28.312  1.00  0.00     0.167 HD
ATOM     60  C   UNL A   1      42.970  31.902  29.696  1.00  0.00     0.074 A 
ATOM     61  C   UNL A   1      42.165  32.809  30.489  1.00  0.00     0.031 C 
ATOM     62  C   UNL A   1      44.234  32.170  29.284  1.00  0.00     0.034 A 
BRANCH  49  63
ATOM     63  C   UNL A   1      46.912  27.529  26.203  1.00  0.00     0.023 A 
ATOM     64  C   UNL A   1      47.793  26.672  26.892  1.00  0.00     0.012 A 
ATOM     65  C   UNL A   1      47.160  27.838  24.852  1.00  0.00     0.148 A 
ATOM     66  C   UNL A   1      48.919  26.151  26.255  1.00  0.00     0.002 A 
ATOM     67  C   UNL A   1      48.266  27.286  24.213  1.00  0.00     0.091 A 
ATOM     68  F   UNL A   1      46.325  28.676  24.222  1.00  0.00    -0.205 F 
ATOM     69  C   UNL A   1      49.149  26.449  24.914  1.00  0.00     0.022 A 
BRANCH  67  70
ATOM     70  S   UNL A   1      48.604  27.559  22.469  1.00  0.00     0.127 S 
ATOM     71  O   UNL A   1      48.698  26.189  21.967  1.00  0.00    -0.237 OA
ATOM     72  O   UNL A   1      47.413  28.288  22.030  1.00  0.00    -0.237 OA
ATOM     73  O   UNL A   1      49.836  28.334  22.420  1.00  0.00    -0.744 OA
ENDBRANCH  67  70
ENDBRANCH  49  63
BRANCH  50  74
ATOM     74  C   UNL A   1      38.629  30.532  30.914  1.00  0.00     0.023 A 
ATOM     75  C   UNL A   1      38.527  30.304  32.300  1.00  0.00     0.012 A 
ATOM     76  C   UNL A   1      37.588  31.209  30.251  1.00  0.00     0.148 A 
ATOM     77  C   UNL A   1      37.400  30.723  33.008  1.00  0.00     0.002 A 
ATOM     78  C   UNL A   1      36.492  31.670  30.971  1.00  0.00     0.091 A 
ATOM     79  F   UNL A   1      37.692  31.397  28.927  1.00  0.00    -0.205 F 
ATOM     80  C   UNL A   1      36.389  31.416  32.347  1.00  0.00     0.022 A 
BRANCH  78  81
ATOM     81  S   UNL A   1      35.216  32.687  30.219  1.00  0.00     0.127 S 
ATOM     82  O   UNL A   1      34.693  31.797  29.187  1.00  0.00    -0.237 OA
ATOM     83  O   UNL A   1      34.311  32.927  31.342  1.00  0.00    -0.237 OA
ATOM     84  O   UNL A   1      35.905  33.880  29.745  1.00  0.00    -0.744 OA
ENDBRANCH  78  81
ENDBRANCH  50  74
BRANCH  62  85
ATOM     85  C   UNL A   1      44.819  33.506  29.656  1.00  0.00     0.023 A 
ATOM     86  C   UNL A   1      45.568  33.628  30.844  1.00  0.00     0.012 A 
ATOM     87  C   UNL A   1      44.684  34.620  28.807  1.00  0.00     0.148 A 
ATOM     88  C   UNL A   1      46.147  34.847  31.194  1.00  0.00     0.002 A 
ATOM     89  C   UNL A   1      45.299  35.822  29.143  1.00  0.00     0.091 A 
ATOM     90  F   UNL A   1      43.948  34.494  27.693  1.00  0.00    -0.205 F 
ATOM     91  C   UNL A   1      46.023  35.940  30.340  1.00  0.00     0.022 A 
BRANCH  89  92
ATOM     92  S   UNL A   1      45.251  37.246  28.048  1.00  0.00     0.127 S 
ATOM     93  O   UNL A   1      43.823  37.559  28.023  1.00  0.00    -0.237 OA
ATOM     94  O   UNL A   1      46.075  38.224  28.761  1.00  0.00    -0.237 OA
ATOM     95  O   UNL A   1      45.824  36.788  26.789  1.00  0.00    -0.744 OA
ENDBRANCH  89  92
ENDBRANCH  62  85
ENDBRANCH  36  37
ENDBRANCH  29  31
ENDBRANCH  28  29
ENDBRANCH   1  28
TORSDOF 16
ENDMDL
MODEL 3
REMARK VINA RESULT:     -12.8      5.119      7.901
REMARK SMILES CC(C)=C1[C@H]2CC[C@@H]1[C@@H](C(=O)Nc1cc(C)cc(C)c1)[C@@H]2C(=O)OCCOC(=O)c1ccc(-c2c3nc(c(-c4cccc(S(=O)(=O)[O-])c4F)c4ccc([nH]4)c(-c4cccc(S(=O)(=O)[O-])c4F)c4nc(c(-c5cccc(S(=O)(=O)[O-])c5F)c5ccc2[nH]5)C=C4)C=C3)cc1
REMARK SMILES IDX 26 1 25 2 24 3 22 4 23 5 21 6 1 7 2 8 3 9 4 10 5 11 8 12
REMARK SMILES IDX 6 13 7 14 9 15 10 16 11 17 12 18 13 20 14 21 20 22 15 23
REMARK SMILES IDX 18 24 16 25 17 26 19 27 27 28 28 29 29 30 30 31 31 32 92 33
REMARK SMILES IDX 32 34 91 35 33 36 34 37 35 38 85 39 36 40 90 41 84 42 86 43
REMARK SMILES IDX 37 44 89 45 83 46 82 47 38 49 70 50 50 51 69 52 51 53 54 54
REMARK SMILES IDX 68 55 87 56 52 57 53 58 67 60 88 61 55 62 39 63 40 64 48 65
REMARK SMILES IDX 41 66 43 67 49 68 42 69 44 70 45 71 46 72 47 73 71 74 72 75
REMARK SMILES IDX 80 76 73 77 75 78 81 79 74 80 76 81 77 82 78 83 79 84 56 85
REMARK SMILES IDX 57 86 65 87 58 88 60 89 66 90 59 91 61 92 62 93 63 94 64 95
REMARK H PARENT 12 19 86 48 54 59
REMARK Flexibility Score: inf
ROOT
ATOM      1  C   UNL A   1      36.764  20.244  24.975  1.00  0.00     0.275 C 
ENDROOT
BRANCH   1   2
ATOM      2  C   UNL A   1      35.416  20.948  25.125  1.00  0.00     0.274 C 
BRANCH   2   3
ATOM      3  O   UNL A   1      35.480  22.310  24.657  1.00  0.00    -0.462 OA
BRANCH   3   4
ATOM      4  C   UNL A   1      35.033  23.266  25.508  1.00  0.00     0.310 C 
ATOM      5  O   UNL A   1      35.477  23.457  26.635  1.00  0.00    -0.252 OA
BRANCH   4   6
ATOM      6  C   UNL A   1      33.857  24.061  24.975  1.00  0.00     0.119 C 
ATOM      7  C   UNL A   1      29.558  25.645  24.069  1.00  0.00     0.039 C 
ATOM      8  C   UNL A   1      30.598  25.423  25.134  1.00  0.00    -0.077 C 
ATOM      9  C   UNL A   1      30.475  26.312  26.339  1.00  0.00     0.039 C 
ATOM     10  C   UNL A   1      31.548  24.479  25.030  1.00  0.00    -0.064 C 
ATOM     11  C   UNL A   1      32.666  24.078  25.956  1.00  0.00     0.030 C 
ATOM     12  C   UNL A   1      31.762  23.415  23.989  1.00  0.00     0.029 C 
ATOM     13  C   UNL A   1      32.167  22.663  26.266  1.00  0.00     0.009 C 
ATOM     14  C   UNL A   1      31.624  22.180  24.905  1.00  0.00     0.009 C 
ATOM     15  C   UNL A   1      33.247  23.634  23.633  1.00  0.00     0.101 C 
BRANCH  15  16
ATOM     16  C   UNL A   1      33.361  24.486  22.353  1.00  0.00     0.228 C 
ATOM     17  O   UNL A   1      33.578  23.880  21.290  1.00  0.00    -0.274 OA
ATOM     18  N   UNL A   1      33.064  25.801  22.187  1.00  0.00    -0.326 N 
ATOM     19  H   UNL A   1      32.964  26.045  21.238  1.00  0.00     0.169 HD
BRANCH  18  20
ATOM     20  C   UNL A   1      32.870  26.891  23.038  1.00  0.00     0.041 A 
ATOM     21  C   UNL A   1      33.741  27.228  24.067  1.00  0.00     0.029 A 
ATOM     22  C   UNL A   1      31.790  27.735  22.769  1.00  0.00     0.029 A 
ATOM     23  C   UNL A   1      33.430  28.255  24.966  1.00  0.00    -0.049 A 
ATOM     24  C   UNL A   1      31.480  28.801  23.624  1.00  0.00    -0.049 A 
ATOM     25  C   UNL A   1      34.255  28.451  26.204  1.00  0.00     0.044 C 
ATOM     26  C   UNL A   1      32.287  29.029  24.745  1.00  0.00     0.007 A 
ATOM     27  C   UNL A   1      30.237  29.611  23.413  1.00  0.00     0.044 C 
ENDBRANCH  18  20
ENDBRANCH  15  16
ENDBRANCH   4   6
ENDBRANCH   3   4
ENDBRANCH   2   3
ENDBRANCH   1   2
BRANCH   1  28
ATOM     28  O   UNL A   1      37.847  21.191  24.937  1.00  0.00    -0.458 OA
BRANCH  28  29
ATOM     29  C   UNL A   1      38.901  20.863  25.714  1.00  0.00     0.338 C 
ATOM     30  O   UNL A   1      39.382  19.746  25.865  1.00  0.00    -0.246 OA
BRANCH  29  31
ATOM     31  C   UNL A   1      39.492  22.072  26.299  1.00  0.00     0.060 A 
ATOM     32  C   UNL A   1      38.898  23.302  26.014  1.00  0.00     0.016 A 
ATOM     33  C   UNL A   1      40.677  22.009  27.032  1.00  0.00     0.016 A 
ATOM     34  C   UNL A   1      39.511  24.486  26.414  1.00  0.00     0.010 A 
ATOM     35  C   UNL A   1      41.281  23.198  27.456  1.00  0.00     0.010 A 
ATOM     36  C   UNL A   1      40.718  24.444  27.124  1.00  0.00    -0.014 A 
BRANCH  36  37
ATOM     37  C   UNL A   1      41.410  25.705  27.486  1.00  0.00     0.031 A 
ATOM     38  C   UNL A   1      40.694  26.751  28.296  1.00  0.00     0.074 A 
ATOM     39  C   UNL A   1      42.674  25.915  27.076  1.00  0.00     0.049 A 
ATOM     40  N   UNL A   1      41.111  27.932  28.670  1.00  0.00    -0.248 NA
ATOM     41  C   UNL A   1      39.327  26.427  28.739  1.00  0.00     0.031 C 
ATOM     42  C   UNL A   1      43.466  24.981  26.276  1.00  0.00     0.029 A 
ATOM     43  N   UNL A   1      43.506  26.990  27.261  1.00  0.00    -0.354 N 
ATOM     44  C   UNL A   1      40.050  28.511  29.355  1.00  0.00     0.074 A 
ATOM     45  C   UNL A   1      38.966  27.552  29.342  1.00  0.00     0.031 C 
ATOM     46  C   UNL A   1      44.667  25.529  26.027  1.00  0.00     0.029 A 
ATOM     47  C   UNL A   1      44.720  26.859  26.627  1.00  0.00     0.049 A 
ATOM     48  H   UNL A   1      43.258  27.779  27.795  1.00  0.00     0.167 HD
ATOM     49  C   UNL A   1      39.990  29.723  29.958  1.00  0.00     0.034 A 
ATOM     50  C   UNL A   1      45.752  27.719  26.531  1.00  0.00     0.034 A 
ATOM     51  C   UNL A   1      41.084  30.656  30.012  1.00  0.00     0.049 A 
ATOM     52  C   UNL A   1      45.669  29.047  27.234  1.00  0.00     0.074 A 
ATOM     53  C   UNL A   1      41.134  31.890  30.635  1.00  0.00     0.029 A 
ATOM     54  N   UNL A   1      42.323  30.456  29.424  1.00  0.00    -0.354 N 
ATOM     55  N   UNL A   1      44.697  29.531  27.970  1.00  0.00    -0.248 NA
ATOM     56  C   UNL A   1      46.837  29.932  27.124  1.00  0.00     0.031 C 
ATOM     57  C   UNL A   1      42.404  32.438  30.422  1.00  0.00     0.029 A 
ATOM     58  C   UNL A   1      43.147  31.541  29.672  1.00  0.00     0.049 A 
ATOM     59  H   UNL A   1      42.580  29.659  28.906  1.00  0.00     0.167 HD
ATOM     60  C   UNL A   1      45.148  30.762  28.434  1.00  0.00     0.074 A 
ATOM     61  C   UNL A   1      46.489  30.938  27.916  1.00  0.00     0.031 C 
ATOM     62  C   UNL A   1      44.502  31.675  29.202  1.00  0.00     0.034 A 
BRANCH  49  63
ATOM     63  C   UNL A   1      38.707  30.093  30.655  1.00  0.00     0.023 A 
ATOM     64  C   UNL A   1      38.502  29.683  31.987  1.00  0.00     0.012 A 
ATOM     65  C   UNL A   1      37.736  30.891  30.018  1.00  0.00     0.148 A 
ATOM     66  C   UNL A   1      37.338  30.038  32.668  1.00  0.00     0.002 A 
ATOM     67  C   UNL A   1      36.594  31.271  30.716  1.00  0.00     0.091 A 
ATOM     68  F   UNL A   1      37.937  31.249  28.743  1.00  0.00    -0.205 F 
ATOM     69  C   UNL A   1      36.391  30.840  32.037  1.00  0.00     0.022 A 
BRANCH  67  70
ATOM     70  S   UNL A   1      35.353  32.360  30.007  1.00  0.00     0.127 S 
ATOM     71  O   UNL A   1      34.870  31.565  28.880  1.00  0.00    -0.237 OA
ATOM     72  O   UNL A   1      34.396  32.502  31.106  1.00  0.00    -0.237 OA
ATOM     73  O   UNL A   1      36.054  33.588  29.658  1.00  0.00    -0.744 OA
ENDBRANCH  67  70
ENDBRANCH  49  63
BRANCH  50  74
ATOM     74  C   UNL A   1      46.980  27.319  25.789  1.00  0.00     0.023 A 
ATOM     75  C   UNL A   1      47.936  26.506  26.428  1.00  0.00     0.012 A 
ATOM     76  C   UNL A   1      47.188  27.702  24.450  1.00  0.00     0.148 A 
ATOM     77  C   UNL A   1      49.088  26.100  25.754  1.00  0.00     0.002 A 
ATOM     78  C   UNL A   1      48.312  27.251  23.767  1.00  0.00     0.091 A 
ATOM     79  F   UNL A   1      46.278  28.495  23.866  1.00  0.00    -0.205 F 
ATOM     80  C   UNL A   1      49.270  26.462  24.422  1.00  0.00     0.022 A 
BRANCH  78  81
ATOM     81  S   UNL A   1      48.550  27.560  22.014  1.00  0.00     0.127 S 
ATOM     82  O   UNL A   1      49.696  28.463  22.021  1.00  0.00    -0.237 OA
ATOM     83  O   UNL A   1      48.826  26.218  21.499  1.00  0.00    -0.237 OA
ATOM     84  O   UNL A   1      47.291  28.128  21.550  1.00  0.00    -0.744 OA
ENDBRANCH  78  81
ENDBRANCH  50  74
BRANCH  62  85
ATOM     85  C   UNL A   1      45.244  32.937  29.554  1.00  0.00     0.023 A 
ATOM     86  C   UNL A   1      46.051  32.968  30.709  1.00  0.00     0.012 A 
ATOM     87  C   UNL A   1      45.194  34.066  28.715  1.00  0.00     0.148 A 
ATOM     88  C   UNL A   1      46.773  34.114  31.037  1.00  0.00     0.002 A 
ATOM     89  C   UNL A   1      45.949  35.191  29.027  1.00  0.00     0.091 A 
ATOM     90  F   UNL A   1      44.402  34.029  27.633  1.00  0.00    -0.205 F 
ATOM     91  C   UNL A   1      46.732  35.221  30.192  1.00  0.00     0.022 A 
BRANCH  89  92
ATOM     92  S   UNL A   1      46.010  36.621  27.940  1.00  0.00     0.127 S 
ATOM     93  O   UNL A   1      46.456  36.023  26.682  1.00  0.00    -0.237 OA
ATOM     94  O   UNL A   1      44.619  37.077  27.936  1.00  0.00    -0.237 OA
ATOM     95  O   UNL A   1      46.940  37.548  28.569  1.00  0.00    -0.744 OA
ENDBRANCH  89  92
ENDBRANCH  62  85
ENDBRANCH  36  37
ENDBRANCH  29  31
ENDBRANCH  28  29
ENDBRANCH   1  28
TORSDOF 16
ENDMDL
