MODEL 1
REMARK VINA RESULT:     -13.9      0.000      0.000
REMARK SMILES C[C@@](NC(=O)[C@H]1COc2ccccc21)(C(=O)OCCOC(=O)c1ccc(-c2c3nc(c(-c4cccc(S(=O)(=O)[O-])c4F)c4ccc([nH]4)c(-c4cccc(S(=O)(=O)[O-])c4F)c4nc(c(-c5cccc(S(=O)(=O)[O-])c5F)c5ccc2[nH]5)C=C4)C=C3)cc1)C(F)(F)F
REMARK SMILES IDX 19 1 18 2 17 3 15 4 16 5 2 6 1 7 3 8 4 9 5 11 6 12 7 13
REMARK SMILES IDX 14 14 8 15 9 16 13 17 10 18 12 19 11 20 86 21 87 22 88 23
REMARK SMILES IDX 89 24 20 25 21 26 22 27 23 28 24 29 85 30 25 31 84 32 26 33
REMARK SMILES IDX 27 34 28 35 78 36 29 37 83 38 77 39 79 40 30 41 82 42 76 43
REMARK SMILES IDX 75 44 31 46 63 47 43 48 62 49 44 50 47 51 61 52 80 53 45 54
REMARK SMILES IDX 46 55 60 57 81 58 48 59 32 60 33 61 41 62 34 63 36 64 42 65
REMARK SMILES IDX 35 66 37 67 38 68 39 69 40 70 64 71 65 72 73 73 66 74 68 75
REMARK SMILES IDX 74 76 67 77 69 78 70 79 71 80 72 81 49 82 50 83 58 84 51 85
REMARK SMILES IDX 53 86 59 87 52 88 54 89 55 90 56 91 57 92
REMARK H PARENT 3 10 79 45 47 56
REMARK Flexibility Score: inf
ROOT
ATOM      1  C   UNL A   1      31.432  29.535  24.993  1.00  0.00     0.275 C 
ENDROOT
BRANCH   1   2
ATOM      2  C   UNL A   1      31.507  28.076  23.961  1.00  0.00     0.274 C 
BRANCH   2   3
ATOM      3  O   UNL A   1      31.976  26.218  24.715  1.00  0.00    -0.460 OA
BRANCH   3   4
ATOM      4  C   UNL A   1      31.938  25.151  25.661  1.00  0.00     0.341 C 
ATOM      5  O   UNL A   1      31.349  25.142  26.731  1.00  0.00    -0.249 OA
BRANCH   4   6
ATOM      6  C   UNL A   1      32.573  23.938  25.040  1.00  0.00     0.231 C 
ATOM      7  C   UNL A   1      33.491  24.322  23.855  1.00  0.00     0.058 C 
BRANCH   6   8
ATOM      8  N   UNL A   1      33.305  23.189  26.123  1.00  0.00    -0.332 N 
ATOM      9  C   UNL A   1      34.163  22.120  26.088  1.00  0.00     0.232 C 
ATOM     10  H   UNL A   1      33.136  23.535  27.030  1.00  0.00     0.164 HD
ATOM     11  O   UNL A   1      34.576  21.715  27.181  1.00  0.00    -0.274 OA
BRANCH   9  12
ATOM     12  C   UNL A   1      34.664  21.427  24.781  1.00  0.00     0.150 C 
ATOM     13  C   UNL A   1      36.636  21.035  24.983  1.00  0.00     0.248 C 
ATOM     14  C   UNL A   1      33.807  19.704  24.529  1.00  0.00     0.010 A 
ATOM     15  O   UNL A   1      36.699  19.085  25.000  1.00  0.00    -0.492 OA
ATOM     16  C   UNL A   1      35.000  18.387  24.629  1.00  0.00     0.123 A 
ATOM     17  C   UNL A   1      32.527  19.388  24.229  1.00  0.00     0.008 A 
ATOM     18  C   UNL A   1      34.774  17.093  24.314  1.00  0.00     0.047 A 
ATOM     19  C   UNL A   1      32.373  17.991  23.977  1.00  0.00     0.001 A 
ATOM     20  C   UNL A   1      33.419  16.931  23.990  1.00  0.00     0.004 A 
ENDBRANCH   9  12
ENDBRANCH   6   8
BRANCH   6  21
ATOM     21  C   UNL A   1      31.391  23.165  24.422  1.00  0.00     0.422 C 
ATOM     22  F   UNL A   1      31.753  22.413  23.357  1.00  0.00    -0.168 F 
ATOM     23  F   UNL A   1      30.903  22.289  25.346  1.00  0.00    -0.168 F 
ATOM     24  F   UNL A   1      30.362  23.959  24.068  1.00  0.00    -0.168 F 
ENDBRANCH   6  21
ENDBRANCH   4   6
ENDBRANCH   3   4
ENDBRANCH   2   3
ENDBRANCH   1   2
BRANCH   1  25
ATOM     25  O   UNL A   1      32.712  30.150  25.406  1.00  0.00    -0.458 OA
BRANCH  25  26
ATOM     26  C   UNL A   1      32.688  31.017  26.483  1.00  0.00     0.338 C 
ATOM     27  O   UNL A   1      31.709  31.644  26.866  1.00  0.00    -0.246 OA
BRANCH  26  28
ATOM     28  C   UNL A   1      33.932  30.851  27.319  1.00  0.00     0.060 A 
ATOM     29  C   UNL A   1      34.373  29.555  27.645  1.00  0.00     0.016 A 
ATOM     30  C   UNL A   1      34.736  31.928  27.691  1.00  0.00     0.016 A 
ATOM     31  C   UNL A   1      35.629  29.325  28.245  1.00  0.00     0.010 A 
ATOM     32  C   UNL A   1      35.977  31.698  28.337  1.00  0.00     0.010 A 
ATOM     33  C   UNL A   1      36.447  30.395  28.618  1.00  0.00    -0.014 A 
BRANCH  33  34
ATOM     34  C   UNL A   1      37.624  30.169  29.529  1.00  0.00     0.031 A 
ATOM     35  C   UNL A   1      38.740  29.295  29.004  1.00  0.00     0.074 A 
ATOM     36  C   UNL A   1      37.769  30.700  30.765  1.00  0.00     0.049 A 
ATOM     37  N   UNL A   1      39.840  28.890  29.588  1.00  0.00    -0.248 NA
ATOM     38  C   UNL A   1      38.581  28.811  27.622  1.00  0.00     0.031 C 
ATOM     39  C   UNL A   1      36.840  31.610  31.428  1.00  0.00     0.029 A 
ATOM     40  N   UNL A   1      38.780  30.528  31.697  1.00  0.00    -0.354 N 
ATOM     41  C   UNL A   1      40.476  28.068  28.665  1.00  0.00     0.074 A 
ATOM     42  C   UNL A   1      39.638  28.027  27.487  1.00  0.00     0.031 C 
ATOM     43  C   UNL A   1      37.311  31.901  32.659  1.00  0.00     0.029 A 
ATOM     44  C   UNL A   1      38.569  31.186  32.891  1.00  0.00     0.049 A 
ATOM     45  H   UNL A   1      39.580  29.983  31.522  1.00  0.00     0.167 HD
ATOM     46  C   UNL A   1      41.656  27.410  28.764  1.00  0.00     0.034 A 
ATOM     47  C   UNL A   1      39.293  31.209  34.036  1.00  0.00     0.034 A 
ATOM     48  C   UNL A   1      42.535  27.453  29.899  1.00  0.00     0.049 A 
ATOM     49  C   UNL A   1      40.594  30.433  34.137  1.00  0.00     0.074 A 
ATOM     50  C   UNL A   1      43.762  26.831  30.056  1.00  0.00     0.029 A 
ATOM     51  N   UNL A   1      42.286  28.146  31.069  1.00  0.00    -0.354 N 
ATOM     52  N   UNL A   1      41.222  29.738  33.221  1.00  0.00    -0.248 NA
ATOM     53  C   UNL A   1      41.304  30.475  35.431  1.00  0.00     0.031 C 
ATOM     54  C   UNL A   1      44.243  27.126  31.336  1.00  0.00     0.029 A 
ATOM     55  C   UNL A   1      43.332  27.961  31.959  1.00  0.00     0.049 A 
ATOM     56  H   UNL A   1      41.486  28.691  31.245  1.00  0.00     0.167 HD
ATOM     57  C   UNL A   1      42.413  29.308  33.808  1.00  0.00     0.074 A 
ATOM     58  C   UNL A   1      42.430  29.830  35.155  1.00  0.00     0.031 C 
ATOM     59  C   UNL A   1      43.396  28.539  33.277  1.00  0.00     0.034 A 
BRANCH  46  60
ATOM     60  C   UNL A   1      42.065  26.568  27.585  1.00  0.00     0.023 A 
ATOM     61  C   UNL A   1      42.724  27.162  26.491  1.00  0.00     0.012 A 
ATOM     62  C   UNL A   1      41.807  25.185  27.572  1.00  0.00     0.148 A 
ATOM     63  C   UNL A   1      43.078  26.401  25.379  1.00  0.00     0.002 A 
ATOM     64  C   UNL A   1      42.206  24.422  26.483  1.00  0.00     0.091 A 
ATOM     65  F   UNL A   1      41.158  24.644  28.614  1.00  0.00    -0.205 F 
ATOM     66  C   UNL A   1      42.828  25.030  25.379  1.00  0.00     0.022 A 
BRANCH  64  67
ATOM     67  S   UNL A   1      41.999  22.640  26.425  1.00  0.00     0.127 S 
ATOM     68  O   UNL A   1      42.605  22.314  25.135  1.00  0.00    -0.237 OA
ATOM     69  O   UNL A   1      42.770  22.202  27.590  1.00  0.00    -0.237 OA
ATOM     70  O   UNL A   1      40.566  22.398  26.522  1.00  0.00    -0.744 OA
ENDBRANCH  64  67
ENDBRANCH  46  60
BRANCH  47  71
ATOM     71  C   UNL A   1      38.849  32.024  35.215  1.00  0.00     0.023 A 
ATOM     72  C   UNL A   1      39.091  33.414  35.230  1.00  0.00     0.012 A 
ATOM     73  C   UNL A   1      38.254  31.427  36.345  1.00  0.00     0.148 A 
ATOM     74  C   UNL A   1      38.789  34.184  36.356  1.00  0.00     0.002 A 
ATOM     75  C   UNL A   1      37.903  32.210  37.442  1.00  0.00     0.091 A 
ATOM     76  F   UNL A   1      38.061  30.101  36.335  1.00  0.00    -0.205 F 
ATOM     77  C   UNL A   1      38.187  33.585  37.458  1.00  0.00     0.022 A 
BRANCH  75  78
ATOM     78  S   UNL A   1      37.031  31.549  38.867  1.00  0.00     0.127 S 
ATOM     79  O   UNL A   1      36.884  30.141  38.505  1.00  0.00    -0.237 OA
ATOM     80  O   UNL A   1      37.981  31.810  39.949  1.00  0.00    -0.237 OA
ATOM     81  O   UNL A   1      35.790  32.308  38.958  1.00  0.00    -0.744 OA
ENDBRANCH  75  78
ENDBRANCH  47  71
BRANCH  59  82
ATOM     82  C   UNL A   1      44.623  28.249  34.111  1.00  0.00     0.023 A 
ATOM     83  C   UNL A   1      45.722  29.131  34.089  1.00  0.00     0.012 A 
ATOM     84  C   UNL A   1      44.649  27.145  34.991  1.00  0.00     0.148 A 
ATOM     85  C   UNL A   1      46.837  28.901  34.898  1.00  0.00     0.002 A 
ATOM     86  C   UNL A   1      45.742  26.950  35.830  1.00  0.00     0.091 A 
ATOM     87  F   UNL A   1      43.605  26.303  34.993  1.00  0.00    -0.205 F 
ATOM     88  C   UNL A   1      46.842  27.819  35.776  1.00  0.00     0.022 A 
BRANCH  86  89
ATOM     89  S   UNL A   1      45.788  25.642  37.063  1.00  0.00     0.127 S 
ATOM     90  O   UNL A   1      44.600  25.940  37.860  1.00  0.00    -0.237 OA
ATOM     91  O   UNL A   1      45.683  24.434  36.243  1.00  0.00    -0.237 OA
ATOM     92  O   UNL A   1      47.062  25.789  37.754  1.00  0.00    -0.744 OA
ENDBRANCH  86  89
ENDBRANCH  59  82
ENDBRANCH  33  34
ENDBRANCH  26  28
ENDBRANCH  25  26
ENDBRANCH   1  25
TORSDOF 17
ENDMDL
MODEL 2
REMARK VINA RESULT:     -13.7      5.191     10.574
REMARK SMILES C[C@@](NC(=O)[C@H]1COc2ccccc21)(C(=O)OCCOC(=O)c1ccc(-c2c3nc(c(-c4cccc(S(=O)(=O)[O-])c4F)c4ccc([nH]4)c(-c4cccc(S(=O)(=O)[O-])c4F)c4nc(c(-c5cccc(S(=O)(=O)[O-])c5F)c5ccc2[nH]5)C=C4)C=C3)cc1)C(F)(F)F
REMARK SMILES IDX 19 1 18 2 17 3 15 4 16 5 2 6 1 7 3 8 4 9 5 11 6 12 7 13
REMARK SMILES IDX 14 14 8 15 9 16 13 17 10 18 12 19 11 20 86 21 87 22 88 23
REMARK SMILES IDX 89 24 20 25 21 26 22 27 23 28 24 29 85 30 25 31 84 32 26 33
REMARK SMILES IDX 27 34 28 35 78 36 29 37 83 38 77 39 79 40 30 41 82 42 76 43
REMARK SMILES IDX 75 44 31 46 63 47 43 48 62 49 44 50 47 51 61 52 80 53 45 54
REMARK SMILES IDX 46 55 60 57 81 58 48 59 32 60 33 61 41 62 34 63 36 64 42 65
REMARK SMILES IDX 35 66 37 67 38 68 39 69 40 70 64 71 65 72 73 73 66 74 68 75
REMARK SMILES IDX 74 76 67 77 69 78 70 79 71 80 72 81 49 82 50 83 58 84 51 85
REMARK SMILES IDX 53 86 59 87 52 88 54 89 55 90 56 91 57 92
REMARK H PARENT 3 10 79 45 47 56
REMARK Flexibility Score: inf
ROOT
ATOM      1  C   UNL A   1      35.489  21.315  25.730  1.00  0.00     0.275 C 
ENDROOT
BRANCH   1   2
ATOM      2  C   UNL A   1      33.932  21.759  24.967  1.00  0.00     0.274 C 
BRANCH   2   3
ATOM      3  O   UNL A   1      33.532  23.672  24.316  1.00  0.00    -0.460 OA
BRANCH   3   4
ATOM      4  C   UNL A   1      33.484  24.740  23.372  1.00  0.00     0.341 C 
ATOM      5  O   UNL A   1      34.015  24.771  22.272  1.00  0.00    -0.249 OA
BRANCH   4   6
ATOM      6  C   UNL A   1      32.491  25.761  23.856  1.00  0.00     0.231 C 
ATOM      7  C   UNL A   1      32.159  25.563  25.354  1.00  0.00     0.058 C 
BRANCH   6   8
ATOM      8  N   UNL A   1      33.048  27.129  23.560  1.00  0.00    -0.332 N 
ATOM      9  C   UNL A   1      32.592  28.391  23.841  1.00  0.00     0.232 C 
ATOM     10  H   UNL A   1      33.904  27.113  23.073  1.00  0.00     0.164 HD
ATOM     11  O   UNL A   1      33.284  29.328  23.423  1.00  0.00    -0.274 OA
BRANCH   9  12
ATOM     12  C   UNL A   1      31.306  28.706  24.668  1.00  0.00     0.150 C 
ATOM     13  C   UNL A   1      31.742  30.168  25.993  1.00  0.00     0.248 C 
ATOM     14  C   UNL A   1      29.903  29.424  23.535  1.00  0.00     0.010 A 
ATOM     15  O   UNL A   1      30.653  31.664  25.374  1.00  0.00    -0.492 OA
ATOM     16  C   UNL A   1      29.531  31.105  23.982  1.00  0.00     0.123 A 
ATOM     17  C   UNL A   1      29.161  28.838  22.567  1.00  0.00     0.008 A 
ATOM     18  C   UNL A   1      28.485  31.830  23.526  1.00  0.00     0.047 A 
ATOM     19  C   UNL A   1      28.125  29.703  22.101  1.00  0.00     0.001 A 
ATOM     20  C   UNL A   1      27.794  31.079  22.563  1.00  0.00     0.004 A 
ENDBRANCH   9  12
ENDBRANCH   6   8
BRANCH   6  21
ATOM     21  C   UNL A   1      31.196  25.424  23.090  1.00  0.00     0.422 C 
ATOM     22  F   UNL A   1      30.080  25.810  23.749  1.00  0.00    -0.168 F 
ATOM     23  F   UNL A   1      31.188  26.108  21.911  1.00  0.00    -0.168 F 
ATOM     24  F   UNL A   1      31.090  24.119  22.774  1.00  0.00    -0.168 F 
ENDBRANCH   6  21
ENDBRANCH   4   6
ENDBRANCH   3   4
ENDBRANCH   2   3
ENDBRANCH   1   2
BRANCH   1  25
ATOM     25  O   UNL A   1      36.711  21.416  24.904  1.00  0.00    -0.458 OA
BRANCH  25  26
ATOM     26  C   UNL A   1      37.892  20.947  25.450  1.00  0.00     0.338 C 
ATOM     27  O   UNL A   1      38.299  19.795  25.376  1.00  0.00    -0.246 OA
BRANCH  26  28
ATOM     28  C   UNL A   1      38.769  22.098  25.874  1.00  0.00     0.060 A 
ATOM     29  C   UNL A   1      38.288  23.413  25.740  1.00  0.00     0.016 A 
ATOM     30  C   UNL A   1      39.999  21.913  26.504  1.00  0.00     0.016 A 
ATOM     31  C   UNL A   1      38.967  24.515  26.301  1.00  0.00     0.010 A 
ATOM     32  C   UNL A   1      40.705  23.026  27.026  1.00  0.00     0.010 A 
ATOM     33  C   UNL A   1      40.198  24.343  26.940  1.00  0.00    -0.014 A 
BRANCH  33  34
ATOM     34  C   UNL A   1      41.063  25.534  27.255  1.00  0.00     0.031 A 
ATOM     35  C   UNL A   1      40.447  26.624  28.102  1.00  0.00     0.074 A 
ATOM     36  C   UNL A   1      42.347  25.695  26.859  1.00  0.00     0.049 A 
ATOM     37  N   UNL A   1      40.939  27.778  28.479  1.00  0.00    -0.248 NA
ATOM     38  C   UNL A   1      39.080  26.368  28.585  1.00  0.00     0.031 C 
ATOM     39  C   UNL A   1      43.139  24.740  26.089  1.00  0.00     0.029 A 
ATOM     40  N   UNL A   1      43.215  26.757  27.053  1.00  0.00    -0.354 N 
ATOM     41  C   UNL A   1      39.927  28.402  29.200  1.00  0.00     0.074 A 
ATOM     42  C   UNL A   1      38.794  27.503  29.201  1.00  0.00     0.031 C 
ATOM     43  C   UNL A   1      44.362  25.262  25.863  1.00  0.00     0.029 A 
ATOM     44  C   UNL A   1      44.447  26.602  26.451  1.00  0.00     0.049 A 
ATOM     45  H   UNL A   1      42.973  27.555  27.577  1.00  0.00     0.167 HD
ATOM     46  C   UNL A   1      39.925  29.605  29.822  1.00  0.00     0.034 A 
ATOM     47  C   UNL A   1      45.513  27.434  26.376  1.00  0.00     0.034 A 
ATOM     48  C   UNL A   1      41.038  30.510  29.876  1.00  0.00     0.049 A 
ATOM     49  C   UNL A   1      45.475  28.795  27.050  1.00  0.00     0.074 A 
ATOM     50  C   UNL A   1      41.115  31.736  30.514  1.00  0.00     0.029 A 
ATOM     51  N   UNL A   1      42.263  30.299  29.271  1.00  0.00    -0.354 N 
ATOM     52  N   UNL A   1      44.541  29.325  27.802  1.00  0.00    -0.248 NA
ATOM     53  C   UNL A   1      46.659  29.660  26.887  1.00  0.00     0.031 C 
ATOM     54  C   UNL A   1      42.380  32.281  30.270  1.00  0.00     0.029 A 
ATOM     55  C   UNL A   1      43.101  31.376  29.511  1.00  0.00     0.049 A 
ATOM     56  H   UNL A   1      42.505  29.501  28.747  1.00  0.00     0.167 HD
ATOM     57  C   UNL A   1      45.045  30.550  28.239  1.00  0.00     0.074 A 
ATOM     58  C   UNL A   1      46.371  30.683  27.680  1.00  0.00     0.031 C 
ATOM     59  C   UNL A   1      44.452  31.485  29.023  1.00  0.00     0.034 A 
BRANCH  46  60
ATOM     60  C   UNL A   1      38.647  30.015  30.504  1.00  0.00     0.023 A 
ATOM     61  C   UNL A   1      38.377  29.573  31.815  1.00  0.00     0.012 A 
ATOM     62  C   UNL A   1      37.723  30.849  29.848  1.00  0.00     0.148 A 
ATOM     63  C   UNL A   1      37.183  29.918  32.445  1.00  0.00     0.002 A 
ATOM     64  C   UNL A   1      36.558  31.229  30.499  1.00  0.00     0.091 A 
ATOM     65  F   UNL A   1      37.991  31.238  28.592  1.00  0.00    -0.205 F 
ATOM     66  C   UNL A   1      36.278  30.753  31.792  1.00  0.00     0.022 A 
BRANCH  64  67
ATOM     67  S   UNL A   1      35.373  32.364  29.773  1.00  0.00     0.127 S 
ATOM     68  O   UNL A   1      36.233  33.481  29.384  1.00  0.00    -0.237 OA
ATOM     69  O   UNL A   1      34.844  31.583  28.654  1.00  0.00    -0.237 OA
ATOM     70  O   UNL A   1      34.403  32.656  30.819  1.00  0.00    -0.744 OA
ENDBRANCH  64  67
ENDBRANCH  46  60
BRANCH  47  71
ATOM     71  C   UNL A   1      46.764  27.024  25.657  1.00  0.00     0.023 A 
ATOM     72  C   UNL A   1      47.734  26.255  26.336  1.00  0.00     0.012 A 
ATOM     73  C   UNL A   1      47.032  27.443  24.339  1.00  0.00     0.148 A 
ATOM     74  C   UNL A   1      48.957  25.947  25.733  1.00  0.00     0.002 A 
ATOM     75  C   UNL A   1      48.230  27.085  23.724  1.00  0.00     0.091 A 
ATOM     76  F   UNL A   1      46.121  28.203  23.717  1.00  0.00    -0.205 F 
ATOM     77  C   UNL A   1      49.201  26.354  24.426  1.00  0.00     0.022 A 
BRANCH  75  78
ATOM     78  S   UNL A   1      48.594  27.473  22.008  1.00  0.00     0.127 S 
ATOM     79  O   UNL A   1      48.653  26.144  21.404  1.00  0.00    -0.237 OA
ATOM     80  O   UNL A   1      47.429  28.271  21.626  1.00  0.00    -0.237 OA
ATOM     81  O   UNL A   1      49.850  28.211  22.028  1.00  0.00    -0.744 OA
ENDBRANCH  75  78
ENDBRANCH  47  71
BRANCH  59  82
ATOM     82  C   UNL A   1      45.235  32.723  29.397  1.00  0.00     0.023 A 
ATOM     83  C   UNL A   1      46.078  32.717  30.526  1.00  0.00     0.012 A 
ATOM     84  C   UNL A   1      45.204  33.868  28.573  1.00  0.00     0.148 A 
ATOM     85  C   UNL A   1      46.847  33.837  30.849  1.00  0.00     0.002 A 
ATOM     86  C   UNL A   1      46.011  34.963  28.872  1.00  0.00     0.091 A 
ATOM     87  F   UNL A   1      44.387  33.870  27.509  1.00  0.00    -0.205 F 
ATOM     88  C   UNL A   1      46.823  34.954  30.016  1.00  0.00     0.022 A 
BRANCH  86  89
ATOM     89  S   UNL A   1      46.118  36.401  27.799  1.00  0.00     0.127 S 
ATOM     90  O   UNL A   1      47.112  37.219  28.493  1.00  0.00    -0.237 OA
ATOM     91  O   UNL A   1      46.583  35.819  26.539  1.00  0.00    -0.237 OA
ATOM     92  O   UNL A   1      44.774  36.960  27.743  1.00  0.00    -0.744 OA
ENDBRANCH  86  89
ENDBRANCH  59  82
ENDBRANCH  33  34
ENDBRANCH  26  28
ENDBRANCH  25  26
ENDBRANCH   1  25
TORSDOF 17
ENDMDL
MODEL 3
REMARK VINA RESULT:     -13.6      5.126     10.342
REMARK SMILES C[C@@](NC(=O)[C@H]1COc2ccccc21)(C(=O)OCCOC(=O)c1ccc(-c2c3nc(c(-c4cccc(S(=O)(=O)[O-])c4F)c4ccc([nH]4)c(-c4cccc(S(=O)(=O)[O-])c4F)c4nc(c(-c5cccc(S(=O)(=O)[O-])c5F)c5ccc2[nH]5)C=C4)C=C3)cc1)C(F)(F)F
REMARK SMILES IDX 19 1 18 2 17 3 15 4 16 5 2 6 1 7 3 8 4 9 5 11 6 12 7 13
REMARK SMILES IDX 14 14 8 15 9 16 13 17 10 18 12 19 11 20 86 21 87 22 88 23
REMARK SMILES IDX 89 24 20 25 21 26 22 27 23 28 24 29 85 30 25 31 84 32 26 33
REMARK SMILES IDX 27 34 28 35 78 36 29 37 83 38 77 39 79 40 30 41 82 42 76 43
REMARK SMILES IDX 75 44 31 46 63 47 43 48 62 49 44 50 47 51 61 52 80 53 45 54
REMARK SMILES IDX 46 55 60 57 81 58 48 59 32 60 33 61 41 62 34 63 36 64 42 65
REMARK SMILES IDX 35 66 37 67 38 68 39 69 40 70 64 71 65 72 73 73 66 74 68 75
REMARK SMILES IDX 74 76 67 77 69 78 70 79 71 80 72 81 49 82 50 83 58 84 51 85
REMARK SMILES IDX 53 86 59 87 52 88 54 89 55 90 56 91 57 92
REMARK H PARENT 3 10 79 45 47 56
REMARK Flexibility Score: inf
ROOT
ATOM      1  C   UNL A   1      35.697  21.169  24.680  1.00  0.00     0.275 C 
ENDROOT
BRANCH   1   2
ATOM      2  C   UNL A   1      34.155  20.300  24.940  1.00  0.00     0.274 C 
BRANCH   2   3
ATOM      3  O   UNL A   1      32.330  21.253  24.877  1.00  0.00    -0.460 OA
BRANCH   3   4
ATOM      4  C   UNL A   1      31.314  22.147  25.329  1.00  0.00     0.341 C 
ATOM      5  O   UNL A   1      30.361  21.873  26.041  1.00  0.00    -0.249 OA
BRANCH   4   6
ATOM      6  C   UNL A   1      31.714  23.549  24.960  1.00  0.00     0.231 C 
ATOM      7  C   UNL A   1      32.691  23.564  23.762  1.00  0.00     0.058 C 
BRANCH   6   8
ATOM      8  N   UNL A   1      30.457  24.336  24.695  1.00  0.00    -0.332 N 
ATOM      9  C   UNL A   1      30.245  25.639  24.322  1.00  0.00     0.232 C 
ATOM     10  H   UNL A   1      29.629  23.815  24.811  1.00  0.00     0.164 HD
ATOM     11  O   UNL A   1      29.065  25.993  24.216  1.00  0.00    -0.274 OA
BRANCH   9  12
ATOM     12  C   UNL A   1      31.378  26.663  23.995  1.00  0.00     0.150 C 
ATOM     13  C   UNL A   1      30.794  27.776  22.413  1.00  0.00     0.248 C 
ATOM     14  C   UNL A   1      31.632  27.916  25.455  1.00  0.00     0.010 A 
ATOM     15  O   UNL A   1      30.601  29.561  23.176  1.00  0.00    -0.492 OA
ATOM     16  C   UNL A   1      31.209  29.568  24.947  1.00  0.00     0.123 A 
ATOM     17  C   UNL A   1      32.129  27.735  26.700  1.00  0.00     0.008 A 
ATOM     18  C   UNL A   1      31.450  30.696  25.653  1.00  0.00     0.047 A 
ATOM     19  C   UNL A   1      32.285  28.974  27.392  1.00  0.00     0.001 A 
ATOM     20  C   UNL A   1      31.996  30.348  26.898  1.00  0.00     0.004 A 
ENDBRANCH   9  12
ENDBRANCH   6   8
BRANCH   6  21
ATOM     21  C   UNL A   1      32.528  24.043  26.173  1.00  0.00     0.422 C 
ATOM     22  F   UNL A   1      33.446  24.980  25.843  1.00  0.00    -0.168 F 
ATOM     23  F   UNL A   1      31.683  24.645  27.058  1.00  0.00    -0.168 F 
ATOM     24  F   UNL A   1      33.138  23.048  26.845  1.00  0.00    -0.168 F 
ENDBRANCH   6  21
ENDBRANCH   4   6
ENDBRANCH   3   4
ENDBRANCH   2   3
ENDBRANCH   1   2
BRANCH   1  25
ATOM     25  O   UNL A   1      36.590  21.345  25.846  1.00  0.00    -0.458 OA
BRANCH  25  26
ATOM     26  C   UNL A   1      37.921  21.007  25.688  1.00  0.00     0.338 C 
ATOM     27  O   UNL A   1      38.338  20.036  25.071  1.00  0.00    -0.246 OA
BRANCH  26  28
ATOM     28  C   UNL A   1      38.808  22.155  26.101  1.00  0.00     0.060 A 
ATOM     29  C   UNL A   1      38.345  23.474  25.938  1.00  0.00     0.016 A 
ATOM     30  C   UNL A   1      40.028  21.967  26.749  1.00  0.00     0.016 A 
ATOM     31  C   UNL A   1      39.031  24.578  26.486  1.00  0.00     0.010 A 
ATOM     32  C   UNL A   1      40.742  23.081  27.259  1.00  0.00     0.010 A 
ATOM     33  C   UNL A   1      40.253  24.403  27.143  1.00  0.00    -0.014 A 
BRANCH  33  34
ATOM     34  C   UNL A   1      41.129  25.589  27.445  1.00  0.00     0.031 A 
ATOM     35  C   UNL A   1      40.523  26.693  28.282  1.00  0.00     0.074 A 
ATOM     36  C   UNL A   1      42.414  25.734  27.047  1.00  0.00     0.049 A 
ATOM     37  N   UNL A   1      41.026  27.845  28.648  1.00  0.00    -0.248 NA
ATOM     38  C   UNL A   1      39.154  26.454  28.767  1.00  0.00     0.031 C 
ATOM     39  C   UNL A   1      43.196  24.764  26.286  1.00  0.00     0.029 A 
ATOM     40  N   UNL A   1      43.292  26.790  27.230  1.00  0.00    -0.354 N 
ATOM     41  C   UNL A   1      40.020  28.485  29.362  1.00  0.00     0.074 A 
ATOM     42  C   UNL A   1      38.878  27.597  29.372  1.00  0.00     0.031 C 
ATOM     43  C   UNL A   1      44.424  25.273  26.054  1.00  0.00     0.029 A 
ATOM     44  C   UNL A   1      44.522  26.617  26.630  1.00  0.00     0.049 A 
ATOM     45  H   UNL A   1      43.057  27.595  27.746  1.00  0.00     0.167 HD
ATOM     46  C   UNL A   1      40.029  29.695  29.972  1.00  0.00     0.034 A 
ATOM     47  C   UNL A   1      45.596  27.439  26.545  1.00  0.00     0.034 A 
ATOM     48  C   UNL A   1      41.151  30.590  30.017  1.00  0.00     0.049 A 
ATOM     49  C   UNL A   1      45.570  28.806  27.206  1.00  0.00     0.074 A 
ATOM     50  C   UNL A   1      41.239  31.822  30.643  1.00  0.00     0.029 A 
ATOM     51  N   UNL A   1      42.374  30.361  29.414  1.00  0.00    -0.354 N 
ATOM     52  N   UNL A   1      44.642  29.352  27.954  1.00  0.00    -0.248 NA
ATOM     53  C   UNL A   1      46.762  29.659  27.034  1.00  0.00     0.031 C 
ATOM     54  C   UNL A   1      42.509  32.352  30.393  1.00  0.00     0.029 A 
ATOM     55  C   UNL A   1      43.222  31.433  29.642  1.00  0.00     0.049 A 
ATOM     56  H   UNL A   1      42.608  29.556  28.898  1.00  0.00     0.167 HD
ATOM     57  C   UNL A   1      45.157  30.577  28.378  1.00  0.00     0.074 A 
ATOM     58  C   UNL A   1      46.484  30.693  27.818  1.00  0.00     0.031 C 
ATOM     59  C   UNL A   1      44.573  31.525  29.153  1.00  0.00     0.034 A 
BRANCH  46  60
ATOM     60  C   UNL A   1      38.755  30.123  30.651  1.00  0.00     0.023 A 
ATOM     61  C   UNL A   1      38.534  29.793  32.003  1.00  0.00     0.012 A 
ATOM     62  C   UNL A   1      37.787  30.865  29.949  1.00  0.00     0.148 A 
ATOM     63  C   UNL A   1      37.345  30.155  32.633  1.00  0.00     0.002 A 
ATOM     64  C   UNL A   1      36.626  31.264  30.597  1.00  0.00     0.091 A 
ATOM     65  F   UNL A   1      38.009  31.147  28.657  1.00  0.00    -0.205 F 
ATOM     66  C   UNL A   1      36.396  30.897  31.934  1.00  0.00     0.022 A 
BRANCH  64  67
ATOM     67  S   UNL A   1      35.384  32.289  29.805  1.00  0.00     0.127 S 
ATOM     68  O   UNL A   1      34.904  31.406  28.743  1.00  0.00    -0.237 OA
ATOM     69  O   UNL A   1      34.430  32.512  30.892  1.00  0.00    -0.237 OA
ATOM     70  O   UNL A   1      36.079  33.488  29.355  1.00  0.00    -0.744 OA
ENDBRANCH  64  67
ENDBRANCH  46  60
BRANCH  47  71
ATOM     71  C   UNL A   1      46.843  27.010  25.831  1.00  0.00     0.023 A 
ATOM     72  C   UNL A   1      47.790  26.210  26.505  1.00  0.00     0.012 A 
ATOM     73  C   UNL A   1      47.130  27.441  24.521  1.00  0.00     0.148 A 
ATOM     74  C   UNL A   1      49.010  25.883  25.908  1.00  0.00     0.002 A 
ATOM     75  C   UNL A   1      48.324  27.064  23.910  1.00  0.00     0.091 A 
ATOM     76  F   UNL A   1      46.241  28.230  23.902  1.00  0.00    -0.205 F 
ATOM     77  C   UNL A   1      49.273  26.301  24.608  1.00  0.00     0.022 A 
BRANCH  75  78
ATOM     78  S   UNL A   1      48.710  27.467  22.202  1.00  0.00     0.127 S 
ATOM     79  O   UNL A   1      48.436  26.202  21.524  1.00  0.00    -0.237 OA
ATOM     80  O   UNL A   1      47.751  28.536  21.921  1.00  0.00    -0.237 OA
ATOM     81  O   UNL A   1      50.104  27.892  22.201  1.00  0.00    -0.744 OA
ENDBRANCH  75  78
ENDBRANCH  47  71
BRANCH  59  82
ATOM     82  C   UNL A   1      45.368  32.760  29.515  1.00  0.00     0.023 A 
ATOM     83  C   UNL A   1      46.232  32.748  30.627  1.00  0.00     0.012 A 
ATOM     84  C   UNL A   1      45.325  33.907  28.694  1.00  0.00     0.148 A 
ATOM     85  C   UNL A   1      47.012  33.865  30.937  1.00  0.00     0.002 A 
ATOM     86  C   UNL A   1      46.141  34.998  28.980  1.00  0.00     0.091 A 
ATOM     87  F   UNL A   1      44.487  33.914  27.647  1.00  0.00    -0.205 F 
ATOM     88  C   UNL A   1      46.975  34.983  30.107  1.00  0.00     0.022 A 
BRANCH  86  89
ATOM     89  S   UNL A   1      46.232  36.439  27.908  1.00  0.00     0.127 S 
ATOM     90  O   UNL A   1      47.099  35.958  26.834  1.00  0.00    -0.237 OA
ATOM     91  O   UNL A   1      44.834  36.632  27.522  1.00  0.00    -0.237 OA
ATOM     92  O   UNL A   1      46.783  37.511  28.727  1.00  0.00    -0.744 OA
ENDBRANCH  86  89
ENDBRANCH  59  82
ENDBRANCH  33  34
ENDBRANCH  26  28
ENDBRANCH  25  26
ENDBRANCH   1  25
TORSDOF 17
ENDMDL
