MODEL 1
REMARK VINA RESULT:     -12.3      0.000      0.000
REMARK SMILES Cc1cc(Nc2ccc(C(=O)OCCOC(=O)c3ccc(-c4c5nc(c(-c6cccc(S(=O)(=O)[O-])c6F)c6ccc([nH]6)c(-c6cccc(S(=O)(=O)[O-])c6F)c6nc(c(-c7cccc(S(=O)(=O)[O-])c7F)c7ccc4[nH]7)C=C6)C=C5)cc3)cc2)nc(-n2nc(C)cc2C)n1
REMARK SMILES IDX 13 1 12 2 10 3 11 4 9 5 6 6 7 7 82 8 8 9 81 10 5 11 4 13
REMARK SMILES IDX 1 14 2 15 3 16 92 17 84 18 83 19 85 20 86 21 90 22 87 23
REMARK SMILES IDX 89 24 91 25 88 26 14 27 15 28 16 29 17 30 18 31 19 32 80 33
REMARK SMILES IDX 20 34 79 35 21 36 22 37 23 38 73 39 24 40 78 41 72 42 74 43
REMARK SMILES IDX 25 44 77 45 71 46 70 47 26 49 58 50 38 51 57 52 39 53 42 54
REMARK SMILES IDX 56 55 75 56 40 57 41 58 55 60 76 61 43 62 27 63 28 64 36 65
REMARK SMILES IDX 29 66 31 67 37 68 30 69 32 70 33 71 34 72 35 73 59 74 60 75
REMARK SMILES IDX 68 76 61 77 63 78 69 79 62 80 64 81 65 82 66 83 67 84 44 85
REMARK SMILES IDX 45 86 53 87 46 88 48 89 54 90 47 91 49 92 50 93 51 94 52 95
REMARK H PARENT 5 12 74 48 42 59
REMARK Flexibility Score: inf
ROOT
ATOM      1  C   UNL A   1      35.541  20.121  24.977  1.00  0.00     0.275 C 
ENDROOT
BRANCH   1   2
ATOM      2  O   UNL A   1      34.563  21.089  25.409  1.00  0.00    -0.458 OA
BRANCH   2   3
ATOM      3  C   UNL A   1      33.357  21.004  24.796  1.00  0.00     0.338 C 
ATOM      4  O   UNL A   1      32.536  20.109  24.937  1.00  0.00    -0.246 OA
BRANCH   3   5
ATOM      5  C   UNL A   1      33.095  22.196  23.962  1.00  0.00     0.060 A 
ATOM      6  C   UNL A   1      32.801  24.615  22.567  1.00  0.00     0.040 A 
ATOM      7  C   UNL A   1      33.989  23.898  22.473  1.00  0.00     0.027 A 
ATOM      8  C   UNL A   1      31.745  24.089  23.332  1.00  0.00     0.027 A 
ATOM      9  C   UNL A   1      34.143  22.722  23.198  1.00  0.00     0.018 A 
ATOM     10  C   UNL A   1      31.877  22.871  24.010  1.00  0.00     0.018 A 
BRANCH   6  11
ATOM     11  N   UNL A   1      32.776  25.938  22.084  1.00  0.00    -0.340 N 
ATOM     12  H   UNL A   1      33.119  26.111  21.177  1.00  0.00     0.168 HD
BRANCH  11  13
ATOM     13  C   UNL A   1      32.286  27.026  22.830  1.00  0.00     0.136 A 
ATOM     14  C   UNL A   1      33.283  29.236  25.680  1.00  0.00     0.067 C 
ATOM     15  C   UNL A   1      32.583  28.672  24.483  1.00  0.00     0.045 A 
ATOM     16  C   UNL A   1      33.035  27.516  23.878  1.00  0.00     0.070 A 
ATOM     17  N   UNL A   1      31.495  29.338  24.046  1.00  0.00    -0.216 NA
ATOM     18  C   UNL A   1      30.775  28.742  23.069  1.00  0.00     0.252 A 
ATOM     19  N   UNL A   1      31.130  27.599  22.465  1.00  0.00    -0.194 NA
BRANCH  18  20
ATOM     20  N   UNL A   1      29.595  29.402  22.590  1.00  0.00    -0.203 N 
ATOM     21  N   UNL A   1      29.651  30.592  21.926  1.00  0.00    -0.170 NA
ATOM     22  C   UNL A   1      28.284  28.967  22.734  1.00  0.00     0.045 A 
ATOM     23  C   UNL A   1      28.402  30.806  21.500  1.00  0.00     0.060 A 
ATOM     24  C   UNL A   1      27.507  29.842  22.005  1.00  0.00     0.049 A 
ATOM     25  C   UNL A   1      27.904  27.840  23.618  1.00  0.00     0.067 C 
ATOM     26  C   UNL A   1      28.101  31.962  20.622  1.00  0.00     0.069 C 
ENDBRANCH  18  20
ENDBRANCH  11  13
ENDBRANCH   6  11
ENDBRANCH   3   5
ENDBRANCH   2   3
ENDBRANCH   1   2
BRANCH   1  27
ATOM     27  C   UNL A   1      36.859  20.791  24.588  1.00  0.00     0.275 C 
BRANCH  27  28
ATOM     28  O   UNL A   1      37.406  21.535  25.691  1.00  0.00    -0.458 OA
BRANCH  28  29
ATOM     29  C   UNL A   1      38.705  21.284  25.965  1.00  0.00     0.338 C 
ATOM     30  O   UNL A   1      39.343  20.284  25.685  1.00  0.00    -0.246 OA
BRANCH  29  31
ATOM     31  C   UNL A   1      39.311  22.447  26.626  1.00  0.00     0.060 A 
ATOM     32  C   UNL A   1      38.917  23.717  26.224  1.00  0.00     0.016 A 
ATOM     33  C   UNL A   1      40.372  22.291  27.510  1.00  0.00     0.016 A 
ATOM     34  C   UNL A   1      39.671  24.832  26.573  1.00  0.00     0.010 A 
ATOM     35  C   UNL A   1      41.035  23.428  27.983  1.00  0.00     0.010 A 
ATOM     36  C   UNL A   1      40.723  24.710  27.487  1.00  0.00    -0.014 A 
BRANCH  36  37
ATOM     37  C   UNL A   1      41.483  25.907  27.946  1.00  0.00     0.031 A 
ATOM     38  C   UNL A   1      40.793  26.978  28.749  1.00  0.00     0.074 A 
ATOM     39  C   UNL A   1      42.771  26.071  27.580  1.00  0.00     0.049 A 
ATOM     40  N   UNL A   1      41.183  28.198  29.009  1.00  0.00    -0.248 NA
ATOM     41  C   UNL A   1      39.476  26.637  29.311  1.00  0.00     0.031 C 
ATOM     42  C   UNL A   1      43.566  25.109  26.814  1.00  0.00     0.029 A 
ATOM     43  N   UNL A   1      43.628  27.130  27.767  1.00  0.00    -0.354 N 
ATOM     44  C   UNL A   1      40.125  28.801  29.680  1.00  0.00     0.074 A 
ATOM     45  C   UNL A   1      39.083  27.805  29.801  1.00  0.00     0.031 C 
ATOM     46  C   UNL A   1      44.782  25.620  26.586  1.00  0.00     0.029 A 
ATOM     47  C   UNL A   1      44.821  26.982  27.096  1.00  0.00     0.049 A 
ATOM     48  H   UNL A   1      43.410  27.912  28.324  1.00  0.00     0.167 HD
ATOM     49  C   UNL A   1      40.032  30.070  30.146  1.00  0.00     0.034 A 
ATOM     50  C   UNL A   1      45.810  27.862  26.846  1.00  0.00     0.034 A 
ATOM     51  C   UNL A   1      41.101  31.031  30.072  1.00  0.00     0.049 A 
ATOM     52  C   UNL A   1      45.694  29.258  27.379  1.00  0.00     0.074 A 
ATOM     53  C   UNL A   1      41.138  32.319  30.575  1.00  0.00     0.029 A 
ATOM     54  N   UNL A   1      42.322  30.810  29.451  1.00  0.00    -0.354 N 
ATOM     55  N   UNL A   1      44.714  29.798  28.061  1.00  0.00    -0.248 NA
ATOM     56  C   UNL A   1      46.823  30.162  27.126  1.00  0.00     0.031 C 
ATOM     57  C   UNL A   1      42.370  32.887  30.232  1.00  0.00     0.029 A 
ATOM     58  C   UNL A   1      43.116  31.940  29.547  1.00  0.00     0.049 A 
ATOM     59  H   UNL A   1      42.585  29.972  29.005  1.00  0.00     0.167 HD
ATOM     60  C   UNL A   1      45.118  31.095  28.345  1.00  0.00     0.074 A 
ATOM     61  C   UNL A   1      46.440  31.255  27.772  1.00  0.00     0.031 C 
ATOM     62  C   UNL A   1      44.449  32.068  29.012  1.00  0.00     0.034 A 
BRANCH  49  63
ATOM     63  C   UNL A   1      38.726  30.493  30.774  1.00  0.00     0.023 A 
ATOM     64  C   UNL A   1      38.480  30.243  32.140  1.00  0.00     0.012 A 
ATOM     65  C   UNL A   1      37.750  31.165  30.011  1.00  0.00     0.148 A 
ATOM     66  C   UNL A   1      37.265  30.608  32.721  1.00  0.00     0.002 A 
ATOM     67  C   UNL A   1      36.561  31.569  30.609  1.00  0.00     0.091 A 
ATOM     68  F   UNL A   1      37.988  31.378  28.709  1.00  0.00    -0.205 F 
ATOM     69  C   UNL A   1      36.310  31.277  31.959  1.00  0.00     0.022 A 
BRANCH  67  70
ATOM     70  S   UNL A   1      35.310  32.511  29.728  1.00  0.00     0.127 S 
ATOM     71  O   UNL A   1      34.864  31.545  28.727  1.00  0.00    -0.237 OA
ATOM     72  O   UNL A   1      34.333  32.791  30.781  1.00  0.00    -0.237 OA
ATOM     73  O   UNL A   1      35.991  33.689  29.210  1.00  0.00    -0.744 OA
ENDBRANCH  67  70
ENDBRANCH  49  63
BRANCH  50  74
ATOM     74  C   UNL A   1      46.979  27.424  26.032  1.00  0.00     0.023 A 
ATOM     75  C   UNL A   1      47.009  27.702  24.654  1.00  0.00     0.012 A 
ATOM     76  C   UNL A   1      48.101  26.825  26.640  1.00  0.00     0.148 A 
ATOM     77  C   UNL A   1      48.135  27.383  23.891  1.00  0.00     0.002 A 
ATOM     78  C   UNL A   1      49.241  26.567  25.888  1.00  0.00     0.091 A 
ATOM     79  F   UNL A   1      48.046  26.562  27.954  1.00  0.00    -0.205 F 
ATOM     80  C   UNL A   1      49.254  26.832  24.511  1.00  0.00     0.022 A 
BRANCH  78  81
ATOM     81  S   UNL A   1      50.778  26.001  26.627  1.00  0.00     0.127 S 
ATOM     82  O   UNL A   1      50.364  24.745  27.249  1.00  0.00    -0.237 OA
ATOM     83  O   UNL A   1      51.638  25.852  25.453  1.00  0.00    -0.237 OA
ATOM     84  O   UNL A   1      51.188  27.052  27.546  1.00  0.00    -0.744 OA
ENDBRANCH  78  81
ENDBRANCH  50  74
BRANCH  62  85
ATOM     85  C   UNL A   1      45.150  33.386  29.206  1.00  0.00     0.023 A 
ATOM     86  C   UNL A   1      45.980  33.586  30.325  1.00  0.00     0.012 A 
ATOM     87  C   UNL A   1      45.048  34.395  28.228  1.00  0.00     0.148 A 
ATOM     88  C   UNL A   1      46.681  34.782  30.480  1.00  0.00     0.002 A 
ATOM     89  C   UNL A   1      45.787  35.562  28.363  1.00  0.00     0.091 A 
ATOM     90  F   UNL A   1      44.233  34.191  27.182  1.00  0.00    -0.205 F 
ATOM     91  C   UNL A   1      46.595  35.763  29.495  1.00  0.00     0.022 A 
BRANCH  89  92
ATOM     92  S   UNL A   1      45.815  36.836  27.097  1.00  0.00     0.127 S 
ATOM     93  O   UNL A   1      46.754  37.801  27.666  1.00  0.00    -0.237 OA
ATOM     94  O   UNL A   1      46.321  36.104  25.935  1.00  0.00    -0.237 OA
ATOM     95  O   UNL A   1      44.443  37.305  26.966  1.00  0.00    -0.744 OA
ENDBRANCH  89  92
ENDBRANCH  62  85
ENDBRANCH  36  37
ENDBRANCH  29  31
ENDBRANCH  28  29
ENDBRANCH  27  28
ENDBRANCH   1  27
TORSDOF 17
ENDMDL
MODEL 2
REMARK VINA RESULT:     -12.1      5.131     10.471
REMARK SMILES Cc1cc(Nc2ccc(C(=O)OCCOC(=O)c3ccc(-c4c5nc(c(-c6cccc(S(=O)(=O)[O-])c6F)c6ccc([nH]6)c(-c6cccc(S(=O)(=O)[O-])c6F)c6nc(c(-c7cccc(S(=O)(=O)[O-])c7F)c7ccc4[nH]7)C=C6)C=C5)cc3)cc2)nc(-n2nc(C)cc2C)n1
REMARK SMILES IDX 13 1 12 2 10 3 11 4 9 5 6 6 7 7 82 8 8 9 81 10 5 11 4 13
REMARK SMILES IDX 1 14 2 15 3 16 92 17 84 18 83 19 85 20 86 21 90 22 87 23
REMARK SMILES IDX 89 24 91 25 88 26 14 27 15 28 16 29 17 30 18 31 19 32 80 33
REMARK SMILES IDX 20 34 79 35 21 36 22 37 23 38 73 39 24 40 78 41 72 42 74 43
REMARK SMILES IDX 25 44 77 45 71 46 70 47 26 49 58 50 38 51 57 52 39 53 42 54
REMARK SMILES IDX 56 55 75 56 40 57 41 58 55 60 76 61 43 62 27 63 28 64 36 65
REMARK SMILES IDX 29 66 31 67 37 68 30 69 32 70 33 71 34 72 35 73 59 74 60 75
REMARK SMILES IDX 68 76 61 77 63 78 69 79 62 80 64 81 65 82 66 83 67 84 44 85
REMARK SMILES IDX 45 86 53 87 46 88 48 89 54 90 47 91 49 92 50 93 51 94 52 95
REMARK H PARENT 5 12 74 48 42 59
REMARK Flexibility Score: inf
ROOT
ATOM      1  C   UNL A   1      31.085  29.452  24.805  1.00  0.00     0.275 C 
ENDROOT
BRANCH   1   2
ATOM      2  O   UNL A   1      30.882  28.067  24.458  1.00  0.00    -0.458 OA
BRANCH   2   3
ATOM      3  C   UNL A   1      30.791  27.813  23.130  1.00  0.00     0.338 C 
ATOM      4  O   UNL A   1      30.567  28.632  22.250  1.00  0.00    -0.246 OA
BRANCH   3   5
ATOM      5  C   UNL A   1      31.078  26.393  22.835  1.00  0.00     0.060 A 
ATOM      6  C   UNL A   1      31.696  23.665  22.582  1.00  0.00     0.040 A 
ATOM      7  C   UNL A   1      30.549  24.059  23.264  1.00  0.00     0.027 A 
ATOM      8  C   UNL A   1      32.509  24.649  21.991  1.00  0.00     0.027 A 
ATOM      9  C   UNL A   1      30.269  25.411  23.420  1.00  0.00     0.018 A 
ATOM     10  C   UNL A   1      32.193  26.009  22.092  1.00  0.00     0.018 A 
BRANCH   6  11
ATOM     11  N   UNL A   1      32.122  22.327  22.700  1.00  0.00    -0.340 N 
ATOM     12  H   UNL A   1      32.054  21.745  21.909  1.00  0.00     0.168 HD
BRANCH  11  13
ATOM     13  C   UNL A   1      32.639  21.782  23.890  1.00  0.00     0.136 A 
ATOM     14  C   UNL A   1      33.401  22.779  27.414  1.00  0.00     0.067 C 
ATOM     15  C   UNL A   1      33.147  21.975  26.177  1.00  0.00     0.045 A 
ATOM     16  C   UNL A   1      32.776  22.589  24.998  1.00  0.00     0.070 A 
ATOM     17  N   UNL A   1      33.314  20.641  26.275  1.00  0.00    -0.216 NA
ATOM     18  C   UNL A   1      33.241  19.937  25.123  1.00  0.00     0.252 A 
ATOM     19  N   UNL A   1      32.927  20.472  23.935  1.00  0.00    -0.194 NA
BRANCH  18  20
ATOM     20  N   UNL A   1      33.435  18.517  25.175  1.00  0.00    -0.203 N 
ATOM     21  N   UNL A   1      32.464  17.669  25.620  1.00  0.00    -0.170 NA
ATOM     22  C   UNL A   1      34.585  17.824  24.819  1.00  0.00     0.045 A 
ATOM     23  C   UNL A   1      32.938  16.445  25.371  1.00  0.00     0.060 A 
ATOM     24  C   UNL A   1      34.267  16.485  24.904  1.00  0.00     0.049 A 
ATOM     25  C   UNL A   1      35.874  18.497  24.535  1.00  0.00     0.067 C 
ATOM     26  C   UNL A   1      32.090  15.253  25.612  1.00  0.00     0.069 C 
ENDBRANCH  18  20
ENDBRANCH  11  13
ENDBRANCH   6  11
ENDBRANCH   3   5
ENDBRANCH   2   3
ENDBRANCH   1   2
BRANCH   1  27
ATOM     27  C   UNL A   1      32.514  29.705  25.289  1.00  0.00     0.275 C 
BRANCH  27  28
ATOM     28  O   UNL A   1      32.548  29.911  26.712  1.00  0.00    -0.458 OA
BRANCH  28  29
ATOM     29  C   UNL A   1      33.054  31.100  27.107  1.00  0.00     0.338 C 
ATOM     30  O   UNL A   1      32.482  32.176  27.146  1.00  0.00    -0.246 OA
BRANCH  29  31
ATOM     31  C   UNL A   1      34.438  30.927  27.568  1.00  0.00     0.060 A 
ATOM     32  C   UNL A   1      34.857  29.657  27.943  1.00  0.00     0.016 A 
ATOM     33  C   UNL A   1      35.259  32.028  27.787  1.00  0.00     0.016 A 
ATOM     34  C   UNL A   1      36.026  29.489  28.677  1.00  0.00     0.010 A 
ATOM     35  C   UNL A   1      36.506  31.835  28.389  1.00  0.00     0.010 A 
ATOM     36  C   UNL A   1      36.888  30.571  28.883  1.00  0.00    -0.014 A 
BRANCH  36  37
ATOM     37  C   UNL A   1      38.189  30.393  29.587  1.00  0.00     0.031 A 
ATOM     38  C   UNL A   1      39.258  29.519  28.987  1.00  0.00     0.074 A 
ATOM     39  C   UNL A   1      38.385  30.953  30.798  1.00  0.00     0.049 A 
ATOM     40  N   UNL A   1      40.329  29.020  29.545  1.00  0.00    -0.248 NA
ATOM     41  C   UNL A   1      39.084  29.134  27.577  1.00  0.00     0.031 C 
ATOM     42  C   UNL A   1      37.440  31.831  31.491  1.00  0.00     0.029 A 
ATOM     43  N   UNL A   1      39.430  30.829  31.684  1.00  0.00    -0.354 N 
ATOM     44  C   UNL A   1      40.905  28.188  28.591  1.00  0.00     0.074 A 
ATOM     45  C   UNL A   1      40.071  28.265  27.410  1.00  0.00     0.031 C 
ATOM     46  C   UNL A   1      37.936  32.157  32.691  1.00  0.00     0.029 A 
ATOM     47  C   UNL A   1      39.182  31.432  32.896  1.00  0.00     0.049 A 
ATOM     48  H   UNL A   1      40.269  30.359  31.472  1.00  0.00     0.167 HD
ATOM     49  C   UNL A   1      42.022  27.428  28.693  1.00  0.00     0.034 A 
ATOM     50  C   UNL A   1      39.833  31.355  34.073  1.00  0.00     0.034 A 
ATOM     51  C   UNL A   1      42.875  27.410  29.853  1.00  0.00     0.049 A 
ATOM     52  C   UNL A   1      41.073  30.517  34.164  1.00  0.00     0.074 A 
ATOM     53  C   UNL A   1      44.066  26.732  30.035  1.00  0.00     0.029 A 
ATOM     54  N   UNL A   1      42.623  28.098  31.031  1.00  0.00    -0.354 N 
ATOM     55  N   UNL A   1      41.638  29.783  33.237  1.00  0.00    -0.248 NA
ATOM     56  C   UNL A   1      41.778  30.511  35.452  1.00  0.00     0.031 C 
ATOM     57  C   UNL A   1      44.520  26.987  31.334  1.00  0.00     0.029 A 
ATOM     58  C   UNL A   1      43.630  27.854  31.948  1.00  0.00     0.049 A 
ATOM     59  H   UNL A   1      41.842  28.677  31.191  1.00  0.00     0.167 HD
ATOM     60  C   UNL A   1      42.779  29.248  33.819  1.00  0.00     0.074 A 
ATOM     61  C   UNL A   1      42.832  29.756  35.176  1.00  0.00     0.031 C 
ATOM     62  C   UNL A   1      43.694  28.404  33.280  1.00  0.00     0.034 A 
BRANCH  49  63
ATOM     63  C   UNL A   1      42.383  26.550  27.520  1.00  0.00     0.023 A 
ATOM     64  C   UNL A   1      43.123  27.074  26.440  1.00  0.00     0.012 A 
ATOM     65  C   UNL A   1      42.009  25.191  27.501  1.00  0.00     0.148 A 
ATOM     66  C   UNL A   1      43.439  26.276  25.340  1.00  0.00     0.002 A 
ATOM     67  C   UNL A   1      42.369  24.389  26.424  1.00  0.00     0.091 A 
ATOM     68  F   UNL A   1      41.288  24.710  28.525  1.00  0.00    -0.205 F 
ATOM     69  C   UNL A   1      43.069  24.932  25.336  1.00  0.00     0.022 A 
BRANCH  67  70
ATOM     70  S   UNL A   1      42.011  22.629  26.371  1.00  0.00     0.127 S 
ATOM     71  O   UNL A   1      40.551  22.622  26.433  1.00  0.00    -0.237 OA
ATOM     72  O   UNL A   1      42.567  22.237  25.075  1.00  0.00    -0.237 OA
ATOM     73  O   UNL A   1      42.694  22.049  27.519  1.00  0.00    -0.744 OA
ENDBRANCH  67  70
ENDBRANCH  49  63
BRANCH  50  74
ATOM     74  C   UNL A   1      39.290  32.090  35.250  1.00  0.00     0.023 A 
ATOM     75  C   UNL A   1      38.441  31.425  36.152  1.00  0.00     0.012 A 
ATOM     76  C   UNL A   1      39.697  33.411  35.529  1.00  0.00     0.148 A 
ATOM     77  C   UNL A   1      37.996  32.067  37.310  1.00  0.00     0.002 A 
ATOM     78  C   UNL A   1      39.301  34.021  36.714  1.00  0.00     0.091 A 
ATOM     79  F   UNL A   1      40.501  34.027  34.651  1.00  0.00    -0.205 F 
ATOM     80  C   UNL A   1      38.439  33.356  37.598  1.00  0.00     0.022 A 
BRANCH  78  81
ATOM     81  S   UNL A   1      39.941  35.616  37.239  1.00  0.00     0.127 S 
ATOM     82  O   UNL A   1      39.215  35.831  38.489  1.00  0.00    -0.237 OA
ATOM     83  O   UNL A   1      41.367  35.329  37.397  1.00  0.00    -0.237 OA
ATOM     84  O   UNL A   1      39.628  36.544  36.162  1.00  0.00    -0.744 OA
ENDBRANCH  78  81
ENDBRANCH  50  74
BRANCH  62  85
ATOM     85  C   UNL A   1      44.865  28.009  34.138  1.00  0.00     0.023 A 
ATOM     86  C   UNL A   1      46.022  28.810  34.166  1.00  0.00     0.012 A 
ATOM     87  C   UNL A   1      44.779  26.884  34.982  1.00  0.00     0.148 A 
ATOM     88  C   UNL A   1      47.088  28.482  35.005  1.00  0.00     0.002 A 
ATOM     89  C   UNL A   1      45.822  26.593  35.851  1.00  0.00     0.091 A 
ATOM     90  F   UNL A   1      43.675  26.124  34.922  1.00  0.00    -0.205 F 
ATOM     91  C   UNL A   1      46.982  27.384  35.856  1.00  0.00     0.022 A 
BRANCH  89  92
ATOM     92  S   UNL A   1      45.732  25.259  37.050  1.00  0.00     0.127 S 
ATOM     93  O   UNL A   1      44.692  25.742  37.957  1.00  0.00    -0.237 OA
ATOM     94  O   UNL A   1      45.336  24.122  36.217  1.00  0.00    -0.237 OA
ATOM     95  O   UNL A   1      47.062  25.148  37.631  1.00  0.00    -0.744 OA
ENDBRANCH  89  92
ENDBRANCH  62  85
ENDBRANCH  36  37
ENDBRANCH  29  31
ENDBRANCH  28  29
ENDBRANCH  27  28
ENDBRANCH   1  27
TORSDOF 17
ENDMDL
MODEL 3
REMARK VINA RESULT:     -12.1      5.331     10.537
REMARK SMILES Cc1cc(Nc2ccc(C(=O)OCCOC(=O)c3ccc(-c4c5nc(c(-c6cccc(S(=O)(=O)[O-])c6F)c6ccc([nH]6)c(-c6cccc(S(=O)(=O)[O-])c6F)c6nc(c(-c7cccc(S(=O)(=O)[O-])c7F)c7ccc4[nH]7)C=C6)C=C5)cc3)cc2)nc(-n2nc(C)cc2C)n1
REMARK SMILES IDX 13 1 12 2 10 3 11 4 9 5 6 6 7 7 82 8 8 9 81 10 5 11 4 13
REMARK SMILES IDX 1 14 2 15 3 16 92 17 84 18 83 19 85 20 86 21 90 22 87 23
REMARK SMILES IDX 89 24 91 25 88 26 14 27 15 28 16 29 17 30 18 31 19 32 80 33
REMARK SMILES IDX 20 34 79 35 21 36 22 37 23 38 73 39 24 40 78 41 72 42 74 43
REMARK SMILES IDX 25 44 77 45 71 46 70 47 26 49 58 50 38 51 57 52 39 53 42 54
REMARK SMILES IDX 56 55 75 56 40 57 41 58 55 60 76 61 43 62 27 63 28 64 36 65
REMARK SMILES IDX 29 66 31 67 37 68 30 69 32 70 33 71 34 72 35 73 59 74 60 75
REMARK SMILES IDX 68 76 61 77 63 78 69 79 62 80 64 81 65 82 66 83 67 84 44 85
REMARK SMILES IDX 45 86 53 87 46 88 48 89 54 90 47 91 49 92 50 93 51 94 52 95
REMARK H PARENT 5 12 74 48 42 59
REMARK Flexibility Score: inf
ROOT
ATOM      1  C   UNL A   1      31.998  29.414  24.605  1.00  0.00     0.275 C 
ENDROOT
BRANCH   1   2
ATOM      2  O   UNL A   1      31.969  27.971  24.607  1.00  0.00    -0.458 OA
BRANCH   2   3
ATOM      3  C   UNL A   1      30.815  27.416  24.165  1.00  0.00     0.338 C 
ATOM      4  O   UNL A   1      29.966  27.965  23.477  1.00  0.00    -0.246 OA
BRANCH   3   5
ATOM      5  C   UNL A   1      30.721  25.993  24.553  1.00  0.00     0.060 A 
ATOM      6  C   UNL A   1      30.835  23.322  25.412  1.00  0.00     0.040 A 
ATOM      7  C   UNL A   1      30.717  24.349  26.344  1.00  0.00     0.027 A 
ATOM      8  C   UNL A   1      30.853  23.642  24.043  1.00  0.00     0.027 A 
ATOM      9  C   UNL A   1      30.702  25.670  25.915  1.00  0.00     0.018 A 
ATOM     10  C   UNL A   1      30.772  24.970  23.608  1.00  0.00     0.018 A 
BRANCH   6  11
ATOM     11  N   UNL A   1      31.158  22.031  25.874  1.00  0.00    -0.340 N 
ATOM     12  H   UNL A   1      30.501  21.557  26.434  1.00  0.00     0.168 HD
BRANCH  11  13
ATOM     13  C   UNL A   1      32.371  21.383  25.576  1.00  0.00     0.136 A 
ATOM     14  C   UNL A   1      33.635  18.243  23.982  1.00  0.00     0.067 C 
ATOM     15  C   UNL A   1      33.554  19.617  24.570  1.00  0.00     0.045 A 
ATOM     16  C   UNL A   1      32.344  20.143  24.974  1.00  0.00     0.070 A 
ATOM     17  N   UNL A   1      34.713  20.294  24.694  1.00  0.00    -0.216 NA
ATOM     18  C   UNL A   1      34.660  21.464  25.369  1.00  0.00     0.252 A 
ATOM     19  N   UNL A   1      33.527  22.016  25.827  1.00  0.00    -0.194 NA
BRANCH  18  20
ATOM     20  N   UNL A   1      35.873  22.208  25.547  1.00  0.00    -0.203 N 
ATOM     21  N   UNL A   1      37.008  21.634  26.039  1.00  0.00    -0.170 NA
ATOM     22  C   UNL A   1      36.067  23.557  25.280  1.00  0.00     0.045 A 
ATOM     23  C   UNL A   1      37.951  22.571  25.907  1.00  0.00     0.060 A 
ATOM     24  C   UNL A   1      37.411  23.798  25.471  1.00  0.00     0.049 A 
ATOM     25  C   UNL A   1      34.952  24.483  24.971  1.00  0.00     0.067 C 
ATOM     26  C   UNL A   1      39.365  22.258  26.229  1.00  0.00     0.069 C 
ENDBRANCH  18  20
ENDBRANCH  11  13
ENDBRANCH   6  11
ENDBRANCH   3   5
ENDBRANCH   2   3
ENDBRANCH   1   2
BRANCH   1  27
ATOM     27  C   UNL A   1      31.846  29.978  26.018  1.00  0.00     0.275 C 
BRANCH  27  28
ATOM     28  O   UNL A   1      33.086  29.903  26.741  1.00  0.00    -0.458 OA
BRANCH  28  29
ATOM     29  C   UNL A   1      33.563  31.086  27.188  1.00  0.00     0.338 C 
ATOM     30  O   UNL A   1      32.994  32.163  27.190  1.00  0.00    -0.246 OA
BRANCH  29  31
ATOM     31  C   UNL A   1      34.904  30.902  27.759  1.00  0.00     0.060 A 
ATOM     32  C   UNL A   1      35.270  29.634  28.194  1.00  0.00     0.016 A 
ATOM     33  C   UNL A   1      35.724  31.993  28.017  1.00  0.00     0.016 A 
ATOM     34  C   UNL A   1      36.375  29.464  29.020  1.00  0.00     0.010 A 
ATOM     35  C   UNL A   1      36.918  31.795  28.719  1.00  0.00     0.010 A 
ATOM     36  C   UNL A   1      37.237  30.537  29.269  1.00  0.00    -0.014 A 
BRANCH  36  37
ATOM     37  C   UNL A   1      38.476  30.354  30.076  1.00  0.00     0.031 A 
ATOM     38  C   UNL A   1      39.549  29.406  29.609  1.00  0.00     0.074 A 
ATOM     39  C   UNL A   1      38.609  30.981  31.264  1.00  0.00     0.049 A 
ATOM     40  N   UNL A   1      40.555  28.903  30.273  1.00  0.00    -0.248 NA
ATOM     41  C   UNL A   1      39.459  28.942  28.215  1.00  0.00     0.031 C 
ATOM     42  C   UNL A   1      37.654  31.934  31.832  1.00  0.00     0.029 A 
ATOM     43  N   UNL A   1      39.582  30.873  32.229  1.00  0.00    -0.354 N 
ATOM     44  C   UNL A   1      41.163  27.993  29.415  1.00  0.00     0.074 A 
ATOM     45  C   UNL A   1      40.419  28.028  28.173  1.00  0.00     0.031 C 
ATOM     46  C   UNL A   1      38.076  32.315  33.044  1.00  0.00     0.029 A 
ATOM     47  C   UNL A   1      39.273  31.559  33.383  1.00  0.00     0.049 A 
ATOM     48  H   UNL A   1      40.413  30.361  32.108  1.00  0.00     0.167 HD
ATOM     49  C   UNL A   1      42.237  27.200  29.643  1.00  0.00     0.034 A 
ATOM     50  C   UNL A   1      39.835  31.530  34.606  1.00  0.00     0.034 A 
ATOM     51  C   UNL A   1      43.004  27.222  30.862  1.00  0.00     0.049 A 
ATOM     52  C   UNL A   1      41.030  30.655  34.838  1.00  0.00     0.074 A 
ATOM     53  C   UNL A   1      44.150  26.514  31.171  1.00  0.00     0.029 A 
ATOM     54  N   UNL A   1      42.697  27.991  31.975  1.00  0.00    -0.354 N 
ATOM     55  N   UNL A   1      41.628  29.844  34.000  1.00  0.00    -0.248 NA
ATOM     56  C   UNL A   1      41.639  30.702  36.173  1.00  0.00     0.031 C 
ATOM     57  C   UNL A   1      44.520  26.831  32.482  1.00  0.00     0.029 A 
ATOM     58  C   UNL A   1      43.625  27.767  32.977  1.00  0.00     0.049 A 
ATOM     59  H   UNL A   1      41.931  28.606  32.043  1.00  0.00     0.167 HD
ATOM     60  C   UNL A   1      42.702  29.304  34.695  1.00  0.00     0.074 A 
ATOM     61  C   UNL A   1      42.679  29.893  36.019  1.00  0.00     0.031 C 
ATOM     62  C   UNL A   1      43.617  28.395  34.275  1.00  0.00     0.034 A 
BRANCH  49  63
ATOM     63  C   UNL A   1      42.644  26.239  28.554  1.00  0.00     0.023 A 
ATOM     64  C   UNL A   1      41.932  25.036  28.364  1.00  0.00     0.012 A 
ATOM     65  C   UNL A   1      43.722  26.541  27.698  1.00  0.00     0.148 A 
ATOM     66  C   UNL A   1      42.319  24.129  27.376  1.00  0.00     0.002 A 
ATOM     67  C   UNL A   1      44.071  25.656  26.684  1.00  0.00     0.091 A 
ATOM     68  F   UNL A   1      44.403  27.678  27.902  1.00  0.00    -0.205 F 
ATOM     69  C   UNL A   1      43.382  24.442  26.532  1.00  0.00     0.022 A 
BRANCH  67  70
ATOM     70  S   UNL A   1      45.370  26.014  25.496  1.00  0.00     0.127 S 
ATOM     71  O   UNL A   1      44.926  27.296  24.951  1.00  0.00    -0.237 OA
ATOM     72  O   UNL A   1      46.558  26.094  26.347  1.00  0.00    -0.237 OA
ATOM     73  O   UNL A   1      45.373  24.898  24.560  1.00  0.00    -0.744 OA
ENDBRANCH  67  70
ENDBRANCH  49  63
BRANCH  50  74
ATOM     74  C   UNL A   1      39.240  32.356  35.696  1.00  0.00     0.023 A 
ATOM     75  C   UNL A   1      38.270  31.793  36.543  1.00  0.00     0.012 A 
ATOM     76  C   UNL A   1      39.709  33.661  35.953  1.00  0.00     0.148 A 
ATOM     77  C   UNL A   1      37.769  32.519  37.626  1.00  0.00     0.002 A 
ATOM     78  C   UNL A   1      39.252  34.354  37.068  1.00  0.00     0.091 A 
ATOM     79  F   UNL A   1      40.629  34.179  35.126  1.00  0.00    -0.205 F 
ATOM     80  C   UNL A   1      38.271  33.790  37.897  1.00  0.00     0.022 A 
BRANCH  78  81
ATOM     81  S   UNL A   1      39.950  35.928  37.580  1.00  0.00     0.127 S 
ATOM     82  O   UNL A   1      39.103  36.273  38.719  1.00  0.00    -0.237 OA
ATOM     83  O   UNL A   1      41.321  35.550  37.924  1.00  0.00    -0.237 OA
ATOM     84  O   UNL A   1      39.838  36.807  36.424  1.00  0.00    -0.744 OA
ENDBRANCH  78  81
ENDBRANCH  50  74
BRANCH  62  85
ATOM     85  C   UNL A   1      44.707  28.010  35.239  1.00  0.00     0.023 A 
ATOM     86  C   UNL A   1      45.969  28.628  35.161  1.00  0.00     0.012 A 
ATOM     87  C   UNL A   1      44.445  27.095  36.278  1.00  0.00     0.148 A 
ATOM     88  C   UNL A   1      46.965  28.320  36.088  1.00  0.00     0.002 A 
ATOM     89  C   UNL A   1      45.423  26.832  37.227  1.00  0.00     0.091 A 
ATOM     90  F   UNL A   1      43.241  26.503  36.319  1.00  0.00    -0.205 F 
ATOM     91  C   UNL A   1      46.688  27.435  37.128  1.00  0.00     0.022 A 
BRANCH  89  92
ATOM     92  S   UNL A   1      45.123  25.782  38.653  1.00  0.00     0.127 S 
ATOM     93  O   UNL A   1      43.884  26.348  39.185  1.00  0.00    -0.237 OA
ATOM     94  O   UNL A   1      44.976  24.462  38.039  1.00  0.00    -0.237 OA
ATOM     95  O   UNL A   1      46.291  25.924  39.511  1.00  0.00    -0.744 OA
ENDBRANCH  89  92
ENDBRANCH  62  85
ENDBRANCH  36  37
ENDBRANCH  29  31
ENDBRANCH  28  29
ENDBRANCH  27  28
ENDBRANCH   1  27
TORSDOF 17
ENDMDL
