MODEL 1
REMARK VINA RESULT:     -11.8      0.000      0.000
REMARK SMILES O=C(OCCOC(=O)[C@@H](Cc1ccccc1F)C1CCOCC1)c1ccc(-c2c3nc(c(-c4cccc(S(=O)(=O)[O-])c4F)c4ccc([nH]4)c(-c4cccc(S(=O)(=O)[O-])c4F)c4nc(c(-c5cccc(S(=O)(=O)[O-])c5F)c5ccc2[nH]5)C=C4)C=C3)cc1
REMARK SMILES IDX 4 1 3 2 2 3 1 4 24 5 25 6 86 7 26 8 85 9 27 10 28 11 29 12
REMARK SMILES IDX 79 13 30 14 84 15 78 16 80 17 31 18 83 19 77 20 76 21 32 23
REMARK SMILES IDX 64 24 44 25 63 26 45 27 48 28 62 29 81 30 46 31 47 32 61 34
REMARK SMILES IDX 82 35 49 36 33 37 34 38 42 39 35 40 37 41 43 42 36 43 38 44
REMARK SMILES IDX 39 45 40 46 41 47 65 48 66 49 74 50 67 51 69 52 75 53 68 54
REMARK SMILES IDX 70 55 71 56 72 57 73 58 50 59 51 60 59 61 52 62 54 63 60 64
REMARK SMILES IDX 53 65 55 66 56 67 57 68 58 69 5 70 6 71 7 72 8 73 9 74 10 75
REMARK SMILES IDX 11 76 12 77 16 78 13 79 15 80 17 81 14 82 18 83 19 84 23 85
REMARK SMILES IDX 20 86 22 87 21 88
REMARK H PARENT 80 22 48 33
REMARK Flexibility Score: inf
ROOT
ATOM      1  C   UNL A   1      32.810  32.306  27.068  1.00  0.00     0.275 C 
ENDROOT
BRANCH   1   2
ATOM      2  O   UNL A   1      32.449  33.561  27.636  1.00  0.00    -0.458 OA
BRANCH   2   3
ATOM      3  C   UNL A   1      33.138  34.213  28.590  1.00  0.00     0.338 C 
ATOM      4  O   UNL A   1      32.837  35.372  28.865  1.00  0.00    -0.246 OA
BRANCH   3   5
ATOM      5  C   UNL A   1      34.332  33.638  29.277  1.00  0.00     0.060 A 
ATOM      6  C   UNL A   1      34.418  32.556  30.781  1.00  0.00     0.016 A 
ATOM      7  C   UNL A   1      35.830  33.851  28.278  1.00  0.00     0.016 A 
ATOM      8  C   UNL A   1      35.986  31.724  31.209  1.00  0.00     0.010 A 
ATOM      9  C   UNL A   1      37.311  32.883  28.650  1.00  0.00     0.010 A 
ATOM     10  C   UNL A   1      37.455  31.862  30.145  1.00  0.00    -0.014 A 
BRANCH  10  11
ATOM     11  C   UNL A   1      38.778  31.282  30.609  1.00  0.00     0.031 A 
ATOM     12  C   UNL A   1      39.455  31.708  31.897  1.00  0.00     0.074 A 
ATOM     13  C   UNL A   1      39.277  30.179  30.012  1.00  0.00     0.049 A 
ATOM     14  N   UNL A   1      40.112  30.927  32.721  1.00  0.00    -0.248 NA
ATOM     15  C   UNL A   1      39.272  33.060  32.434  1.00  0.00     0.031 C 
ATOM     16  C   UNL A   1      38.695  29.525  28.858  1.00  0.00     0.029 A 
ATOM     17  N   UNL A   1      40.374  29.397  30.280  1.00  0.00    -0.354 N 
ATOM     18  C   UNL A   1      40.230  31.638  33.907  1.00  0.00     0.074 A 
ATOM     19  C   UNL A   1      39.600  32.911  33.710  1.00  0.00     0.031 C 
ATOM     20  C   UNL A   1      39.423  28.476  28.489  1.00  0.00     0.029 A 
ATOM     21  C   UNL A   1      40.583  28.418  29.334  1.00  0.00     0.049 A 
ATOM     22  H   UNL A   1      40.952  29.523  31.067  1.00  0.00     0.167 HD
ATOM     23  C   UNL A   1      40.851  31.276  35.049  1.00  0.00     0.034 A 
ATOM     24  C   UNL A   1      41.594  27.567  29.110  1.00  0.00     0.034 A 
ATOM     25  C   UNL A   1      41.814  30.214  35.085  1.00  0.00     0.049 A 
ATOM     26  C   UNL A   1      42.572  27.425  30.211  1.00  0.00     0.074 A 
ATOM     27  C   UNL A   1      42.691  29.895  36.101  1.00  0.00     0.029 A 
ATOM     28  N   UNL A   1      42.134  29.411  33.998  1.00  0.00    -0.354 N 
ATOM     29  N   UNL A   1      42.546  28.032  31.371  1.00  0.00    -0.248 NA
ATOM     30  C   UNL A   1      43.641  26.442  30.048  1.00  0.00     0.031 C 
ATOM     31  C   UNL A   1      43.627  28.996  35.579  1.00  0.00     0.029 A 
ATOM     32  C   UNL A   1      43.262  28.668  34.280  1.00  0.00     0.049 A 
ATOM     33  H   UNL A   1      41.629  29.376  33.152  1.00  0.00     0.167 HD
ATOM     34  C   UNL A   1      43.560  27.469  32.111  1.00  0.00     0.074 A 
ATOM     35  C   UNL A   1      44.198  26.482  31.254  1.00  0.00     0.031 C 
ATOM     36  C   UNL A   1      43.900  27.728  33.394  1.00  0.00     0.034 A 
BRANCH  23  37
ATOM     37  C   UNL A   1      40.648  32.146  36.259  1.00  0.00     0.023 A 
ATOM     38  C   UNL A   1      41.615  33.116  36.597  1.00  0.00     0.012 A 
ATOM     39  C   UNL A   1      39.497  32.010  37.055  1.00  0.00     0.148 A 
ATOM     40  C   UNL A   1      41.437  33.935  37.715  1.00  0.00     0.002 A 
ATOM     41  C   UNL A   1      39.315  32.844  38.151  1.00  0.00     0.091 A 
ATOM     42  F   UNL A   1      38.615  31.055  36.734  1.00  0.00    -0.205 F 
ATOM     43  C   UNL A   1      40.284  33.803  38.487  1.00  0.00     0.022 A 
BRANCH  41  44
ATOM     44  S   UNL A   1      37.854  32.764  39.190  1.00  0.00     0.127 S 
ATOM     45  O   UNL A   1      38.109  31.552  39.967  1.00  0.00    -0.237 OA
ATOM     46  O   UNL A   1      37.954  34.009  39.950  1.00  0.00    -0.237 OA
ATOM     47  O   UNL A   1      36.716  32.683  38.285  1.00  0.00    -0.744 OA
ENDBRANCH  41  44
ENDBRANCH  23  37
BRANCH  24  48
ATOM     48  C   UNL A   1      41.630  26.819  27.821  1.00  0.00     0.023 A 
ATOM     49  C   UNL A   1      42.199  27.386  26.670  1.00  0.00     0.012 A 
ATOM     50  C   UNL A   1      41.258  25.451  27.802  1.00  0.00     0.148 A 
ATOM     51  C   UNL A   1      42.394  26.609  25.522  1.00  0.00     0.002 A 
ATOM     52  C   UNL A   1      41.491  24.675  26.674  1.00  0.00     0.091 A 
ATOM     53  F   UNL A   1      40.723  24.925  28.915  1.00  0.00    -0.205 F 
ATOM     54  C   UNL A   1      42.054  25.255  25.528  1.00  0.00     0.022 A 
BRANCH  52  55
ATOM     55  S   UNL A   1      41.176  22.905  26.634  1.00  0.00     0.127 S 
ATOM     56  O   UNL A   1      41.922  22.500  25.445  1.00  0.00    -0.237 OA
ATOM     57  O   UNL A   1      41.754  22.453  27.900  1.00  0.00    -0.237 OA
ATOM     58  O   UNL A   1      39.729  22.754  26.548  1.00  0.00    -0.744 OA
ENDBRANCH  52  55
ENDBRANCH  24  48
BRANCH  36  59
ATOM     59  C   UNL A   1      45.033  26.935  33.955  1.00  0.00     0.023 A 
ATOM     60  C   UNL A   1      46.349  27.420  33.859  1.00  0.00     0.012 A 
ATOM     61  C   UNL A   1      44.757  25.763  34.678  1.00  0.00     0.148 A 
ATOM     62  C   UNL A   1      47.388  26.730  34.471  1.00  0.00     0.002 A 
ATOM     63  C   UNL A   1      45.786  25.122  35.343  1.00  0.00     0.091 A 
ATOM     64  F   UNL A   1      43.493  25.316  34.717  1.00  0.00    -0.205 F 
ATOM     65  C   UNL A   1      47.104  25.594  35.229  1.00  0.00     0.022 A 
BRANCH  63  66
ATOM     66  S   UNL A   1      45.487  23.742  36.446  1.00  0.00     0.127 S 
ATOM     67  O   UNL A   1      46.839  23.221  36.640  1.00  0.00    -0.237 OA
ATOM     68  O   UNL A   1      44.912  24.408  37.616  1.00  0.00    -0.237 OA
ATOM     69  O   UNL A   1      44.574  22.850  35.745  1.00  0.00    -0.744 OA
ENDBRANCH  63  66
ENDBRANCH  36  59
ENDBRANCH  10  11
ENDBRANCH   3   5
ENDBRANCH   2   3
ENDBRANCH   1   2
BRANCH   1  70
ATOM     70  C   UNL A   1      31.594  31.440  26.712  1.00  0.00     0.274 C 
BRANCH  70  71
ATOM     71  O   UNL A   1      31.891  30.286  25.894  1.00  0.00    -0.462 OA
BRANCH  71  72
ATOM     72  C   UNL A   1      31.821  29.031  26.418  1.00  0.00     0.309 C 
ATOM     73  O   UNL A   1      31.340  28.790  27.515  1.00  0.00    -0.252 OA
BRANCH  72  74
ATOM     74  C   UNL A   1      32.385  27.943  25.437  1.00  0.00     0.107 C 
BRANCH  74  75
ATOM     75  C   UNL A   1      33.791  26.781  25.886  1.00  0.00     0.054 C 
BRANCH  75  76
ATOM     76  C   UNL A   1      34.382  24.756  25.487  1.00  0.00    -0.011 A 
ATOM     77  C   UNL A   1      33.545  23.575  25.060  1.00  0.00     0.007 A 
ATOM     78  C   UNL A   1      35.684  24.163  25.159  1.00  0.00     0.126 A 
ATOM     79  C   UNL A   1      33.731  22.890  23.834  1.00  0.00     0.000 A 
ATOM     80  C   UNL A   1      35.966  23.478  23.949  1.00  0.00     0.039 A 
ATOM     81  F   UNL A   1      36.626  24.039  26.112  1.00  0.00    -0.207 F 
ATOM     82  C   UNL A   1      34.931  23.004  23.178  1.00  0.00     0.003 A 
ENDBRANCH  75  76
ENDBRANCH  74  75
BRANCH  74  83
ATOM     83  C   UNL A   1      31.258  27.523  24.403  1.00  0.00     0.008 C 
ATOM     84  C   UNL A   1      30.708  28.665  23.534  1.00  0.00     0.033 C 
ATOM     85  C   UNL A   1      30.170  26.586  24.970  1.00  0.00     0.033 C 
ATOM     86  C   UNL A   1      29.526  28.246  22.674  1.00  0.00     0.160 C 
ATOM     87  C   UNL A   1      28.986  26.374  24.022  1.00  0.00     0.160 C 
ATOM     88  O   UNL A   1      28.545  27.604  23.456  1.00  0.00    -0.381 OA
ENDBRANCH  74  83
ENDBRANCH  72  74
ENDBRANCH  71  72
ENDBRANCH  70  71
ENDBRANCH   1  70
TORSDOF 17
ENDMDL
MODEL 2
REMARK VINA RESULT:     -11.7      5.487     10.679
REMARK SMILES O=C(OCCOC(=O)[C@@H](Cc1ccccc1F)C1CCOCC1)c1ccc(-c2c3nc(c(-c4cccc(S(=O)(=O)[O-])c4F)c4ccc([nH]4)c(-c4cccc(S(=O)(=O)[O-])c4F)c4nc(c(-c5cccc(S(=O)(=O)[O-])c5F)c5ccc2[nH]5)C=C4)C=C3)cc1
REMARK SMILES IDX 4 1 3 2 2 3 1 4 24 5 25 6 86 7 26 8 85 9 27 10 28 11 29 12
REMARK SMILES IDX 79 13 30 14 84 15 78 16 80 17 31 18 83 19 77 20 76 21 32 23
REMARK SMILES IDX 64 24 44 25 63 26 45 27 48 28 62 29 81 30 46 31 47 32 61 34
REMARK SMILES IDX 82 35 49 36 33 37 34 38 42 39 35 40 37 41 43 42 36 43 38 44
REMARK SMILES IDX 39 45 40 46 41 47 65 48 66 49 74 50 67 51 69 52 75 53 68 54
REMARK SMILES IDX 70 55 71 56 72 57 73 58 50 59 51 60 59 61 52 62 54 63 60 64
REMARK SMILES IDX 53 65 55 66 56 67 57 68 58 69 5 70 6 71 7 72 8 73 9 74 10 75
REMARK SMILES IDX 11 76 12 77 16 78 13 79 15 80 17 81 14 82 18 83 19 84 23 85
REMARK SMILES IDX 20 86 22 87 21 88
REMARK H PARENT 80 22 48 33
REMARK Flexibility Score: inf
ROOT
ATOM      1  C   UNL A   1      37.387  20.830  24.639  1.00  0.00     0.275 C 
ENDROOT
BRANCH   1   2
ATOM      2  O   UNL A   1      38.045  20.720  25.897  1.00  0.00    -0.458 OA
BRANCH   2   3
ATOM      3  C   UNL A   1      39.358  20.923  26.112  1.00  0.00     0.338 C 
ATOM      4  O   UNL A   1      40.166  20.067  25.760  1.00  0.00    -0.246 OA
BRANCH   3   5
ATOM      5  C   UNL A   1      39.894  22.102  26.854  1.00  0.00     0.060 A 
ATOM      6  C   UNL A   1      41.237  22.178  28.130  1.00  0.00     0.016 A 
ATOM      7  C   UNL A   1      39.282  23.656  26.148  1.00  0.00     0.016 A 
ATOM      8  C   UNL A   1      41.920  23.796  28.631  1.00  0.00     0.010 A 
ATOM      9  C   UNL A   1      40.096  25.218  26.557  1.00  0.00     0.010 A 
ATOM     10  C   UNL A   1      41.372  25.342  27.844  1.00  0.00    -0.014 A 
BRANCH  10  11
ATOM     11  C   UNL A   1      41.850  26.675  28.389  1.00  0.00     0.031 A 
ATOM     12  C   UNL A   1      43.299  27.114  28.329  1.00  0.00     0.074 A 
ATOM     13  C   UNL A   1      40.953  27.627  28.722  1.00  0.00     0.049 A 
ATOM     14  N   UNL A   1      43.730  28.333  28.101  1.00  0.00    -0.248 NA
ATOM     15  C   UNL A   1      44.387  26.132  28.353  1.00  0.00     0.031 C 
ATOM     16  C   UNL A   1      39.515  27.456  28.701  1.00  0.00     0.029 A 
ATOM     17  N   UNL A   1      41.095  28.929  29.136  1.00  0.00    -0.354 N 
ATOM     18  C   UNL A   1      45.072  28.207  27.772  1.00  0.00     0.074 A 
ATOM     19  C   UNL A   1      45.403  26.813  27.840  1.00  0.00     0.031 C 
ATOM     20  C   UNL A   1      38.898  28.565  29.099  1.00  0.00     0.029 A 
ATOM     21  C   UNL A   1      39.901  29.517  29.487  1.00  0.00     0.049 A 
ATOM     22  H   UNL A   1      41.962  29.394  29.178  1.00  0.00     0.167 HD
ATOM     23  C   UNL A   1      45.964  29.177  27.481  1.00  0.00     0.034 A 
ATOM     24  C   UNL A   1      39.596  30.678  30.086  1.00  0.00     0.034 A 
ATOM     25  C   UNL A   1      45.732  30.549  27.828  1.00  0.00     0.049 A 
ATOM     26  C   UNL A   1      40.692  31.669  30.165  1.00  0.00     0.074 A 
ATOM     27  C   UNL A   1      46.633  31.594  27.817  1.00  0.00     0.029 A 
ATOM     28  N   UNL A   1      44.559  31.023  28.401  1.00  0.00    -0.354 N 
ATOM     29  N   UNL A   1      41.912  31.533  29.706  1.00  0.00    -0.248 NA
ATOM     30  C   UNL A   1      40.382  32.981  30.729  1.00  0.00     0.031 C 
ATOM     31  C   UNL A   1      46.047  32.659  28.509  1.00  0.00     0.029 A 
ATOM     32  C   UNL A   1      44.744  32.317  28.844  1.00  0.00     0.049 A 
ATOM     33  H   UNL A   1      43.720  30.512  28.479  1.00  0.00     0.167 HD
ATOM     34  C   UNL A   1      42.511  32.761  29.868  1.00  0.00     0.074 A 
ATOM     35  C   UNL A   1      41.520  33.625  30.492  1.00  0.00     0.031 C 
ATOM     36  C   UNL A   1      43.756  33.137  29.500  1.00  0.00     0.034 A 
BRANCH  23  37
ATOM     37  C   UNL A   1      47.306  28.754  26.952  1.00  0.00     0.023 A 
ATOM     38  C   UNL A   1      48.452  28.867  27.767  1.00  0.00     0.012 A 
ATOM     39  C   UNL A   1      47.433  28.237  25.650  1.00  0.00     0.148 A 
ATOM     40  C   UNL A   1      49.704  28.473  27.290  1.00  0.00     0.002 A 
ATOM     41  C   UNL A   1      48.677  27.825  25.190  1.00  0.00     0.091 A 
ATOM     42  F   UNL A   1      46.336  28.178  24.883  1.00  0.00    -0.205 F 
ATOM     43  C   UNL A   1      49.815  27.946  26.004  1.00  0.00     0.022 A 
BRANCH  41  44
ATOM     44  S   UNL A   1      48.914  27.113  23.560  1.00  0.00     0.127 S 
ATOM     45  O   UNL A   1      50.276  26.590  23.660  1.00  0.00    -0.237 OA
ATOM     46  O   UNL A   1      47.869  26.092  23.519  1.00  0.00    -0.237 OA
ATOM     47  O   UNL A   1      48.747  28.207  22.612  1.00  0.00    -0.744 OA
ENDBRANCH  41  44
ENDBRANCH  23  37
BRANCH  24  48
ATOM     48  C   UNL A   1      38.204  30.889  30.576  1.00  0.00     0.023 A 
ATOM     49  C   UNL A   1      37.858  30.625  31.910  1.00  0.00     0.012 A 
ATOM     50  C   UNL A   1      37.265  31.540  29.737  1.00  0.00     0.148 A 
ATOM     51  C   UNL A   1      36.603  31.002  32.402  1.00  0.00     0.002 A 
ATOM     52  C   UNL A   1      36.036  31.947  30.241  1.00  0.00     0.091 A 
ATOM     53  F   UNL A   1      37.617  31.790  28.466  1.00  0.00    -0.205 F 
ATOM     54  C   UNL A   1      35.700  31.672  31.574  1.00  0.00     0.022 A 
BRANCH  52  55
ATOM     55  S   UNL A   1      34.860  32.903  29.273  1.00  0.00     0.127 S 
ATOM     56  O   UNL A   1      34.189  31.855  28.507  1.00  0.00    -0.237 OA
ATOM     57  O   UNL A   1      34.034  33.527  30.307  1.00  0.00    -0.237 OA
ATOM     58  O   UNL A   1      35.652  33.842  28.490  1.00  0.00    -0.744 OA
ENDBRANCH  52  55
ENDBRANCH  24  48
BRANCH  36  59
ATOM     59  C   UNL A   1      44.132  34.554  29.774  1.00  0.00     0.023 A 
ATOM     60  C   UNL A   1      44.713  34.905  31.005  1.00  0.00     0.012 A 
ATOM     61  C   UNL A   1      44.005  35.507  28.749  1.00  0.00     0.148 A 
ATOM     62  C   UNL A   1      45.154  36.206  31.218  1.00  0.00     0.002 A 
ATOM     63  C   UNL A   1      44.512  36.779  28.944  1.00  0.00     0.091 A 
ATOM     64  F   UNL A   1      43.415  35.141  27.602  1.00  0.00    -0.205 F 
ATOM     65  C   UNL A   1      45.073  37.135  30.181  1.00  0.00     0.022 A 
BRANCH  63  66
ATOM     66  S   UNL A   1      44.571  37.988  27.622  1.00  0.00     0.127 S 
ATOM     67  O   UNL A   1      43.157  38.117  27.276  1.00  0.00    -0.237 OA
ATOM     68  O   UNL A   1      45.145  39.150  28.300  1.00  0.00    -0.237 OA
ATOM     69  O   UNL A   1      45.413  37.414  26.582  1.00  0.00    -0.744 OA
ENDBRANCH  63  66
ENDBRANCH  36  59
ENDBRANCH  10  11
ENDBRANCH   3   5
ENDBRANCH   2   3
ENDBRANCH   1   2
BRANCH   1  70
ATOM     70  C   UNL A   1      36.560  22.116  24.509  1.00  0.00     0.274 C 
BRANCH  70  71
ATOM     71  O   UNL A   1      35.993  22.600  25.748  1.00  0.00    -0.462 OA
BRANCH  71  72
ATOM     72  C   UNL A   1      34.724  22.260  26.106  1.00  0.00     0.309 C 
ATOM     73  O   UNL A   1      34.423  21.893  27.232  1.00  0.00    -0.252 OA
BRANCH  72  74
ATOM     74  C   UNL A   1      33.703  22.438  24.928  1.00  0.00     0.107 C 
BRANCH  74  75
ATOM     75  C   UNL A   1      32.546  21.074  24.353  1.00  0.00     0.054 C 
BRANCH  75  76
ATOM     76  C   UNL A   1      32.538  18.931  24.230  1.00  0.00    -0.011 A 
ATOM     77  C   UNL A   1      32.454  18.036  23.018  1.00  0.00     0.007 A 
ATOM     78  C   UNL A   1      32.982  17.895  25.170  1.00  0.00     0.126 A 
ATOM     79  C   UNL A   1      33.476  17.126  22.650  1.00  0.00     0.000 A 
ATOM     80  C   UNL A   1      34.010  16.956  24.894  1.00  0.00     0.039 A 
ATOM     81  F   UNL A   1      32.261  17.635  26.276  1.00  0.00    -0.207 F 
ATOM     82  C   UNL A   1      34.387  16.723  23.593  1.00  0.00     0.003 A 
ENDBRANCH  75  76
ENDBRANCH  74  75
BRANCH  74  83
ATOM     83  C   UNL A   1      33.320  23.970  24.782  1.00  0.00     0.008 C 
ATOM     84  C   UNL A   1      33.896  24.675  23.543  1.00  0.00     0.033 C 
ATOM     85  C   UNL A   1      33.430  24.796  26.081  1.00  0.00     0.033 C 
ATOM     86  C   UNL A   1      33.632  26.172  23.530  1.00  0.00     0.160 C 
ATOM     87  C   UNL A   1      33.266  26.304  25.868  1.00  0.00     0.160 C 
ATOM     88  O   UNL A   1      34.025  26.756  24.752  1.00  0.00    -0.381 OA
ENDBRANCH  74  83
ENDBRANCH  72  74
ENDBRANCH  71  72
ENDBRANCH  70  71
ENDBRANCH   1  70
TORSDOF 17
ENDMDL
MODEL 3
REMARK VINA RESULT:     -11.3      5.578     11.106
REMARK SMILES O=C(OCCOC(=O)[C@@H](Cc1ccccc1F)C1CCOCC1)c1ccc(-c2c3nc(c(-c4cccc(S(=O)(=O)[O-])c4F)c4ccc([nH]4)c(-c4cccc(S(=O)(=O)[O-])c4F)c4nc(c(-c5cccc(S(=O)(=O)[O-])c5F)c5ccc2[nH]5)C=C4)C=C3)cc1
REMARK SMILES IDX 4 1 3 2 2 3 1 4 24 5 25 6 86 7 26 8 85 9 27 10 28 11 29 12
REMARK SMILES IDX 79 13 30 14 84 15 78 16 80 17 31 18 83 19 77 20 76 21 32 23
REMARK SMILES IDX 64 24 44 25 63 26 45 27 48 28 62 29 81 30 46 31 47 32 61 34
REMARK SMILES IDX 82 35 49 36 33 37 34 38 42 39 35 40 37 41 43 42 36 43 38 44
REMARK SMILES IDX 39 45 40 46 41 47 65 48 66 49 74 50 67 51 69 52 75 53 68 54
REMARK SMILES IDX 70 55 71 56 72 57 73 58 50 59 51 60 59 61 52 62 54 63 60 64
REMARK SMILES IDX 53 65 55 66 56 67 57 68 58 69 5 70 6 71 7 72 8 73 9 74 10 75
REMARK SMILES IDX 11 76 12 77 16 78 13 79 15 80 17 81 14 82 18 83 19 84 23 85
REMARK SMILES IDX 20 86 22 87 21 88
REMARK H PARENT 80 22 48 33
REMARK Flexibility Score: inf
ROOT
ATOM      1  C   UNL A   1      39.111  20.010  26.122  1.00  0.00     0.275 C 
ENDROOT
BRANCH   1   2
ATOM      2  O   UNL A   1      40.196  19.238  25.618  1.00  0.00    -0.458 OA
BRANCH   2   3
ATOM      3  C   UNL A   1      41.500  19.485  25.843  1.00  0.00     0.338 C 
ATOM      4  O   UNL A   1      42.297  18.551  25.855  1.00  0.00    -0.246 OA
BRANCH   3   5
ATOM      5  C   UNL A   1      42.031  20.839  26.183  1.00  0.00     0.060 A 
ATOM      6  C   UNL A   1      42.648  22.177  25.059  1.00  0.00     0.016 A 
ATOM      7  C   UNL A   1      41.737  21.239  27.927  1.00  0.00     0.016 A 
ATOM      8  C   UNL A   1      42.927  23.857  25.719  1.00  0.00     0.010 A 
ATOM      9  C   UNL A   1      41.874  22.949  28.497  1.00  0.00     0.010 A 
ATOM     10  C   UNL A   1      42.532  24.276  27.445  1.00  0.00    -0.014 A 
BRANCH  10  11
ATOM     11  C   UNL A   1      42.917  25.636  27.997  1.00  0.00     0.031 A 
ATOM     12  C   UNL A   1      44.331  26.178  27.933  1.00  0.00     0.074 A 
ATOM     13  C   UNL A   1      41.957  26.518  28.343  1.00  0.00     0.049 A 
ATOM     14  N   UNL A   1      44.672  27.425  27.711  1.00  0.00    -0.248 NA
ATOM     15  C   UNL A   1      45.487  25.276  27.944  1.00  0.00     0.031 C 
ATOM     16  C   UNL A   1      40.534  26.245  28.329  1.00  0.00     0.029 A 
ATOM     17  N   UNL A   1      42.008  27.825  28.765  1.00  0.00    -0.354 N 
ATOM     18  C   UNL A   1      46.018  27.398  27.374  1.00  0.00     0.074 A 
ATOM     19  C   UNL A   1      46.448  26.031  27.429  1.00  0.00     0.031 C 
ATOM     20  C   UNL A   1      39.843  27.305  28.739  1.00  0.00     0.029 A 
ATOM     21  C   UNL A   1      40.777  28.324  29.128  1.00  0.00     0.049 A 
ATOM     22  H   UNL A   1      42.840  28.350  28.806  1.00  0.00     0.167 HD
ATOM     23  C   UNL A   1      46.837  28.431  27.086  1.00  0.00     0.034 A 
ATOM     24  C   UNL A   1      40.394  29.455  29.737  1.00  0.00     0.034 A 
ATOM     25  C   UNL A   1      46.509  29.780  27.443  1.00  0.00     0.049 A 
ATOM     26  C   UNL A   1      41.417  30.521  29.816  1.00  0.00     0.074 A 
ATOM     27  C   UNL A   1      47.333  30.888  27.435  1.00  0.00     0.029 A 
ATOM     28  N   UNL A   1      45.309  30.166  28.027  1.00  0.00    -0.354 N 
ATOM     29  N   UNL A   1      42.640  30.477  29.350  1.00  0.00    -0.248 NA
ATOM     30  C   UNL A   1      41.018  31.804  30.392  1.00  0.00     0.031 C 
ATOM     31  C   UNL A   1      46.678  31.903  28.138  1.00  0.00     0.029 A 
ATOM     32  C   UNL A   1      45.404  31.467  28.478  1.00  0.00     0.049 A 
ATOM     33  H   UNL A   1      44.509  29.596  28.105  1.00  0.00     0.167 HD
ATOM     34  C   UNL A   1      43.151  31.742  29.518  1.00  0.00     0.074 A 
ATOM     35  C   UNL A   1      42.105  32.529  30.153  1.00  0.00     0.031 C 
ATOM     36  C   UNL A   1      44.364  32.209  29.145  1.00  0.00     0.034 A 
BRANCH  23  37
ATOM     37  C   UNL A   1      48.203  28.109  26.545  1.00  0.00     0.023 A 
ATOM     38  C   UNL A   1      49.293  27.969  27.429  1.00  0.00     0.012 A 
ATOM     39  C   UNL A   1      48.405  27.937  25.164  1.00  0.00     0.148 A 
ATOM     40  C   UNL A   1      50.567  27.664  26.941  1.00  0.00     0.002 A 
ATOM     41  C   UNL A   1      49.668  27.610  24.688  1.00  0.00     0.091 A 
ATOM     42  F   UNL A   1      47.361  28.115  24.344  1.00  0.00    -0.205 F 
ATOM     43  C   UNL A   1      50.752  27.479  25.572  1.00  0.00     0.022 A 
BRANCH  41  44
ATOM     44  S   UNL A   1      49.999  27.331  22.947  1.00  0.00     0.127 S 
ATOM     45  O   UNL A   1      51.350  26.770  22.988  1.00  0.00    -0.237 OA
ATOM     46  O   UNL A   1      48.952  26.375  22.589  1.00  0.00    -0.237 OA
ATOM     47  O   UNL A   1      49.896  28.632  22.300  1.00  0.00    -0.744 OA
ENDBRANCH  41  44
ENDBRANCH  23  37
BRANCH  24  48
ATOM     48  C   UNL A   1      38.993  29.563  30.236  1.00  0.00     0.023 A 
ATOM     49  C   UNL A   1      38.640  29.090  31.509  1.00  0.00     0.012 A 
ATOM     50  C   UNL A   1      38.050  30.319  29.496  1.00  0.00     0.148 A 
ATOM     51  C   UNL A   1      37.373  29.362  32.037  1.00  0.00     0.002 A 
ATOM     52  C   UNL A   1      36.808  30.621  30.042  1.00  0.00     0.091 A 
ATOM     53  F   UNL A   1      38.409  30.769  28.284  1.00  0.00    -0.205 F 
ATOM     54  C   UNL A   1      36.466  30.137  31.312  1.00  0.00     0.022 A 
BRANCH  52  55
ATOM     55  S   UNL A   1      35.623  31.694  29.219  1.00  0.00     0.127 S 
ATOM     56  O   UNL A   1      36.489  32.758  28.716  1.00  0.00    -0.237 OA
ATOM     57  O   UNL A   1      35.070  30.818  28.185  1.00  0.00    -0.237 OA
ATOM     58  O   UNL A   1      34.665  32.095  30.240  1.00  0.00    -0.744 OA
ENDBRANCH  52  55
ENDBRANCH  24  48
BRANCH  36  59
ATOM     59  C   UNL A   1      44.639  33.648  29.427  1.00  0.00     0.023 A 
ATOM     60  C   UNL A   1      45.195  34.031  30.660  1.00  0.00     0.012 A 
ATOM     61  C   UNL A   1      44.446  34.595  28.409  1.00  0.00     0.148 A 
ATOM     62  C   UNL A   1      45.543  35.359  30.881  1.00  0.00     0.002 A 
ATOM     63  C   UNL A   1      44.861  35.898  28.611  1.00  0.00     0.091 A 
ATOM     64  F   UNL A   1      43.883  34.195  27.259  1.00  0.00    -0.205 F 
ATOM     65  C   UNL A   1      45.396  36.286  29.850  1.00  0.00     0.022 A 
BRANCH  63  66
ATOM     66  S   UNL A   1      44.835  37.116  27.296  1.00  0.00     0.127 S 
ATOM     67  O   UNL A   1      45.348  38.301  27.981  1.00  0.00    -0.237 OA
ATOM     68  O   UNL A   1      45.752  36.528  26.319  1.00  0.00    -0.237 OA
ATOM     69  O   UNL A   1      43.451  37.207  26.852  1.00  0.00    -0.744 OA
ENDBRANCH  63  66
ENDBRANCH  36  59
ENDBRANCH  10  11
ENDBRANCH   3   5
ENDBRANCH   2   3
ENDBRANCH   1   2
BRANCH   1  70
ATOM     70  C   UNL A   1      38.227  20.593  25.010  1.00  0.00     0.274 C 
BRANCH  70  71
ATOM     71  O   UNL A   1      37.415  21.720  25.410  1.00  0.00    -0.462 OA
BRANCH  71  72
ATOM     72  C   UNL A   1      36.492  22.244  24.556  1.00  0.00     0.309 C 
ATOM     73  O   UNL A   1      36.655  22.296  23.346  1.00  0.00    -0.252 OA
BRANCH  72  74
ATOM     74  C   UNL A   1      35.196  22.723  25.299  1.00  0.00     0.107 C 
BRANCH  74  75
ATOM     75  C   UNL A   1      34.941  24.488  25.892  1.00  0.00     0.054 C 
BRANCH  75  76
ATOM     76  C   UNL A   1      33.876  26.245  25.270  1.00  0.00    -0.011 A 
ATOM     77  C   UNL A   1      33.087  26.497  24.008  1.00  0.00     0.007 A 
ATOM     78  C   UNL A   1      33.352  27.390  26.025  1.00  0.00     0.126 A 
ATOM     79  C   UNL A   1      31.700  26.785  24.001  1.00  0.00     0.000 A 
ATOM     80  C   UNL A   1      31.978  27.740  26.090  1.00  0.00     0.039 A 
ATOM     81  F   UNL A   1      34.196  28.317  26.513  1.00  0.00    -0.207 F 
ATOM     82  C   UNL A   1      31.105  27.251  25.147  1.00  0.00     0.003 A 
ENDBRANCH  75  76
ENDBRANCH  74  75
BRANCH  74  83
ATOM     83  C   UNL A   1      33.974  21.800  24.887  1.00  0.00     0.008 C 
ATOM     84  C   UNL A   1      34.245  20.289  24.947  1.00  0.00     0.033 C 
ATOM     85  C   UNL A   1      33.215  22.251  23.620  1.00  0.00     0.033 C 
ATOM     86  C   UNL A   1      33.101  19.453  24.396  1.00  0.00     0.160 C 
ATOM     87  C   UNL A   1      32.186  21.231  23.124  1.00  0.00     0.160 C 
ATOM     88  O   UNL A   1      32.722  19.912  23.118  1.00  0.00    -0.381 OA
ENDBRANCH  74  83
ENDBRANCH  72  74
ENDBRANCH  71  72
ENDBRANCH  70  71
ENDBRANCH   1  70
TORSDOF 17
ENDMDL
