MODEL 1
REMARK VINA RESULT:     -12.8      0.000      0.000
REMARK SMILES COc1ccc(NC(=O)N[C@@H]2C=C[C@H](C(=O)OCCOC(=O)c3ccc(-c4c5nc(c(-c6cccc(S(=O)(=O)[O-])c6F)c6ccc([nH]6)c(-c6cccc(S(=O)(=O)[O-])c6F)c6nc(c(-c7cccc(S(=O)(=O)[O-])c7F)c7ccc4[nH]7)C=C6)C=C5)cc3)C2)c(C)c1
REMARK SMILES IDX 18 1 17 2 15 3 16 4 14 5 11 6 12 7 86 8 13 9 10 10 7 11 8 12
REMARK SMILES IDX 9 14 6 16 3 17 4 18 89 19 5 20 87 21 88 22 2 23 1 24 19 25
REMARK SMILES IDX 20 26 21 27 22 28 23 29 24 30 85 31 25 32 84 33 26 34 27 35
REMARK SMILES IDX 28 36 78 37 29 38 83 39 77 40 79 41 30 42 82 43 76 44 75 45
REMARK SMILES IDX 31 47 63 48 43 49 62 50 44 51 47 52 61 53 80 54 45 55 46 56
REMARK SMILES IDX 60 58 81 59 48 60 32 61 33 62 41 63 34 64 36 65 42 66 35 67
REMARK SMILES IDX 37 68 38 69 39 70 40 71 64 72 65 73 73 74 66 75 68 76 74 77
REMARK SMILES IDX 67 78 69 79 70 80 71 81 72 82 49 83 50 84 58 85 51 86 53 87
REMARK SMILES IDX 59 88 52 89 54 90 55 91 56 92 57 93
REMARK H PARENT 7 13 10 15 79 46 47 57
REMARK Flexibility Score: inf
ROOT
ATOM      1  C   UNL A   1      32.319  31.338  26.842  1.00  0.00     0.274 C 
ENDROOT
BRANCH   1   2
ATOM      2  O   UNL A   1      31.916  29.962  26.948  1.00  0.00    -0.462 OA
BRANCH   2   3
ATOM      3  C   UNL A   1      32.530  29.048  26.156  1.00  0.00     0.312 C 
ATOM      4  O   UNL A   1      33.069  29.380  25.103  1.00  0.00    -0.252 OA
BRANCH   3   5
ATOM      5  C   UNL A   1      32.652  27.482  26.873  1.00  0.00     0.124 C 
ATOM      6  C   UNL A   1      32.213  24.961  24.817  1.00  0.00     0.107 C 
ATOM      7  C   UNL A   1      30.572  25.876  25.353  1.00  0.00    -0.006 C 
ATOM      8  C   UNL A   1      33.679  25.679  25.999  1.00  0.00     0.048 C 
ATOM      9  C   UNL A   1      30.733  27.100  26.331  1.00  0.00    -0.014 C 
BRANCH   6  10
ATOM     10  N   UNL A   1      32.631  25.493  23.305  1.00  0.00    -0.332 N 
ATOM     11  N   UNL A   1      33.137  23.469  21.961  1.00  0.00    -0.308 N 
ATOM     12  C   UNL A   1      33.064  24.866  22.104  1.00  0.00     0.319 C 
ATOM     13  H   UNL A   1      33.162  23.085  21.055  1.00  0.00     0.171 HD
ATOM     14  O   UNL A   1      33.386  25.572  21.143  1.00  0.00    -0.248 OA
ATOM     15  H   UNL A   1      32.565  26.472  23.216  1.00  0.00     0.165 HD
BRANCH  11  16
ATOM     16  C   UNL A   1      33.174  22.613  23.059  1.00  0.00     0.046 A 
ATOM     17  C   UNL A   1      33.675  19.227  24.255  1.00  0.00     0.119 A 
ATOM     18  C   UNL A   1      32.265  19.569  23.335  1.00  0.00     0.048 A 
ATOM     19  C   UNL A   1      34.676  20.512  24.561  1.00  0.00     0.052 A 
ATOM     20  C   UNL A   1      31.990  21.514  22.831  1.00  0.00     0.030 A 
ATOM     21  C   UNL A   1      34.476  22.110  23.983  1.00  0.00    -0.024 A 
ATOM     22  C   UNL A   1      35.536  23.077  24.432  1.00  0.00     0.047 C 
BRANCH  17  23
ATOM     23  O   UNL A   1      33.879  18.095  24.971  1.00  0.00    -0.497 OA
ATOM     24  C   UNL A   1      34.838  17.205  24.431  1.00  0.00     0.278 C 
ENDBRANCH  17  23
ENDBRANCH  11  16
ENDBRANCH   6  10
ENDBRANCH   3   5
ENDBRANCH   2   3
ENDBRANCH   1   2
BRANCH   1  25
ATOM     25  C   UNL A   1      33.493  31.983  27.642  1.00  0.00     0.275 C 
BRANCH  25  26
ATOM     26  O   UNL A   1      34.790  31.407  28.007  1.00  0.00    -0.458 OA
BRANCH  26  27
ATOM     27  C   UNL A   1      35.457  31.367  29.185  1.00  0.00     0.338 C 
ATOM     28  O   UNL A   1      35.153  32.044  30.157  1.00  0.00    -0.246 OA
BRANCH  27  29
ATOM     29  C   UNL A   1      36.659  30.544  29.152  1.00  0.00     0.060 A 
ATOM     30  C   UNL A   1      36.932  29.645  30.195  1.00  0.00     0.016 A 
ATOM     31  C   UNL A   1      37.373  30.547  27.954  1.00  0.00     0.016 A 
ATOM     32  C   UNL A   1      37.916  28.690  30.020  1.00  0.00     0.010 A 
ATOM     33  C   UNL A   1      38.220  29.501  27.707  1.00  0.00     0.010 A 
ATOM     34  C   UNL A   1      38.559  28.660  28.783  1.00  0.00    -0.014 A 
BRANCH  34  35
ATOM     35  C   UNL A   1      39.943  28.235  28.721  1.00  0.00     0.031 A 
ATOM     36  C   UNL A   1      40.230  26.801  28.570  1.00  0.00     0.074 A 
ATOM     37  C   UNL A   1      40.720  29.346  28.818  1.00  0.00     0.049 A 
ATOM     38  N   UNL A   1      41.187  26.176  29.155  1.00  0.00    -0.248 NA
ATOM     39  C   UNL A   1      39.344  25.884  27.838  1.00  0.00     0.031 C 
ATOM     40  C   UNL A   1      42.114  29.643  28.581  1.00  0.00     0.029 A 
ATOM     41  N   UNL A   1      40.230  30.572  29.357  1.00  0.00    -0.354 N 
ATOM     42  C   UNL A   1      41.286  24.945  28.525  1.00  0.00     0.074 A 
ATOM     43  C   UNL A   1      40.003  24.720  27.918  1.00  0.00     0.031 C 
ATOM     44  C   UNL A   1      42.416  30.780  29.257  1.00  0.00     0.029 A 
ATOM     45  C   UNL A   1      41.251  31.143  30.082  1.00  0.00     0.049 A 
ATOM     46  H   UNL A   1      39.326  30.943  29.235  1.00  0.00     0.167 HD
ATOM     47  C   UNL A   1      42.530  24.435  28.296  1.00  0.00     0.034 A 
ATOM     48  C   UNL A   1      41.164  31.068  31.445  1.00  0.00     0.034 A 
ATOM     49  C   UNL A   1      43.515  25.401  28.810  1.00  0.00     0.049 A 
ATOM     50  C   UNL A   1      42.256  30.190  31.974  1.00  0.00     0.074 A 
ATOM     51  C   UNL A   1      44.096  26.494  28.182  1.00  0.00     0.029 A 
ATOM     52  N   UNL A   1      43.629  25.622  30.177  1.00  0.00    -0.354 N 
ATOM     53  N   UNL A   1      42.734  29.160  31.340  1.00  0.00    -0.248 NA
ATOM     54  C   UNL A   1      42.867  30.422  33.271  1.00  0.00     0.031 C 
ATOM     55  C   UNL A   1      44.474  27.421  29.188  1.00  0.00     0.029 A 
ATOM     56  C   UNL A   1      44.119  26.899  30.421  1.00  0.00     0.049 A 
ATOM     57  H   UNL A   1      43.395  24.967  30.873  1.00  0.00     0.167 HD
ATOM     58  C   UNL A   1      43.666  28.557  32.125  1.00  0.00     0.074 A 
ATOM     59  C   UNL A   1      43.751  29.416  33.301  1.00  0.00     0.031 C 
ATOM     60  C   UNL A   1      44.260  27.378  31.787  1.00  0.00     0.034 A 
BRANCH  47  61
ATOM     61  C   UNL A   1      42.890  23.385  27.250  1.00  0.00     0.023 A 
ATOM     62  C   UNL A   1      43.631  23.850  26.135  1.00  0.00     0.012 A 
ATOM     63  C   UNL A   1      42.551  22.010  27.236  1.00  0.00     0.148 A 
ATOM     64  C   UNL A   1      43.947  23.047  25.037  1.00  0.00     0.002 A 
ATOM     65  C   UNL A   1      42.854  21.203  26.124  1.00  0.00     0.091 A 
ATOM     66  F   UNL A   1      41.968  21.463  28.310  1.00  0.00    -0.205 F 
ATOM     67  C   UNL A   1      43.542  21.726  25.022  1.00  0.00     0.022 A 
BRANCH  65  68
ATOM     68  S   UNL A   1      42.377  19.468  25.977  1.00  0.00     0.127 S 
ATOM     69  O   UNL A   1      40.933  19.566  25.755  1.00  0.00    -0.237 OA
ATOM     70  O   UNL A   1      43.139  19.031  24.808  1.00  0.00    -0.237 OA
ATOM     71  O   UNL A   1      42.750  18.836  27.235  1.00  0.00    -0.744 OA
ENDBRANCH  65  68
ENDBRANCH  47  61
BRANCH  48  72
ATOM     72  C   UNL A   1      39.810  31.099  32.129  1.00  0.00     0.023 A 
ATOM     73  C   UNL A   1      39.335  29.971  32.835  1.00  0.00     0.012 A 
ATOM     74  C   UNL A   1      39.024  32.272  32.186  1.00  0.00     0.148 A 
ATOM     75  C   UNL A   1      38.142  30.016  33.578  1.00  0.00     0.002 A 
ATOM     76  C   UNL A   1      37.842  32.313  32.936  1.00  0.00     0.091 A 
ATOM     77  F   UNL A   1      39.439  33.374  31.548  1.00  0.00    -0.205 F 
ATOM     78  C   UNL A   1      37.392  31.188  33.630  1.00  0.00     0.022 A 
BRANCH  76  79
ATOM     79  S   UNL A   1      36.966  33.875  33.118  1.00  0.00     0.127 S 
ATOM     80  O   UNL A   1      35.770  33.510  33.879  1.00  0.00    -0.237 OA
ATOM     81  O   UNL A   1      37.913  34.692  33.865  1.00  0.00    -0.237 OA
ATOM     82  O   UNL A   1      36.703  34.258  31.735  1.00  0.00    -0.744 OA
ENDBRANCH  76  79
ENDBRANCH  48  72
BRANCH  60  83
ATOM     83  C   UNL A   1      45.070  26.583  32.763  1.00  0.00     0.023 A 
ATOM     84  C   UNL A   1      46.472  26.684  32.811  1.00  0.00     0.012 A 
ATOM     85  C   UNL A   1      44.434  25.812  33.757  1.00  0.00     0.148 A 
ATOM     86  C   UNL A   1      47.225  25.929  33.706  1.00  0.00     0.002 A 
ATOM     87  C   UNL A   1      45.180  25.193  34.745  1.00  0.00     0.091 A 
ATOM     88  F   UNL A   1      43.102  25.660  33.744  1.00  0.00    -0.205 F 
ATOM     89  C   UNL A   1      46.576  25.195  34.687  1.00  0.00     0.022 A 
BRANCH  87  90
ATOM     90  S   UNL A   1      44.380  24.534  36.207  1.00  0.00     0.127 S 
ATOM     91  O   UNL A   1      43.370  23.652  35.629  1.00  0.00    -0.237 OA
ATOM     92  O   UNL A   1      45.482  23.845  36.882  1.00  0.00    -0.237 OA
ATOM     93  O   UNL A   1      43.880  25.700  36.927  1.00  0.00    -0.744 OA
ENDBRANCH  87  90
ENDBRANCH  60  83
ENDBRANCH  34  35
ENDBRANCH  27  29
ENDBRANCH  26  27
ENDBRANCH  25  26
ENDBRANCH   1  25
TORSDOF 17
ENDMDL
MODEL 2
REMARK VINA RESULT:     -12.4      2.140      2.914
REMARK SMILES COc1ccc(NC(=O)N[C@@H]2C=C[C@H](C(=O)OCCOC(=O)c3ccc(-c4c5nc(c(-c6cccc(S(=O)(=O)[O-])c6F)c6ccc([nH]6)c(-c6cccc(S(=O)(=O)[O-])c6F)c6nc(c(-c7cccc(S(=O)(=O)[O-])c7F)c7ccc4[nH]7)C=C6)C=C5)cc3)C2)c(C)c1
REMARK SMILES IDX 18 1 17 2 15 3 16 4 14 5 11 6 12 7 86 8 13 9 10 10 7 11 8 12
REMARK SMILES IDX 9 14 6 16 3 17 4 18 89 19 5 20 87 21 88 22 2 23 1 24 19 25
REMARK SMILES IDX 20 26 21 27 22 28 23 29 24 30 85 31 25 32 84 33 26 34 27 35
REMARK SMILES IDX 28 36 78 37 29 38 83 39 77 40 79 41 30 42 82 43 76 44 75 45
REMARK SMILES IDX 31 47 63 48 43 49 62 50 44 51 47 52 61 53 80 54 45 55 46 56
REMARK SMILES IDX 60 58 81 59 48 60 32 61 33 62 41 63 34 64 36 65 42 66 35 67
REMARK SMILES IDX 37 68 38 69 39 70 40 71 64 72 65 73 73 74 66 75 68 76 74 77
REMARK SMILES IDX 67 78 69 79 70 80 71 81 72 82 49 83 50 84 58 85 51 86 53 87
REMARK SMILES IDX 59 88 52 89 54 90 55 91 56 92 57 93
REMARK H PARENT 7 13 10 15 79 46 47 57
REMARK Flexibility Score: inf
ROOT
ATOM      1  C   UNL A   1      33.558  30.152  27.110  1.00  0.00     0.274 C 
ENDROOT
BRANCH   1   2
ATOM      2  O   UNL A   1      32.299  29.540  26.777  1.00  0.00    -0.462 OA
BRANCH   2   3
ATOM      3  C   UNL A   1      32.288  28.556  25.845  1.00  0.00     0.312 C 
ATOM      4  O   UNL A   1      32.499  28.800  24.659  1.00  0.00    -0.252 OA
BRANCH   3   5
ATOM      5  C   UNL A   1      32.169  26.969  26.517  1.00  0.00     0.124 C 
ATOM      6  C   UNL A   1      31.644  24.563  24.347  1.00  0.00     0.107 C 
ATOM      7  C   UNL A   1      30.072  25.646  24.765  1.00  0.00    -0.006 C 
ATOM      8  C   UNL A   1      33.066  25.082  25.677  1.00  0.00     0.048 C 
ATOM      9  C   UNL A   1      30.278  26.820  25.794  1.00  0.00    -0.014 C 
BRANCH   6  10
ATOM     10  N   UNL A   1      32.256  25.080  22.896  1.00  0.00    -0.332 N 
ATOM     11  N   UNL A   1      33.162  23.069  21.758  1.00  0.00    -0.308 N 
ATOM     12  C   UNL A   1      32.938  24.456  21.815  1.00  0.00     0.319 C 
ATOM     13  H   UNL A   1      33.373  22.657  20.889  1.00  0.00     0.171 HD
ATOM     14  O   UNL A   1      33.348  25.156  20.883  1.00  0.00    -0.248 OA
ATOM     15  H   UNL A   1      32.116  26.044  22.748  1.00  0.00     0.165 HD
BRANCH  11  16
ATOM     16  C   UNL A   1      33.096  22.261  22.890  1.00  0.00     0.046 A 
ATOM     17  C   UNL A   1      33.491  18.933  24.274  1.00  0.00     0.119 A 
ATOM     18  C   UNL A   1      32.175  19.225  23.209  1.00  0.00     0.048 A 
ATOM     19  C   UNL A   1      34.453  20.238  24.620  1.00  0.00     0.052 A 
ATOM     20  C   UNL A   1      31.944  21.144  22.597  1.00  0.00     0.030 A 
ATOM     21  C   UNL A   1      34.304  21.808  23.957  1.00  0.00    -0.024 A 
ATOM     22  C   UNL A   1      35.312  22.801  24.463  1.00  0.00     0.047 C 
BRANCH  17  23
ATOM     23  O   UNL A   1      33.628  17.834  25.055  1.00  0.00    -0.497 OA
ATOM     24  C   UNL A   1      34.646  16.935  24.655  1.00  0.00     0.278 C 
ENDBRANCH  17  23
ENDBRANCH  11  16
ENDBRANCH   6  10
ENDBRANCH   3   5
ENDBRANCH   2   3
ENDBRANCH   1   2
BRANCH   1  25
ATOM     25  C   UNL A   1      34.805  29.382  27.644  1.00  0.00     0.275 C 
BRANCH  25  26
ATOM     26  O   UNL A   1      36.222  29.584  27.328  1.00  0.00    -0.458 OA
BRANCH  26  27
ATOM     27  C   UNL A   1      37.206  30.242  27.986  1.00  0.00     0.338 C 
ATOM     28  O   UNL A   1      37.085  31.379  28.419  1.00  0.00    -0.246 OA
BRANCH  27  29
ATOM     29  C   UNL A   1      38.474  29.525  28.016  1.00  0.00     0.060 A 
ATOM     30  C   UNL A   1      39.224  29.361  26.840  1.00  0.00     0.016 A 
ATOM     31  C   UNL A   1      38.981  29.226  29.280  1.00  0.00     0.016 A 
ATOM     32  C   UNL A   1      40.533  28.927  26.932  1.00  0.00     0.010 A 
ATOM     33  C   UNL A   1      40.321  28.968  29.392  1.00  0.00     0.010 A 
ATOM     34  C   UNL A   1      41.043  28.713  28.211  1.00  0.00    -0.014 A 
BRANCH  34  35
ATOM     35  C   UNL A   1      42.048  27.687  28.404  1.00  0.00     0.031 A 
ATOM     36  C   UNL A   1      41.639  26.278  28.300  1.00  0.00     0.074 A 
ATOM     37  C   UNL A   1      43.231  28.308  28.651  1.00  0.00     0.049 A 
ATOM     38  N   UNL A   1      42.073  25.329  29.048  1.00  0.00    -0.248 NA
ATOM     39  C   UNL A   1      40.560  25.825  27.410  1.00  0.00     0.031 C 
ATOM     40  C   UNL A   1      44.616  27.899  28.678  1.00  0.00     0.029 A 
ATOM     41  N   UNL A   1      43.300  29.662  29.097  1.00  0.00    -0.354 N 
ATOM     42  C   UNL A   1      41.678  24.147  28.440  1.00  0.00     0.074 A 
ATOM     43  C   UNL A   1      40.564  24.499  27.604  1.00  0.00     0.031 C 
ATOM     44  C   UNL A   1      45.305  28.814  29.406  1.00  0.00     0.029 A 
ATOM     45  C   UNL A   1      44.333  29.746  30.003  1.00  0.00     0.049 A 
ATOM     46  H   UNL A   1      42.715  30.401  28.812  1.00  0.00     0.167 HD
ATOM     47  C   UNL A   1      42.550  23.098  28.443  1.00  0.00     0.034 A 
ATOM     48  C   UNL A   1      43.996  29.834  31.326  1.00  0.00     0.034 A 
ATOM     49  C   UNL A   1      43.773  23.529  29.136  1.00  0.00     0.049 A 
ATOM     50  C   UNL A   1      44.434  28.594  32.042  1.00  0.00     0.074 A 
ATOM     51  C   UNL A   1      44.900  24.167  28.634  1.00  0.00     0.029 A 
ATOM     52  N   UNL A   1      43.750  23.784  30.502  1.00  0.00    -0.354 N 
ATOM     53  N   UNL A   1      44.463  27.411  31.501  1.00  0.00    -0.248 NA
ATOM     54  C   UNL A   1      44.856  28.620  33.431  1.00  0.00     0.031 C 
ATOM     55  C   UNL A   1      45.499  24.890  29.699  1.00  0.00     0.029 A 
ATOM     56  C   UNL A   1      44.740  24.698  30.841  1.00  0.00     0.049 A 
ATOM     57  H   UNL A   1      43.121  23.374  31.139  1.00  0.00     0.167 HD
ATOM     58  C   UNL A   1      44.851  26.510  32.442  1.00  0.00     0.074 A 
ATOM     59  C   UNL A   1      45.137  27.323  33.619  1.00  0.00     0.031 C 
ATOM     60  C   UNL A   1      44.861  25.167  32.213  1.00  0.00     0.034 A 
BRANCH  47  61
ATOM     61  C   UNL A   1      42.535  21.919  27.474  1.00  0.00     0.023 A 
ATOM     62  C   UNL A   1      41.416  21.055  27.567  1.00  0.00     0.012 A 
ATOM     63  C   UNL A   1      43.514  21.562  26.514  1.00  0.00     0.148 A 
ATOM     64  C   UNL A   1      41.299  19.872  26.834  1.00  0.00     0.002 A 
ATOM     65  C   UNL A   1      43.405  20.363  25.785  1.00  0.00     0.091 A 
ATOM     66  F   UNL A   1      44.533  22.394  26.270  1.00  0.00    -0.205 F 
ATOM     67  C   UNL A   1      42.304  19.515  25.955  1.00  0.00     0.022 A 
BRANCH  65  68
ATOM     68  S   UNL A   1      44.648  19.780  24.614  1.00  0.00     0.127 S 
ATOM     69  O   UNL A   1      44.535  20.762  23.533  1.00  0.00    -0.237 OA
ATOM     70  O   UNL A   1      45.883  19.879  25.391  1.00  0.00    -0.237 OA
ATOM     71  O   UNL A   1      44.254  18.428  24.241  1.00  0.00    -0.744 OA
ENDBRANCH  65  68
ENDBRANCH  47  61
BRANCH  48  72
ATOM     72  C   UNL A   1      42.727  30.551  31.746  1.00  0.00     0.023 A 
ATOM     73  C   UNL A   1      42.537  31.918  31.438  1.00  0.00     0.012 A 
ATOM     74  C   UNL A   1      41.647  29.873  32.354  1.00  0.00     0.148 A 
ATOM     75  C   UNL A   1      41.322  32.571  31.707  1.00  0.00     0.002 A 
ATOM     76  C   UNL A   1      40.435  30.527  32.610  1.00  0.00     0.091 A 
ATOM     77  F   UNL A   1      41.769  28.573  32.650  1.00  0.00    -0.205 F 
ATOM     78  C   UNL A   1      40.267  31.877  32.294  1.00  0.00     0.022 A 
BRANCH  76  79
ATOM     79  S   UNL A   1      39.034  29.581  33.228  1.00  0.00     0.127 S 
ATOM     80  O   UNL A   1      39.102  29.774  34.677  1.00  0.00    -0.237 OA
ATOM     81  O   UNL A   1      37.896  30.240  32.598  1.00  0.00    -0.237 OA
ATOM     82  O   UNL A   1      39.344  28.225  32.788  1.00  0.00    -0.744 OA
ENDBRANCH  76  79
ENDBRANCH  48  72
BRANCH  60  83
ATOM     83  C   UNL A   1      45.022  24.169  33.317  1.00  0.00     0.023 A 
ATOM     84  C   UNL A   1      43.978  23.298  33.680  1.00  0.00     0.012 A 
ATOM     85  C   UNL A   1      46.276  23.982  33.933  1.00  0.00     0.148 A 
ATOM     86  C   UNL A   1      44.124  22.384  34.720  1.00  0.00     0.002 A 
ATOM     87  C   UNL A   1      46.458  22.963  34.852  1.00  0.00     0.091 A 
ATOM     88  F   UNL A   1      47.298  24.800  33.644  1.00  0.00    -0.205 F 
ATOM     89  C   UNL A   1      45.372  22.204  35.296  1.00  0.00     0.022 A 
BRANCH  87  90
ATOM     90  S   UNL A   1      48.109  22.479  35.353  1.00  0.00     0.127 S 
ATOM     91  O   UNL A   1      48.452  23.522  36.316  1.00  0.00    -0.237 OA
ATOM     92  O   UNL A   1      47.882  21.156  35.938  1.00  0.00    -0.237 OA
ATOM     93  O   UNL A   1      48.891  22.457  34.123  1.00  0.00    -0.744 OA
ENDBRANCH  87  90
ENDBRANCH  60  83
ENDBRANCH  34  35
ENDBRANCH  27  29
ENDBRANCH  26  27
ENDBRANCH  25  26
ENDBRANCH   1  25
TORSDOF 17
ENDMDL
MODEL 3
REMARK VINA RESULT:     -12.3      1.842      2.548
REMARK SMILES COc1ccc(NC(=O)N[C@@H]2C=C[C@H](C(=O)OCCOC(=O)c3ccc(-c4c5nc(c(-c6cccc(S(=O)(=O)[O-])c6F)c6ccc([nH]6)c(-c6cccc(S(=O)(=O)[O-])c6F)c6nc(c(-c7cccc(S(=O)(=O)[O-])c7F)c7ccc4[nH]7)C=C6)C=C5)cc3)C2)c(C)c1
REMARK SMILES IDX 18 1 17 2 15 3 16 4 14 5 11 6 12 7 86 8 13 9 10 10 7 11 8 12
REMARK SMILES IDX 9 14 6 16 3 17 4 18 89 19 5 20 87 21 88 22 2 23 1 24 19 25
REMARK SMILES IDX 20 26 21 27 22 28 23 29 24 30 85 31 25 32 84 33 26 34 27 35
REMARK SMILES IDX 28 36 78 37 29 38 83 39 77 40 79 41 30 42 82 43 76 44 75 45
REMARK SMILES IDX 31 47 63 48 43 49 62 50 44 51 47 52 61 53 80 54 45 55 46 56
REMARK SMILES IDX 60 58 81 59 48 60 32 61 33 62 41 63 34 64 36 65 42 66 35 67
REMARK SMILES IDX 37 68 38 69 39 70 40 71 64 72 65 73 73 74 66 75 68 76 74 77
REMARK SMILES IDX 67 78 69 79 70 80 71 81 72 82 49 83 50 84 58 85 51 86 53 87
REMARK SMILES IDX 59 88 52 89 54 90 55 91 56 92 57 93
REMARK H PARENT 7 13 10 15 79 46 47 57
REMARK Flexibility Score: inf
ROOT
ATOM      1  C   UNL A   1      33.847  31.703  27.763  1.00  0.00     0.274 C 
ENDROOT
BRANCH   1   2
ATOM      2  O   UNL A   1      32.950  31.421  26.674  1.00  0.00    -0.462 OA
BRANCH   2   3
ATOM      3  C   UNL A   1      32.478  30.158  26.539  1.00  0.00     0.312 C 
ATOM      4  O   UNL A   1      31.594  29.727  27.275  1.00  0.00    -0.252 OA
BRANCH   3   5
ATOM      5  C   UNL A   1      33.078  29.341  25.140  1.00  0.00     0.124 C 
ATOM      6  C   UNL A   1      32.042  26.249  24.770  1.00  0.00     0.107 C 
ATOM      7  C   UNL A   1      33.434  26.490  26.120  1.00  0.00    -0.006 C 
ATOM      8  C   UNL A   1      31.910  27.992  23.767  1.00  0.00     0.048 C 
ATOM      9  C   UNL A   1      33.956  27.959  26.341  1.00  0.00    -0.014 C 
BRANCH   6  10
ATOM     10  N   UNL A   1      30.583  26.132  25.548  1.00  0.00    -0.332 N 
ATOM     11  N   UNL A   1      30.576  23.937  26.704  1.00  0.00    -0.308 N 
ATOM     12  C   UNL A   1      29.941  25.136  26.334  1.00  0.00     0.319 C 
ATOM     13  H   UNL A   1      30.214  23.422  27.462  1.00  0.00     0.171 HD
ATOM     14  O   UNL A   1      28.782  25.328  26.713  1.00  0.00    -0.248 OA
ATOM     15  H   UNL A   1      30.031  26.941  25.440  1.00  0.00     0.165 HD
BRANCH  11  16
ATOM     16  C   UNL A   1      31.697  23.454  26.034  1.00  0.00     0.046 A 
ATOM     17  C   UNL A   1      33.882  20.628  25.414  1.00  0.00     0.119 A 
ATOM     18  C   UNL A   1      33.917  21.363  26.966  1.00  0.00     0.048 A 
ATOM     19  C   UNL A   1      32.868  21.321  24.301  1.00  0.00     0.052 A 
ATOM     20  C   UNL A   1      32.774  23.024  27.182  1.00  0.00     0.030 A 
ATOM     21  C   UNL A   1      31.807  22.634  24.579  1.00  0.00    -0.024 A 
ATOM     22  C   UNL A   1      31.011  23.064  23.379  1.00  0.00     0.047 C 
BRANCH  17  23
ATOM     23  O   UNL A   1      34.798  19.741  24.954  1.00  0.00    -0.497 OA
ATOM     24  C   UNL A   1      34.261  18.590  24.330  1.00  0.00     0.278 C 
ENDBRANCH  17  23
ENDBRANCH  11  16
ENDBRANCH   6  10
ENDBRANCH   3   5
ENDBRANCH   2   3
ENDBRANCH   1   2
BRANCH   1  25
ATOM     25  C   UNL A   1      35.401  31.760  27.641  1.00  0.00     0.275 C 
BRANCH  25  26
ATOM     26  O   UNL A   1      36.384  30.691  27.840  1.00  0.00    -0.458 OA
BRANCH  26  27
ATOM     27  C   UNL A   1      36.686  29.936  28.923  1.00  0.00     0.338 C 
ATOM     28  O   UNL A   1      36.033  29.946  29.956  1.00  0.00    -0.246 OA
BRANCH  27  29
ATOM     29  C   UNL A   1      37.943  29.209  28.800  1.00  0.00     0.060 A 
ATOM     30  C   UNL A   1      38.100  27.956  29.414  1.00  0.00     0.016 A 
ATOM     31  C   UNL A   1      38.860  29.717  27.881  1.00  0.00     0.016 A 
ATOM     32  C   UNL A   1      39.181  27.168  29.067  1.00  0.00     0.010 A 
ATOM     33  C   UNL A   1      39.829  28.875  27.405  1.00  0.00     0.010 A 
ATOM     34  C   UNL A   1      40.040  27.662  28.085  1.00  0.00    -0.014 A 
BRANCH  34  35
ATOM     35  C   UNL A   1      41.444  27.309  28.137  1.00  0.00     0.031 A 
ATOM     36  C   UNL A   1      41.826  25.916  27.865  1.00  0.00     0.074 A 
ATOM     37  C   UNL A   1      42.141  28.435  28.443  1.00  0.00     0.049 A 
ATOM     38  N   UNL A   1      42.748  25.272  28.484  1.00  0.00    -0.248 NA
ATOM     39  C   UNL A   1      41.080  25.051  26.940  1.00  0.00     0.031 C 
ATOM     40  C   UNL A   1      43.533  28.819  28.402  1.00  0.00     0.029 A 
ATOM     41  N   UNL A   1      41.525  29.569  29.052  1.00  0.00    -0.354 N 
ATOM     42  C   UNL A   1      42.985  24.126  27.740  1.00  0.00     0.074 A 
ATOM     43  C   UNL A   1      41.792  23.916  26.968  1.00  0.00     0.031 C 
ATOM     44  C   UNL A   1      43.694  29.884  29.228  1.00  0.00     0.029 A 
ATOM     45  C   UNL A   1      42.427  30.097  29.948  1.00  0.00     0.049 A 
ATOM     46  H   UNL A   1      40.621  29.910  28.868  1.00  0.00     0.167 HD
ATOM     47  C   UNL A   1      44.275  23.702  27.602  1.00  0.00     0.034 A 
ATOM     48  C   UNL A   1      42.196  29.863  31.276  1.00  0.00     0.034 A 
ATOM     49  C   UNL A   1      45.140  24.645  28.327  1.00  0.00     0.049 A 
ATOM     50  C   UNL A   1      43.271  28.979  31.828  1.00  0.00     0.074 A 
ATOM     51  C   UNL A   1      45.724  25.828  27.894  1.00  0.00     0.029 A 
ATOM     52  N   UNL A   1      45.091  24.713  29.714  1.00  0.00    -0.354 N 
ATOM     53  N   UNL A   1      43.874  28.051  31.145  1.00  0.00    -0.248 NA
ATOM     54  C   UNL A   1      43.722  29.088  33.204  1.00  0.00     0.031 C 
ATOM     55  C   UNL A   1      45.935  26.649  29.031  1.00  0.00     0.029 A 
ATOM     56  C   UNL A   1      45.478  25.974  30.151  1.00  0.00     0.049 A 
ATOM     57  H   UNL A   1      44.820  23.973  30.304  1.00  0.00     0.167 HD
ATOM     58  C   UNL A   1      44.747  27.404  31.962  1.00  0.00     0.074 A 
ATOM     59  C   UNL A   1      44.654  28.126  33.226  1.00  0.00     0.031 C 
ATOM     60  C   UNL A   1      45.440  26.300  31.568  1.00  0.00     0.034 A 
BRANCH  47  61
ATOM     61  C   UNL A   1      44.806  22.796  26.495  1.00  0.00     0.023 A 
ATOM     62  C   UNL A   1      45.861  23.327  25.713  1.00  0.00     0.012 A 
ATOM     63  C   UNL A   1      44.359  21.502  26.133  1.00  0.00     0.148 A 
ATOM     64  C   UNL A   1      46.386  22.677  24.594  1.00  0.00     0.002 A 
ATOM     65  C   UNL A   1      44.876  20.852  24.997  1.00  0.00     0.091 A 
ATOM     66  F   UNL A   1      43.459  20.875  26.902  1.00  0.00    -0.205 F 
ATOM     67  C   UNL A   1      45.881  21.446  24.224  1.00  0.00     0.022 A 
BRANCH  65  68
ATOM     68  S   UNL A   1      44.300  19.247  24.404  1.00  0.00     0.127 S 
ATOM     69  O   UNL A   1      45.184  18.322  25.116  1.00  0.00    -0.237 OA
ATOM     70  O   UNL A   1      42.910  19.225  24.860  1.00  0.00    -0.237 OA
ATOM     71  O   UNL A   1      44.481  19.258  22.959  1.00  0.00    -0.744 OA
ENDBRANCH  65  68
ENDBRANCH  47  61
BRANCH  48  72
ATOM     72  C   UNL A   1      40.775  29.756  31.798  1.00  0.00     0.023 A 
ATOM     73  C   UNL A   1      40.289  28.531  32.311  1.00  0.00     0.012 A 
ATOM     74  C   UNL A   1      39.924  30.879  31.898  1.00  0.00     0.148 A 
ATOM     75  C   UNL A   1      39.021  28.437  32.912  1.00  0.00     0.002 A 
ATOM     76  C   UNL A   1      38.667  30.781  32.507  1.00  0.00     0.091 A 
ATOM     77  F   UNL A   1      40.346  32.066  31.444  1.00  0.00    -0.205 F 
ATOM     78  C   UNL A   1      38.207  29.562  33.012  1.00  0.00     0.022 A 
BRANCH  76  79
ATOM     79  S   UNL A   1      37.692  32.271  32.766  1.00  0.00     0.127 S 
ATOM     80  O   UNL A   1      37.604  32.859  31.428  1.00  0.00    -0.237 OA
ATOM     81  O   UNL A   1      36.426  31.748  33.263  1.00  0.00    -0.237 OA
ATOM     82  O   UNL A   1      38.512  33.032  33.702  1.00  0.00    -0.744 OA
ENDBRANCH  76  79
ENDBRANCH  48  72
BRANCH  60  83
ATOM     83  C   UNL A   1      46.183  25.435  32.538  1.00  0.00     0.023 A 
ATOM     84  C   UNL A   1      47.551  25.632  32.804  1.00  0.00     0.012 A 
ATOM     85  C   UNL A   1      45.495  24.484  33.319  1.00  0.00     0.148 A 
ATOM     86  C   UNL A   1      48.243  24.813  33.692  1.00  0.00     0.002 A 
ATOM     87  C   UNL A   1      46.156  23.786  34.314  1.00  0.00     0.091 A 
ATOM     88  F   UNL A   1      44.196  24.237  33.091  1.00  0.00    -0.205 F 
ATOM     89  C   UNL A   1      47.541  23.899  34.462  1.00  0.00     0.022 A 
BRANCH  87  90
ATOM     90  S   UNL A   1      45.232  22.866  35.544  1.00  0.00     0.127 S 
ATOM     91  O   UNL A   1      44.494  23.927  36.224  1.00  0.00    -0.237 OA
ATOM     92  O   UNL A   1      44.409  21.981  34.718  1.00  0.00    -0.237 OA
ATOM     93  O   UNL A   1      46.238  22.171  36.337  1.00  0.00    -0.744 OA
ENDBRANCH  87  90
ENDBRANCH  60  83
ENDBRANCH  34  35
ENDBRANCH  27  29
ENDBRANCH  26  27
ENDBRANCH  25  26
ENDBRANCH   1  25
TORSDOF 17
ENDMDL
