MODEL 1
REMARK VINA RESULT:     -11.4      0.000      0.000
REMARK SMILES CCc1cccc(CC)c1N1/C(=[NH+]/C(=O)CCC(=O)OCCOC(=O)c2ccc(-c3c4nc(c(-c5cccc(S(=O)(=O)[O-])c5F)c5ccc([nH]5)c(-c5cccc(S(=O)(=O)[O-])c5F)c5nc(c(-c6cccc(S(=O)(=O)[O-])c6F)c6ccc3[nH]6)C=C5)C=C4)cc2)S[C@@H]2CS(=O)(=O)C[C@H]21
REMARK SMILES IDX 21 1 20 2 18 3 19 4 17 5 16 6 14 7 11 8 12 9 96 10 13 11
REMARK SMILES IDX 89 12 90 13 95 14 91 16 92 17 15 18 93 19 94 20 10 21 3 22
REMARK SMILES IDX 4 23 5 24 7 25 6 26 2 27 1 28 8 29 9 30 22 31 23 32 24 33
REMARK SMILES IDX 25 34 26 35 27 36 88 37 28 38 87 39 29 40 30 41 31 42 81 43
REMARK SMILES IDX 32 44 86 45 80 46 82 47 33 48 85 49 79 50 78 51 34 53 66 54
REMARK SMILES IDX 46 55 65 56 47 57 50 58 64 59 83 60 48 61 49 62 63 64 84 65
REMARK SMILES IDX 51 66 35 67 36 68 44 69 37 70 39 71 45 72 38 73 40 74 41 75
REMARK SMILES IDX 42 76 43 77 67 78 68 79 76 80 69 81 71 82 77 83 70 84 72 85
REMARK SMILES IDX 73 86 74 87 75 88 52 89 53 90 61 91 54 92 56 93 62 94 55 95
REMARK SMILES IDX 57 96 58 97 59 98 60 99
REMARK H PARENT 13 15 82 52 50 63
REMARK Flexibility Score: inf
ROOT
ATOM      1  C   UNL A   1      31.458  28.612  25.394  1.00  0.00     0.274 C 
ENDROOT
BRANCH   1   2
ATOM      2  O   UNL A   1      31.775  28.247  24.041  1.00  0.00    -0.462 OA
BRANCH   2   3
ATOM      3  C   UNL A   1      32.535  27.146  23.874  1.00  0.00     0.306 C 
ATOM      4  O   UNL A   1      33.722  27.074  24.166  1.00  0.00    -0.252 OA
BRANCH   3   5
ATOM      5  C   UNL A   1      31.778  26.004  23.234  1.00  0.00     0.135 C 
BRANCH   5   6
ATOM      6  C   UNL A   1      32.272  25.557  21.865  1.00  0.00     0.139 C 
BRANCH   6   7
ATOM      7  C   UNL A   1      32.691  24.102  21.794  1.00  0.00     0.308 C 
ATOM      8  N   UNL A   1      33.067  21.456  24.303  1.00  0.00    -0.216 N 
ATOM      9  C   UNL A   1      32.783  22.211  23.157  1.00  0.00     0.319 C 
ATOM     10  C   UNL A   1      32.554  20.089  24.240  1.00  0.00     0.212 C 
ATOM     11  N   UNL A   1      32.898  23.489  23.009  1.00  0.00    -0.204 N 
ATOM     12  S   UNL A   1      32.166  21.081  21.891  1.00  0.00    -0.029 SA
ATOM     13  C   UNL A   1      32.818  19.667  22.795  1.00  0.00     0.120 C 
ATOM     14  C   UNL A   1      33.166  18.989  25.073  1.00  0.00     0.188 C 
ATOM     15  H   UNL A   1      33.141  24.041  23.786  1.00  0.00     0.316 HD
ATOM     16  C   UNL A   1      32.186  18.308  22.640  1.00  0.00     0.156 C 
ATOM     17  S   UNL A   1      32.629  17.515  24.194  1.00  0.00     0.155 S 
ATOM     18  O   UNL A   1      32.936  23.608  20.695  1.00  0.00    -0.247 OA
ATOM     19  O   UNL A   1      33.782  16.671  23.972  1.00  0.00    -0.229 OA
ATOM     20  O   UNL A   1      31.419  17.023  24.816  1.00  0.00    -0.229 OA
BRANCH   8  21
ATOM     21  C   UNL A   1      33.428  21.974  25.561  1.00  0.00     0.134 A 
ATOM     22  C   UNL A   1      32.431  22.359  26.505  1.00  0.00    -0.001 A 
ATOM     23  C   UNL A   1      32.836  22.804  27.777  1.00  0.00     0.008 A 
ATOM     24  C   UNL A   1      34.180  22.874  28.127  1.00  0.00     0.001 A 
ATOM     25  C   UNL A   1      34.805  22.039  25.929  1.00  0.00    -0.001 A 
ATOM     26  C   UNL A   1      35.154  22.489  27.215  1.00  0.00     0.008 A 
BRANCH  22  27
ATOM     27  C   UNL A   1      30.958  22.335  26.127  1.00  0.00     0.036 C 
ATOM     28  C   UNL A   1      29.956  22.926  27.115  1.00  0.00     0.009 C 
ENDBRANCH  22  27
BRANCH  25  29
ATOM     29  C   UNL A   1      35.924  21.548  25.025  1.00  0.00     0.036 C 
ATOM     30  C   UNL A   1      36.641  22.614  24.207  1.00  0.00     0.009 C 
ENDBRANCH  25  29
ENDBRANCH   8  21
ENDBRANCH   6   7
ENDBRANCH   5   6
ENDBRANCH   3   5
ENDBRANCH   2   3
ENDBRANCH   1   2
BRANCH   1  31
ATOM     31  C   UNL A   1      31.920  30.054  25.621  1.00  0.00     0.275 C 
BRANCH  31  32
ATOM     32  O   UNL A   1      32.417  30.161  26.962  1.00  0.00    -0.458 OA
BRANCH  32  33
ATOM     33  C   UNL A   1      32.994  31.358  27.234  1.00  0.00     0.338 C 
ATOM     34  O   UNL A   1      32.467  32.450  27.250  1.00  0.00    -0.246 OA
BRANCH  33  35
ATOM     35  C   UNL A   1      34.321  31.058  27.798  1.00  0.00     0.060 A 
ATOM     36  C   UNL A   1      34.637  29.721  28.062  1.00  0.00     0.016 A 
ATOM     37  C   UNL A   1      35.252  32.073  28.016  1.00  0.00     0.016 A 
ATOM     38  C   UNL A   1      35.871  29.397  28.607  1.00  0.00     0.010 A 
ATOM     39  C   UNL A   1      36.493  31.749  28.554  1.00  0.00     0.010 A 
ATOM     40  C   UNL A   1      36.784  30.417  28.892  1.00  0.00    -0.014 A 
BRANCH  40  41
ATOM     41  C   UNL A   1      37.975  30.113  29.705  1.00  0.00     0.031 A 
ATOM     42  C   UNL A   1      38.990  29.157  29.143  1.00  0.00     0.074 A 
ATOM     43  C   UNL A   1      38.136  30.687  30.908  1.00  0.00     0.049 A 
ATOM     44  N   UNL A   1      40.079  28.692  29.691  1.00  0.00    -0.248 NA
ATOM     45  C   UNL A   1      38.733  28.647  27.784  1.00  0.00     0.031 C 
ATOM     46  C   UNL A   1      37.200  31.622  31.530  1.00  0.00     0.029 A 
ATOM     47  N   UNL A   1      39.137  30.545  31.832  1.00  0.00    -0.354 N 
ATOM     48  C   UNL A   1      40.620  27.813  28.760  1.00  0.00     0.074 A 
ATOM     49  C   UNL A   1      39.729  27.790  27.623  1.00  0.00     0.031 C 
ATOM     50  C   UNL A   1      37.655  31.948  32.751  1.00  0.00     0.029 A 
ATOM     51  C   UNL A   1      38.899  31.226  33.002  1.00  0.00     0.049 A 
ATOM     52  H   UNL A   1      39.947  30.009  31.674  1.00  0.00     0.167 HD
ATOM     53  C   UNL A   1      41.771  27.107  28.841  1.00  0.00     0.034 A 
ATOM     54  C   UNL A   1      39.600  31.236  34.151  1.00  0.00     0.034 A 
ATOM     55  C   UNL A   1      42.651  27.161  29.976  1.00  0.00     0.049 A 
ATOM     56  C   UNL A   1      40.881  30.448  34.211  1.00  0.00     0.074 A 
ATOM     57  C   UNL A   1      43.854  26.509  30.166  1.00  0.00     0.029 A 
ATOM     58  N   UNL A   1      42.417  27.917  31.116  1.00  0.00    -0.354 N 
ATOM     59  N   UNL A   1      41.429  29.690  33.292  1.00  0.00    -0.248 NA
ATOM     60  C   UNL A   1      41.663  30.550  35.450  1.00  0.00     0.031 C 
ATOM     61  C   UNL A   1      44.339  26.858  31.432  1.00  0.00     0.029 A 
ATOM     62  C   UNL A   1      43.453  27.750  32.017  1.00  0.00     0.049 A 
ATOM     63  H   UNL A   1      41.629  28.488  31.263  1.00  0.00     0.167 HD
ATOM     64  C   UNL A   1      42.630  29.242  33.829  1.00  0.00     0.074 A 
ATOM     65  C   UNL A   1      42.743  29.846  35.142  1.00  0.00     0.031 C 
ATOM     66  C   UNL A   1      43.549  28.396  33.301  1.00  0.00     0.034 A 
BRANCH  53  67
ATOM     67  C   UNL A   1      42.146  26.248  27.663  1.00  0.00     0.023 A 
ATOM     68  C   UNL A   1      42.907  26.801  26.611  1.00  0.00     0.012 A 
ATOM     69  C   UNL A   1      41.780  24.890  27.607  1.00  0.00     0.148 A 
ATOM     70  C   UNL A   1      43.268  26.027  25.508  1.00  0.00     0.002 A 
ATOM     71  C   UNL A   1      42.181  24.112  26.526  1.00  0.00     0.091 A 
ATOM     72  F   UNL A   1      41.035  24.388  28.601  1.00  0.00    -0.205 F 
ATOM     73  C   UNL A   1      42.914  24.682  25.471  1.00  0.00     0.022 A 
BRANCH  71  74
ATOM     74  S   UNL A   1      41.839  22.352  26.413  1.00  0.00     0.127 S 
ATOM     75  O   UNL A   1      40.385  22.342  26.264  1.00  0.00    -0.237 OA
ATOM     76  O   UNL A   1      42.578  21.975  25.209  1.00  0.00    -0.237 OA
ATOM     77  O   UNL A   1      42.341  21.763  27.647  1.00  0.00    -0.744 OA
ENDBRANCH  71  74
ENDBRANCH  53  67
BRANCH  54  78
ATOM     78  C   UNL A   1      39.118  32.036  35.311  1.00  0.00     0.023 A 
ATOM     79  C   UNL A   1      39.264  33.437  35.307  1.00  0.00     0.012 A 
ATOM     80  C   UNL A   1      38.481  31.417  36.405  1.00  0.00     0.148 A 
ATOM     81  C   UNL A   1      38.817  34.201  36.385  1.00  0.00     0.002 A 
ATOM     82  C   UNL A   1      37.983  32.190  37.447  1.00  0.00     0.091 A 
ATOM     83  F   UNL A   1      38.365  30.081  36.401  1.00  0.00    -0.205 F 
ATOM     84  C   UNL A   1      38.166  33.581  37.449  1.00  0.00     0.022 A 
BRANCH  82  85
ATOM     85  S   UNL A   1      37.013  31.486  38.784  1.00  0.00     0.127 S 
ATOM     86  O   UNL A   1      36.789  30.123  38.307  1.00  0.00    -0.237 OA
ATOM     87  O   UNL A   1      37.930  31.598  39.919  1.00  0.00    -0.237 OA
ATOM     88  O   UNL A   1      35.826  32.325  38.890  1.00  0.00    -0.744 OA
ENDBRANCH  82  85
ENDBRANCH  54  78
BRANCH  66  89
ATOM     89  C   UNL A   1      44.763  28.097  34.139  1.00  0.00     0.023 A 
ATOM     90  C   UNL A   1      45.797  29.050  34.239  1.00  0.00     0.012 A 
ATOM     91  C   UNL A   1      44.859  26.892  34.862  1.00  0.00     0.148 A 
ATOM     92  C   UNL A   1      46.929  28.786  35.008  1.00  0.00     0.002 A 
ATOM     93  C   UNL A   1      45.965  26.659  35.667  1.00  0.00     0.091 A 
ATOM     94  F   UNL A   1      43.873  25.991  34.739  1.00  0.00    -0.205 F 
ATOM     95  C   UNL A   1      47.008  27.597  35.729  1.00  0.00     0.022 A 
BRANCH  93  96
ATOM     96  S   UNL A   1      46.104  25.201  36.706  1.00  0.00     0.127 S 
ATOM     97  O   UNL A   1      46.523  24.186  35.740  1.00  0.00    -0.237 OA
ATOM     98  O   UNL A   1      47.138  25.596  37.663  1.00  0.00    -0.237 OA
ATOM     99  O   UNL A   1      44.786  25.003  37.293  1.00  0.00    -0.744 OA
ENDBRANCH  93  96
ENDBRANCH  66  89
ENDBRANCH  40  41
ENDBRANCH  33  35
ENDBRANCH  32  33
ENDBRANCH  31  32
ENDBRANCH   1  31
TORSDOF 19
ENDMDL
MODEL 2
REMARK VINA RESULT:     -11.3      1.298      2.102
REMARK SMILES CCc1cccc(CC)c1N1/C(=[NH+]/C(=O)CCC(=O)OCCOC(=O)c2ccc(-c3c4nc(c(-c5cccc(S(=O)(=O)[O-])c5F)c5ccc([nH]5)c(-c5cccc(S(=O)(=O)[O-])c5F)c5nc(c(-c6cccc(S(=O)(=O)[O-])c6F)c6ccc3[nH]6)C=C5)C=C4)cc2)S[C@@H]2CS(=O)(=O)C[C@H]21
REMARK SMILES IDX 21 1 20 2 18 3 19 4 17 5 16 6 14 7 11 8 12 9 96 10 13 11
REMARK SMILES IDX 89 12 90 13 95 14 91 16 92 17 15 18 93 19 94 20 10 21 3 22
REMARK SMILES IDX 4 23 5 24 7 25 6 26 2 27 1 28 8 29 9 30 22 31 23 32 24 33
REMARK SMILES IDX 25 34 26 35 27 36 88 37 28 38 87 39 29 40 30 41 31 42 81 43
REMARK SMILES IDX 32 44 86 45 80 46 82 47 33 48 85 49 79 50 78 51 34 53 66 54
REMARK SMILES IDX 46 55 65 56 47 57 50 58 64 59 83 60 48 61 49 62 63 64 84 65
REMARK SMILES IDX 51 66 35 67 36 68 44 69 37 70 39 71 45 72 38 73 40 74 41 75
REMARK SMILES IDX 42 76 43 77 67 78 68 79 76 80 69 81 71 82 77 83 70 84 72 85
REMARK SMILES IDX 73 86 74 87 75 88 52 89 53 90 61 91 54 92 56 93 62 94 55 95
REMARK SMILES IDX 57 96 58 97 59 98 60 99
REMARK H PARENT 13 15 82 52 50 63
REMARK Flexibility Score: inf
ROOT
ATOM      1  C   UNL A   1      31.684  28.636  25.469  1.00  0.00     0.274 C 
ENDROOT
BRANCH   1   2
ATOM      2  O   UNL A   1      31.721  28.299  24.074  1.00  0.00    -0.462 OA
BRANCH   2   3
ATOM      3  C   UNL A   1      32.706  27.468  23.677  1.00  0.00     0.306 C 
ATOM      4  O   UNL A   1      33.866  27.813  23.483  1.00  0.00    -0.252 OA
BRANCH   3   5
ATOM      5  C   UNL A   1      32.222  26.055  23.444  1.00  0.00     0.135 C 
BRANCH   5   6
ATOM      6  C   UNL A   1      32.322  25.539  22.015  1.00  0.00     0.139 C 
BRANCH   6   7
ATOM      7  C   UNL A   1      32.731  24.084  21.900  1.00  0.00     0.308 C 
ATOM      8  N   UNL A   1      33.126  21.371  24.333  1.00  0.00    -0.216 N 
ATOM      9  C   UNL A   1      32.831  22.158  23.212  1.00  0.00     0.319 C 
ATOM     10  C   UNL A   1      32.604  20.009  24.241  1.00  0.00     0.212 C 
ATOM     11  N   UNL A   1      32.951  23.439  23.095  1.00  0.00    -0.204 N 
ATOM     12  S   UNL A   1      32.189  21.065  21.925  1.00  0.00    -0.029 SA
ATOM     13  C   UNL A   1      32.846  19.624  22.782  1.00  0.00     0.120 C 
ATOM     14  C   UNL A   1      33.221  18.884  25.036  1.00  0.00     0.188 C 
ATOM     15  H   UNL A   1      33.209  23.968  23.883  1.00  0.00     0.316 HD
ATOM     16  C   UNL A   1      32.204  18.274  22.601  1.00  0.00     0.156 C 
ATOM     17  S   UNL A   1      32.664  17.437  24.127  1.00  0.00     0.155 S 
ATOM     18  O   UNL A   1      32.957  23.618  20.785  1.00  0.00    -0.247 OA
ATOM     19  O   UNL A   1      33.809  16.592  23.867  1.00  0.00    -0.229 OA
ATOM     20  O   UNL A   1      31.459  16.936  24.753  1.00  0.00    -0.229 OA
BRANCH   8  21
ATOM     21  C   UNL A   1      33.508  21.854  25.599  1.00  0.00     0.134 A 
ATOM     22  C   UNL A   1      34.884  21.926  25.967  1.00  0.00    -0.001 A 
ATOM     23  C   UNL A   1      35.225  22.482  27.214  1.00  0.00     0.008 A 
ATOM     24  C   UNL A   1      34.252  22.958  28.086  1.00  0.00     0.001 A 
ATOM     25  C   UNL A   1      32.516  22.352  26.494  1.00  0.00    -0.001 A 
ATOM     26  C   UNL A   1      32.912  22.900  27.727  1.00  0.00     0.008 A 
BRANCH  22  27
ATOM     27  C   UNL A   1      35.961  21.369  25.049  1.00  0.00     0.036 C 
ATOM     28  C   UNL A   1      36.731  22.350  24.170  1.00  0.00     0.009 C 
ENDBRANCH  22  27
BRANCH  25  29
ATOM     29  C   UNL A   1      31.039  22.411  26.137  1.00  0.00     0.036 C 
ATOM     30  C   UNL A   1      30.289  23.657  26.588  1.00  0.00     0.009 C 
ENDBRANCH  25  29
ENDBRANCH   8  21
ENDBRANCH   6   7
ENDBRANCH   5   6
ENDBRANCH   3   5
ENDBRANCH   2   3
ENDBRANCH   1   2
BRANCH   1  31
ATOM     31  C   UNL A   1      32.161  30.082  25.625  1.00  0.00     0.275 C 
BRANCH  31  32
ATOM     32  O   UNL A   1      32.554  30.282  26.990  1.00  0.00    -0.458 OA
BRANCH  32  33
ATOM     33  C   UNL A   1      33.190  31.460  27.205  1.00  0.00     0.338 C 
ATOM     34  O   UNL A   1      32.713  32.575  27.191  1.00  0.00    -0.246 OA
BRANCH  33  35
ATOM     35  C   UNL A   1      34.514  31.120  27.755  1.00  0.00     0.060 A 
ATOM     36  C   UNL A   1      34.738  29.801  28.163  1.00  0.00     0.016 A 
ATOM     37  C   UNL A   1      35.528  32.075  27.819  1.00  0.00     0.016 A 
ATOM     38  C   UNL A   1      35.966  29.443  28.699  1.00  0.00     0.010 A 
ATOM     39  C   UNL A   1      36.763  31.715  28.348  1.00  0.00     0.010 A 
ATOM     40  C   UNL A   1      36.966  30.412  28.830  1.00  0.00    -0.014 A 
BRANCH  40  41
ATOM     41  C   UNL A   1      38.165  30.107  29.632  1.00  0.00     0.031 A 
ATOM     42  C   UNL A   1      39.177  29.157  29.057  1.00  0.00     0.074 A 
ATOM     43  C   UNL A   1      38.334  30.677  30.836  1.00  0.00     0.049 A 
ATOM     44  N   UNL A   1      40.272  28.693  29.594  1.00  0.00    -0.248 NA
ATOM     45  C   UNL A   1      38.910  28.652  27.698  1.00  0.00     0.031 C 
ATOM     46  C   UNL A   1      37.400  31.607  31.470  1.00  0.00     0.029 A 
ATOM     47  N   UNL A   1      39.344  30.534  31.751  1.00  0.00    -0.354 N 
ATOM     48  C   UNL A   1      40.808  27.820  28.654  1.00  0.00     0.074 A 
ATOM     49  C   UNL A   1      39.907  27.799  27.525  1.00  0.00     0.031 C 
ATOM     50  C   UNL A   1      37.865  31.928  32.689  1.00  0.00     0.029 A 
ATOM     51  C   UNL A   1      39.113  31.209  32.926  1.00  0.00     0.049 A 
ATOM     52  H   UNL A   1      40.153  30.001  31.583  1.00  0.00     0.167 HD
ATOM     53  C   UNL A   1      41.961  27.116  28.723  1.00  0.00     0.034 A 
ATOM     54  C   UNL A   1      39.823  31.215  34.069  1.00  0.00     0.034 A 
ATOM     55  C   UNL A   1      42.851  27.168  29.850  1.00  0.00     0.049 A 
ATOM     56  C   UNL A   1      41.107  30.431  34.115  1.00  0.00     0.074 A 
ATOM     57  C   UNL A   1      44.057  26.519  30.027  1.00  0.00     0.029 A 
ATOM     58  N   UNL A   1      42.624  27.918  30.995  1.00  0.00    -0.354 N 
ATOM     59  N   UNL A   1      41.650  29.678  33.187  1.00  0.00    -0.248 NA
ATOM     60  C   UNL A   1      41.899  30.529  35.348  1.00  0.00     0.031 C 
ATOM     61  C   UNL A   1      44.552  26.863  31.291  1.00  0.00     0.029 A 
ATOM     62  C   UNL A   1      43.668  27.750  31.886  1.00  0.00     0.049 A 
ATOM     63  H   UNL A   1      41.836  28.486  31.151  1.00  0.00     0.167 HD
ATOM     64  C   UNL A   1      42.857  29.232  33.712  1.00  0.00     0.074 A 
ATOM     65  C   UNL A   1      42.979  29.831  35.027  1.00  0.00     0.031 C 
ATOM     66  C   UNL A   1      43.774  28.391  33.173  1.00  0.00     0.034 A 
BRANCH  53  67
ATOM     67  C   UNL A   1      42.329  26.264  27.537  1.00  0.00     0.023 A 
ATOM     68  C   UNL A   1      43.059  26.830  26.470  1.00  0.00     0.012 A 
ATOM     69  C   UNL A   1      41.987  24.899  27.489  1.00  0.00     0.148 A 
ATOM     70  C   UNL A   1      43.412  26.062  25.361  1.00  0.00     0.002 A 
ATOM     71  C   UNL A   1      42.381  24.128  26.401  1.00  0.00     0.091 A 
ATOM     72  F   UNL A   1      41.271  24.384  28.498  1.00  0.00    -0.205 F 
ATOM     73  C   UNL A   1      43.082  24.710  25.331  1.00  0.00     0.022 A 
BRANCH  71  74
ATOM     74  S   UNL A   1      42.069  22.362  26.295  1.00  0.00     0.127 S 
ATOM     75  O   UNL A   1      42.668  21.880  27.539  1.00  0.00    -0.237 OA
ATOM     76  O   UNL A   1      40.608  22.312  26.262  1.00  0.00    -0.237 OA
ATOM     77  O   UNL A   1      42.723  21.909  25.075  1.00  0.00    -0.744 OA
ENDBRANCH  71  74
ENDBRANCH  53  67
BRANCH  54  78
ATOM     78  C   UNL A   1      39.349  32.009  35.237  1.00  0.00     0.023 A 
ATOM     79  C   UNL A   1      38.495  31.419  36.188  1.00  0.00     0.012 A 
ATOM     80  C   UNL A   1      39.771  33.340  35.427  1.00  0.00     0.148 A 
ATOM     81  C   UNL A   1      38.044  32.148  37.288  1.00  0.00     0.002 A 
ATOM     82  C   UNL A   1      39.366  34.042  36.557  1.00  0.00     0.091 A 
ATOM     83  F   UNL A   1      40.571  33.893  34.504  1.00  0.00    -0.205 F 
ATOM     84  C   UNL A   1      38.487  33.455  37.480  1.00  0.00     0.022 A 
BRANCH  82  85
ATOM     85  S   UNL A   1      40.002  35.675  36.949  1.00  0.00     0.127 S 
ATOM     86  O   UNL A   1      39.545  36.458  35.804  1.00  0.00    -0.237 OA
ATOM     87  O   UNL A   1      39.321  35.973  38.210  1.00  0.00    -0.237 OA
ATOM     88  O   UNL A   1      41.444  35.513  37.074  1.00  0.00    -0.744 OA
ENDBRANCH  82  85
ENDBRANCH  54  78
BRANCH  66  89
ATOM     89  C   UNL A   1      44.996  28.091  33.999  1.00  0.00     0.023 A 
ATOM     90  C   UNL A   1      46.131  28.920  33.896  1.00  0.00     0.012 A 
ATOM     91  C   UNL A   1      45.002  27.017  34.910  1.00  0.00     0.148 A 
ATOM     92  C   UNL A   1      47.271  28.654  34.651  1.00  0.00     0.002 A 
ATOM     93  C   UNL A   1      46.123  26.790  35.698  1.00  0.00     0.091 A 
ATOM     94  F   UNL A   1      43.918  26.230  34.981  1.00  0.00    -0.205 F 
ATOM     95  C   UNL A   1      47.264  27.597  35.558  1.00  0.00     0.022 A 
BRANCH  93  96
ATOM     96  S   UNL A   1      46.163  25.514  36.960  1.00  0.00     0.127 S 
ATOM     97  O   UNL A   1      44.983  25.845  37.756  1.00  0.00    -0.237 OA
ATOM     98  O   UNL A   1      46.042  24.289  36.168  1.00  0.00    -0.237 OA
ATOM     99  O   UNL A   1      47.442  25.666  37.639  1.00  0.00    -0.744 OA
ENDBRANCH  93  96
ENDBRANCH  66  89
ENDBRANCH  40  41
ENDBRANCH  33  35
ENDBRANCH  32  33
ENDBRANCH  31  32
ENDBRANCH   1  31
TORSDOF 19
ENDMDL
MODEL 3
REMARK VINA RESULT:     -10.9      1.459      7.423
REMARK SMILES CCc1cccc(CC)c1N1/C(=[NH+]/C(=O)CCC(=O)OCCOC(=O)c2ccc(-c3c4nc(c(-c5cccc(S(=O)(=O)[O-])c5F)c5ccc([nH]5)c(-c5cccc(S(=O)(=O)[O-])c5F)c5nc(c(-c6cccc(S(=O)(=O)[O-])c6F)c6ccc3[nH]6)C=C5)C=C4)cc2)S[C@@H]2CS(=O)(=O)C[C@H]21
REMARK SMILES IDX 21 1 20 2 18 3 19 4 17 5 16 6 14 7 11 8 12 9 96 10 13 11
REMARK SMILES IDX 89 12 90 13 95 14 91 16 92 17 15 18 93 19 94 20 10 21 3 22
REMARK SMILES IDX 4 23 5 24 7 25 6 26 2 27 1 28 8 29 9 30 22 31 23 32 24 33
REMARK SMILES IDX 25 34 26 35 27 36 88 37 28 38 87 39 29 40 30 41 31 42 81 43
REMARK SMILES IDX 32 44 86 45 80 46 82 47 33 48 85 49 79 50 78 51 34 53 66 54
REMARK SMILES IDX 46 55 65 56 47 57 50 58 64 59 83 60 48 61 49 62 63 64 84 65
REMARK SMILES IDX 51 66 35 67 36 68 44 69 37 70 39 71 45 72 38 73 40 74 41 75
REMARK SMILES IDX 42 76 43 77 67 78 68 79 76 80 69 81 71 82 77 83 70 84 72 85
REMARK SMILES IDX 73 86 74 87 75 88 52 89 53 90 61 91 54 92 56 93 62 94 55 95
REMARK SMILES IDX 57 96 58 97 59 98 60 99
REMARK H PARENT 13 15 82 52 50 63
REMARK Flexibility Score: inf
ROOT
ATOM      1  C   UNL A   1      31.596  28.970  25.937  1.00  0.00     0.274 C 
ENDROOT
BRANCH   1   2
ATOM      2  O   UNL A   1      32.702  28.452  25.181  1.00  0.00    -0.462 OA
BRANCH   2   3
ATOM      3  C   UNL A   1      32.430  28.015  23.934  1.00  0.00     0.306 C 
ATOM      4  O   UNL A   1      32.010  28.725  23.028  1.00  0.00    -0.252 OA
BRANCH   3   5
ATOM      5  C   UNL A   1      32.651  26.528  23.773  1.00  0.00     0.135 C 
BRANCH   5   6
ATOM      6  C   UNL A   1      32.276  25.937  22.421  1.00  0.00     0.139 C 
BRANCH   6   7
ATOM      7  C   UNL A   1      32.691  24.492  22.232  1.00  0.00     0.308 C 
ATOM      8  N   UNL A   1      33.118  21.664  24.525  1.00  0.00    -0.216 N 
ATOM      9  C   UNL A   1      32.810  22.504  23.446  1.00  0.00     0.319 C 
ATOM     10  C   UNL A   1      32.601  20.306  24.369  1.00  0.00     0.212 C 
ATOM     11  N   UNL A   1      32.923  23.790  23.392  1.00  0.00    -0.204 N 
ATOM     12  S   UNL A   1      32.165  21.472  22.111  1.00  0.00    -0.029 SA
ATOM     13  C   UNL A   1      32.835  19.995  22.892  1.00  0.00     0.120 C 
ATOM     14  C   UNL A   1      33.230  19.146  25.104  1.00  0.00     0.188 C 
ATOM     15  H   UNL A   1      33.184  24.281  24.203  1.00  0.00     0.316 HD
ATOM     16  C   UNL A   1      32.198  18.651  22.648  1.00  0.00     0.156 C 
ATOM     17  S   UNL A   1      32.673  17.743  24.128  1.00  0.00     0.155 S 
ATOM     18  O   UNL A   1      32.913  24.083  21.093  1.00  0.00    -0.247 OA
ATOM     19  O   UNL A   1      33.820  16.918  23.818  1.00  0.00    -0.229 OA
ATOM     20  O   UNL A   1      31.475  17.205  24.737  1.00  0.00    -0.229 OA
BRANCH   8  21
ATOM     21  C   UNL A   1      33.506  22.086  25.811  1.00  0.00     0.134 A 
ATOM     22  C   UNL A   1      32.532  22.476  26.776  1.00  0.00    -0.001 A 
ATOM     23  C   UNL A   1      32.959  22.821  28.071  1.00  0.00     0.008 A 
ATOM     24  C   UNL A   1      34.304  22.788  28.423  1.00  0.00     0.001 A 
ATOM     25  C   UNL A   1      34.883  22.046  26.181  1.00  0.00    -0.001 A 
ATOM     26  C   UNL A   1      35.255  22.399  27.490  1.00  0.00     0.008 A 
BRANCH  22  27
ATOM     27  C   UNL A   1      31.061  22.563  26.399  1.00  0.00     0.036 C 
ATOM     28  C   UNL A   1      30.478  23.942  26.101  1.00  0.00     0.009 C 
ENDBRANCH  22  27
BRANCH  25  29
ATOM     29  C   UNL A   1      35.973  21.541  25.249  1.00  0.00     0.036 C 
ATOM     30  C   UNL A   1      37.350  22.164  25.428  1.00  0.00     0.009 C 
ENDBRANCH  25  29
ENDBRANCH   8  21
ENDBRANCH   6   7
ENDBRANCH   5   6
ENDBRANCH   3   5
ENDBRANCH   2   3
ENDBRANCH   1   2
BRANCH   1  31
ATOM     31  C   UNL A   1      31.906  30.423  26.305  1.00  0.00     0.275 C 
BRANCH  31  32
ATOM     32  O   UNL A   1      33.329  30.569  26.403  1.00  0.00    -0.458 OA
BRANCH  32  33
ATOM     33  C   UNL A   1      33.718  31.518  27.291  1.00  0.00     0.338 C 
ATOM     34  O   UNL A   1      33.062  32.438  27.730  1.00  0.00    -0.246 OA
BRANCH  33  35
ATOM     35  C   UNL A   1      34.998  31.055  27.855  1.00  0.00     0.060 A 
ATOM     36  C   UNL A   1      35.161  29.683  28.079  1.00  0.00     0.016 A 
ATOM     37  C   UNL A   1      36.034  31.953  28.111  1.00  0.00     0.016 A 
ATOM     38  C   UNL A   1      36.346  29.208  28.622  1.00  0.00     0.010 A 
ATOM     39  C   UNL A   1      37.225  31.477  28.647  1.00  0.00     0.010 A 
ATOM     40  C   UNL A   1      37.364  30.111  28.945  1.00  0.00    -0.014 A 
BRANCH  40  41
ATOM     41  C   UNL A   1      38.505  29.652  29.756  1.00  0.00     0.031 A 
ATOM     42  C   UNL A   1      38.665  30.221  31.137  1.00  0.00     0.074 A 
ATOM     43  C   UNL A   1      39.364  28.745  29.262  1.00  0.00     0.049 A 
ATOM     44  N   UNL A   1      39.614  30.018  32.009  1.00  0.00    -0.248 NA
ATOM     45  C   UNL A   1      37.619  31.156  31.590  1.00  0.00     0.031 C 
ATOM     46  C   UNL A   1      39.285  28.144  27.930  1.00  0.00     0.029 A 
ATOM     47  N   UNL A   1      40.487  28.192  29.817  1.00  0.00    -0.354 N 
ATOM     48  C   UNL A   1      39.298  30.821  33.100  1.00  0.00     0.074 A 
ATOM     49  C   UNL A   1      38.084  31.533  32.771  1.00  0.00     0.031 C 
ATOM     50  C   UNL A   1      40.336  27.327  27.758  1.00  0.00     0.029 A 
ATOM     51  C   UNL A   1      41.170  27.367  28.955  1.00  0.00     0.049 A 
ATOM     52  H   UNL A   1      40.775  28.367  30.741  1.00  0.00     0.167 HD
ATOM     53  C   UNL A   1      39.954  30.935  34.277  1.00  0.00     0.034 A 
ATOM     54  C   UNL A   1      42.352  26.742  29.117  1.00  0.00     0.034 A 
ATOM     55  C   UNL A   1      41.150  30.201  34.589  1.00  0.00     0.049 A 
ATOM     56  C   UNL A   1      43.055  26.878  30.440  1.00  0.00     0.074 A 
ATOM     57  C   UNL A   1      41.892  30.215  35.754  1.00  0.00     0.029 A 
ATOM     58  N   UNL A   1      41.778  29.319  33.721  1.00  0.00    -0.354 N 
ATOM     59  N   UNL A   1      42.702  27.571  31.497  1.00  0.00    -0.248 NA
ATOM     60  C   UNL A   1      44.298  26.115  30.611  1.00  0.00     0.031 C 
ATOM     61  C   UNL A   1      42.981  29.352  35.583  1.00  0.00     0.029 A 
ATOM     62  C   UNL A   1      42.900  28.779  34.323  1.00  0.00     0.049 A 
ATOM     63  H   UNL A   1      41.470  29.107  32.810  1.00  0.00     0.167 HD
ATOM     64  C   UNL A   1      43.663  27.310  32.466  1.00  0.00     0.074 A 
ATOM     65  C   UNL A   1      44.594  26.366  31.878  1.00  0.00     0.031 C 
ATOM     66  C   UNL A   1      43.783  27.814  33.719  1.00  0.00     0.034 A 
BRANCH  53  67
ATOM     67  C   UNL A   1      39.371  31.859  35.313  1.00  0.00     0.023 A 
ATOM     68  C   UNL A   1      38.337  31.399  36.156  1.00  0.00     0.012 A 
ATOM     69  C   UNL A   1      39.863  33.168  35.480  1.00  0.00     0.148 A 
ATOM     70  C   UNL A   1      37.780  32.235  37.123  1.00  0.00     0.002 A 
ATOM     71  C   UNL A   1      39.334  33.981  36.476  1.00  0.00     0.091 A 
ATOM     72  F   UNL A   1      40.827  33.597  34.653  1.00  0.00    -0.205 F 
ATOM     73  C   UNL A   1      38.285  33.521  37.289  1.00  0.00     0.022 A 
BRANCH  71  74
ATOM     74  S   UNL A   1      39.960  35.629  36.821  1.00  0.00     0.127 S 
ATOM     75  O   UNL A   1      39.275  35.951  38.072  1.00  0.00    -0.237 OA
ATOM     76  O   UNL A   1      41.397  35.387  36.957  1.00  0.00    -0.237 OA
ATOM     77  O   UNL A   1      39.586  36.451  35.678  1.00  0.00    -0.744 OA
ENDBRANCH  71  74
ENDBRANCH  53  67
BRANCH  54  78
ATOM     78  C   UNL A   1      42.915  25.917  28.012  1.00  0.00     0.023 A 
ATOM     79  C   UNL A   1      43.937  26.439  27.197  1.00  0.00     0.012 A 
ATOM     80  C   UNL A   1      42.465  24.601  27.788  1.00  0.00     0.148 A 
ATOM     81  C   UNL A   1      44.477  25.678  26.159  1.00  0.00     0.002 A 
ATOM     82  C   UNL A   1      43.048  23.827  26.792  1.00  0.00     0.091 A 
ATOM     83  F   UNL A   1      41.479  24.126  28.563  1.00  0.00    -0.205 F 
ATOM     84  C   UNL A   1      44.042  24.370  25.963  1.00  0.00     0.022 A 
BRANCH  82  85
ATOM     85  S   UNL A   1      42.644  22.092  26.566  1.00  0.00     0.127 S 
ATOM     86  O   UNL A   1      41.286  22.166  26.033  1.00  0.00    -0.237 OA
ATOM     87  O   UNL A   1      43.662  21.665  25.604  1.00  0.00    -0.237 OA
ATOM     88  O   UNL A   1      42.778  21.485  27.884  1.00  0.00    -0.744 OA
ENDBRANCH  82  85
ENDBRANCH  54  78
BRANCH  66  89
ATOM     89  C   UNL A   1      44.950  27.333  34.540  1.00  0.00     0.023 A 
ATOM     90  C   UNL A   1      46.167  28.043  34.509  1.00  0.00     0.012 A 
ATOM     91  C   UNL A   1      44.826  26.206  35.375  1.00  0.00     0.148 A 
ATOM     92  C   UNL A   1      47.258  27.609  35.259  1.00  0.00     0.002 A 
ATOM     93  C   UNL A   1      45.900  25.811  36.161  1.00  0.00     0.091 A 
ATOM     94  F   UNL A   1      43.665  25.535  35.377  1.00  0.00    -0.205 F 
ATOM     95  C   UNL A   1      47.121  26.500  36.092  1.00  0.00     0.022 A 
BRANCH  93  96
ATOM     96  S   UNL A   1      45.781  24.456  37.333  1.00  0.00     0.127 S 
ATOM     97  O   UNL A   1      44.635  24.863  38.143  1.00  0.00    -0.237 OA
ATOM     98  O   UNL A   1      45.535  23.308  36.459  1.00  0.00    -0.237 OA
ATOM     99  O   UNL A   1      47.061  24.419  38.029  1.00  0.00    -0.744 OA
ENDBRANCH  93  96
ENDBRANCH  66  89
ENDBRANCH  40  41
ENDBRANCH  33  35
ENDBRANCH  32  33
ENDBRANCH  31  32
ENDBRANCH   1  31
TORSDOF 19
ENDMDL
