MODEL 1
REMARK VINA RESULT:     -12.0      0.000      0.000
REMARK SMILES NS(=O)(=O)c1ccc(-n2nc(C(=O)NCCCC(=O)OCCOC(=O)c3ccc(-c4c5nc(c(-c6cccc(S(=O)(=O)[O-])c6F)c6ccc([nH]6)c(-c6cccc(S(=O)(=O)[O-])c6F)c6nc(c(-c7cccc(S(=O)(=O)[O-])c7F)c7ccc4[nH]7)C=C6)C=C5)cc3)cc2-c2ccccc2)cc1
REMARK SMILES IDX 18 1 19 2 17 3 16 4 15 5 14 6 12 7 13 8 11 10 9 11 10 12
REMARK SMILES IDX 90 13 89 14 8 15 5 16 6 17 98 18 7 19 97 20 2 21 3 22 4 23
REMARK SMILES IDX 1 24 91 27 92 28 96 29 93 30 95 31 94 32 20 33 21 34 22 35
REMARK SMILES IDX 23 36 24 37 25 38 26 39 27 40 88 41 28 42 87 43 29 44 30 45
REMARK SMILES IDX 31 46 81 47 32 48 86 49 80 50 82 51 33 52 85 53 79 54 78 55
REMARK SMILES IDX 34 57 66 58 46 59 65 60 47 61 50 62 64 63 83 64 48 65 49 66
REMARK SMILES IDX 63 68 84 69 51 70 35 71 36 72 44 73 37 74 39 75 45 76 38 77
REMARK SMILES IDX 40 78 41 79 42 80 43 81 67 82 68 83 76 84 69 85 71 86 77 87
REMARK SMILES IDX 70 88 72 89 73 90 74 91 75 92 52 93 53 94 61 95 54 96 56 97
REMARK SMILES IDX 62 98 55 99 57 100 58 101 59 102 60 103
REMARK H PARENT 14 9 1 25 1 26 82 56 50 67
REMARK Flexibility Score: inf
ROOT
ATOM      1  C   UNL A   1      31.480  29.768  25.736  1.00  0.00     0.305 C 
ATOM      2  O   UNL A   1      31.789  29.216  26.784  1.00  0.00    -0.252 OA
ENDROOT
BRANCH   1   3
ATOM      3  C   UNL A   1      31.235  29.010  24.450  1.00  0.00     0.124 C 
BRANCH   3   4
ATOM      4  C   UNL A   1      30.740  27.569  24.545  1.00  0.00     0.033 C 
BRANCH   4   5
ATOM      5  C   UNL A   1      31.771  26.453  24.406  1.00  0.00     0.117 C 
BRANCH   5   6
ATOM      6  N   UNL A   1      32.395  26.434  23.092  1.00  0.00    -0.351 N 
ATOM      7  C   UNL A   1      33.333  25.584  22.548  1.00  0.00     0.271 C 
ATOM      8  O   UNL A   1      33.813  25.914  21.460  1.00  0.00    -0.267 OA
ATOM      9  H   UNL A   1      32.094  27.150  22.487  1.00  0.00     0.163 HD
BRANCH   7  10
ATOM     10  C   UNL A   1      33.712  24.327  23.230  1.00  0.00     0.151 A 
ATOM     11  N   UNL A   1      34.913  22.950  24.350  1.00  0.00    -0.232 N 
ATOM     12  N   UNL A   1      34.794  24.262  24.037  1.00  0.00    -0.162 NA
ATOM     13  C   UNL A   1      33.780  22.229  24.011  1.00  0.00     0.075 A 
ATOM     14  C   UNL A   1      33.093  23.051  23.146  1.00  0.00     0.065 A 
BRANCH  11  15
ATOM     15  C   UNL A   1      36.086  22.433  24.957  1.00  0.00     0.065 A 
ATOM     16  C   UNL A   1      38.582  21.590  25.836  1.00  0.00     0.082 A 
ATOM     17  C   UNL A   1      38.119  22.857  26.200  1.00  0.00     0.024 A 
ATOM     18  C   UNL A   1      37.781  20.723  25.080  1.00  0.00     0.024 A 
ATOM     19  C   UNL A   1      36.871  23.279  25.758  1.00  0.00     0.030 A 
ATOM     20  C   UNL A   1      36.511  21.134  24.662  1.00  0.00     0.030 A 
BRANCH  16  21
ATOM     21  S   UNL A   1      40.220  21.154  26.330  1.00  0.00     0.238 S 
ATOM     22  O   UNL A   1      40.535  19.861  25.787  1.00  0.00    -0.207 OA
ATOM     23  O   UNL A   1      40.374  21.471  27.738  1.00  0.00    -0.207 OA
BRANCH  21  24
ATOM     24  N   UNL A   1      41.217  22.245  25.531  1.00  0.00    -0.225 NA
ATOM     25  H   UNL A   1      41.679  22.845  26.214  1.00  0.00     0.137 HD
ATOM     26  H   UNL A   1      40.656  22.818  24.900  1.00  0.00     0.137 HD
ENDBRANCH  21  24
ENDBRANCH  16  21
ENDBRANCH  11  15
BRANCH  13  27
ATOM     27  C   UNL A   1      33.416  20.907  24.528  1.00  0.00     0.000 A 
ATOM     28  C   UNL A   1      33.305  20.678  25.910  1.00  0.00     0.010 A 
ATOM     29  C   UNL A   1      33.139  19.857  23.647  1.00  0.00     0.010 A 
ATOM     30  C   UNL A   1      32.964  19.417  26.400  1.00  0.00     0.001 A 
ATOM     31  C   UNL A   1      32.787  18.599  24.137  1.00  0.00     0.001 A 
ATOM     32  C   UNL A   1      32.707  18.377  25.511  1.00  0.00     0.000 A 
ENDBRANCH  13  27
ENDBRANCH   7  10
ENDBRANCH   5   6
ENDBRANCH   4   5
ENDBRANCH   3   4
ENDBRANCH   1   3
BRANCH   1  33
ATOM     33  O   UNL A   1      31.422  31.114  25.558  1.00  0.00    -0.462 OA
BRANCH  33  34
ATOM     34  C   UNL A   1      31.139  31.904  26.730  1.00  0.00     0.274 C 
BRANCH  34  35
ATOM     35  C   UNL A   1      32.396  32.555  27.290  1.00  0.00     0.275 C 
BRANCH  35  36
ATOM     36  O   UNL A   1      32.166  33.911  27.666  1.00  0.00    -0.458 OA
BRANCH  36  37
ATOM     37  C   UNL A   1      32.933  34.341  28.690  1.00  0.00     0.338 C 
ATOM     38  O   UNL A   1      32.769  35.357  29.347  1.00  0.00    -0.246 OA
BRANCH  37  39
ATOM     39  C   UNL A   1      34.155  33.541  28.771  1.00  0.00     0.060 A 
ATOM     40  C   UNL A   1      34.380  32.803  29.937  1.00  0.00     0.016 A 
ATOM     41  C   UNL A   1      35.163  33.750  27.821  1.00  0.00     0.016 A 
ATOM     42  C   UNL A   1      35.666  32.385  30.214  1.00  0.00     0.010 A 
ATOM     43  C   UNL A   1      36.447  33.352  28.109  1.00  0.00     0.010 A 
ATOM     44  C   UNL A   1      36.695  32.723  29.327  1.00  0.00    -0.014 A 
BRANCH  44  45
ATOM     45  C   UNL A   1      38.027  32.207  29.587  1.00  0.00     0.031 A 
ATOM     46  C   UNL A   1      38.129  30.777  29.211  1.00  0.00     0.074 A 
ATOM     47  C   UNL A   1      39.054  32.984  29.982  1.00  0.00     0.049 A 
ATOM     48  N   UNL A   1      38.258  29.771  30.012  1.00  0.00    -0.248 NA
ATOM     49  C   UNL A   1      37.825  30.400  27.820  1.00  0.00     0.031 C 
ATOM     50  C   UNL A   1      39.058  34.445  30.108  1.00  0.00     0.029 A 
ATOM     51  N   UNL A   1      40.358  32.653  30.216  1.00  0.00    -0.354 N 
ATOM     52  C   UNL A   1      38.366  28.669  29.171  1.00  0.00     0.074 A 
ATOM     53  C   UNL A   1      37.832  29.069  27.899  1.00  0.00     0.031 C 
ATOM     54  C   UNL A   1      40.337  34.884  30.141  1.00  0.00     0.029 A 
ATOM     55  C   UNL A   1      41.231  33.741  30.155  1.00  0.00     0.049 A 
ATOM     56  H   UNL A   1      40.654  31.735  30.410  1.00  0.00     0.167 HD
ATOM     57  C   UNL A   1      39.225  27.662  29.481  1.00  0.00     0.034 A 
ATOM     58  C   UNL A   1      42.585  33.695  30.034  1.00  0.00     0.034 A 
ATOM     59  C   UNL A   1      39.583  27.693  30.878  1.00  0.00     0.049 A 
ATOM     60  C   UNL A   1      43.020  32.352  30.469  1.00  0.00     0.074 A 
ATOM     61  C   UNL A   1      38.893  27.669  32.073  1.00  0.00     0.029 A 
ATOM     62  N   UNL A   1      40.833  28.179  31.164  1.00  0.00    -0.354 N 
ATOM     63  N   UNL A   1      42.936  31.934  31.699  1.00  0.00    -0.248 NA
ATOM     64  C   UNL A   1      43.166  31.315  29.463  1.00  0.00     0.031 C 
ATOM     65  C   UNL A   1      39.622  28.534  32.942  1.00  0.00     0.029 A 
ATOM     66  C   UNL A   1      40.759  28.982  32.267  1.00  0.00     0.049 A 
ATOM     67  H   UNL A   1      41.653  27.982  30.655  1.00  0.00     0.167 HD
ATOM     68  C   UNL A   1      42.505  30.621  31.575  1.00  0.00     0.074 A 
ATOM     69  C   UNL A   1      42.809  30.255  30.192  1.00  0.00     0.031 C 
ATOM     70  C   UNL A   1      41.668  30.080  32.509  1.00  0.00     0.034 A 
BRANCH  57  71
ATOM     71  C   UNL A   1      40.105  26.972  28.456  1.00  0.00     0.023 A 
ATOM     72  C   UNL A   1      40.192  25.565  28.529  1.00  0.00     0.012 A 
ATOM     73  C   UNL A   1      41.062  27.627  27.641  1.00  0.00     0.148 A 
ATOM     74  C   UNL A   1      41.203  24.857  27.868  1.00  0.00     0.002 A 
ATOM     75  C   UNL A   1      42.004  26.913  26.912  1.00  0.00     0.091 A 
ATOM     76  F   UNL A   1      41.176  28.956  27.669  1.00  0.00    -0.205 F 
ATOM     77  C   UNL A   1      42.102  25.529  27.049  1.00  0.00     0.022 A 
BRANCH  75  78
ATOM     78  S   UNL A   1      43.154  27.735  25.801  1.00  0.00     0.127 S 
ATOM     79  O   UNL A   1      44.217  26.740  25.694  1.00  0.00    -0.237 OA
ATOM     80  O   UNL A   1      42.335  27.904  24.602  1.00  0.00    -0.237 OA
ATOM     81  O   UNL A   1      43.513  28.986  26.459  1.00  0.00    -0.744 OA
ENDBRANCH  75  78
ENDBRANCH  57  71
BRANCH  58  82
ATOM     82  C   UNL A   1      43.520  34.602  29.320  1.00  0.00     0.023 A 
ATOM     83  C   UNL A   1      44.230  35.584  30.046  1.00  0.00     0.012 A 
ATOM     84  C   UNL A   1      43.952  34.311  28.008  1.00  0.00     0.148 A 
ATOM     85  C   UNL A   1      45.355  36.216  29.504  1.00  0.00     0.002 A 
ATOM     86  C   UNL A   1      45.068  34.946  27.470  1.00  0.00     0.091 A 
ATOM     87  F   UNL A   1      43.332  33.343  27.324  1.00  0.00    -0.205 F 
ATOM     88  C   UNL A   1      45.782  35.888  28.220  1.00  0.00     0.022 A 
BRANCH  86  89
ATOM     89  S   UNL A   1      45.692  34.548  25.832  1.00  0.00     0.127 S 
ATOM     90  O   UNL A   1      44.475  34.608  25.022  1.00  0.00    -0.237 OA
ATOM     91  O   UNL A   1      46.640  35.634  25.597  1.00  0.00    -0.237 OA
ATOM     92  O   UNL A   1      46.273  33.215  25.939  1.00  0.00    -0.744 OA
ENDBRANCH  86  89
ENDBRANCH  58  82
BRANCH  70  93
ATOM     93  C   UNL A   1      41.533  30.802  33.828  1.00  0.00     0.023 A 
ATOM     94  C   UNL A   1      42.462  30.673  34.882  1.00  0.00     0.012 A 
ATOM     95  C   UNL A   1      40.479  31.719  33.963  1.00  0.00     0.148 A 
ATOM     96  C   UNL A   1      42.313  31.412  36.061  1.00  0.00     0.002 A 
ATOM     97  C   UNL A   1      40.361  32.486  35.114  1.00  0.00     0.091 A 
ATOM     98  F   UNL A   1      39.603  31.833  32.952  1.00  0.00    -0.205 F 
ATOM     99  C   UNL A   1      41.269  32.327  36.172  1.00  0.00     0.022 A 
BRANCH  97 100
ATOM    100  S   UNL A   1      39.101  33.751  35.260  1.00  0.00     0.127 S 
ATOM    101  O   UNL A   1      39.334  34.260  36.609  1.00  0.00    -0.237 OA
ATOM    102  O   UNL A   1      39.457  34.680  34.185  1.00  0.00    -0.237 OA
ATOM    103  O   UNL A   1      37.828  33.069  35.054  1.00  0.00    -0.744 OA
ENDBRANCH  97 100
ENDBRANCH  70  93
ENDBRANCH  44  45
ENDBRANCH  37  39
ENDBRANCH  36  37
ENDBRANCH  35  36
ENDBRANCH  34  35
ENDBRANCH  33  34
ENDBRANCH   1  33
TORSDOF 22
ENDMDL
MODEL 2
REMARK VINA RESULT:     -11.8      3.298      8.754
REMARK SMILES NS(=O)(=O)c1ccc(-n2nc(C(=O)NCCCC(=O)OCCOC(=O)c3ccc(-c4c5nc(c(-c6cccc(S(=O)(=O)[O-])c6F)c6ccc([nH]6)c(-c6cccc(S(=O)(=O)[O-])c6F)c6nc(c(-c7cccc(S(=O)(=O)[O-])c7F)c7ccc4[nH]7)C=C6)C=C5)cc3)cc2-c2ccccc2)cc1
REMARK SMILES IDX 18 1 19 2 17 3 16 4 15 5 14 6 12 7 13 8 11 10 9 11 10 12
REMARK SMILES IDX 90 13 89 14 8 15 5 16 6 17 98 18 7 19 97 20 2 21 3 22 4 23
REMARK SMILES IDX 1 24 91 27 92 28 96 29 93 30 95 31 94 32 20 33 21 34 22 35
REMARK SMILES IDX 23 36 24 37 25 38 26 39 27 40 88 41 28 42 87 43 29 44 30 45
REMARK SMILES IDX 31 46 81 47 32 48 86 49 80 50 82 51 33 52 85 53 79 54 78 55
REMARK SMILES IDX 34 57 66 58 46 59 65 60 47 61 50 62 64 63 83 64 48 65 49 66
REMARK SMILES IDX 63 68 84 69 51 70 35 71 36 72 44 73 37 74 39 75 45 76 38 77
REMARK SMILES IDX 40 78 41 79 42 80 43 81 67 82 68 83 76 84 69 85 71 86 77 87
REMARK SMILES IDX 70 88 72 89 73 90 74 91 75 92 52 93 53 94 61 95 54 96 56 97
REMARK SMILES IDX 62 98 55 99 57 100 58 101 59 102 60 103
REMARK H PARENT 14 9 1 25 1 26 82 56 50 67
REMARK Flexibility Score: inf
ROOT
ATOM      1  C   UNL A   1      38.006  21.056  25.410  1.00  0.00     0.305 C 
ATOM      2  O   UNL A   1      37.928  19.957  24.876  1.00  0.00    -0.252 OA
ENDROOT
BRANCH   1   3
ATOM      3  C   UNL A   1      36.803  21.943  25.641  1.00  0.00     0.124 C 
BRANCH   3   4
ATOM      4  C   UNL A   1      35.739  22.017  24.548  1.00  0.00     0.033 C 
BRANCH   4   5
ATOM      5  C   UNL A   1      34.279  21.874  24.967  1.00  0.00     0.117 C 
BRANCH   5   6
ATOM      6  N   UNL A   1      33.403  21.593  23.842  1.00  0.00    -0.351 N 
ATOM      7  C   UNL A   1      32.355  22.312  23.309  1.00  0.00     0.271 C 
ATOM      8  O   UNL A   1      31.672  21.742  22.454  1.00  0.00    -0.267 OA
ATOM      9  H   UNL A   1      33.591  20.743  23.381  1.00  0.00     0.163 HD
BRANCH   7  10
ATOM     10  C   UNL A   1      32.094  23.706  23.728  1.00  0.00     0.151 A 
ATOM     11  N   UNL A   1      31.193  25.651  23.736  1.00  0.00    -0.232 N 
ATOM     12  N   UNL A   1      31.021  24.391  23.272  1.00  0.00    -0.162 NA
ATOM     13  C   UNL A   1      32.178  25.718  24.708  1.00  0.00     0.075 A 
ATOM     14  C   UNL A   1      32.870  24.535  24.581  1.00  0.00     0.065 A 
BRANCH  11  15
ATOM     15  C   UNL A   1      30.422  26.736  23.246  1.00  0.00     0.065 A 
ATOM     16  C   UNL A   1      29.031  29.055  22.618  1.00  0.00     0.082 A 
ATOM     17  C   UNL A   1      30.368  28.933  22.234  1.00  0.00     0.024 A 
ATOM     18  C   UNL A   1      28.371  28.003  23.267  1.00  0.00     0.024 A 
ATOM     19  C   UNL A   1      31.064  27.773  22.550  1.00  0.00     0.030 A 
ATOM     20  C   UNL A   1      29.061  26.821  23.557  1.00  0.00     0.030 A 
BRANCH  16  21
ATOM     21  S   UNL A   1      28.232  30.596  22.291  1.00  0.00     0.238 S 
ATOM     22  O   UNL A   1      27.372  30.911  23.397  1.00  0.00    -0.207 OA
ATOM     23  O   UNL A   1      27.769  30.589  20.915  1.00  0.00    -0.207 OA
BRANCH  21  24
ATOM     24  N   UNL A   1      29.465  31.737  22.324  1.00  0.00    -0.225 NA
ATOM     25  H   UNL A   1      29.713  31.942  23.292  1.00  0.00     0.137 HD
ATOM     26  H   UNL A   1      29.149  32.592  21.866  1.00  0.00     0.137 HD
ENDBRANCH  21  24
ENDBRANCH  16  21
ENDBRANCH  11  15
BRANCH  13  27
ATOM     27  C   UNL A   1      32.364  26.811  25.668  1.00  0.00     0.000 A 
ATOM     28  C   UNL A   1      31.392  27.086  26.645  1.00  0.00     0.010 A 
ATOM     29  C   UNL A   1      33.534  27.575  25.646  1.00  0.00     0.010 A 
ATOM     30  C   UNL A   1      31.569  28.130  27.553  1.00  0.00     0.001 A 
ATOM     31  C   UNL A   1      33.716  28.612  26.563  1.00  0.00     0.001 A 
ATOM     32  C   UNL A   1      32.733  28.893  27.510  1.00  0.00     0.000 A 
ENDBRANCH  13  27
ENDBRANCH   7  10
ENDBRANCH   5   6
ENDBRANCH   4   5
ENDBRANCH   3   4
ENDBRANCH   1   3
BRANCH   1  33
ATOM     33  O   UNL A   1      39.169  21.666  25.760  1.00  0.00    -0.462 OA
BRANCH  33  34
ATOM     34  C   UNL A   1      40.177  20.826  26.357  1.00  0.00     0.274 C 
BRANCH  34  35
ATOM     35  C   UNL A   1      40.731  21.433  27.639  1.00  0.00     0.275 C 
BRANCH  35  36
ATOM     36  O   UNL A   1      42.024  22.001  27.439  1.00  0.00    -0.458 OA
BRANCH  36  37
ATOM     37  C   UNL A   1      42.030  23.115  26.677  1.00  0.00     0.338 C 
ATOM     38  O   UNL A   1      42.423  23.209  25.526  1.00  0.00    -0.246 OA
BRANCH  37  39
ATOM     39  C   UNL A   1      41.716  24.285  27.498  1.00  0.00     0.060 A 
ATOM     40  C   UNL A   1      40.684  25.126  27.073  1.00  0.00     0.016 A 
ATOM     41  C   UNL A   1      42.614  24.664  28.505  1.00  0.00     0.016 A 
ATOM     42  C   UNL A   1      40.636  26.413  27.571  1.00  0.00     0.010 A 
ATOM     43  C   UNL A   1      42.577  25.952  28.984  1.00  0.00     0.010 A 
ATOM     44  C   UNL A   1      41.624  26.830  28.471  1.00  0.00    -0.014 A 
BRANCH  44  45
ATOM     45  C   UNL A   1      41.515  28.156  29.050  1.00  0.00     0.031 A 
ATOM     46  C   UNL A   1      42.498  29.086  28.446  1.00  0.00     0.074 A 
ATOM     47  C   UNL A   1      40.543  28.504  29.917  1.00  0.00     0.049 A 
ATOM     48  N   UNL A   1      43.536  29.599  29.019  1.00  0.00    -0.248 NA
ATOM     49  C   UNL A   1      42.458  29.289  26.987  1.00  0.00     0.031 C 
ATOM     50  C   UNL A   1      39.399  27.688  30.334  1.00  0.00     0.029 A 
ATOM     51  N   UNL A   1      40.288  29.711  30.501  1.00  0.00    -0.354 N 
ATOM     52  C   UNL A   1      44.087  30.437  28.056  1.00  0.00     0.074 A 
ATOM     53  C   UNL A   1      43.564  30.006  26.790  1.00  0.00     0.031 C 
ATOM     54  C   UNL A   1      38.458  28.490  30.882  1.00  0.00     0.029 A 
ATOM     55  C   UNL A   1      38.976  29.844  30.960  1.00  0.00     0.049 A 
ATOM     56  H   UNL A   1      40.964  30.421  30.591  1.00  0.00     0.167 HD
ATOM     57  C   UNL A   1      44.614  31.636  28.423  1.00  0.00     0.034 A 
ATOM     58  C   UNL A   1      38.341  30.999  31.293  1.00  0.00     0.034 A 
ATOM     59  C   UNL A   1      44.912  31.665  29.834  1.00  0.00     0.049 A 
ATOM     60  C   UNL A   1      39.382  32.011  31.564  1.00  0.00     0.074 A 
ATOM     61  C   UNL A   1      45.671  30.901  30.697  1.00  0.00     0.029 A 
ATOM     62  N   UNL A   1      44.035  32.373  30.615  1.00  0.00    -0.354 N 
ATOM     63  N   UNL A   1      40.193  31.954  32.582  1.00  0.00    -0.248 NA
ATOM     64  C   UNL A   1      39.804  32.875  30.475  1.00  0.00     0.031 C 
ATOM     65  C   UNL A   1      44.933  30.873  31.917  1.00  0.00     0.029 A 
ATOM     66  C   UNL A   1      43.804  31.680  31.769  1.00  0.00     0.049 A 
ATOM     67  H   UNL A   1      43.636  33.243  30.381  1.00  0.00     0.167 HD
ATOM     68  C   UNL A   1      41.417  32.339  32.054  1.00  0.00     0.074 A 
ATOM     69  C   UNL A   1      41.087  33.032  30.809  1.00  0.00     0.031 C 
ATOM     70  C   UNL A   1      42.573  31.783  32.522  1.00  0.00     0.034 A 
BRANCH  57  71
ATOM     71  C   UNL A   1      44.405  32.914  27.634  1.00  0.00     0.023 A 
ATOM     72  C   UNL A   1      45.195  33.090  26.477  1.00  0.00     0.012 A 
ATOM     73  C   UNL A   1      43.718  34.057  28.114  1.00  0.00     0.148 A 
ATOM     74  C   UNL A   1      45.330  34.341  25.864  1.00  0.00     0.002 A 
ATOM     75  C   UNL A   1      43.780  35.274  27.447  1.00  0.00     0.091 A 
ATOM     76  F   UNL A   1      43.111  34.031  29.302  1.00  0.00    -0.205 F 
ATOM     77  C   UNL A   1      44.614  35.431  26.341  1.00  0.00     0.022 A 
BRANCH  75  78
ATOM     78  S   UNL A   1      42.831  36.698  27.999  1.00  0.00     0.127 S 
ATOM     79  O   UNL A   1      43.275  37.724  27.062  1.00  0.00    -0.237 OA
ATOM     80  O   UNL A   1      41.459  36.229  27.805  1.00  0.00    -0.237 OA
ATOM     81  O   UNL A   1      43.199  36.902  29.395  1.00  0.00    -0.744 OA
ENDBRANCH  75  78
ENDBRANCH  57  71
BRANCH  58  82
ATOM     82  C   UNL A   1      36.918  31.397  31.136  1.00  0.00     0.023 A 
ATOM     83  C   UNL A   1      36.149  31.705  32.280  1.00  0.00     0.012 A 
ATOM     84  C   UNL A   1      36.407  31.776  29.876  1.00  0.00     0.148 A 
ATOM     85  C   UNL A   1      34.942  32.406  32.176  1.00  0.00     0.002 A 
ATOM     86  C   UNL A   1      35.203  32.467  29.776  1.00  0.00     0.091 A 
ATOM     87  F   UNL A   1      37.146  31.548  28.783  1.00  0.00    -0.205 F 
ATOM     88  C   UNL A   1      34.474  32.799  30.925  1.00  0.00     0.022 A 
BRANCH  86  89
ATOM     89  S   UNL A   1      34.557  33.032  28.196  1.00  0.00     0.127 S 
ATOM     90  O   UNL A   1      33.496  33.949  28.613  1.00  0.00    -0.237 OA
ATOM     91  O   UNL A   1      35.726  33.675  27.603  1.00  0.00    -0.237 OA
ATOM     92  O   UNL A   1      34.079  31.837  27.511  1.00  0.00    -0.744 OA
ENDBRANCH  86  89
ENDBRANCH  58  82
BRANCH  70  93
ATOM     93  C   UNL A   1      42.512  31.045  33.837  1.00  0.00     0.023 A 
ATOM     94  C   UNL A   1      42.598  31.686  35.091  1.00  0.00     0.012 A 
ATOM     95  C   UNL A   1      42.258  29.665  33.799  1.00  0.00     0.148 A 
ATOM     96  C   UNL A   1      42.477  30.954  36.278  1.00  0.00     0.002 A 
ATOM     97  C   UNL A   1      42.091  28.950  34.976  1.00  0.00     0.091 A 
ATOM     98  F   UNL A   1      42.178  29.068  32.599  1.00  0.00    -0.205 F 
ATOM     99  C   UNL A   1      42.213  29.588  36.221  1.00  0.00     0.022 A 
BRANCH  97 100
ATOM    100  S   UNL A   1      41.644  27.215  34.952  1.00  0.00     0.127 S 
ATOM    101  O   UNL A   1      40.474  27.213  34.076  1.00  0.00    -0.237 OA
ATOM    102  O   UNL A   1      42.837  26.587  34.382  1.00  0.00    -0.237 OA
ATOM    103  O   UNL A   1      41.390  26.851  36.342  1.00  0.00    -0.744 OA
ENDBRANCH  97 100
ENDBRANCH  70  93
ENDBRANCH  44  45
ENDBRANCH  37  39
ENDBRANCH  36  37
ENDBRANCH  35  36
ENDBRANCH  34  35
ENDBRANCH  33  34
ENDBRANCH   1  33
TORSDOF 22
ENDMDL
MODEL 3
REMARK VINA RESULT:     -11.7      1.785      2.135
REMARK SMILES NS(=O)(=O)c1ccc(-n2nc(C(=O)NCCCC(=O)OCCOC(=O)c3ccc(-c4c5nc(c(-c6cccc(S(=O)(=O)[O-])c6F)c6ccc([nH]6)c(-c6cccc(S(=O)(=O)[O-])c6F)c6nc(c(-c7cccc(S(=O)(=O)[O-])c7F)c7ccc4[nH]7)C=C6)C=C5)cc3)cc2-c2ccccc2)cc1
REMARK SMILES IDX 18 1 19 2 17 3 16 4 15 5 14 6 12 7 13 8 11 10 9 11 10 12
REMARK SMILES IDX 90 13 89 14 8 15 5 16 6 17 98 18 7 19 97 20 2 21 3 22 4 23
REMARK SMILES IDX 1 24 91 27 92 28 96 29 93 30 95 31 94 32 20 33 21 34 22 35
REMARK SMILES IDX 23 36 24 37 25 38 26 39 27 40 88 41 28 42 87 43 29 44 30 45
REMARK SMILES IDX 31 46 81 47 32 48 86 49 80 50 82 51 33 52 85 53 79 54 78 55
REMARK SMILES IDX 34 57 66 58 46 59 65 60 47 61 50 62 64 63 83 64 48 65 49 66
REMARK SMILES IDX 63 68 84 69 51 70 35 71 36 72 44 73 37 74 39 75 45 76 38 77
REMARK SMILES IDX 40 78 41 79 42 80 43 81 67 82 68 83 76 84 69 85 71 86 77 87
REMARK SMILES IDX 70 88 72 89 73 90 74 91 75 92 52 93 53 94 61 95 54 96 56 97
REMARK SMILES IDX 62 98 55 99 57 100 58 101 59 102 60 103
REMARK H PARENT 14 9 1 25 1 26 82 56 50 67
REMARK Flexibility Score: inf
ROOT
ATOM      1  C   UNL A   1      31.480  30.049  25.847  1.00  0.00     0.305 C 
ATOM      2  O   UNL A   1      31.806  29.536  26.910  1.00  0.00    -0.252 OA
ENDROOT
BRANCH   1   3
ATOM      3  C   UNL A   1      31.254  29.249  24.584  1.00  0.00     0.124 C 
BRANCH   3   4
ATOM      4  C   UNL A   1      30.794  27.800  24.721  1.00  0.00     0.033 C 
BRANCH   4   5
ATOM      5  C   UNL A   1      31.842  26.703  24.555  1.00  0.00     0.117 C 
BRANCH   5   6
ATOM      6  N   UNL A   1      32.504  26.757  23.262  1.00  0.00    -0.351 N 
ATOM      7  C   UNL A   1      33.438  25.923  22.687  1.00  0.00     0.271 C 
ATOM      8  O   UNL A   1      33.957  26.314  21.638  1.00  0.00    -0.267 OA
ATOM      9  H   UNL A   1      32.238  27.520  22.699  1.00  0.00     0.163 HD
BRANCH   7  10
ATOM     10  C   UNL A   1      33.766  24.614  23.291  1.00  0.00     0.151 A 
ATOM     11  N   UNL A   1      34.906  23.129  24.336  1.00  0.00    -0.232 N 
ATOM     12  N   UNL A   1      34.834  24.461  24.107  1.00  0.00    -0.162 NA
ATOM     13  C   UNL A   1      33.756  22.469  23.937  1.00  0.00     0.075 A 
ATOM     14  C   UNL A   1      33.109  23.366  23.118  1.00  0.00     0.065 A 
BRANCH  11  15
ATOM     15  C   UNL A   1      36.054  22.537  24.924  1.00  0.00     0.065 A 
ATOM     16  C   UNL A   1      38.513  21.627  25.838  1.00  0.00     0.082 A 
ATOM     17  C   UNL A   1      37.925  22.739  26.444  1.00  0.00     0.024 A 
ATOM     18  C   UNL A   1      37.853  20.937  24.812  1.00  0.00     0.024 A 
ATOM     19  C   UNL A   1      36.695  23.195  25.985  1.00  0.00     0.030 A 
ATOM     20  C   UNL A   1      36.600  21.375  24.370  1.00  0.00     0.030 A 
BRANCH  16  21
ATOM     21  S   UNL A   1      40.126  21.164  26.385  1.00  0.00     0.238 S 
ATOM     22  O   UNL A   1      40.368  19.801  26.002  1.00  0.00    -0.207 OA
ATOM     23  O   UNL A   1      40.302  21.638  27.746  1.00  0.00    -0.207 OA
BRANCH  21  24
ATOM     24  N   UNL A   1      41.179  22.097  25.466  1.00  0.00    -0.225 NA
ATOM     25  H   UNL A   1      40.642  22.735  24.879  1.00  0.00     0.137 HD
ATOM     26  H   UNL A   1      41.746  21.487  24.876  1.00  0.00     0.137 HD
ENDBRANCH  21  24
ENDBRANCH  16  21
ENDBRANCH  11  15
BRANCH  13  27
ATOM     27  C   UNL A   1      33.343  21.128  24.363  1.00  0.00     0.000 A 
ATOM     28  C   UNL A   1      32.854  20.195  23.432  1.00  0.00     0.010 A 
ATOM     29  C   UNL A   1      33.464  20.745  25.701  1.00  0.00     0.010 A 
ATOM     30  C   UNL A   1      32.456  18.922  23.841  1.00  0.00     0.001 A 
ATOM     31  C   UNL A   1      33.078  19.468  26.107  1.00  0.00     0.001 A 
ATOM     32  C   UNL A   1      32.567  18.560  25.180  1.00  0.00     0.000 A 
ENDBRANCH  13  27
ENDBRANCH   7  10
ENDBRANCH   5   6
ENDBRANCH   4   5
ENDBRANCH   3   4
ENDBRANCH   1   3
BRANCH   1  33
ATOM     33  O   UNL A   1      31.385  31.388  25.632  1.00  0.00    -0.462 OA
BRANCH  33  34
ATOM     34  C   UNL A   1      31.159  32.210  26.794  1.00  0.00     0.274 C 
BRANCH  34  35
ATOM     35  C   UNL A   1      32.430  32.920  27.240  1.00  0.00     0.275 C 
BRANCH  35  36
ATOM     36  O   UNL A   1      32.154  34.213  27.775  1.00  0.00    -0.458 OA
BRANCH  36  37
ATOM     37  C   UNL A   1      32.908  34.544  28.844  1.00  0.00     0.338 C 
ATOM     38  O   UNL A   1      32.753  35.510  29.574  1.00  0.00    -0.246 OA
BRANCH  37  39
ATOM     39  C   UNL A   1      34.110  33.712  28.887  1.00  0.00     0.060 A 
ATOM     40  C   UNL A   1      34.377  33.006  30.064  1.00  0.00     0.016 A 
ATOM     41  C   UNL A   1      35.070  33.860  27.877  1.00  0.00     0.016 A 
ATOM     42  C   UNL A   1      35.664  32.560  30.286  1.00  0.00     0.010 A 
ATOM     43  C   UNL A   1      36.356  33.433  28.110  1.00  0.00     0.010 A 
ATOM     44  C   UNL A   1      36.653  32.838  29.334  1.00  0.00    -0.014 A 
BRANCH  44  45
ATOM     45  C   UNL A   1      37.982  32.292  29.540  1.00  0.00     0.031 A 
ATOM     46  C   UNL A   1      38.031  30.855  29.180  1.00  0.00     0.074 A 
ATOM     47  C   UNL A   1      39.046  33.048  29.876  1.00  0.00     0.049 A 
ATOM     48  N   UNL A   1      38.172  29.856  29.987  1.00  0.00    -0.248 NA
ATOM     49  C   UNL A   1      37.654  30.467  27.809  1.00  0.00     0.031 C 
ATOM     50  C   UNL A   1      39.092  34.509  29.982  1.00  0.00     0.029 A 
ATOM     51  N   UNL A   1      40.350  32.687  30.055  1.00  0.00    -0.354 N 
ATOM     52  C   UNL A   1      38.214  28.741  29.158  1.00  0.00     0.074 A 
ATOM     53  C   UNL A   1      37.631  29.138  27.907  1.00  0.00     0.031 C 
ATOM     54  C   UNL A   1      40.381  34.916  29.949  1.00  0.00     0.029 A 
ATOM     55  C   UNL A   1      41.246  33.751  29.938  1.00  0.00     0.049 A 
ATOM     56  H   UNL A   1      40.632  31.763  30.248  1.00  0.00     0.167 HD
ATOM     57  C   UNL A   1      39.062  27.717  29.442  1.00  0.00     0.034 A 
ATOM     58  C   UNL A   1      42.591  33.669  29.756  1.00  0.00     0.034 A 
ATOM     59  C   UNL A   1      39.484  27.756  30.821  1.00  0.00     0.049 A 
ATOM     60  C   UNL A   1      43.012  32.321  30.190  1.00  0.00     0.074 A 
ATOM     61  C   UNL A   1      38.849  27.766  32.047  1.00  0.00     0.029 A 
ATOM     62  N   UNL A   1      40.758  28.214  31.042  1.00  0.00    -0.354 N 
ATOM     63  N   UNL A   1      42.975  31.921  31.428  1.00  0.00    -0.248 NA
ATOM     64  C   UNL A   1      43.086  31.268  29.193  1.00  0.00     0.031 C 
ATOM     65  C   UNL A   1      39.639  28.623  32.869  1.00  0.00     0.029 A 
ATOM     66  C   UNL A   1      40.754  29.033  32.136  1.00  0.00     0.049 A 
ATOM     67  H   UNL A   1      41.548  27.990  30.499  1.00  0.00     0.167 HD
ATOM     68  C   UNL A   1      42.507  30.618  31.342  1.00  0.00     0.074 A 
ATOM     69  C   UNL A   1      42.738  30.227  29.952  1.00  0.00     0.031 C 
ATOM     70  C   UNL A   1      41.701  30.111  32.321  1.00  0.00     0.034 A 
BRANCH  57  71
ATOM     71  C   UNL A   1      39.876  26.992  28.388  1.00  0.00     0.023 A 
ATOM     72  C   UNL A   1      39.852  25.581  28.417  1.00  0.00     0.012 A 
ATOM     73  C   UNL A   1      40.875  27.594  27.583  1.00  0.00     0.148 A 
ATOM     74  C   UNL A   1      40.798  24.816  27.725  1.00  0.00     0.002 A 
ATOM     75  C   UNL A   1      41.751  26.831  26.823  1.00  0.00     0.091 A 
ATOM     76  F   UNL A   1      41.094  28.908  27.650  1.00  0.00    -0.205 F 
ATOM     77  C   UNL A   1      41.741  25.439  26.917  1.00  0.00     0.022 A 
BRANCH  75  78
ATOM     78  S   UNL A   1      42.954  27.593  25.726  1.00  0.00     0.127 S 
ATOM     79  O   UNL A   1      43.755  28.370  26.666  1.00  0.00    -0.237 OA
ATOM     80  O   UNL A   1      43.620  26.421  25.160  1.00  0.00    -0.237 OA
ATOM     81  O   UNL A   1      42.177  28.361  24.760  1.00  0.00    -0.744 OA
ENDBRANCH  75  78
ENDBRANCH  57  71
BRANCH  58  82
ATOM     82  C   UNL A   1      43.514  34.543  28.988  1.00  0.00     0.023 A 
ATOM     83  C   UNL A   1      43.811  34.233  27.642  1.00  0.00     0.012 A 
ATOM     84  C   UNL A   1      43.852  35.830  29.458  1.00  0.00     0.148 A 
ATOM     85  C   UNL A   1      44.378  35.184  26.785  1.00  0.00     0.002 A 
ATOM     86  C   UNL A   1      44.421  36.772  28.605  1.00  0.00     0.091 A 
ATOM     87  F   UNL A   1      43.527  36.167  30.712  1.00  0.00    -0.205 F 
ATOM     88  C   UNL A   1      44.672  36.459  27.263  1.00  0.00     0.022 A 
BRANCH  86  89
ATOM     89  S   UNL A   1      44.796  38.445  29.147  1.00  0.00     0.127 S 
ATOM     90  O   UNL A   1      45.626  38.939  28.049  1.00  0.00    -0.237 OA
ATOM     91  O   UNL A   1      43.466  39.042  29.228  1.00  0.00    -0.237 OA
ATOM     92  O   UNL A   1      45.504  38.303  30.414  1.00  0.00    -0.744 OA
ENDBRANCH  86  89
ENDBRANCH  58  82
BRANCH  70  93
ATOM     93  C   UNL A   1      41.644  30.852  33.635  1.00  0.00     0.023 A 
ATOM     94  C   UNL A   1      40.693  31.855  33.919  1.00  0.00     0.012 A 
ATOM     95  C   UNL A   1      42.523  30.446  34.651  1.00  0.00     0.148 A 
ATOM     96  C   UNL A   1      40.653  32.468  35.176  1.00  0.00     0.002 A 
ATOM     97  C   UNL A   1      42.450  31.022  35.912  1.00  0.00     0.091 A 
ATOM     98  F   UNL A   1      43.422  29.491  34.367  1.00  0.00    -0.205 F 
ATOM     99  C   UNL A   1      41.525  32.043  36.177  1.00  0.00     0.022 A 
BRANCH  97 100
ATOM    100  S   UNL A   1      43.475  30.435  37.259  1.00  0.00     0.127 S 
ATOM    101  O   UNL A   1      42.897  31.130  38.407  1.00  0.00    -0.237 OA
ATOM    102  O   UNL A   1      43.237  28.991  37.234  1.00  0.00    -0.237 OA
ATOM    103  O   UNL A   1      44.841  30.816  36.914  1.00  0.00    -0.744 OA
ENDBRANCH  97 100
ENDBRANCH  70  93
ENDBRANCH  44  45
ENDBRANCH  37  39
ENDBRANCH  36  37
ENDBRANCH  35  36
ENDBRANCH  34  35
ENDBRANCH  33  34
ENDBRANCH   1  33
TORSDOF 22
ENDMDL
