MODEL 1
REMARK VINA RESULT:     -11.0      0.000      0.000
REMARK SMILES CCC[N@@H+]1CCO[C@H](c2nc(CC(=O)OCCOC(=O)c3ccc(-c4c5nc(c(-c6cccc(S(=O)(=O)[O-])c6F)c6ccc([nH]6)c(-c6cccc(S(=O)(=O)[O-])c6F)c6nc(c(-c7cccc(S(=O)(=O)[O-])c7F)c7ccc4[nH]7)C=C6)C=C5)cc3)cs2)C1
REMARK SMILES IDX 16 1 15 2 13 3 14 4 12 5 11 6 9 7 10 8 85 9 84 10 8 11 4 12
REMARK SMILES IDX 5 13 86 14 6 16 7 17 3 18 2 19 1 20 17 21 18 22 19 23 20 24
REMARK SMILES IDX 21 25 22 26 83 27 23 28 82 29 24 30 25 31 26 32 76 33 27 34
REMARK SMILES IDX 81 35 75 36 77 37 28 38 80 39 74 40 73 41 29 43 61 44 41 45
REMARK SMILES IDX 60 46 42 47 45 48 59 49 78 50 43 51 44 52 58 54 79 55 46 56
REMARK SMILES IDX 30 57 31 58 39 59 32 60 34 61 40 62 33 63 35 64 36 65 37 66
REMARK SMILES IDX 38 67 62 68 63 69 71 70 64 71 66 72 72 73 65 74 67 75 68 76
REMARK SMILES IDX 69 77 70 78 47 79 48 80 56 81 49 82 51 83 57 84 50 85 52 86
REMARK SMILES IDX 53 87 54 88 55 89
REMARK H PARENT 4 15 77 42 45 53
REMARK Flexibility Score: inf
ROOT
ATOM      1  C   UNL A   1      31.504  29.327  24.287  1.00  0.00     0.274 C 
ENDROOT
BRANCH   1   2
ATOM      2  O   UNL A   1      30.192  28.779  24.058  1.00  0.00    -0.462 OA
BRANCH   2   3
ATOM      3  C   UNL A   1      30.088  27.801  23.114  1.00  0.00     0.312 C 
ATOM      4  O   UNL A   1      30.605  27.853  22.005  1.00  0.00    -0.252 OA
BRANCH   3   5
ATOM      5  C   UNL A   1      29.252  26.621  23.574  1.00  0.00     0.179 C 
BRANCH   5   6
ATOM      6  C   UNL A   1      29.981  25.678  24.477  1.00  0.00     0.063 A 
ATOM      7  C   UNL A   1      31.163  23.830  24.873  1.00  0.00     0.128 A 
ATOM      8  N   UNL A   1      30.668  24.606  23.922  1.00  0.00    -0.243 NA
ATOM      9  S   UNL A   1      30.619  24.249  26.459  1.00  0.00    -0.124 S 
ATOM     10  C   UNL A   1      30.079  25.749  25.853  1.00  0.00     0.091 A 
BRANCH   7  11
ATOM     11  C   UNL A   1      32.030  22.607  24.643  1.00  0.00     0.232 C 
ATOM     12  N   UNL A   1      34.459  23.420  24.153  1.00  0.00    -0.331 N 
ATOM     13  C   UNL A   1      34.194  22.970  22.774  1.00  0.00     0.291 C 
ATOM     14  C   UNL A   1      33.523  22.715  25.067  1.00  0.00     0.302 C 
ATOM     15  H   UNL A   1      35.413  23.176  24.420  1.00  0.00     0.348 HD
ATOM     16  C   UNL A   1      32.708  23.003  22.385  1.00  0.00     0.222 C 
ATOM     17  O   UNL A   1      31.923  22.185  23.263  1.00  0.00    -0.359 OA
BRANCH  12  18
ATOM     18  C   UNL A   1      34.412  24.884  24.280  1.00  0.00     0.262 C 
BRANCH  18  19
ATOM     19  C   UNL A   1      34.276  25.323  25.740  1.00  0.00     0.058 C 
ATOM     20  C   UNL A   1      33.657  26.699  25.901  1.00  0.00     0.010 C 
ENDBRANCH  18  19
ENDBRANCH  12  18
ENDBRANCH   7  11
ENDBRANCH   5   6
ENDBRANCH   3   5
ENDBRANCH   2   3
ENDBRANCH   1   2
BRANCH   1  21
ATOM     21  C   UNL A   1      31.591  29.875  25.711  1.00  0.00     0.275 C 
BRANCH  21  22
ATOM     22  O   UNL A   1      32.941  30.295  25.968  1.00  0.00    -0.458 OA
BRANCH  22  23
ATOM     23  C   UNL A   1      33.092  31.264  26.897  1.00  0.00     0.338 C 
ATOM     24  O   UNL A   1      32.323  32.189  27.124  1.00  0.00    -0.246 OA
BRANCH  23  25
ATOM     25  C   UNL A   1      34.350  31.043  27.630  1.00  0.00     0.060 A 
ATOM     26  C   UNL A   1      35.214  32.106  27.918  1.00  0.00     0.016 A 
ATOM     27  C   UNL A   1      34.684  29.742  28.002  1.00  0.00     0.016 A 
ATOM     28  C   UNL A   1      36.422  31.864  28.573  1.00  0.00     0.010 A 
ATOM     29  C   UNL A   1      35.867  29.510  28.705  1.00  0.00     0.010 A 
ATOM     30  C   UNL A   1      36.753  30.566  28.987  1.00  0.00    -0.014 A 
BRANCH  30  31
ATOM     31  C   UNL A   1      38.008  30.284  29.730  1.00  0.00     0.031 A 
ATOM     32  C   UNL A   1      39.012  29.313  29.171  1.00  0.00     0.074 A 
ATOM     33  C   UNL A   1      38.198  30.824  30.949  1.00  0.00     0.049 A 
ATOM     34  N   UNL A   1      40.073  28.803  29.740  1.00  0.00    -0.248 NA
ATOM     35  C   UNL A   1      38.783  28.841  27.795  1.00  0.00     0.031 C 
ATOM     36  C   UNL A   1      37.287  31.761  31.610  1.00  0.00     0.029 A 
ATOM     37  N   UNL A   1      39.198  30.628  31.869  1.00  0.00    -0.354 N 
ATOM     38  C   UNL A   1      40.609  27.913  28.818  1.00  0.00     0.074 A 
ATOM     39  C   UNL A   1      39.758  27.954  27.648  1.00  0.00     0.031 C 
ATOM     40  C   UNL A   1      37.755  32.036  32.838  1.00  0.00     0.029 A 
ATOM     41  C   UNL A   1      38.971  31.263  33.069  1.00  0.00     0.049 A 
ATOM     42  H   UNL A   1      40.000  30.086  31.688  1.00  0.00     0.167 HD
ATOM     43  C   UNL A   1      41.715  27.140  28.931  1.00  0.00     0.034 A 
ATOM     44  C   UNL A   1      39.641  31.200  34.236  1.00  0.00     0.034 A 
ATOM     45  C   UNL A   1      42.586  27.138  30.077  1.00  0.00     0.049 A 
ATOM     46  C   UNL A   1      40.873  30.341  34.330  1.00  0.00     0.074 A 
ATOM     47  C   UNL A   1      43.771  26.445  30.254  1.00  0.00     0.029 A 
ATOM     48  N   UNL A   1      42.366  27.858  31.240  1.00  0.00    -0.354 N 
ATOM     49  N   UNL A   1      41.432  29.599  33.405  1.00  0.00    -0.248 NA
ATOM     50  C   UNL A   1      41.579  30.328  35.619  1.00  0.00     0.031 C 
ATOM     51  C   UNL A   1      44.260  26.735  31.531  1.00  0.00     0.029 A 
ATOM     52  C   UNL A   1      43.388  27.620  32.143  1.00  0.00     0.049 A 
ATOM     53  H   UNL A   1      41.598  28.452  31.400  1.00  0.00     0.167 HD
ATOM     54  C   UNL A   1      42.569  29.054  33.991  1.00  0.00     0.074 A 
ATOM     55  C   UNL A   1      42.632  29.571  35.343  1.00  0.00     0.031 C 
ATOM     56  C   UNL A   1      43.469  28.186  33.465  1.00  0.00     0.034 A 
BRANCH  43  57
ATOM     57  C   UNL A   1      42.080  26.255  27.769  1.00  0.00     0.023 A 
ATOM     58  C   UNL A   1      42.944  26.745  26.769  1.00  0.00     0.012 A 
ATOM     59  C   UNL A   1      41.637  24.919  27.709  1.00  0.00     0.148 A 
ATOM     60  C   UNL A   1      43.346  25.925  25.715  1.00  0.00     0.002 A 
ATOM     61  C   UNL A   1      42.071  24.097  26.675  1.00  0.00     0.091 A 
ATOM     62  F   UNL A   1      40.799  24.480  28.658  1.00  0.00    -0.205 F 
ATOM     63  C   UNL A   1      42.919  24.600  25.674  1.00  0.00     0.022 A 
BRANCH  61  64
ATOM     64  S   UNL A   1      41.634  22.357  26.572  1.00  0.00     0.127 S 
ATOM     65  O   UNL A   1      42.359  21.942  25.371  1.00  0.00    -0.237 OA
ATOM     66  O   UNL A   1      42.176  21.828  27.825  1.00  0.00    -0.237 OA
ATOM     67  O   UNL A   1      40.183  22.314  26.473  1.00  0.00    -0.744 OA
ENDBRANCH  61  64
ENDBRANCH  43  57
BRANCH  44  68
ATOM     68  C   UNL A   1      39.175  31.999  35.404  1.00  0.00     0.023 A 
ATOM     69  C   UNL A   1      39.395  33.390  35.420  1.00  0.00     0.012 A 
ATOM     70  C   UNL A   1      38.492  31.401  36.479  1.00  0.00     0.148 A 
ATOM     71  C   UNL A   1      38.964  34.166  36.498  1.00  0.00     0.002 A 
ATOM     72  C   UNL A   1      38.016  32.186  37.523  1.00  0.00     0.091 A 
ATOM     73  F   UNL A   1      38.312  30.072  36.460  1.00  0.00    -0.205 F 
ATOM     74  C   UNL A   1      38.266  33.567  37.542  1.00  0.00     0.022 A 
BRANCH  72  75
ATOM     75  S   UNL A   1      36.991  31.510  38.834  1.00  0.00     0.127 S 
ATOM     76  O   UNL A   1      37.870  31.624  39.993  1.00  0.00    -0.237 OA
ATOM     77  O   UNL A   1      35.848  32.426  38.835  1.00  0.00    -0.237 OA
ATOM     78  O   UNL A   1      36.665  30.155  38.408  1.00  0.00    -0.744 OA
ENDBRANCH  72  75
ENDBRANCH  44  68
BRANCH  56  79
ATOM     79  C   UNL A   1      44.617  27.755  34.339  1.00  0.00     0.023 A 
ATOM     80  C   UNL A   1      45.797  28.523  34.363  1.00  0.00     0.012 A 
ATOM     81  C   UNL A   1      44.496  26.640  35.191  1.00  0.00     0.148 A 
ATOM     82  C   UNL A   1      46.853  28.170  35.204  1.00  0.00     0.002 A 
ATOM     83  C   UNL A   1      45.535  26.320  36.056  1.00  0.00     0.091 A 
ATOM     84  F   UNL A   1      43.372  25.911  35.137  1.00  0.00    -0.205 F 
ATOM     85  C   UNL A   1      46.718  27.078  36.057  1.00  0.00     0.022 A 
BRANCH  83  86
ATOM     86  S   UNL A   1      45.411  24.986  37.253  1.00  0.00     0.127 S 
ATOM     87  O   UNL A   1      44.394  25.499  38.169  1.00  0.00    -0.237 OA
ATOM     88  O   UNL A   1      44.973  23.861  36.425  1.00  0.00    -0.237 OA
ATOM     89  O   UNL A   1      46.745  24.832  37.818  1.00  0.00    -0.744 OA
ENDBRANCH  83  86
ENDBRANCH  56  79
ENDBRANCH  30  31
ENDBRANCH  23  25
ENDBRANCH  22  23
ENDBRANCH  21  22
ENDBRANCH   1  21
TORSDOF 18
ENDMDL
MODEL 2
REMARK VINA RESULT:     -10.7      1.677      2.088
REMARK SMILES CCC[N@@H+]1CCO[C@H](c2nc(CC(=O)OCCOC(=O)c3ccc(-c4c5nc(c(-c6cccc(S(=O)(=O)[O-])c6F)c6ccc([nH]6)c(-c6cccc(S(=O)(=O)[O-])c6F)c6nc(c(-c7cccc(S(=O)(=O)[O-])c7F)c7ccc4[nH]7)C=C6)C=C5)cc3)cs2)C1
REMARK SMILES IDX 16 1 15 2 13 3 14 4 12 5 11 6 9 7 10 8 85 9 84 10 8 11 4 12
REMARK SMILES IDX 5 13 86 14 6 16 7 17 3 18 2 19 1 20 17 21 18 22 19 23 20 24
REMARK SMILES IDX 21 25 22 26 83 27 23 28 82 29 24 30 25 31 26 32 76 33 27 34
REMARK SMILES IDX 81 35 75 36 77 37 28 38 80 39 74 40 73 41 29 43 61 44 41 45
REMARK SMILES IDX 60 46 42 47 45 48 59 49 78 50 43 51 44 52 58 54 79 55 46 56
REMARK SMILES IDX 30 57 31 58 39 59 32 60 34 61 40 62 33 63 35 64 36 65 37 66
REMARK SMILES IDX 38 67 62 68 63 69 71 70 64 71 66 72 72 73 65 74 67 75 68 76
REMARK SMILES IDX 69 77 70 78 47 79 48 80 56 81 49 82 51 83 57 84 50 85 52 86
REMARK SMILES IDX 53 87 54 88 55 89
REMARK H PARENT 4 15 77 42 45 53
REMARK Flexibility Score: inf
ROOT
ATOM      1  C   UNL A   1      31.538  28.277  25.030  1.00  0.00     0.274 C 
ENDROOT
BRANCH   1   2
ATOM      2  O   UNL A   1      31.499  28.066  23.606  1.00  0.00    -0.462 OA
BRANCH   2   3
ATOM      3  C   UNL A   1      30.632  27.121  23.146  1.00  0.00     0.312 C 
ATOM      4  O   UNL A   1      29.464  27.020  23.503  1.00  0.00    -0.252 OA
BRANCH   3   5
ATOM      5  C   UNL A   1      31.262  26.182  22.134  1.00  0.00     0.179 C 
BRANCH   5   6
ATOM      6  C   UNL A   1      32.334  25.308  22.704  1.00  0.00     0.063 A 
ATOM      7  C   UNL A   1      33.077  23.393  23.568  1.00  0.00     0.128 A 
ATOM      8  N   UNL A   1      32.046  23.979  22.981  1.00  0.00    -0.243 NA
ATOM      9  S   UNL A   1      34.338  24.491  24.005  1.00  0.00    -0.124 S 
ATOM     10  C   UNL A   1      33.639  25.664  22.983  1.00  0.00     0.091 A 
BRANCH   7  11
ATOM     11  C   UNL A   1      33.150  21.928  23.953  1.00  0.00     0.232 C 
ATOM     12  N   UNL A   1      32.437  21.715  26.453  1.00  0.00    -0.331 N 
ATOM     13  C   UNL A   1      33.860  21.414  26.700  1.00  0.00     0.291 C 
ATOM     14  C   UNL A   1      32.137  21.432  25.025  1.00  0.00     0.302 C 
ATOM     15  H   UNL A   1      31.851  21.111  27.029  1.00  0.00     0.348 HD
ATOM     16  C   UNL A   1      34.813  22.036  25.667  1.00  0.00     0.222 C 
ATOM     17  O   UNL A   1      34.504  21.591  24.340  1.00  0.00    -0.359 OA
BRANCH  12  18
ATOM     18  C   UNL A   1      32.074  23.076  26.871  1.00  0.00     0.262 C 
BRANCH  18  19
ATOM     19  C   UNL A   1      30.632  23.420  26.492  1.00  0.00     0.058 C 
ATOM     20  C   UNL A   1      30.429  24.886  26.154  1.00  0.00     0.010 C 
ENDBRANCH  18  19
ENDBRANCH  12  18
ENDBRANCH   7  11
ENDBRANCH   5   6
ENDBRANCH   3   5
ENDBRANCH   2   3
ENDBRANCH   1   2
BRANCH   1  21
ATOM     21  C   UNL A   1      31.624  29.775  25.325  1.00  0.00     0.275 C 
BRANCH  21  22
ATOM     22  O   UNL A   1      32.956  30.088  25.764  1.00  0.00    -0.458 OA
BRANCH  22  23
ATOM     23  C   UNL A   1      33.054  31.027  26.730  1.00  0.00     0.338 C 
ATOM     24  O   UNL A   1      32.240  31.904  26.987  1.00  0.00    -0.246 OA
BRANCH  23  25
ATOM     25  C   UNL A   1      34.317  30.839  27.464  1.00  0.00     0.060 A 
ATOM     26  C   UNL A   1      35.174  31.917  27.714  1.00  0.00     0.016 A 
ATOM     27  C   UNL A   1      34.664  29.553  27.874  1.00  0.00     0.016 A 
ATOM     28  C   UNL A   1      36.387  31.706  28.371  1.00  0.00     0.010 A 
ATOM     29  C   UNL A   1      35.853  29.353  28.578  1.00  0.00     0.010 A 
ATOM     30  C   UNL A   1      36.731  30.424  28.823  1.00  0.00    -0.014 A 
BRANCH  30  31
ATOM     31  C   UNL A   1      37.992  30.176  29.568  1.00  0.00     0.031 A 
ATOM     32  C   UNL A   1      39.004  29.202  29.030  1.00  0.00     0.074 A 
ATOM     33  C   UNL A   1      38.180  30.750  30.772  1.00  0.00     0.049 A 
ATOM     34  N   UNL A   1      40.073  28.719  29.608  1.00  0.00    -0.248 NA
ATOM     35  C   UNL A   1      38.776  28.692  27.668  1.00  0.00     0.031 C 
ATOM     36  C   UNL A   1      37.260  31.693  31.412  1.00  0.00     0.029 A 
ATOM     37  N   UNL A   1      39.186  30.589  31.693  1.00  0.00    -0.354 N 
ATOM     38  C   UNL A   1      40.616  27.811  28.707  1.00  0.00     0.074 A 
ATOM     39  C   UNL A   1      39.761  27.812  27.540  1.00  0.00     0.031 C 
ATOM     40  C   UNL A   1      37.730  32.005  32.631  1.00  0.00     0.029 A 
ATOM     41  C   UNL A   1      38.956  31.252  32.876  1.00  0.00     0.049 A 
ATOM     42  H   UNL A   1      39.993  30.052  31.523  1.00  0.00     0.167 HD
ATOM     43  C   UNL A   1      41.732  27.054  28.836  1.00  0.00     0.034 A 
ATOM     44  C   UNL A   1      39.631  31.227  34.042  1.00  0.00     0.034 A 
ATOM     45  C   UNL A   1      42.606  27.091  29.978  1.00  0.00     0.049 A 
ATOM     46  C   UNL A   1      40.873  30.385  34.153  1.00  0.00     0.074 A 
ATOM     47  C   UNL A   1      43.799  26.417  30.169  1.00  0.00     0.029 A 
ATOM     48  N   UNL A   1      42.382  27.839  31.123  1.00  0.00    -0.354 N 
ATOM     49  N   UNL A   1      41.437  29.626  33.246  1.00  0.00    -0.248 NA
ATOM     50  C   UNL A   1      41.583  30.413  35.440  1.00  0.00     0.031 C 
ATOM     51  C   UNL A   1      44.290  26.746  31.436  1.00  0.00     0.029 A 
ATOM     52  C   UNL A   1      43.410  27.637  32.028  1.00  0.00     0.049 A 
ATOM     53  H   UNL A   1      41.608  28.429  31.271  1.00  0.00     0.167 HD
ATOM     54  C   UNL A   1      42.582  29.108  33.841  1.00  0.00     0.074 A 
ATOM     55  C   UNL A   1      42.644  29.661  35.179  1.00  0.00     0.031 C 
ATOM     56  C   UNL A   1      43.490  28.238  33.334  1.00  0.00     0.034 A 
BRANCH  43  57
ATOM     57  C   UNL A   1      42.102  26.143  27.696  1.00  0.00     0.023 A 
ATOM     58  C   UNL A   1      42.975  26.609  26.693  1.00  0.00     0.012 A 
ATOM     59  C   UNL A   1      41.655  24.808  27.661  1.00  0.00     0.148 A 
ATOM     60  C   UNL A   1      43.382  25.766  25.660  1.00  0.00     0.002 A 
ATOM     61  C   UNL A   1      42.094  23.963  26.649  1.00  0.00     0.091 A 
ATOM     62  F   UNL A   1      40.808  24.392  28.613  1.00  0.00    -0.205 F 
ATOM     63  C   UNL A   1      42.951  24.442  25.644  1.00  0.00     0.022 A 
BRANCH  61  64
ATOM     64  S   UNL A   1      41.652  22.223  26.579  1.00  0.00     0.127 S 
ATOM     65  O   UNL A   1      42.334  21.794  25.359  1.00  0.00    -0.237 OA
ATOM     66  O   UNL A   1      42.236  21.706  27.818  1.00  0.00    -0.237 OA
ATOM     67  O   UNL A   1      40.197  22.180  26.531  1.00  0.00    -0.744 OA
ENDBRANCH  61  64
ENDBRANCH  43  57
BRANCH  44  68
ATOM     68  C   UNL A   1      39.160  32.051  35.191  1.00  0.00     0.023 A 
ATOM     69  C   UNL A   1      38.222  31.507  36.091  1.00  0.00     0.012 A 
ATOM     70  C   UNL A   1      39.653  33.350  35.416  1.00  0.00     0.148 A 
ATOM     71  C   UNL A   1      37.768  32.253  37.179  1.00  0.00     0.002 A 
ATOM     72  C   UNL A   1      39.238  34.066  36.533  1.00  0.00     0.091 A 
ATOM     73  F   UNL A   1      40.527  33.862  34.536  1.00  0.00    -0.205 F 
ATOM     74  C   UNL A   1      38.283  33.526  37.407  1.00  0.00     0.022 A 
BRANCH  72  75
ATOM     75  S   UNL A   1      39.959  35.653  36.968  1.00  0.00     0.127 S 
ATOM     76  O   UNL A   1      41.366  35.306  37.146  1.00  0.00    -0.237 OA
ATOM     77  O   UNL A   1      39.669  36.459  35.781  1.00  0.00    -0.237 OA
ATOM     78  O   UNL A   1      39.249  36.083  38.166  1.00  0.00    -0.744 OA
ENDBRANCH  72  75
ENDBRANCH  44  68
BRANCH  56  79
ATOM     79  C   UNL A   1      44.645  27.843  34.215  1.00  0.00     0.023 A 
ATOM     80  C   UNL A   1      45.838  28.590  34.171  1.00  0.00     0.012 A 
ATOM     81  C   UNL A   1      44.522  26.785  35.136  1.00  0.00     0.148 A 
ATOM     82  C   UNL A   1      46.903  28.272  35.015  1.00  0.00     0.002 A 
ATOM     83  C   UNL A   1      45.571  26.502  36.003  1.00  0.00     0.091 A 
ATOM     84  F   UNL A   1      43.386  26.073  35.147  1.00  0.00    -0.205 F 
ATOM     85  C   UNL A   1      46.766  27.238  35.937  1.00  0.00     0.022 A 
BRANCH  83  86
ATOM     86  S   UNL A   1      45.446  25.247  37.283  1.00  0.00     0.127 S 
ATOM     87  O   UNL A   1      44.300  25.721  38.056  1.00  0.00    -0.237 OA
ATOM     88  O   UNL A   1      45.197  24.031  36.507  1.00  0.00    -0.237 OA
ATOM     89  O   UNL A   1      46.725  25.262  37.981  1.00  0.00    -0.744 OA
ENDBRANCH  83  86
ENDBRANCH  56  79
ENDBRANCH  30  31
ENDBRANCH  23  25
ENDBRANCH  22  23
ENDBRANCH  21  22
ENDBRANCH   1  21
TORSDOF 18
ENDMDL
MODEL 3
REMARK VINA RESULT:     -10.6      5.378     10.104
REMARK SMILES CCC[N@@H+]1CCO[C@H](c2nc(CC(=O)OCCOC(=O)c3ccc(-c4c5nc(c(-c6cccc(S(=O)(=O)[O-])c6F)c6ccc([nH]6)c(-c6cccc(S(=O)(=O)[O-])c6F)c6nc(c(-c7cccc(S(=O)(=O)[O-])c7F)c7ccc4[nH]7)C=C6)C=C5)cc3)cs2)C1
REMARK SMILES IDX 16 1 15 2 13 3 14 4 12 5 11 6 9 7 10 8 85 9 84 10 8 11 4 12
REMARK SMILES IDX 5 13 86 14 6 16 7 17 3 18 2 19 1 20 17 21 18 22 19 23 20 24
REMARK SMILES IDX 21 25 22 26 83 27 23 28 82 29 24 30 25 31 26 32 76 33 27 34
REMARK SMILES IDX 81 35 75 36 77 37 28 38 80 39 74 40 73 41 29 43 61 44 41 45
REMARK SMILES IDX 60 46 42 47 45 48 59 49 78 50 43 51 44 52 58 54 79 55 46 56
REMARK SMILES IDX 30 57 31 58 39 59 32 60 34 61 40 62 33 63 35 64 36 65 37 66
REMARK SMILES IDX 38 67 62 68 63 69 71 70 64 71 66 72 72 73 65 74 67 75 68 76
REMARK SMILES IDX 69 77 70 78 47 79 48 80 56 81 49 82 51 83 57 84 50 85 52 86
REMARK SMILES IDX 53 87 54 88 55 89
REMARK H PARENT 4 15 77 42 45 53
REMARK Flexibility Score: inf
ROOT
ATOM      1  C   UNL A   1      35.395  20.934  24.866  1.00  0.00     0.274 C 
ENDROOT
BRANCH   1   2
ATOM      2  O   UNL A   1      35.308  22.319  24.477  1.00  0.00    -0.462 OA
BRANCH   2   3
ATOM      3  C   UNL A   1      34.422  22.627  23.489  1.00  0.00     0.312 C 
ATOM      4  O   UNL A   1      34.644  23.421  22.583  1.00  0.00    -0.252 OA
BRANCH   3   5
ATOM      5  C   UNL A   1      33.105  21.884  23.621  1.00  0.00     0.179 C 
BRANCH   5   6
ATOM      6  C   UNL A   1      32.114  22.561  24.515  1.00  0.00     0.063 A 
ATOM      7  C   UNL A   1      30.944  24.333  25.191  1.00  0.00     0.128 A 
ATOM      8  N   UNL A   1      31.746  23.871  24.245  1.00  0.00    -0.243 NA
ATOM      9  S   UNL A   1      30.797  23.273  26.548  1.00  0.00    -0.124 S 
ATOM     10  C   UNL A   1      31.475  22.019  25.613  1.00  0.00     0.091 A 
BRANCH   7  11
ATOM     11  C   UNL A   1      30.288  25.700  25.194  1.00  0.00     0.232 C 
ATOM     12  N   UNL A   1      31.909  27.375  24.024  1.00  0.00    -0.331 N 
ATOM     13  C   UNL A   1      32.103  27.933  25.375  1.00  0.00     0.291 C 
ATOM     14  C   UNL A   1      30.618  26.640  23.998  1.00  0.00     0.302 C 
ATOM     15  H   UNL A   1      31.861  28.131  23.341  1.00  0.00     0.348 HD
ATOM     16  C   UNL A   1      31.876  26.915  26.504  1.00  0.00     0.222 C 
ATOM     17  O   UNL A   1      30.552  26.367  26.451  1.00  0.00    -0.359 OA
BRANCH  12  18
ATOM     18  C   UNL A   1      33.054  26.565  23.586  1.00  0.00     0.262 C 
BRANCH  18  19
ATOM     19  C   UNL A   1      33.328  26.733  22.089  1.00  0.00     0.058 C 
ATOM     20  C   UNL A   1      32.692  25.652  21.234  1.00  0.00     0.010 C 
ENDBRANCH  18  19
ENDBRANCH  12  18
ENDBRANCH   7  11
ENDBRANCH   5   6
ENDBRANCH   3   5
ENDBRANCH   2   3
ENDBRANCH   1   2
BRANCH   1  21
ATOM     21  C   UNL A   1      36.863  20.526  24.985  1.00  0.00     0.275 C 
BRANCH  21  22
ATOM     22  O   UNL A   1      37.568  21.532  25.730  1.00  0.00    -0.458 OA
BRANCH  22  23
ATOM     23  C   UNL A   1      38.850  21.244  26.046  1.00  0.00     0.338 C 
ATOM     24  O   UNL A   1      39.402  20.156  25.953  1.00  0.00    -0.246 OA
BRANCH  23  25
ATOM     25  C   UNL A   1      39.518  22.465  26.528  1.00  0.00     0.060 A 
ATOM     26  C   UNL A   1      39.078  23.733  26.129  1.00  0.00     0.016 A 
ATOM     27  C   UNL A   1      40.626  22.333  27.363  1.00  0.00     0.016 A 
ATOM     28  C   UNL A   1      39.756  24.874  26.561  1.00  0.00     0.010 A 
ATOM     29  C   UNL A   1      41.269  23.478  27.837  1.00  0.00     0.010 A 
ATOM     30  C   UNL A   1      40.849  24.757  27.432  1.00  0.00    -0.014 A 
BRANCH  30  31
ATOM     31  C   UNL A   1      41.561  25.954  27.950  1.00  0.00     0.031 A 
ATOM     32  C   UNL A   1      40.814  26.986  28.751  1.00  0.00     0.074 A 
ATOM     33  C   UNL A   1      42.849  26.161  27.617  1.00  0.00     0.049 A 
ATOM     34  N   UNL A   1      41.205  28.172  29.138  1.00  0.00    -0.248 NA
ATOM     35  C   UNL A   1      39.441  26.644  29.157  1.00  0.00     0.031 C 
ATOM     36  C   UNL A   1      43.675  25.247  26.825  1.00  0.00     0.029 A 
ATOM     37  N   UNL A   1      43.678  27.228  27.864  1.00  0.00    -0.354 N 
ATOM     38  C   UNL A   1      40.115  28.740  29.785  1.00  0.00     0.074 A 
ATOM     39  C   UNL A   1      39.044  27.767  29.742  1.00  0.00     0.031 C 
ATOM     40  C   UNL A   1      44.881  25.803  26.627  1.00  0.00     0.029 A 
ATOM     41  C   UNL A   1      44.899  27.129  27.238  1.00  0.00     0.049 A 
ATOM     42  H   UNL A   1      43.423  27.989  28.433  1.00  0.00     0.167 HD
ATOM     43  C   UNL A   1      40.017  29.957  30.371  1.00  0.00     0.034 A 
ATOM     44  C   UNL A   1      45.907  28.017  27.133  1.00  0.00     0.034 A 
ATOM     45  C   UNL A   1      41.098  30.903  30.454  1.00  0.00     0.049 A 
ATOM     46  C   UNL A   1      45.775  29.358  27.803  1.00  0.00     0.074 A 
ATOM     47  C   UNL A   1      41.118  32.131  31.092  1.00  0.00     0.029 A 
ATOM     48  N   UNL A   1      42.347  30.731  29.879  1.00  0.00    -0.354 N 
ATOM     49  N   UNL A   1      44.779  29.830  28.514  1.00  0.00    -0.248 NA
ATOM     50  C   UNL A   1      46.912  30.281  27.676  1.00  0.00     0.031 C 
ATOM     51  C   UNL A   1      42.376  32.708  30.890  1.00  0.00     0.029 A 
ATOM     52  C   UNL A   1      43.144  31.833  30.140  1.00  0.00     0.049 A 
ATOM     53  H   UNL A   1      42.628  29.941  29.363  1.00  0.00     0.167 HD
ATOM     54  C   UNL A   1      45.181  31.090  28.941  1.00  0.00     0.074 A 
ATOM     55  C   UNL A   1      46.521  31.299  28.431  1.00  0.00     0.031 C 
ATOM     56  C   UNL A   1      44.495  32.003  29.674  1.00  0.00     0.034 A 
BRANCH  43  57
ATOM     57  C   UNL A   1      38.706  30.330  31.010  1.00  0.00     0.023 A 
ATOM     58  C   UNL A   1      38.480  30.012  32.365  1.00  0.00     0.012 A 
ATOM     59  C   UNL A   1      37.736  31.063  30.299  1.00  0.00     0.148 A 
ATOM     60  C   UNL A   1      37.300  30.400  32.997  1.00  0.00     0.002 A 
ATOM     61  C   UNL A   1      36.578  31.478  30.946  1.00  0.00     0.091 A 
ATOM     62  F   UNL A   1      37.961  31.335  29.007  1.00  0.00    -0.205 F 
ATOM     63  C   UNL A   1      36.355  31.141  32.292  1.00  0.00     0.022 A 
BRANCH  61  64
ATOM     64  S   UNL A   1      35.332  32.497  30.146  1.00  0.00     0.127 S 
ATOM     65  O   UNL A   1      34.952  31.659  29.009  1.00  0.00    -0.237 OA
ATOM     66  O   UNL A   1      34.311  32.610  31.189  1.00  0.00    -0.237 OA
ATOM     67  O   UNL A   1      35.995  33.748  29.808  1.00  0.00    -0.744 OA
ENDBRANCH  61  64
ENDBRANCH  43  57
BRANCH  44  68
ATOM     68  C   UNL A   1      47.143  27.655  26.384  1.00  0.00     0.023 A 
ATOM     69  C   UNL A   1      48.206  27.034  27.068  1.00  0.00     0.012 A 
ATOM     70  C   UNL A   1      47.261  27.890  25.001  1.00  0.00     0.148 A 
ATOM     71  C   UNL A   1      49.373  26.677  26.392  1.00  0.00     0.002 A 
ATOM     72  C   UNL A   1      48.403  27.481  24.323  1.00  0.00     0.091 A 
ATOM     73  F   UNL A   1      46.249  28.504  24.370  1.00  0.00    -0.205 F 
ATOM     74  C   UNL A   1      49.468  26.889  25.020  1.00  0.00     0.022 A 
BRANCH  72  75
ATOM     75  S   UNL A   1      48.542  27.596  22.536  1.00  0.00     0.127 S 
ATOM     76  O   UNL A   1      49.832  28.261  22.376  1.00  0.00    -0.237 OA
ATOM     77  O   UNL A   1      48.522  26.188  22.134  1.00  0.00    -0.237 OA
ATOM     78  O   UNL A   1      47.374  28.352  22.107  1.00  0.00    -0.744 OA
ENDBRANCH  72  75
ENDBRANCH  44  68
BRANCH  56  79
ATOM     79  C   UNL A   1      45.185  33.303  29.992  1.00  0.00     0.023 A 
ATOM     80  C   UNL A   1      45.975  33.404  31.154  1.00  0.00     0.012 A 
ATOM     81  C   UNL A   1      45.114  34.394  29.104  1.00  0.00     0.148 A 
ATOM     82  C   UNL A   1      46.662  34.583  31.441  1.00  0.00     0.002 A 
ATOM     83  C   UNL A   1      45.836  35.550  29.375  1.00  0.00     0.091 A 
ATOM     84  F   UNL A   1      44.339  34.284  28.015  1.00  0.00    -0.205 F 
ATOM     85  C   UNL A   1      46.603  35.650  30.548  1.00  0.00     0.022 A 
BRANCH  83  86
ATOM     86  S   UNL A   1      45.889  36.938  28.235  1.00  0.00     0.127 S 
ATOM     87  O   UNL A   1      46.115  36.266  26.957  1.00  0.00    -0.237 OA
ATOM     88  O   UNL A   1      44.555  37.521  28.389  1.00  0.00    -0.237 OA
ATOM     89  O   UNL A   1      46.975  37.792  28.697  1.00  0.00    -0.744 OA
ENDBRANCH  83  86
ENDBRANCH  56  79
ENDBRANCH  30  31
ENDBRANCH  23  25
ENDBRANCH  22  23
ENDBRANCH  21  22
ENDBRANCH   1  21
TORSDOF 18
ENDMDL
