MODEL 1
REMARK VINA RESULT:     -12.3      0.000      0.000
REMARK SMILES O=C(OCCOC(=O)c1ccccc1/N=C/c1coc2ccccc2c1=O)c1ccc(-c2c3nc(c(-c4cccc(S(=O)(=O)[O-])c4F)c4ccc([nH]4)c(-c4cccc(S(=O)(=O)[O-])c4F)c4nc(c(-c5cccc(S(=O)(=O)[O-])c5F)c5ccc2[nH]5)C=C4)C=C3)cc1
REMARK SMILES IDX 4 1 3 2 2 3 1 4 28 5 29 6 90 7 30 8 89 9 31 10 32 11 33 12
REMARK SMILES IDX 83 13 34 14 88 15 82 16 84 17 35 18 87 19 81 20 80 21 36 23
REMARK SMILES IDX 68 24 48 25 67 26 49 27 52 28 66 29 85 30 50 31 51 32 65 34
REMARK SMILES IDX 86 35 53 36 37 37 38 38 46 39 39 40 41 41 47 42 40 43 42 44
REMARK SMILES IDX 43 45 44 46 45 47 69 48 70 49 78 50 71 51 73 52 79 53 72 54
REMARK SMILES IDX 74 55 75 56 76 57 77 58 54 59 55 60 63 61 56 62 58 63 64 64
REMARK SMILES IDX 57 65 59 66 60 67 61 68 62 69 5 70 6 71 7 72 8 73 9 74 10 75
REMARK SMILES IDX 14 76 11 77 13 78 12 79 15 80 16 81 17 82 18 83 26 84 19 85
REMARK SMILES IDX 25 86 27 87 20 88 24 89 21 90 23 91 22 92
REMARK H PARENT 84 22 52 33
REMARK Flexibility Score: inf
ROOT
ATOM      1  C   UNL A   1      38.260  21.469  25.654  1.00  0.00     0.275 C 
ENDROOT
BRANCH   1   2
ATOM      2  O   UNL A   1      39.118  20.320  25.697  1.00  0.00    -0.458 OA
BRANCH   2   3
ATOM      3  C   UNL A   1      40.434  20.248  26.003  1.00  0.00     0.338 C 
ATOM      4  O   UNL A   1      41.014  19.178  25.815  1.00  0.00    -0.246 OA
BRANCH   3   5
ATOM      5  C   UNL A   1      41.233  21.374  26.588  1.00  0.00     0.060 A 
ATOM      6  C   UNL A   1      41.330  21.692  27.947  1.00  0.00     0.016 A 
ATOM      7  C   UNL A   1      41.816  22.257  25.665  1.00  0.00     0.016 A 
ATOM      8  C   UNL A   1      41.997  22.855  28.381  1.00  0.00     0.010 A 
ATOM      9  C   UNL A   1      42.465  23.420  26.088  1.00  0.00     0.010 A 
ATOM     10  C   UNL A   1      42.538  23.745  27.454  1.00  0.00    -0.014 A 
BRANCH  10  11
ATOM     11  C   UNL A   1      43.014  25.102  27.818  1.00  0.00     0.031 A 
ATOM     12  C   UNL A   1      41.990  26.165  28.064  1.00  0.00     0.074 A 
ATOM     13  C   UNL A   1      44.315  25.450  27.818  1.00  0.00     0.049 A 
ATOM     14  N   UNL A   1      42.185  27.435  28.282  1.00  0.00    -0.248 NA
ATOM     15  C   UNL A   1      40.582  25.741  28.143  1.00  0.00     0.031 C 
ATOM     16  C   UNL A   1      45.445  24.544  27.755  1.00  0.00     0.029 A 
ATOM     17  N   UNL A   1      44.894  26.694  27.716  1.00  0.00    -0.354 N 
ATOM     18  C   UNL A   1      40.950  27.939  28.644  1.00  0.00     0.074 A 
ATOM     19  C   UNL A   1      39.983  26.875  28.476  1.00  0.00     0.031 C 
ATOM     20  C   UNL A   1      46.528  25.223  27.336  1.00  0.00     0.029 A 
ATOM     21  C   UNL A   1      46.167  26.624  27.188  1.00  0.00     0.049 A 
ATOM     22  H   UNL A   1      44.453  27.532  27.986  1.00  0.00     0.167 HD
ATOM     23  C   UNL A   1      40.683  29.147  29.186  1.00  0.00     0.034 A 
ATOM     24  C   UNL A   1      46.921  27.581  26.614  1.00  0.00     0.034 A 
ATOM     25  C   UNL A   1      41.661  30.190  29.313  1.00  0.00     0.049 A 
ATOM     26  C   UNL A   1      46.520  29.003  26.860  1.00  0.00     0.074 A 
ATOM     27  C   UNL A   1      41.559  31.412  29.949  1.00  0.00     0.029 A 
ATOM     28  N   UNL A   1      42.921  30.138  28.738  1.00  0.00    -0.354 N 
ATOM     29  N   UNL A   1      45.429  29.447  27.433  1.00  0.00    -0.248 NA
ATOM     30  C   UNL A   1      47.508  30.043  26.547  1.00  0.00     0.031 C 
ATOM     31  C   UNL A   1      42.751  32.116  29.723  1.00  0.00     0.029 A 
ATOM     32  C   UNL A   1      43.596  31.324  28.959  1.00  0.00     0.049 A 
ATOM     33  H   UNL A   1      43.284  29.368  28.245  1.00  0.00     0.167 HD
ATOM     34  C   UNL A   1      45.667  30.785  27.705  1.00  0.00     0.074 A 
ATOM     35  C   UNL A   1      46.959  31.104  27.128  1.00  0.00     0.031 C 
ATOM     36  C   UNL A   1      44.907  31.631  28.440  1.00  0.00     0.034 A 
BRANCH  23  37
ATOM     37  C   UNL A   1      39.315  29.315  29.770  1.00  0.00     0.023 A 
ATOM     38  C   UNL A   1      39.013  28.645  30.976  1.00  0.00     0.012 A 
ATOM     39  C   UNL A   1      38.322  30.064  29.123  1.00  0.00     0.148 A 
ATOM     40  C   UNL A   1      37.726  28.683  31.507  1.00  0.00     0.002 A 
ATOM     41  C   UNL A   1      37.045  30.118  29.672  1.00  0.00     0.091 A 
ATOM     42  F   UNL A   1      38.621  30.659  27.959  1.00  0.00    -0.205 F 
ATOM     43  C   UNL A   1      36.743  29.423  30.856  1.00  0.00     0.022 A 
BRANCH  41  44
ATOM     44  S   UNL A   1      35.724  31.063  28.912  1.00  0.00     0.127 S 
ATOM     45  O   UNL A   1      34.961  30.015  28.237  1.00  0.00    -0.237 OA
ATOM     46  O   UNL A   1      35.055  31.655  30.071  1.00  0.00    -0.237 OA
ATOM     47  O   UNL A   1      36.383  32.028  28.041  1.00  0.00    -0.744 OA
ENDBRANCH  41  44
ENDBRANCH  23  37
BRANCH  24  48
ATOM     48  C   UNL A   1      48.163  27.243  25.869  1.00  0.00     0.023 A 
ATOM     49  C   UNL A   1      49.288  26.754  26.556  1.00  0.00     0.012 A 
ATOM     50  C   UNL A   1      48.226  27.399  24.469  1.00  0.00     0.148 A 
ATOM     51  C   UNL A   1      50.455  26.427  25.863  1.00  0.00     0.002 A 
ATOM     52  C   UNL A   1      49.387  27.053  23.781  1.00  0.00     0.091 A 
ATOM     53  F   UNL A   1      47.148  27.879  23.834  1.00  0.00    -0.205 F 
ATOM     54  C   UNL A   1      50.504  26.568  24.478  1.00  0.00     0.022 A 
BRANCH  52  55
ATOM     55  S   UNL A   1      49.517  27.105  21.985  1.00  0.00     0.127 S 
ATOM     56  O   UNL A   1      49.069  28.463  21.686  1.00  0.00    -0.237 OA
ATOM     57  O   UNL A   1      50.948  26.866  21.784  1.00  0.00    -0.237 OA
ATOM     58  O   UNL A   1      48.659  26.034  21.497  1.00  0.00    -0.744 OA
ENDBRANCH  52  55
ENDBRANCH  24  48
BRANCH  36  59
ATOM     59  C   UNL A   1      45.486  32.971  28.781  1.00  0.00     0.023 A 
ATOM     60  C   UNL A   1      46.292  33.127  29.922  1.00  0.00     0.012 A 
ATOM     61  C   UNL A   1      45.310  34.052  27.893  1.00  0.00     0.148 A 
ATOM     62  C   UNL A   1      46.913  34.348  30.178  1.00  0.00     0.002 A 
ATOM     63  C   UNL A   1      45.971  35.248  28.129  1.00  0.00     0.091 A 
ATOM     64  F   UNL A   1      44.512  33.883  26.829  1.00  0.00    -0.205 F 
ATOM     65  C   UNL A   1      46.768  35.401  29.275  1.00  0.00     0.022 A 
BRANCH  63  66
ATOM     66  S   UNL A   1      45.929  36.619  26.969  1.00  0.00     0.127 S 
ATOM     67  O   UNL A   1      46.837  37.574  27.601  1.00  0.00    -0.237 OA
ATOM     68  O   UNL A   1      46.442  36.003  25.746  1.00  0.00    -0.237 OA
ATOM     69  O   UNL A   1      44.537  37.043  26.895  1.00  0.00    -0.744 OA
ENDBRANCH  63  66
ENDBRANCH  36  59
ENDBRANCH  10  11
ENDBRANCH   3   5
ENDBRANCH   2   3
ENDBRANCH   1   2
BRANCH   1  70
ATOM     70  C   UNL A   1      36.866  21.213  25.099  1.00  0.00     0.275 C 
BRANCH  70  71
ATOM     71  O   UNL A   1      36.082  22.403  24.985  1.00  0.00    -0.458 OA
BRANCH  71  72
ATOM     72  C   UNL A   1      35.826  22.808  23.718  1.00  0.00     0.340 C 
ATOM     73  O   UNL A   1      36.632  23.040  22.831  1.00  0.00    -0.246 OA
BRANCH  72  74
ATOM     74  C   UNL A   1      34.388  22.998  23.569  1.00  0.00     0.085 A 
ATOM     75  C   UNL A   1      33.631  21.824  23.385  1.00  0.00     0.018 A 
ATOM     76  C   UNL A   1      33.787  24.265  23.642  1.00  0.00     0.077 A 
ATOM     77  C   UNL A   1      32.243  21.891  23.305  1.00  0.00     0.001 A 
ATOM     78  C   UNL A   1      32.384  24.294  23.508  1.00  0.00     0.029 A 
ATOM     79  C   UNL A   1      31.618  23.130  23.361  1.00  0.00     0.002 A 
BRANCH  76  80
ATOM     80  N   UNL A   1      34.323  25.472  24.138  1.00  0.00    -0.255 NA
ATOM     81  C   UNL A   1      34.143  25.988  25.313  1.00  0.00     0.127 C 
BRANCH  81  82
ATOM     82  C   UNL A   1      33.726  27.432  25.304  1.00  0.00     0.076 A 
ATOM     83  C   UNL A   1      33.601  27.990  24.085  1.00  0.00     0.209 A 
ATOM     84  C   UNL A   1      32.533  27.688  26.161  1.00  0.00     0.201 A 
ATOM     85  O   UNL A   1      32.370  28.451  23.591  1.00  0.00    -0.463 OA
ATOM     86  C   UNL A   1      31.307  27.345  25.434  1.00  0.00     0.065 A 
ATOM     87  O   UNL A   1      32.595  28.013  27.336  1.00  0.00    -0.288 OA
ATOM     88  C   UNL A   1      31.290  27.740  24.095  1.00  0.00     0.137 A 
ATOM     89  C   UNL A   1      30.397  26.426  25.944  1.00  0.00     0.016 A 
ATOM     90  C   UNL A   1      30.294  27.265  23.257  1.00  0.00     0.048 A 
ATOM     91  C   UNL A   1      29.403  25.941  25.107  1.00  0.00     0.001 A 
ATOM     92  C   UNL A   1      29.363  26.353  23.771  1.00  0.00     0.004 A 
ENDBRANCH  81  82
ENDBRANCH  76  80
ENDBRANCH  72  74
ENDBRANCH  71  72
ENDBRANCH  70  71
ENDBRANCH   1  70
TORSDOF 16
ENDMDL
MODEL 2
REMARK VINA RESULT:     -12.1      1.232      1.847
REMARK SMILES O=C(OCCOC(=O)c1ccccc1/N=C/c1coc2ccccc2c1=O)c1ccc(-c2c3nc(c(-c4cccc(S(=O)(=O)[O-])c4F)c4ccc([nH]4)c(-c4cccc(S(=O)(=O)[O-])c4F)c4nc(c(-c5cccc(S(=O)(=O)[O-])c5F)c5ccc2[nH]5)C=C4)C=C3)cc1
REMARK SMILES IDX 4 1 3 2 2 3 1 4 28 5 29 6 90 7 30 8 89 9 31 10 32 11 33 12
REMARK SMILES IDX 83 13 34 14 88 15 82 16 84 17 35 18 87 19 81 20 80 21 36 23
REMARK SMILES IDX 68 24 48 25 67 26 49 27 52 28 66 29 85 30 50 31 51 32 65 34
REMARK SMILES IDX 86 35 53 36 37 37 38 38 46 39 39 40 41 41 47 42 40 43 42 44
REMARK SMILES IDX 43 45 44 46 45 47 69 48 70 49 78 50 71 51 73 52 79 53 72 54
REMARK SMILES IDX 74 55 75 56 76 57 77 58 54 59 55 60 63 61 56 62 58 63 64 64
REMARK SMILES IDX 57 65 59 66 60 67 61 68 62 69 5 70 6 71 7 72 8 73 9 74 10 75
REMARK SMILES IDX 14 76 11 77 13 78 12 79 15 80 16 81 17 82 18 83 26 84 19 85
REMARK SMILES IDX 25 86 27 87 20 88 24 89 21 90 23 91 22 92
REMARK H PARENT 84 22 52 33
REMARK Flexibility Score: inf
ROOT
ATOM      1  C   UNL A   1      38.620  21.211  25.708  1.00  0.00     0.275 C 
ENDROOT
BRANCH   1   2
ATOM      2  O   UNL A   1      39.532  20.110  25.831  1.00  0.00    -0.458 OA
BRANCH   2   3
ATOM      3  C   UNL A   1      40.867  20.127  26.050  1.00  0.00     0.338 C 
ATOM      4  O   UNL A   1      41.516  19.124  25.750  1.00  0.00    -0.246 OA
BRANCH   3   5
ATOM      5  C   UNL A   1      41.612  21.275  26.663  1.00  0.00     0.060 A 
ATOM      6  C   UNL A   1      41.593  21.638  28.014  1.00  0.00     0.016 A 
ATOM      7  C   UNL A   1      42.271  22.129  25.764  1.00  0.00     0.016 A 
ATOM      8  C   UNL A   1      42.220  22.816  28.465  1.00  0.00     0.010 A 
ATOM      9  C   UNL A   1      42.880  23.308  26.203  1.00  0.00     0.010 A 
ATOM     10  C   UNL A   1      42.838  23.677  27.558  1.00  0.00    -0.014 A 
BRANCH  10  11
ATOM     11  C   UNL A   1      43.279  25.047  27.917  1.00  0.00     0.031 A 
ATOM     12  C   UNL A   1      42.230  26.090  28.144  1.00  0.00     0.074 A 
ATOM     13  C   UNL A   1      44.572  25.424  27.928  1.00  0.00     0.049 A 
ATOM     14  N   UNL A   1      42.394  27.365  28.353  1.00  0.00    -0.248 NA
ATOM     15  C   UNL A   1      40.830  25.635  28.211  1.00  0.00     0.031 C 
ATOM     16  C   UNL A   1      45.723  24.543  27.885  1.00  0.00     0.029 A 
ATOM     17  N   UNL A   1      45.125  26.679  27.822  1.00  0.00    -0.354 N 
ATOM     18  C   UNL A   1      41.145  27.844  28.699  1.00  0.00     0.074 A 
ATOM     19  C   UNL A   1      40.203  26.759  28.529  1.00  0.00     0.031 C 
ATOM     20  C   UNL A   1      46.795  25.242  27.471  1.00  0.00     0.029 A 
ATOM     21  C   UNL A   1      46.404  26.634  27.309  1.00  0.00     0.049 A 
ATOM     22  H   UNL A   1      44.662  27.510  28.081  1.00  0.00     0.167 HD
ATOM     23  C   UNL A   1      40.845  29.051  29.229  1.00  0.00     0.034 A 
ATOM     24  C   UNL A   1      47.143  27.602  26.735  1.00  0.00     0.034 A 
ATOM     25  C   UNL A   1      41.798  30.115  29.358  1.00  0.00     0.049 A 
ATOM     26  C   UNL A   1      46.709  29.017  26.965  1.00  0.00     0.074 A 
ATOM     27  C   UNL A   1      41.663  31.340  29.982  1.00  0.00     0.029 A 
ATOM     28  N   UNL A   1      43.066  30.087  28.797  1.00  0.00    -0.354 N 
ATOM     29  N   UNL A   1      45.602  29.441  27.524  1.00  0.00    -0.248 NA
ATOM     30  C   UNL A   1      47.677  30.077  26.655  1.00  0.00     0.031 C 
ATOM     31  C   UNL A   1      42.842  32.068  29.764  1.00  0.00     0.029 A 
ATOM     32  C   UNL A   1      43.712  31.290  29.015  1.00  0.00     0.049 A 
ATOM     33  H   UNL A   1      43.450  29.322  28.313  1.00  0.00     0.167 HD
ATOM     34  C   UNL A   1      45.807  30.786  27.788  1.00  0.00     0.074 A 
ATOM     35  C   UNL A   1      47.099  31.129  27.222  1.00  0.00     0.031 C 
ATOM     36  C   UNL A   1      45.021  31.621  28.508  1.00  0.00     0.034 A 
BRANCH  23  37
ATOM     37  C   UNL A   1      39.467  29.193  29.796  1.00  0.00     0.023 A 
ATOM     38  C   UNL A   1      39.194  28.603  31.050  1.00  0.00     0.012 A 
ATOM     39  C   UNL A   1      38.441  29.838  29.093  1.00  0.00     0.148 A 
ATOM     40  C   UNL A   1      37.905  28.616  31.575  1.00  0.00     0.002 A 
ATOM     41  C   UNL A   1      37.161  29.869  29.634  1.00  0.00     0.091 A 
ATOM     42  F   UNL A   1      38.715  30.357  27.887  1.00  0.00    -0.205 F 
ATOM     43  C   UNL A   1      36.888  29.252  30.868  1.00  0.00     0.022 A 
BRANCH  41  44
ATOM     44  S   UNL A   1      35.797  30.686  28.803  1.00  0.00     0.127 S 
ATOM     45  O   UNL A   1      35.108  29.554  28.186  1.00  0.00    -0.237 OA
ATOM     46  O   UNL A   1      35.077  31.305  29.916  1.00  0.00    -0.237 OA
ATOM     47  O   UNL A   1      36.410  31.634  27.882  1.00  0.00    -0.744 OA
ENDBRANCH  41  44
ENDBRANCH  23  37
BRANCH  24  48
ATOM     48  C   UNL A   1      48.401  27.287  26.007  1.00  0.00     0.023 A 
ATOM     49  C   UNL A   1      49.523  26.809  26.707  1.00  0.00     0.012 A 
ATOM     50  C   UNL A   1      48.482  27.451  24.608  1.00  0.00     0.148 A 
ATOM     51  C   UNL A   1      50.704  26.503  26.028  1.00  0.00     0.002 A 
ATOM     52  C   UNL A   1      49.657  27.126  23.934  1.00  0.00     0.091 A 
ATOM     53  F   UNL A   1      47.405  27.919  23.960  1.00  0.00    -0.205 F 
ATOM     54  C   UNL A   1      50.770  26.653  24.645  1.00  0.00     0.022 A 
BRANCH  52  55
ATOM     55  S   UNL A   1      49.812  27.190  22.141  1.00  0.00     0.127 S 
ATOM     56  O   UNL A   1      51.198  26.778  21.940  1.00  0.00    -0.237 OA
ATOM     57  O   UNL A   1      48.806  26.211  21.722  1.00  0.00    -0.237 OA
ATOM     58  O   UNL A   1      49.500  28.563  21.768  1.00  0.00    -0.744 OA
ENDBRANCH  52  55
ENDBRANCH  24  48
BRANCH  36  59
ATOM     59  C   UNL A   1      45.567  32.976  28.844  1.00  0.00     0.023 A 
ATOM     60  C   UNL A   1      46.395  33.150  29.967  1.00  0.00     0.012 A 
ATOM     61  C   UNL A   1      45.337  34.057  27.969  1.00  0.00     0.148 A 
ATOM     62  C   UNL A   1      46.984  34.387  30.218  1.00  0.00     0.002 A 
ATOM     63  C   UNL A   1      45.967  35.271  28.197  1.00  0.00     0.091 A 
ATOM     64  F   UNL A   1      44.520  33.870  26.922  1.00  0.00    -0.205 F 
ATOM     65  C   UNL A   1      46.786  35.441  29.325  1.00  0.00     0.022 A 
BRANCH  63  66
ATOM     66  S   UNL A   1      45.855  36.647  27.048  1.00  0.00     0.127 S 
ATOM     67  O   UNL A   1      46.693  37.651  27.701  1.00  0.00    -0.237 OA
ATOM     68  O   UNL A   1      46.424  36.076  25.827  1.00  0.00    -0.237 OA
ATOM     69  O   UNL A   1      44.441  36.984  26.956  1.00  0.00    -0.744 OA
ENDBRANCH  63  66
ENDBRANCH  36  59
ENDBRANCH  10  11
ENDBRANCH   3   5
ENDBRANCH   2   3
ENDBRANCH   1   2
BRANCH   1  70
ATOM     70  C   UNL A   1      37.357  20.917  24.911  1.00  0.00     0.275 C 
BRANCH  70  71
ATOM     71  O   UNL A   1      36.199  21.569  25.438  1.00  0.00    -0.458 OA
BRANCH  71  72
ATOM     72  C   UNL A   1      35.037  20.888  25.294  1.00  0.00     0.340 C 
ATOM     73  O   UNL A   1      34.843  19.869  24.651  1.00  0.00    -0.246 OA
BRANCH  72  74
ATOM     74  C   UNL A   1      33.983  21.608  26.000  1.00  0.00     0.085 A 
ATOM     75  C   UNL A   1      34.084  21.622  27.405  1.00  0.00     0.018 A 
ATOM     76  C   UNL A   1      32.950  22.278  25.323  1.00  0.00     0.077 A 
ATOM     77  C   UNL A   1      33.169  22.343  28.167  1.00  0.00     0.001 A 
ATOM     78  C   UNL A   1      32.016  22.955  26.134  1.00  0.00     0.029 A 
ATOM     79  C   UNL A   1      32.128  23.006  27.529  1.00  0.00     0.002 A 
BRANCH  76  80
ATOM     80  N   UNL A   1      32.875  22.644  23.963  1.00  0.00    -0.255 NA
ATOM     81  C   UNL A   1      33.544  23.577  23.362  1.00  0.00     0.127 C 
BRANCH  81  82
ATOM     82  C   UNL A   1      32.705  24.523  22.550  1.00  0.00     0.076 A 
ATOM     83  C   UNL A   1      31.377  24.450  22.766  1.00  0.00     0.209 A 
ATOM     84  C   UNL A   1      33.205  25.927  22.611  1.00  0.00     0.201 A 
ATOM     85  O   UNL A   1      30.644  25.516  23.309  1.00  0.00    -0.463 OA
ATOM     86  C   UNL A   1      32.728  26.578  23.835  1.00  0.00     0.065 A 
ATOM     87  O   UNL A   1      33.997  26.403  21.814  1.00  0.00    -0.288 OA
ATOM     88  C   UNL A   1      31.399  26.306  24.164  1.00  0.00     0.137 A 
ATOM     89  C   UNL A   1      33.615  27.141  24.745  1.00  0.00     0.016 A 
ATOM     90  C   UNL A   1      30.918  26.672  25.412  1.00  0.00     0.048 A 
ATOM     91  C   UNL A   1      33.140  27.501  25.999  1.00  0.00     0.001 A 
ATOM     92  C   UNL A   1      31.803  27.257  26.327  1.00  0.00     0.004 A 
ENDBRANCH  81  82
ENDBRANCH  76  80
ENDBRANCH  72  74
ENDBRANCH  71  72
ENDBRANCH  70  71
ENDBRANCH   1  70
TORSDOF 16
ENDMDL
MODEL 3
REMARK VINA RESULT:     -12.0      5.383      8.835
REMARK SMILES O=C(OCCOC(=O)c1ccccc1/N=C/c1coc2ccccc2c1=O)c1ccc(-c2c3nc(c(-c4cccc(S(=O)(=O)[O-])c4F)c4ccc([nH]4)c(-c4cccc(S(=O)(=O)[O-])c4F)c4nc(c(-c5cccc(S(=O)(=O)[O-])c5F)c5ccc2[nH]5)C=C4)C=C3)cc1
REMARK SMILES IDX 4 1 3 2 2 3 1 4 28 5 29 6 90 7 30 8 89 9 31 10 32 11 33 12
REMARK SMILES IDX 83 13 34 14 88 15 82 16 84 17 35 18 87 19 81 20 80 21 36 23
REMARK SMILES IDX 68 24 48 25 67 26 49 27 52 28 66 29 85 30 50 31 51 32 65 34
REMARK SMILES IDX 86 35 53 36 37 37 38 38 46 39 39 40 41 41 47 42 40 43 42 44
REMARK SMILES IDX 43 45 44 46 45 47 69 48 70 49 78 50 71 51 73 52 79 53 72 54
REMARK SMILES IDX 74 55 75 56 76 57 77 58 54 59 55 60 63 61 56 62 58 63 64 64
REMARK SMILES IDX 57 65 59 66 60 67 61 68 62 69 5 70 6 71 7 72 8 73 9 74 10 75
REMARK SMILES IDX 14 76 11 77 13 78 12 79 15 80 16 81 17 82 18 83 26 84 19 85
REMARK SMILES IDX 25 86 27 87 20 88 24 89 21 90 23 91 22 92
REMARK H PARENT 84 22 52 33
REMARK Flexibility Score: inf
ROOT
ATOM      1  C   UNL A   1      33.082  30.459  26.976  1.00  0.00     0.275 C 
ENDROOT
BRANCH   1   2
ATOM      2  O   UNL A   1      32.884  31.862  27.204  1.00  0.00    -0.458 OA
BRANCH   2   3
ATOM      3  C   UNL A   1      33.640  32.726  27.920  1.00  0.00     0.338 C 
ATOM      4  O   UNL A   1      33.265  33.896  27.999  1.00  0.00    -0.246 OA
BRANCH   3   5
ATOM      5  C   UNL A   1      34.926  32.365  28.602  1.00  0.00     0.060 A 
ATOM      6  C   UNL A   1      36.182  32.275  27.992  1.00  0.00     0.016 A 
ATOM      7  C   UNL A   1      34.816  31.951  29.940  1.00  0.00     0.016 A 
ATOM      8  C   UNL A   1      37.304  31.794  28.694  1.00  0.00     0.010 A 
ATOM      9  C   UNL A   1      35.923  31.458  30.636  1.00  0.00     0.010 A 
ATOM     10  C   UNL A   1      37.176  31.350  30.009  1.00  0.00    -0.014 A 
BRANCH  10  11
ATOM     11  C   UNL A   1      38.240  30.593  30.714  1.00  0.00     0.031 A 
ATOM     12  C   UNL A   1      38.882  31.226  31.909  1.00  0.00     0.074 A 
ATOM     13  C   UNL A   1      38.737  29.427  30.260  1.00  0.00     0.049 A 
ATOM     14  N   UNL A   1      39.899  30.794  32.599  1.00  0.00    -0.248 NA
ATOM     15  C   UNL A   1      38.265  32.456  32.434  1.00  0.00     0.031 C 
ATOM     16  C   UNL A   1      38.158  28.593  29.224  1.00  0.00     0.029 A 
ATOM     17  N   UNL A   1      39.945  28.823  30.521  1.00  0.00    -0.354 N 
ATOM     18  C   UNL A   1      39.970  31.621  33.704  1.00  0.00     0.074 A 
ATOM     19  C   UNL A   1      38.989  32.670  33.523  1.00  0.00     0.031 C 
ATOM     20  C   UNL A   1      39.110  27.779  28.735  1.00  0.00     0.029 A 
ATOM     21  C   UNL A   1      40.334  27.990  29.492  1.00  0.00     0.049 A 
ATOM     22  H   UNL A   1      40.469  28.968  31.342  1.00  0.00     0.167 HD
ATOM     23  C   UNL A   1      40.707  31.437  34.822  1.00  0.00     0.034 A 
ATOM     24  C   UNL A   1      41.550  27.501  29.185  1.00  0.00     0.034 A 
ATOM     25  C   UNL A   1      41.691  30.402  34.958  1.00  0.00     0.049 A 
ATOM     26  C   UNL A   1      42.595  27.551  30.257  1.00  0.00     0.074 A 
ATOM     27  C   UNL A   1      42.420  30.028  36.070  1.00  0.00     0.029 A 
ATOM     28  N   UNL A   1      42.116  29.601  33.909  1.00  0.00    -0.354 N 
ATOM     29  N   UNL A   1      42.534  28.158  31.417  1.00  0.00    -0.248 NA
ATOM     30  C   UNL A   1      43.792  26.722  30.068  1.00  0.00     0.031 C 
ATOM     31  C   UNL A   1      43.316  29.021  35.680  1.00  0.00     0.029 A 
ATOM     32  C   UNL A   1      43.133  28.763  34.330  1.00  0.00     0.049 A 
ATOM     33  H   UNL A   1      41.748  29.624  32.998  1.00  0.00     0.167 HD
ATOM     34  C   UNL A   1      43.590  27.654  32.159  1.00  0.00     0.074 A 
ATOM     35  C   UNL A   1      44.340  26.780  31.277  1.00  0.00     0.031 C 
ATOM     36  C   UNL A   1      43.847  27.847  33.474  1.00  0.00     0.034 A 
BRANCH  23  37
ATOM     37  C   UNL A   1      40.362  32.313  35.986  1.00  0.00     0.023 A 
ATOM     38  C   UNL A   1      41.247  33.362  36.321  1.00  0.00     0.012 A 
ATOM     39  C   UNL A   1      39.227  32.082  36.775  1.00  0.00     0.148 A 
ATOM     40  C   UNL A   1      41.028  34.140  37.454  1.00  0.00     0.002 A 
ATOM     41  C   UNL A   1      39.001  32.879  37.891  1.00  0.00     0.091 A 
ATOM     42  F   UNL A   1      38.423  31.056  36.459  1.00  0.00    -0.205 F 
ATOM     43  C   UNL A   1      39.902  33.901  38.238  1.00  0.00     0.022 A 
BRANCH  41  44
ATOM     44  S   UNL A   1      37.566  32.655  38.944  1.00  0.00     0.127 S 
ATOM     45  O   UNL A   1      37.750  31.280  39.404  1.00  0.00    -0.237 OA
ATOM     46  O   UNL A   1      37.769  33.675  39.973  1.00  0.00    -0.237 OA
ATOM     47  O   UNL A   1      36.411  32.888  38.087  1.00  0.00    -0.744 OA
ENDBRANCH  41  44
ENDBRANCH  23  37
BRANCH  24  48
ATOM     48  C   UNL A   1      41.809  26.833  27.882  1.00  0.00     0.023 A 
ATOM     49  C   UNL A   1      42.147  27.598  26.751  1.00  0.00     0.012 A 
ATOM     50  C   UNL A   1      41.731  25.430  27.765  1.00  0.00     0.148 A 
ATOM     51  C   UNL A   1      42.400  26.977  25.526  1.00  0.00     0.002 A 
ATOM     52  C   UNL A   1      42.003  24.815  26.544  1.00  0.00     0.091 A 
ATOM     53  F   UNL A   1      41.397  24.720  28.852  1.00  0.00    -0.205 F 
ATOM     54  C   UNL A   1      42.336  25.589  25.423  1.00  0.00     0.022 A 
BRANCH  52  55
ATOM     55  S   UNL A   1      42.045  23.027  26.332  1.00  0.00     0.127 S 
ATOM     56  O   UNL A   1      40.634  22.673  26.457  1.00  0.00    -0.237 OA
ATOM     57  O   UNL A   1      42.600  22.902  24.983  1.00  0.00    -0.237 OA
ATOM     58  O   UNL A   1      42.919  22.527  27.385  1.00  0.00    -0.744 OA
ENDBRANCH  52  55
ENDBRANCH  24  48
BRANCH  36  59
ATOM     59  C   UNL A   1      44.923  27.014  34.104  1.00  0.00     0.023 A 
ATOM     60  C   UNL A   1      46.268  27.416  34.030  1.00  0.00     0.012 A 
ATOM     61  C   UNL A   1      44.571  25.882  34.867  1.00  0.00     0.148 A 
ATOM     62  C   UNL A   1      47.252  26.697  34.704  1.00  0.00     0.002 A 
ATOM     63  C   UNL A   1      45.549  25.200  35.575  1.00  0.00     0.091 A 
ATOM     64  F   UNL A   1      43.285  25.504  34.896  1.00  0.00    -0.205 F 
ATOM     65  C   UNL A   1      46.893  25.602  35.489  1.00  0.00     0.022 A 
BRANCH  63  66
ATOM     66  S   UNL A   1      45.166  23.848  36.693  1.00  0.00     0.127 S 
ATOM     67  O   UNL A   1      44.531  22.887  35.793  1.00  0.00    -0.237 OA
ATOM     68  O   UNL A   1      46.493  23.457  37.169  1.00  0.00    -0.237 OA
ATOM     69  O   UNL A   1      44.295  24.406  37.719  1.00  0.00    -0.744 OA
ENDBRANCH  63  66
ENDBRANCH  36  59
ENDBRANCH  10  11
ENDBRANCH   3   5
ENDBRANCH   2   3
ENDBRANCH   1   2
BRANCH   1  70
ATOM     70  C   UNL A   1      31.807  29.630  26.907  1.00  0.00     0.275 C 
BRANCH  70  71
ATOM     71  O   UNL A   1      32.052  28.223  26.961  1.00  0.00    -0.458 OA
BRANCH  71  72
ATOM     72  C   UNL A   1      31.903  27.565  25.786  1.00  0.00     0.340 C 
ATOM     73  O   UNL A   1      32.001  28.021  24.658  1.00  0.00    -0.246 OA
BRANCH  72  74
ATOM     74  C   UNL A   1      31.533  26.183  26.067  1.00  0.00     0.085 A 
ATOM     75  C   UNL A   1      30.153  25.903  26.051  1.00  0.00     0.018 A 
ATOM     76  C   UNL A   1      32.491  25.183  26.302  1.00  0.00     0.077 A 
ATOM     77  C   UNL A   1      29.699  24.600  26.236  1.00  0.00     0.001 A 
ATOM     78  C   UNL A   1      31.988  23.886  26.532  1.00  0.00     0.029 A 
ATOM     79  C   UNL A   1      30.620  23.589  26.483  1.00  0.00     0.002 A 
BRANCH  76  80
ATOM     80  N   UNL A   1      33.876  25.204  26.034  1.00  0.00    -0.255 NA
ATOM     81  C   UNL A   1      34.456  25.090  24.881  1.00  0.00     0.127 C 
BRANCH  81  82
ATOM     82  C   UNL A   1      35.554  24.066  24.832  1.00  0.00     0.076 A 
ATOM     83  C   UNL A   1      35.823  23.449  25.999  1.00  0.00     0.209 A 
ATOM     84  C   UNL A   1      35.383  23.095  23.714  1.00  0.00     0.201 A 
ATOM     85  O   UNL A   1      35.624  22.072  26.185  1.00  0.00    -0.463 OA
ATOM     86  C   UNL A   1      34.439  22.042  24.101  1.00  0.00     0.065 A 
ATOM     87  O   UNL A   1      35.866  23.243  22.603  1.00  0.00    -0.288 OA
ATOM     88  C   UNL A   1      34.593  21.569  25.406  1.00  0.00     0.137 A 
ATOM     89  C   UNL A   1      33.298  21.782  23.351  1.00  0.00     0.016 A 
ATOM     90  C   UNL A   1      33.616  20.751  25.953  1.00  0.00     0.048 A 
ATOM     91  C   UNL A   1      32.314  20.971  23.898  1.00  0.00     0.001 A 
ATOM     92  C   UNL A   1      32.473  20.471  25.194  1.00  0.00     0.004 A 
ENDBRANCH  81  82
ENDBRANCH  76  80
ENDBRANCH  72  74
ENDBRANCH  71  72
ENDBRANCH  70  71
ENDBRANCH   1  70
TORSDOF 16
ENDMDL
