MODEL 1
REMARK VINA RESULT:     -12.6      0.000      0.000
REMARK SMILES Nc1cc(C(=O)OCCOC(=O)c2ccc(-c3c4nc(c(-c5cccc(S(=O)(=O)[O-])c5F)c5ccc([nH]5)c(-c5cccc(S(=O)(=O)[O-])c5F)c5nc(c(-c6cccc(S(=O)(=O)[O-])c6F)c6ccc3[nH]6)C=C5)C=C4)cc2)ccc1N1CC2(CCOCC2)C1
REMARK SMILES IDX 9 1 8 2 7 3 5 4 6 5 4 6 2 7 3 8 78 9 77 10 76 11 1 12 79 15
REMARK SMILES IDX 80 16 87 17 81 18 82 19 86 20 83 21 85 22 84 23 10 24 11 25
REMARK SMILES IDX 12 26 13 27 14 28 75 29 15 30 74 31 16 32 17 33 18 34 68 35
REMARK SMILES IDX 19 36 73 37 67 38 69 39 20 40 72 41 66 42 65 43 21 45 53 46
REMARK SMILES IDX 33 47 52 48 34 49 37 50 51 51 70 52 35 53 36 54 50 56 71 57
REMARK SMILES IDX 38 58 22 59 23 60 31 61 24 62 26 63 32 64 25 65 27 66 28 67
REMARK SMILES IDX 29 68 30 69 54 70 55 71 63 72 56 73 58 74 64 75 57 76 59 77
REMARK SMILES IDX 60 78 61 79 62 80 39 81 40 82 48 83 41 84 43 85 49 86 42 87
REMARK SMILES IDX 44 88 45 89 46 90 47 91
REMARK H PARENT 1 13 1 14 69 44 37 55
REMARK Flexibility Score: inf
ROOT
ATOM      1  C   UNL A   1      36.582  20.179  24.977  1.00  0.00     0.275 C 
ENDROOT
BRANCH   1   2
ATOM      2  C   UNL A   1      35.148  20.562  25.346  1.00  0.00     0.275 C 
BRANCH   2   3
ATOM      3  O   UNL A   1      34.200  20.077  24.371  1.00  0.00    -0.458 OA
BRANCH   3   4
ATOM      4  C   UNL A   1      32.894  20.257  24.694  1.00  0.00     0.338 C 
ATOM      5  O   UNL A   1      32.129  19.408  25.111  1.00  0.00    -0.246 OA
BRANCH   4   6
ATOM      6  C   UNL A   1      32.510  21.684  24.581  1.00  0.00     0.062 A 
ATOM      7  C   UNL A   1      32.414  23.662  23.133  1.00  0.00     0.056 A 
ATOM      8  C   UNL A   1      32.757  22.326  23.365  1.00  0.00     0.043 A 
ATOM      9  C   UNL A   1      31.955  24.427  24.221  1.00  0.00     0.060 A 
ATOM     10  C   UNL A   1      31.754  23.784  25.466  1.00  0.00     0.029 A 
ATOM     11  C   UNL A   1      31.995  22.415  25.642  1.00  0.00     0.018 A 
BRANCH   7  12
ATOM     12  N   UNL A   1      32.747  24.182  21.886  1.00  0.00    -0.397 N 
ATOM     13  H   UNL A   1      32.313  25.006  21.565  1.00  0.00     0.156 HD
ATOM     14  H   UNL A   1      33.416  23.728  21.325  1.00  0.00     0.156 HD
ENDBRANCH   7  12
BRANCH   9  15
ATOM     15  N   UNL A   1      31.724  25.821  24.179  1.00  0.00    -0.369 N 
ATOM     16  C   UNL A   1      32.566  26.933  24.481  1.00  0.00     0.125 C 
ATOM     17  C   UNL A   1      30.525  26.452  24.657  1.00  0.00     0.125 C 
ATOM     18  C   UNL A   1      31.397  27.560  25.280  1.00  0.00     0.010 C 
ATOM     19  C   UNL A   1      31.038  28.988  24.863  1.00  0.00     0.039 C 
ATOM     20  C   UNL A   1      31.465  27.476  26.814  1.00  0.00     0.039 C 
ATOM     21  C   UNL A   1      32.051  29.946  25.481  1.00  0.00     0.161 C 
ATOM     22  C   UNL A   1      32.448  28.519  27.330  1.00  0.00     0.161 C 
ATOM     23  O   UNL A   1      32.043  29.824  26.905  1.00  0.00    -0.381 OA
ENDBRANCH   9  15
ENDBRANCH   4   6
ENDBRANCH   3   4
ENDBRANCH   2   3
ENDBRANCH   1   2
BRANCH   1  24
ATOM     24  O   UNL A   1      37.474  21.291  25.176  1.00  0.00    -0.458 OA
BRANCH  24  25
ATOM     25  C   UNL A   1      38.673  20.978  25.715  1.00  0.00     0.338 C 
ATOM     26  O   UNL A   1      39.283  19.927  25.605  1.00  0.00    -0.246 OA
BRANCH  25  27
ATOM     27  C   UNL A   1      39.230  22.135  26.431  1.00  0.00     0.060 A 
ATOM     28  C   UNL A   1      38.698  23.388  26.163  1.00  0.00     0.016 A 
ATOM     29  C   UNL A   1      40.387  22.020  27.197  1.00  0.00     0.016 A 
ATOM     30  C   UNL A   1      39.406  24.537  26.506  1.00  0.00     0.010 A 
ATOM     31  C   UNL A   1      41.012  23.179  27.675  1.00  0.00     0.010 A 
ATOM     32  C   UNL A   1      40.568  24.458  27.287  1.00  0.00    -0.014 A 
BRANCH  32  33
ATOM     33  C   UNL A   1      41.309  25.697  27.683  1.00  0.00     0.031 A 
ATOM     34  C   UNL A   1      40.640  26.759  28.527  1.00  0.00     0.074 A 
ATOM     35  C   UNL A   1      42.583  25.889  27.278  1.00  0.00     0.049 A 
ATOM     36  N   UNL A   1      41.053  27.968  28.816  1.00  0.00    -0.248 NA
ATOM     37  C   UNL A   1      39.327  26.429  29.109  1.00  0.00     0.031 C 
ATOM     38  C   UNL A   1      43.369  24.954  26.468  1.00  0.00     0.029 A 
ATOM     39  N   UNL A   1      43.445  26.943  27.479  1.00  0.00    -0.354 N 
ATOM     40  C   UNL A   1      40.020  28.569  29.529  1.00  0.00     0.074 A 
ATOM     41  C   UNL A   1      38.965  27.587  29.646  1.00  0.00     0.031 C 
ATOM     42  C   UNL A   1      44.595  25.456  26.269  1.00  0.00     0.029 A 
ATOM     43  C   UNL A   1      44.655  26.794  26.839  1.00  0.00     0.049 A 
ATOM     44  H   UNL A   1      43.217  27.728  28.028  1.00  0.00     0.167 HD
ATOM     45  C   UNL A   1      39.956  29.822  30.045  1.00  0.00     0.034 A 
ATOM     46  C   UNL A   1      45.683  27.650  26.672  1.00  0.00     0.034 A 
ATOM     47  C   UNL A   1      41.038  30.772  29.999  1.00  0.00     0.049 A 
ATOM     48  C   UNL A   1      45.586  29.029  27.257  1.00  0.00     0.074 A 
ATOM     49  C   UNL A   1      41.091  32.041  30.548  1.00  0.00     0.029 A 
ATOM     50  N   UNL A   1      42.257  30.557  29.376  1.00  0.00    -0.354 N 
ATOM     51  N   UNL A   1      44.622  29.556  27.971  1.00  0.00    -0.248 NA
ATOM     52  C   UNL A   1      46.724  29.930  27.022  1.00  0.00     0.031 C 
ATOM     53  C   UNL A   1      42.330  32.606  30.231  1.00  0.00     0.029 A 
ATOM     54  C   UNL A   1      43.065  31.674  29.517  1.00  0.00     0.049 A 
ATOM     55  H   UNL A   1      42.513  29.733  28.902  1.00  0.00     0.167 HD
ATOM     56  C   UNL A   1      45.049  30.836  28.297  1.00  0.00     0.074 A 
ATOM     57  C   UNL A   1      46.370  30.996  27.725  1.00  0.00     0.031 C 
ATOM     58  C   UNL A   1      44.399  31.801  28.993  1.00  0.00     0.034 A 
BRANCH  45  59
ATOM     59  C   UNL A   1      38.678  30.253  30.722  1.00  0.00     0.023 A 
ATOM     60  C   UNL A   1      38.512  30.068  32.108  1.00  0.00     0.012 A 
ATOM     61  C   UNL A   1      37.675  30.924  29.991  1.00  0.00     0.148 A 
ATOM     62  C   UNL A   1      37.357  30.516  32.751  1.00  0.00     0.002 A 
ATOM     63  C   UNL A   1      36.548  31.408  30.646  1.00  0.00     0.091 A 
ATOM     64  F   UNL A   1      37.843  31.079  28.669  1.00  0.00    -0.205 F 
ATOM     65  C   UNL A   1      36.383  31.195  32.023  1.00  0.00     0.022 A 
BRANCH  63  66
ATOM     66  S   UNL A   1      35.277  32.369  29.814  1.00  0.00     0.127 S 
ATOM     67  O   UNL A   1      34.374  32.682  30.921  1.00  0.00    -0.237 OA
ATOM     68  O   UNL A   1      36.039  33.511  29.308  1.00  0.00    -0.237 OA
ATOM     69  O   UNL A   1      34.723  31.501  28.786  1.00  0.00    -0.744 OA
ENDBRANCH  63  66
ENDBRANCH  45  59
BRANCH  46  70
ATOM     70  C   UNL A   1      46.891  27.228  25.903  1.00  0.00     0.023 A 
ATOM     71  C   UNL A   1      47.838  26.379  26.508  1.00  0.00     0.012 A 
ATOM     72  C   UNL A   1      47.097  27.646  24.574  1.00  0.00     0.148 A 
ATOM     73  C   UNL A   1      48.980  25.979  25.814  1.00  0.00     0.002 A 
ATOM     74  C   UNL A   1      48.203  27.191  23.866  1.00  0.00     0.091 A 
ATOM     75  F   UNL A   1      46.198  28.472  24.020  1.00  0.00    -0.205 F 
ATOM     76  C   UNL A   1      49.156  26.374  24.491  1.00  0.00     0.022 A 
BRANCH  74  77
ATOM     77  S   UNL A   1      48.428  27.533  22.117  1.00  0.00     0.127 S 
ATOM     78  O   UNL A   1      49.638  28.350  22.126  1.00  0.00    -0.237 OA
ATOM     79  O   UNL A   1      48.595  26.188  21.564  1.00  0.00    -0.237 OA
ATOM     80  O   UNL A   1      47.209  28.206  21.690  1.00  0.00    -0.744 OA
ENDBRANCH  74  77
ENDBRANCH  46  70
BRANCH  58  81
ATOM     81  C   UNL A   1      45.124  33.099  29.225  1.00  0.00     0.023 A 
ATOM     82  C   UNL A   1      45.921  33.267  30.375  1.00  0.00     0.012 A 
ATOM     83  C   UNL A   1      45.062  34.132  28.269  1.00  0.00     0.148 A 
ATOM     84  C   UNL A   1      46.616  34.457  30.586  1.00  0.00     0.002 A 
ATOM     85  C   UNL A   1      45.799  35.293  28.461  1.00  0.00     0.091 A 
ATOM     86  F   UNL A   1      44.282  33.959  27.191  1.00  0.00    -0.205 F 
ATOM     87  C   UNL A   1      46.564  35.465  29.625  1.00  0.00     0.022 A 
BRANCH  85  88
ATOM     88  S   UNL A   1      45.871  36.601  27.232  1.00  0.00     0.127 S 
ATOM     89  O   UNL A   1      46.951  37.438  27.751  1.00  0.00    -0.237 OA
ATOM     90  O   UNL A   1      46.201  35.864  26.013  1.00  0.00    -0.237 OA
ATOM     91  O   UNL A   1      44.552  37.219  27.225  1.00  0.00    -0.744 OA
ENDBRANCH  85  88
ENDBRANCH  58  81
ENDBRANCH  32  33
ENDBRANCH  25  27
ENDBRANCH  24  25
ENDBRANCH   1  24
TORSDOF 16
ENDMDL
MODEL 2
REMARK VINA RESULT:     -12.4      5.189     10.338
REMARK SMILES Nc1cc(C(=O)OCCOC(=O)c2ccc(-c3c4nc(c(-c5cccc(S(=O)(=O)[O-])c5F)c5ccc([nH]5)c(-c5cccc(S(=O)(=O)[O-])c5F)c5nc(c(-c6cccc(S(=O)(=O)[O-])c6F)c6ccc3[nH]6)C=C5)C=C4)cc2)ccc1N1CC2(CCOCC2)C1
REMARK SMILES IDX 9 1 8 2 7 3 5 4 6 5 4 6 2 7 3 8 78 9 77 10 76 11 1 12 79 15
REMARK SMILES IDX 80 16 87 17 81 18 82 19 86 20 83 21 85 22 84 23 10 24 11 25
REMARK SMILES IDX 12 26 13 27 14 28 75 29 15 30 74 31 16 32 17 33 18 34 68 35
REMARK SMILES IDX 19 36 73 37 67 38 69 39 20 40 72 41 66 42 65 43 21 45 53 46
REMARK SMILES IDX 33 47 52 48 34 49 37 50 51 51 70 52 35 53 36 54 50 56 71 57
REMARK SMILES IDX 38 58 22 59 23 60 31 61 24 62 26 63 32 64 25 65 27 66 28 67
REMARK SMILES IDX 29 68 30 69 54 70 55 71 63 72 56 73 58 74 64 75 57 76 59 77
REMARK SMILES IDX 60 78 61 79 62 80 39 81 40 82 48 83 41 84 43 85 49 86 42 87
REMARK SMILES IDX 44 88 45 89 46 90 47 91
REMARK H PARENT 1 13 1 14 69 44 37 55
REMARK Flexibility Score: inf
ROOT
ATOM      1  C   UNL A   1      31.324  30.768  25.801  1.00  0.00     0.275 C 
ENDROOT
BRANCH   1   2
ATOM      2  C   UNL A   1      31.528  29.705  24.721  1.00  0.00     0.275 C 
BRANCH   2   3
ATOM      3  O   UNL A   1      30.269  29.178  24.249  1.00  0.00    -0.458 OA
BRANCH   3   4
ATOM      4  C   UNL A   1      30.342  28.438  23.113  1.00  0.00     0.338 C 
ATOM      5  O   UNL A   1      30.024  28.797  21.995  1.00  0.00    -0.246 OA
BRANCH   4   6
ATOM      6  C   UNL A   1      30.975  27.125  23.374  1.00  0.00     0.062 A 
ATOM      7  C   UNL A   1      30.915  25.055  24.691  1.00  0.00     0.056 A 
ATOM      8  C   UNL A   1      30.418  26.324  24.374  1.00  0.00     0.043 A 
ATOM      9  C   UNL A   1      32.119  24.645  24.089  1.00  0.00     0.060 A 
ATOM     10  C   UNL A   1      32.708  25.482  23.111  1.00  0.00     0.029 A 
ATOM     11  C   UNL A   1      32.126  26.698  22.727  1.00  0.00     0.018 A 
BRANCH   7  12
ATOM     12  N   UNL A   1      30.282  24.382  25.731  1.00  0.00    -0.397 N 
ATOM     13  H   UNL A   1      29.338  24.573  25.937  1.00  0.00     0.156 HD
ATOM     14  H   UNL A   1      30.776  23.715  26.260  1.00  0.00     0.156 HD
ENDBRANCH   7  12
BRANCH   9  15
ATOM     15  N   UNL A   1      32.822  23.467  24.428  1.00  0.00    -0.369 N 
ATOM     16  C   UNL A   1      33.949  23.244  25.274  1.00  0.00     0.125 C 
ATOM     17  C   UNL A   1      33.186  22.449  23.482  1.00  0.00     0.125 C 
ATOM     18  C   UNL A   1      34.563  22.351  24.169  1.00  0.00     0.010 C 
ATOM     19  C   UNL A   1      34.964  20.949  24.636  1.00  0.00     0.039 C 
ATOM     20  C   UNL A   1      35.697  22.952  23.323  1.00  0.00     0.039 C 
ATOM     21  C   UNL A   1      36.293  21.044  25.378  1.00  0.00     0.161 C 
ATOM     22  C   UNL A   1      36.988  22.934  24.130  1.00  0.00     0.161 C 
ATOM     23  O   UNL A   1      37.299  21.594  24.524  1.00  0.00    -0.381 OA
ENDBRANCH   9  15
ENDBRANCH   4   6
ENDBRANCH   3   4
ENDBRANCH   2   3
ENDBRANCH   1   2
BRANCH   1  24
ATOM     24  O   UNL A   1      32.290  30.613  26.858  1.00  0.00    -0.458 OA
BRANCH  24  25
ATOM     25  C   UNL A   1      32.948  31.741  27.205  1.00  0.00     0.338 C 
ATOM     26  O   UNL A   1      32.501  32.875  27.250  1.00  0.00    -0.246 OA
BRANCH  25  27
ATOM     27  C   UNL A   1      34.324  31.424  27.618  1.00  0.00     0.060 A 
ATOM     28  C   UNL A   1      34.653  30.093  27.827  1.00  0.00     0.016 A 
ATOM     29  C   UNL A   1      35.214  32.428  27.988  1.00  0.00     0.016 A 
ATOM     30  C   UNL A   1      35.788  29.760  28.562  1.00  0.00     0.010 A 
ATOM     31  C   UNL A   1      36.431  32.079  28.589  1.00  0.00     0.010 A 
ATOM     32  C   UNL A   1      36.712  30.745  28.941  1.00  0.00    -0.014 A 
BRANCH  32  33
ATOM     33  C   UNL A   1      37.949  30.381  29.702  1.00  0.00     0.031 A 
ATOM     34  C   UNL A   1      38.974  29.441  29.104  1.00  0.00     0.074 A 
ATOM     35  C   UNL A   1      38.158  30.875  30.942  1.00  0.00     0.049 A 
ATOM     36  N   UNL A   1      40.006  28.873  29.675  1.00  0.00    -0.248 NA
ATOM     37  C   UNL A   1      38.809  29.080  27.686  1.00  0.00     0.031 C 
ATOM     38  C   UNL A   1      37.268  31.797  31.651  1.00  0.00     0.029 A 
ATOM     39  N   UNL A   1      39.180  30.662  31.838  1.00  0.00    -0.354 N 
ATOM     40  C   UNL A   1      40.555  28.022  28.720  1.00  0.00     0.074 A 
ATOM     41  C   UNL A   1      39.753  28.161  27.524  1.00  0.00     0.031 C 
ATOM     42  C   UNL A   1      37.792  32.094  32.847  1.00  0.00     0.029 A 
ATOM     43  C   UNL A   1      38.998  31.303  33.043  1.00  0.00     0.049 A 
ATOM     44  H   UNL A   1      39.967  30.104  31.635  1.00  0.00     0.167 HD
ATOM     45  C   UNL A   1      41.632  27.204  28.824  1.00  0.00     0.034 A 
ATOM     46  C   UNL A   1      39.683  31.226  34.201  1.00  0.00     0.034 A 
ATOM     47  C   UNL A   1      42.478  27.126  29.987  1.00  0.00     0.049 A 
ATOM     48  C   UNL A   1      40.873  30.315  34.287  1.00  0.00     0.074 A 
ATOM     49  C   UNL A   1      43.627  26.374  30.164  1.00  0.00     0.029 A 
ATOM     50  N   UNL A   1      42.275  27.826  31.165  1.00  0.00    -0.354 N 
ATOM     51  N   UNL A   1      41.403  29.561  33.355  1.00  0.00    -0.248 NA
ATOM     52  C   UNL A   1      41.566  30.251  35.582  1.00  0.00     0.031 C 
ATOM     53  C   UNL A   1      44.102  26.596  31.460  1.00  0.00     0.029 A 
ATOM     54  C   UNL A   1      43.271  27.516  32.078  1.00  0.00     0.049 A 
ATOM     55  H   UNL A   1      41.533  28.451  31.331  1.00  0.00     0.167 HD
ATOM     56  C   UNL A   1      42.508  28.958  33.941  1.00  0.00     0.074 A 
ATOM     57  C   UNL A   1      42.587  29.454  35.299  1.00  0.00     0.031 C 
ATOM     58  C   UNL A   1      43.371  28.059  33.407  1.00  0.00     0.034 A 
BRANCH  45  59
ATOM     59  C   UNL A   1      41.978  26.323  27.649  1.00  0.00     0.023 A 
ATOM     60  C   UNL A   1      42.763  26.826  26.592  1.00  0.00     0.012 A 
ATOM     61  C   UNL A   1      41.595  24.965  27.637  1.00  0.00     0.148 A 
ATOM     62  C   UNL A   1      43.136  26.001  25.530  1.00  0.00     0.002 A 
ATOM     63  C   UNL A   1      42.009  24.139  26.598  1.00  0.00     0.091 A 
ATOM     64  F   UNL A   1      40.836  24.507  28.643  1.00  0.00    -0.205 F 
ATOM     65  C   UNL A   1      42.770  24.658  25.539  1.00  0.00     0.022 A 
BRANCH  63  66
ATOM     66  S   UNL A   1      41.662  22.376  26.560  1.00  0.00     0.127 S 
ATOM     67  O   UNL A   1      42.220  21.939  27.838  1.00  0.00    -0.237 OA
ATOM     68  O   UNL A   1      40.200  22.352  26.494  1.00  0.00    -0.237 OA
ATOM     69  O   UNL A   1      42.333  21.858  25.377  1.00  0.00    -0.744 OA
ENDBRANCH  63  66
ENDBRANCH  45  59
BRANCH  46  70
ATOM     70  C   UNL A   1      39.249  32.030  35.381  1.00  0.00     0.023 A 
ATOM     71  C   UNL A   1      38.373  31.461  36.326  1.00  0.00     0.012 A 
ATOM     72  C   UNL A   1      39.714  33.345  35.585  1.00  0.00     0.148 A 
ATOM     73  C   UNL A   1      37.945  32.196  37.432  1.00  0.00     0.002 A 
ATOM     74  C   UNL A   1      39.337  34.047  36.723  1.00  0.00     0.091 A 
ATOM     75  F   UNL A   1      40.531  33.879  34.665  1.00  0.00    -0.205 F 
ATOM     76  C   UNL A   1      38.437  33.482  37.638  1.00  0.00     0.022 A 
BRANCH  74  77
ATOM     77  S   UNL A   1      40.038  35.649  37.136  1.00  0.00     0.127 S 
ATOM     78  O   UNL A   1      39.653  36.451  35.978  1.00  0.00    -0.237 OA
ATOM     79  O   UNL A   1      39.333  35.977  38.376  1.00  0.00    -0.237 OA
ATOM     80  O   UNL A   1      41.466  35.419  37.305  1.00  0.00    -0.744 OA
ENDBRANCH  74  77
ENDBRANCH  46  70
BRANCH  58  81
ATOM     81  C   UNL A   1      44.512  27.592  34.272  1.00  0.00     0.023 A 
ATOM     82  C   UNL A   1      45.726  28.306  34.285  1.00  0.00     0.012 A 
ATOM     83  C   UNL A   1      44.354  26.478  35.119  1.00  0.00     0.148 A 
ATOM     84  C   UNL A   1      46.779  27.895  35.100  1.00  0.00     0.002 A 
ATOM     85  C   UNL A   1      45.389  26.106  35.967  1.00  0.00     0.091 A 
ATOM     86  F   UNL A   1      43.197  25.802  35.077  1.00  0.00    -0.205 F 
ATOM     87  C   UNL A   1      46.607  26.803  35.949  1.00  0.00     0.022 A 
BRANCH  85  88
ATOM     88  S   UNL A   1      45.222  24.777  37.164  1.00  0.00     0.127 S 
ATOM     89  O   UNL A   1      46.483  24.876  37.896  1.00  0.00    -0.237 OA
ATOM     90  O   UNL A   1      44.041  25.188  37.922  1.00  0.00    -0.237 OA
ATOM     91  O   UNL A   1      45.047  23.557  36.387  1.00  0.00    -0.744 OA
ENDBRANCH  85  88
ENDBRANCH  58  81
ENDBRANCH  32  33
ENDBRANCH  25  27
ENDBRANCH  24  25
ENDBRANCH   1  24
TORSDOF 16
ENDMDL
MODEL 3
REMARK VINA RESULT:     -12.3      1.833      2.387
REMARK SMILES Nc1cc(C(=O)OCCOC(=O)c2ccc(-c3c4nc(c(-c5cccc(S(=O)(=O)[O-])c5F)c5ccc([nH]5)c(-c5cccc(S(=O)(=O)[O-])c5F)c5nc(c(-c6cccc(S(=O)(=O)[O-])c6F)c6ccc3[nH]6)C=C5)C=C4)cc2)ccc1N1CC2(CCOCC2)C1
REMARK SMILES IDX 9 1 8 2 7 3 5 4 6 5 4 6 2 7 3 8 78 9 77 10 76 11 1 12 79 15
REMARK SMILES IDX 80 16 87 17 81 18 82 19 86 20 83 21 85 22 84 23 10 24 11 25
REMARK SMILES IDX 12 26 13 27 14 28 75 29 15 30 74 31 16 32 17 33 18 34 68 35
REMARK SMILES IDX 19 36 73 37 67 38 69 39 20 40 72 41 66 42 65 43 21 45 53 46
REMARK SMILES IDX 33 47 52 48 34 49 37 50 51 51 70 52 35 53 36 54 50 56 71 57
REMARK SMILES IDX 38 58 22 59 23 60 31 61 24 62 26 63 32 64 25 65 27 66 28 67
REMARK SMILES IDX 29 68 30 69 54 70 55 71 63 72 56 73 58 74 64 75 57 76 59 77
REMARK SMILES IDX 60 78 61 79 62 80 39 81 40 82 48 83 41 84 43 85 49 86 42 87
REMARK SMILES IDX 44 88 45 89 46 90 47 91
REMARK H PARENT 1 13 1 14 69 44 37 55
REMARK Flexibility Score: inf
ROOT
ATOM      1  C   UNL A   1      36.271  20.646  25.000  1.00  0.00     0.275 C 
ENDROOT
BRANCH   1   2
ATOM      2  C   UNL A   1      34.941  21.204  25.510  1.00  0.00     0.275 C 
BRANCH   2   3
ATOM      3  O   UNL A   1      35.106  22.507  26.111  1.00  0.00    -0.458 OA
BRANCH   3   4
ATOM      4  C   UNL A   1      34.015  22.985  26.763  1.00  0.00     0.338 C 
ATOM      5  O   UNL A   1      33.552  22.561  27.804  1.00  0.00    -0.246 OA
BRANCH   4   6
ATOM      6  C   UNL A   1      33.487  24.198  26.097  1.00  0.00     0.062 A 
ATOM      7  C   UNL A   1      31.490  25.406  25.341  1.00  0.00     0.056 A 
ATOM      8  C   UNL A   1      32.103  24.297  25.932  1.00  0.00     0.043 A 
ATOM      9  C   UNL A   1      32.312  26.380  24.746  1.00  0.00     0.060 A 
ATOM     10  C   UNL A   1      33.716  26.251  24.872  1.00  0.00     0.029 A 
ATOM     11  C   UNL A   1      34.305  25.189  25.571  1.00  0.00     0.018 A 
BRANCH   7  12
ATOM     12  N   UNL A   1      30.105  25.355  25.213  1.00  0.00    -0.397 N 
ATOM     13  H   UNL A   1      29.553  25.038  25.964  1.00  0.00     0.156 HD
ATOM     14  H   UNL A   1      29.677  25.637  24.373  1.00  0.00     0.156 HD
ENDBRANCH   7  12
BRANCH   9  15
ATOM     15  N   UNL A   1      31.838  27.468  23.977  1.00  0.00    -0.369 N 
ATOM     16  C   UNL A   1      30.953  28.541  24.295  1.00  0.00     0.125 C 
ATOM     17  C   UNL A   1      31.399  27.356  22.614  1.00  0.00     0.125 C 
ATOM     18  C   UNL A   1      30.223  28.294  22.953  1.00  0.00     0.010 C 
ATOM     19  C   UNL A   1      30.096  29.533  22.063  1.00  0.00     0.039 C 
ATOM     20  C   UNL A   1      28.871  27.563  23.007  1.00  0.00     0.039 C 
ATOM     21  C   UNL A   1      28.955  30.398  22.591  1.00  0.00     0.161 C 
ATOM     22  C   UNL A   1      27.795  28.533  23.477  1.00  0.00     0.161 C 
ATOM     23  O   UNL A   1      27.733  29.658  22.595  1.00  0.00    -0.381 OA
ENDBRANCH   9  15
ENDBRANCH   4   6
ENDBRANCH   3   4
ENDBRANCH   2   3
ENDBRANCH   1   2
BRANCH   1  24
ATOM     24  O   UNL A   1      37.296  21.655  25.044  1.00  0.00    -0.458 OA
BRANCH  24  25
ATOM     25  C   UNL A   1      38.441  21.286  25.660  1.00  0.00     0.338 C 
ATOM     26  O   UNL A   1      38.999  20.203  25.600  1.00  0.00    -0.246 OA
BRANCH  25  27
ATOM     27  C   UNL A   1      39.013  22.422  26.399  1.00  0.00     0.060 A 
ATOM     28  C   UNL A   1      38.505  23.688  26.147  1.00  0.00     0.016 A 
ATOM     29  C   UNL A   1      40.161  22.274  27.172  1.00  0.00     0.016 A 
ATOM     30  C   UNL A   1      39.230  24.819  26.514  1.00  0.00     0.010 A 
ATOM     31  C   UNL A   1      40.804  23.414  27.672  1.00  0.00     0.010 A 
ATOM     32  C   UNL A   1      40.385  24.706  27.302  1.00  0.00    -0.014 A 
BRANCH  32  33
ATOM     33  C   UNL A   1      41.145  25.925  27.723  1.00  0.00     0.031 A 
ATOM     34  C   UNL A   1      40.489  26.985  28.582  1.00  0.00     0.074 A 
ATOM     35  C   UNL A   1      42.424  26.103  27.328  1.00  0.00     0.049 A 
ATOM     36  N   UNL A   1      40.922  28.181  28.894  1.00  0.00    -0.248 NA
ATOM     37  C   UNL A   1      39.168  26.668  29.151  1.00  0.00     0.031 C 
ATOM     38  C   UNL A   1      43.199  25.169  26.506  1.00  0.00     0.029 A 
ATOM     39  N   UNL A   1      43.303  27.139  27.551  1.00  0.00    -0.354 N 
ATOM     40  C   UNL A   1      39.895  28.788  29.612  1.00  0.00     0.074 A 
ATOM     41  C   UNL A   1      38.823  27.822  29.706  1.00  0.00     0.031 C 
ATOM     42  C   UNL A   1      44.434  25.653  26.322  1.00  0.00     0.029 A 
ATOM     43  C   UNL A   1      44.514  26.979  26.915  1.00  0.00     0.049 A 
ATOM     44  H   UNL A   1      43.085  27.918  28.112  1.00  0.00     0.167 HD
ATOM     45  C   UNL A   1      39.850  30.033  30.149  1.00  0.00     0.034 A 
ATOM     46  C   UNL A   1      45.556  27.820  26.768  1.00  0.00     0.034 A 
ATOM     47  C   UNL A   1      40.948  30.964  30.124  1.00  0.00     0.049 A 
ATOM     48  C   UNL A   1      45.480  29.191  27.377  1.00  0.00     0.074 A 
ATOM     49  C   UNL A   1      41.019  32.223  30.696  1.00  0.00     0.029 A 
ATOM     50  N   UNL A   1      42.166  30.739  29.504  1.00  0.00    -0.354 N 
ATOM     51  N   UNL A   1      44.521  29.722  28.095  1.00  0.00    -0.248 NA
ATOM     52  C   UNL A   1      46.634  30.076  27.163  1.00  0.00     0.031 C 
ATOM     53  C   UNL A   1      42.269  32.772  30.395  1.00  0.00     0.029 A 
ATOM     54  C   UNL A   1      42.992  31.839  29.669  1.00  0.00     0.049 A 
ATOM     55  H   UNL A   1      42.410  29.919  29.018  1.00  0.00     0.167 HD
ATOM     56  C   UNL A   1      44.968  30.989  28.444  1.00  0.00     0.074 A 
ATOM     57  C   UNL A   1      46.294  31.136  27.882  1.00  0.00     0.031 C 
ATOM     58  C   UNL A   1      44.331  31.953  29.154  1.00  0.00     0.034 A 
BRANCH  45  59
ATOM     59  C   UNL A   1      38.575  30.474  30.826  1.00  0.00     0.023 A 
ATOM     60  C   UNL A   1      38.393  30.256  32.206  1.00  0.00     0.012 A 
ATOM     61  C   UNL A   1      37.593  31.185  30.105  1.00  0.00     0.148 A 
ATOM     62  C   UNL A   1      37.242  30.712  32.851  1.00  0.00     0.002 A 
ATOM     63  C   UNL A   1      36.472  31.677  30.763  1.00  0.00     0.091 A 
ATOM     64  F   UNL A   1      37.776  31.372  28.789  1.00  0.00    -0.205 F 
ATOM     65  C   UNL A   1      36.290  31.431  32.134  1.00  0.00     0.022 A 
BRANCH  63  66
ATOM     66  S   UNL A   1      35.229  32.687  29.948  1.00  0.00     0.127 S 
ATOM     67  O   UNL A   1      34.708  31.760  28.945  1.00  0.00    -0.237 OA
ATOM     68  O   UNL A   1      34.306  32.982  31.044  1.00  0.00    -0.237 OA
ATOM     69  O   UNL A   1      35.935  33.845  29.418  1.00  0.00    -0.744 OA
ENDBRANCH  63  66
ENDBRANCH  45  59
BRANCH  46  70
ATOM     70  C   UNL A   1      46.761  27.392  25.999  1.00  0.00     0.023 A 
ATOM     71  C   UNL A   1      46.842  27.672  24.621  1.00  0.00     0.012 A 
ATOM     72  C   UNL A   1      47.835  26.728  26.626  1.00  0.00     0.148 A 
ATOM     73  C   UNL A   1      47.953  27.273  23.878  1.00  0.00     0.002 A 
ATOM     74  C   UNL A   1      48.967  26.393  25.894  1.00  0.00     0.091 A 
ATOM     75  F   UNL A   1      47.733  26.450  27.933  1.00  0.00    -0.205 F 
ATOM     76  C   UNL A   1      49.020  26.646  24.516  1.00  0.00     0.022 A 
BRANCH  74  77
ATOM     77  S   UNL A   1      50.441  25.716  26.666  1.00  0.00     0.127 S 
ATOM     78  O   UNL A   1      51.342  25.584  25.525  1.00  0.00    -0.237 OA
ATOM     79  O   UNL A   1      50.798  26.772  27.615  1.00  0.00    -0.237 OA
ATOM     80  O   UNL A   1      50.018  24.470  27.291  1.00  0.00    -0.744 OA
ENDBRANCH  74  77
ENDBRANCH  46  70
BRANCH  58  81
ATOM     81  C   UNL A   1      45.077  33.234  29.412  1.00  0.00     0.023 A 
ATOM     82  C   UNL A   1      45.894  33.358  30.553  1.00  0.00     0.012 A 
ATOM     83  C   UNL A   1      45.014  34.295  28.487  1.00  0.00     0.148 A 
ATOM     84  C   UNL A   1      46.607  34.532  30.788  1.00  0.00     0.002 A 
ATOM     85  C   UNL A   1      45.769  35.440  28.701  1.00  0.00     0.091 A 
ATOM     86  F   UNL A   1      44.215  34.163  27.418  1.00  0.00    -0.205 F 
ATOM     87  C   UNL A   1      46.554  35.568  29.857  1.00  0.00     0.022 A 
BRANCH  85  88
ATOM     88  S   UNL A   1      45.839  36.783  27.509  1.00  0.00     0.127 S 
ATOM     89  O   UNL A   1      44.433  37.168  27.411  1.00  0.00    -0.237 OA
ATOM     90  O   UNL A   1      46.692  37.757  28.190  1.00  0.00    -0.237 OA
ATOM     91  O   UNL A   1      46.416  36.216  26.299  1.00  0.00    -0.744 OA
ENDBRANCH  85  88
ENDBRANCH  58  81
ENDBRANCH  32  33
ENDBRANCH  25  27
ENDBRANCH  24  25
ENDBRANCH   1  24
TORSDOF 16
ENDMDL
