MODEL 1
REMARK VINA RESULT:     -11.7      0.000      0.000
REMARK SMILES Nc1cc([N+](=O)[O-])ccc1[C@H]([NH3+])C(=O)OCCOC(=O)c1ccc(-c2c3nc(c(-c4cccc(S(=O)(=O)[O-])c4F)c4ccc([nH]4)c(-c4cccc(S(=O)(=O)[O-])c4F)c4nc(c(-c5cccc(S(=O)(=O)[O-])c5F)c5ccc2[nH]5)C=C4)C=C3)cc1
REMARK SMILES IDX 17 1 16 2 15 3 13 4 14 5 11 6 10 7 2 8 3 9 4 10 9 11 8 12
REMARK SMILES IDX 1 13 5 16 6 17 7 18 12 19 18 23 19 24 20 25 21 26 22 27
REMARK SMILES IDX 83 28 23 29 82 30 24 31 25 32 26 33 76 34 27 35 81 36 75 37
REMARK SMILES IDX 77 38 28 39 80 40 74 41 73 42 29 44 61 45 41 46 60 47 42 48
REMARK SMILES IDX 45 49 59 50 78 51 43 52 44 53 58 55 79 56 46 57 30 58 31 59
REMARK SMILES IDX 39 60 32 61 34 62 40 63 33 64 35 65 36 66 37 67 38 68 62 69
REMARK SMILES IDX 63 70 71 71 64 72 66 73 72 74 65 75 67 76 68 77 69 78 70 79
REMARK SMILES IDX 47 80 48 81 56 82 49 83 51 84 57 85 50 86 52 87 53 88 54 89
REMARK SMILES IDX 55 90
REMARK H PARENT 1 14 1 15 12 20 12 21 12 22 77 43 45 54
REMARK Flexibility Score: inf
ROOT
ATOM      1  C   UNL A   1      36.375  21.120  24.667  1.00  0.00     0.275 C 
ENDROOT
BRANCH   1   2
ATOM      2  C   UNL A   1      35.526  22.239  24.056  1.00  0.00     0.274 C 
BRANCH   2   3
ATOM      3  O   UNL A   1      34.122  21.995  24.240  1.00  0.00    -0.457 OA
BRANCH   3   4
ATOM      4  C   UNL A   1      33.321  22.103  23.141  1.00  0.00     0.369 C 
ATOM      5  O   UNL A   1      33.496  22.925  22.246  1.00  0.00    -0.245 OA
BRANCH   4   6
ATOM      6  C   UNL A   1      32.174  21.054  23.127  1.00  0.00     0.325 C 
BRANCH   6   7
ATOM      7  C   UNL A   1      32.536  19.684  23.716  1.00  0.00     0.044 A 
ATOM      8  C   UNL A   1      32.639  19.489  25.116  1.00  0.00     0.048 A 
ATOM      9  C   UNL A   1      32.818  18.194  25.625  1.00  0.00     0.111 A 
ATOM     10  C   UNL A   1      33.041  17.118  24.760  1.00  0.00     0.271 A 
ATOM     11  C   UNL A   1      32.813  18.587  22.871  1.00  0.00     0.020 A 
ATOM     12  C   UNL A   1      33.077  17.315  23.382  1.00  0.00     0.086 A 
BRANCH   8  13
ATOM     13  N   UNL A   1      32.477  20.535  26.028  1.00  0.00    -0.398 N 
ATOM     14  H   UNL A   1      32.950  20.513  26.892  1.00  0.00     0.156 HD
ATOM     15  H   UNL A   1      31.890  21.294  25.808  1.00  0.00     0.156 HD
ENDBRANCH   8  13
BRANCH  10  16
ATOM     16  N   UNL A   1      33.240  15.772  25.306  1.00  0.00     0.062 N 
ATOM     17  O   UNL A   1      34.378  15.284  25.241  1.00  0.00    -0.258 OA
ATOM     18  O   UNL A   1      32.264  15.205  25.818  1.00  0.00    -0.258 OA
ENDBRANCH  10  16
ENDBRANCH   6   7
BRANCH   6  19
ATOM     19  N   UNL A   1      31.607  20.937  21.760  1.00  0.00    -0.342 N 
ATOM     20  H   UNL A   1      31.423  21.869  21.388  1.00  0.00     0.345 HD
ATOM     21  H   UNL A   1      30.735  20.408  21.798  1.00  0.00     0.345 HD
ATOM     22  H   UNL A   1      32.271  20.455  21.156  1.00  0.00     0.345 HD
ENDBRANCH   6  19
ENDBRANCH   4   6
ENDBRANCH   3   4
ENDBRANCH   2   3
ENDBRANCH   1   2
BRANCH   1  23
ATOM     23  O   UNL A   1      37.050  21.543  25.866  1.00  0.00    -0.458 OA
BRANCH  23  24
ATOM     24  C   UNL A   1      38.378  21.283  25.909  1.00  0.00     0.338 C 
ATOM     25  O   UNL A   1      38.955  20.314  25.439  1.00  0.00    -0.246 OA
BRANCH  24  26
ATOM     26  C   UNL A   1      39.098  22.437  26.474  1.00  0.00     0.060 A 
ATOM     27  C   UNL A   1      38.626  23.712  26.148  1.00  0.00     0.016 A 
ATOM     28  C   UNL A   1      40.248  22.284  27.250  1.00  0.00     0.016 A 
ATOM     29  C   UNL A   1      39.312  24.842  26.572  1.00  0.00     0.010 A 
ATOM     30  C   UNL A   1      40.935  23.423  27.681  1.00  0.00     0.010 A 
ATOM     31  C   UNL A   1      40.480  24.706  27.328  1.00  0.00    -0.014 A 
BRANCH  31  32
ATOM     32  C   UNL A   1      41.249  25.917  27.697  1.00  0.00     0.031 A 
ATOM     33  C   UNL A   1      40.591  27.001  28.498  1.00  0.00     0.074 A 
ATOM     34  C   UNL A   1      42.535  26.033  27.320  1.00  0.00     0.049 A 
ATOM     35  N   UNL A   1      41.069  28.159  28.870  1.00  0.00    -0.248 NA
ATOM     36  C   UNL A   1      39.208  26.750  28.939  1.00  0.00     0.031 C 
ATOM     37  C   UNL A   1      43.278  25.037  26.547  1.00  0.00     0.029 A 
ATOM     38  N   UNL A   1      43.435  27.049  27.515  1.00  0.00    -0.354 N 
ATOM     39  C   UNL A   1      40.038  28.793  29.552  1.00  0.00     0.074 A 
ATOM     40  C   UNL A   1      38.906  27.891  29.540  1.00  0.00     0.031 C 
ATOM     41  C   UNL A   1      44.513  25.506  26.307  1.00  0.00     0.029 A 
ATOM     42  C   UNL A   1      44.635  26.845  26.878  1.00  0.00     0.049 A 
ATOM     43  H   UNL A   1      43.240  27.847  28.058  1.00  0.00     0.167 HD
ATOM     44  C   UNL A   1      40.040  30.011  30.142  1.00  0.00     0.034 A 
ATOM     45  C   UNL A   1      45.701  27.658  26.742  1.00  0.00     0.034 A 
ATOM     46  C   UNL A   1      41.180  30.888  30.177  1.00  0.00     0.049 A 
ATOM     47  C   UNL A   1      45.679  29.007  27.406  1.00  0.00     0.074 A 
ATOM     48  C   UNL A   1      41.297  32.124  30.788  1.00  0.00     0.029 A 
ATOM     49  N   UNL A   1      42.399  30.625  29.571  1.00  0.00    -0.354 N 
ATOM     50  N   UNL A   1      44.732  29.552  28.132  1.00  0.00    -0.248 NA
ATOM     51  C   UNL A   1      46.879  29.842  27.257  1.00  0.00     0.031 C 
ATOM     52  C   UNL A   1      42.584  32.614  30.537  1.00  0.00     0.029 A 
ATOM     53  C   UNL A   1      43.273  31.676  29.785  1.00  0.00     0.049 A 
ATOM     54  H   UNL A   1      42.612  29.809  29.062  1.00  0.00     0.167 HD
ATOM     55  C   UNL A   1      45.229  30.783  28.544  1.00  0.00     0.074 A 
ATOM     56  C   UNL A   1      46.571  30.892  28.008  1.00  0.00     0.031 C 
ATOM     57  C   UNL A   1      44.623  31.746  29.284  1.00  0.00     0.034 A 
BRANCH  44  58
ATOM     58  C   UNL A   1      38.773  30.451  30.825  1.00  0.00     0.023 A 
ATOM     59  C   UNL A   1      38.591  30.184  32.197  1.00  0.00     0.012 A 
ATOM     60  C   UNL A   1      37.777  31.153  30.120  1.00  0.00     0.148 A 
ATOM     61  C   UNL A   1      37.424  30.579  32.848  1.00  0.00     0.002 A 
ATOM     62  C   UNL A   1      36.632  31.578  30.785  1.00  0.00     0.091 A 
ATOM     63  F   UNL A   1      37.953  31.374  28.808  1.00  0.00    -0.205 F 
ATOM     64  C   UNL A   1      36.449  31.283  32.146  1.00  0.00     0.022 A 
BRANCH  62  65
ATOM     65  S   UNL A   1      35.356  32.549  29.974  1.00  0.00     0.127 S 
ATOM     66  O   UNL A   1      36.083  33.773  29.643  1.00  0.00    -0.237 OA
ATOM     67  O   UNL A   1      35.013  31.713  28.822  1.00  0.00    -0.237 OA
ATOM     68  O   UNL A   1      34.288  32.692  30.953  1.00  0.00    -0.744 OA
ENDBRANCH  62  65
ENDBRANCH  44  58
BRANCH  45  69
ATOM     69  C   UNL A   1      46.880  27.195  25.958  1.00  0.00     0.023 A 
ATOM     70  C   UNL A   1      47.730  26.209  26.494  1.00  0.00     0.012 A 
ATOM     71  C   UNL A   1      47.127  27.686  24.661  1.00  0.00     0.148 A 
ATOM     72  C   UNL A   1      48.814  25.732  25.756  1.00  0.00     0.002 A 
ATOM     73  C   UNL A   1      48.174  27.166  23.910  1.00  0.00     0.091 A 
ATOM     74  F   UNL A   1      46.318  28.640  24.178  1.00  0.00    -0.205 F 
ATOM     75  C   UNL A   1      49.028  26.199  24.462  1.00  0.00     0.022 A 
BRANCH  73  76
ATOM     76  S   UNL A   1      48.433  27.608  22.189  1.00  0.00     0.127 S 
ATOM     77  O   UNL A   1      48.660  26.302  21.575  1.00  0.00    -0.237 OA
ATOM     78  O   UNL A   1      47.158  28.239  21.843  1.00  0.00    -0.237 OA
ATOM     79  O   UNL A   1      49.571  28.518  22.185  1.00  0.00    -0.744 OA
ENDBRANCH  73  76
ENDBRANCH  45  69
BRANCH  57  80
ATOM     80  C   UNL A   1      45.407  32.998  29.573  1.00  0.00     0.023 A 
ATOM     81  C   UNL A   1      46.237  33.050  30.711  1.00  0.00     0.012 A 
ATOM     82  C   UNL A   1      45.382  34.089  28.684  1.00  0.00     0.148 A 
ATOM     83  C   UNL A   1      47.011  34.180  30.972  1.00  0.00     0.002 A 
ATOM     84  C   UNL A   1      46.189  35.195  28.928  1.00  0.00     0.091 A 
ATOM     85  F   UNL A   1      44.570  34.029  27.619  1.00  0.00    -0.205 F 
ATOM     86  C   UNL A   1      46.996  35.246  30.075  1.00  0.00     0.022 A 
BRANCH  84  87
ATOM     87  S   UNL A   1      46.299  36.571  27.778  1.00  0.00     0.127 S 
ATOM     88  O   UNL A   1      45.021  37.245  27.995  1.00  0.00    -0.237 OA
ATOM     89  O   UNL A   1      47.466  37.302  28.276  1.00  0.00    -0.237 OA
ATOM     90  O   UNL A   1      46.481  35.975  26.461  1.00  0.00    -0.744 OA
ENDBRANCH  84  87
ENDBRANCH  57  80
ENDBRANCH  31  32
ENDBRANCH  24  26
ENDBRANCH  23  24
ENDBRANCH   1  23
TORSDOF 18
ENDMDL
MODEL 2
REMARK VINA RESULT:     -11.4      1.969      8.397
REMARK SMILES Nc1cc([N+](=O)[O-])ccc1[C@H]([NH3+])C(=O)OCCOC(=O)c1ccc(-c2c3nc(c(-c4cccc(S(=O)(=O)[O-])c4F)c4ccc([nH]4)c(-c4cccc(S(=O)(=O)[O-])c4F)c4nc(c(-c5cccc(S(=O)(=O)[O-])c5F)c5ccc2[nH]5)C=C4)C=C3)cc1
REMARK SMILES IDX 17 1 16 2 15 3 13 4 14 5 11 6 10 7 2 8 3 9 4 10 9 11 8 12
REMARK SMILES IDX 1 13 5 16 6 17 7 18 12 19 18 23 19 24 20 25 21 26 22 27
REMARK SMILES IDX 83 28 23 29 82 30 24 31 25 32 26 33 76 34 27 35 81 36 75 37
REMARK SMILES IDX 77 38 28 39 80 40 74 41 73 42 29 44 61 45 41 46 60 47 42 48
REMARK SMILES IDX 45 49 59 50 78 51 43 52 44 53 58 55 79 56 46 57 30 58 31 59
REMARK SMILES IDX 39 60 32 61 34 62 40 63 33 64 35 65 36 66 37 67 38 68 62 69
REMARK SMILES IDX 63 70 71 71 64 72 66 73 72 74 65 75 67 76 68 77 69 78 70 79
REMARK SMILES IDX 47 80 48 81 56 82 49 83 51 84 57 85 50 86 52 87 53 88 54 89
REMARK SMILES IDX 55 90
REMARK H PARENT 1 14 1 15 12 20 12 21 12 22 77 43 45 54
REMARK Flexibility Score: inf
ROOT
ATOM      1  C   UNL A   1      38.239  19.686  25.028  1.00  0.00     0.275 C 
ENDROOT
BRANCH   1   2
ATOM      2  C   UNL A   1      36.736  19.678  24.729  1.00  0.00     0.274 C 
BRANCH   2   3
ATOM      3  O   UNL A   1      36.190  21.007  24.737  1.00  0.00    -0.457 OA
BRANCH   3   4
ATOM      4  C   UNL A   1      35.000  21.188  25.380  1.00  0.00     0.369 C 
ATOM      5  O   UNL A   1      33.991  20.529  25.146  1.00  0.00    -0.245 OA
BRANCH   4   6
ATOM      6  C   UNL A   1      35.064  22.304  26.460  1.00  0.00     0.325 C 
BRANCH   6   7
ATOM      7  C   UNL A   1      34.039  23.433  26.290  1.00  0.00     0.044 A 
ATOM      8  C   UNL A   1      32.707  23.293  26.754  1.00  0.00     0.048 A 
ATOM      9  C   UNL A   1      31.842  24.398  26.724  1.00  0.00     0.111 A 
ATOM     10  C   UNL A   1      32.237  25.590  26.108  1.00  0.00     0.271 A 
ATOM     11  C   UNL A   1      34.390  24.633  25.633  1.00  0.00     0.020 A 
ATOM     12  C   UNL A   1      33.497  25.700  25.527  1.00  0.00     0.086 A 
BRANCH   8  13
ATOM     13  N   UNL A   1      32.239  22.111  27.332  1.00  0.00    -0.398 N 
ATOM     14  H   UNL A   1      32.872  21.480  27.747  1.00  0.00     0.156 HD
ATOM     15  H   UNL A   1      31.275  21.908  27.327  1.00  0.00     0.156 HD
ENDBRANCH   8  13
BRANCH  10  16
ATOM     16  N   UNL A   1      31.318  26.731  26.072  1.00  0.00     0.062 N 
ATOM     17  O   UNL A   1      30.912  27.112  24.964  1.00  0.00    -0.258 OA
ATOM     18  O   UNL A   1      30.984  27.240  27.151  1.00  0.00    -0.258 OA
ENDBRANCH  10  16
ENDBRANCH   6   7
BRANCH   6  19
ATOM     19  N   UNL A   1      36.449  22.825  26.573  1.00  0.00    -0.342 N 
ATOM     20  H   UNL A   1      36.918  22.741  25.671  1.00  0.00     0.345 HD
ATOM     21  H   UNL A   1      36.959  22.286  27.273  1.00  0.00     0.345 HD
ATOM     22  H   UNL A   1      36.422  23.805  26.852  1.00  0.00     0.345 HD
ENDBRANCH   6  19
ENDBRANCH   4   6
ENDBRANCH   3   4
ENDBRANCH   2   3
ENDBRANCH   1   2
BRANCH   1  23
ATOM     23  O   UNL A   1      38.652  20.889  25.703  1.00  0.00    -0.458 OA
BRANCH  23  24
ATOM     24  C   UNL A   1      39.807  20.795  26.402  1.00  0.00     0.338 C 
ATOM     25  O   UNL A   1      40.503  19.802  26.547  1.00  0.00    -0.246 OA
BRANCH  24  26
ATOM     26  C   UNL A   1      40.228  22.132  26.856  1.00  0.00     0.060 A 
ATOM     27  C   UNL A   1      39.687  23.237  26.192  1.00  0.00     0.016 A 
ATOM     28  C   UNL A   1      41.182  22.306  27.860  1.00  0.00     0.016 A 
ATOM     29  C   UNL A   1      40.111  24.521  26.507  1.00  0.00     0.010 A 
ATOM     30  C   UNL A   1      41.605  23.600  28.180  1.00  0.00     0.010 A 
ATOM     31  C   UNL A   1      41.085  24.711  27.493  1.00  0.00    -0.014 A 
BRANCH  31  32
ATOM     32  C   UNL A   1      41.591  26.077  27.757  1.00  0.00     0.031 A 
ATOM     33  C   UNL A   1      42.971  26.460  27.309  1.00  0.00     0.074 A 
ATOM     34  C   UNL A   1      40.807  26.970  28.389  1.00  0.00     0.049 A 
ATOM     35  N   UNL A   1      43.619  27.579  27.496  1.00  0.00    -0.248 NA
ATOM     36  C   UNL A   1      43.724  25.446  26.551  1.00  0.00     0.031 C 
ATOM     37  C   UNL A   1      39.447  26.710  28.860  1.00  0.00     0.029 A 
ATOM     38  N   UNL A   1      41.053  28.266  28.764  1.00  0.00    -0.354 N 
ATOM     39  C   UNL A   1      44.868  27.394  26.917  1.00  0.00     0.074 A 
ATOM     40  C   UNL A   1      44.888  26.052  26.374  1.00  0.00     0.031 C 
ATOM     41  C   UNL A   1      38.988  27.803  29.489  1.00  0.00     0.029 A 
ATOM     42  C   UNL A   1      40.032  28.824  29.495  1.00  0.00     0.049 A 
ATOM     43  H   UNL A   1      41.879  28.749  28.532  1.00  0.00     0.167 HD
ATOM     44  C   UNL A   1      45.899  28.267  26.836  1.00  0.00     0.034 A 
ATOM     45  C   UNL A   1      39.959  30.013  30.127  1.00  0.00     0.034 A 
ATOM     46  C   UNL A   1      45.860  29.610  27.351  1.00  0.00     0.049 A 
ATOM     47  C   UNL A   1      41.119  30.965  30.024  1.00  0.00     0.074 A 
ATOM     48  C   UNL A   1      46.836  30.588  27.281  1.00  0.00     0.029 A 
ATOM     49  N   UNL A   1      44.788  30.163  28.036  1.00  0.00    -0.354 N 
ATOM     50  N   UNL A   1      42.255  30.814  29.388  1.00  0.00    -0.248 NA
ATOM     51  C   UNL A   1      40.976  32.262  30.701  1.00  0.00     0.031 C 
ATOM     52  C   UNL A   1      46.358  31.728  27.938  1.00  0.00     0.029 A 
ATOM     53  C   UNL A   1      45.080  31.466  28.402  1.00  0.00     0.049 A 
ATOM     54  H   UNL A   1      43.943  29.698  28.233  1.00  0.00     0.167 HD
ATOM     55  C   UNL A   1      42.955  32.002  29.569  1.00  0.00     0.074 A 
ATOM     56  C   UNL A   1      42.102  32.872  30.352  1.00  0.00     0.031 C 
ATOM     57  C   UNL A   1      44.198  32.335  29.141  1.00  0.00     0.034 A 
BRANCH  44  58
ATOM     58  C   UNL A   1      47.149  27.801  26.139  1.00  0.00     0.023 A 
ATOM     59  C   UNL A   1      48.165  27.166  26.882  1.00  0.00     0.012 A 
ATOM     60  C   UNL A   1      47.307  27.963  24.749  1.00  0.00     0.148 A 
ATOM     61  C   UNL A   1      49.333  26.730  26.258  1.00  0.00     0.002 A 
ATOM     62  C   UNL A   1      48.457  27.491  24.127  1.00  0.00     0.091 A 
ATOM     63  F   UNL A   1      46.343  28.595  24.064  1.00  0.00    -0.205 F 
ATOM     64  C   UNL A   1      49.475  26.883  24.881  1.00  0.00     0.022 A 
BRANCH  62  65
ATOM     65  S   UNL A   1      48.694  27.586  22.349  1.00  0.00     0.127 S 
ATOM     66  O   UNL A   1      49.947  28.332  22.258  1.00  0.00    -0.237 OA
ATOM     67  O   UNL A   1      48.795  26.175  21.972  1.00  0.00    -0.237 OA
ATOM     68  O   UNL A   1      47.514  28.264  21.830  1.00  0.00    -0.744 OA
ENDBRANCH  62  65
ENDBRANCH  44  58
BRANCH  45  69
ATOM     69  C   UNL A   1      38.729  30.362  30.890  1.00  0.00     0.023 A 
ATOM     70  C   UNL A   1      38.643  30.043  32.258  1.00  0.00     0.012 A 
ATOM     71  C   UNL A   1      37.670  31.061  30.278  1.00  0.00     0.148 A 
ATOM     72  C   UNL A   1      37.517  30.401  32.999  1.00  0.00     0.002 A 
ATOM     73  C   UNL A   1      36.577  31.464  31.035  1.00  0.00     0.091 A 
ATOM     74  F   UNL A   1      37.762  31.336  28.969  1.00  0.00    -0.205 F 
ATOM     75  C   UNL A   1      36.491  31.122  32.393  1.00  0.00     0.022 A 
BRANCH  73  76
ATOM     76  S   UNL A   1      35.283  32.516  30.367  1.00  0.00     0.127 S 
ATOM     77  O   UNL A   1      36.023  33.734  30.046  1.00  0.00    -0.237 OA
ATOM     78  O   UNL A   1      34.834  31.745  29.207  1.00  0.00    -0.237 OA
ATOM     79  O   UNL A   1      34.290  32.636  31.426  1.00  0.00    -0.744 OA
ENDBRANCH  73  76
ENDBRANCH  45  69
BRANCH  57  80
ATOM     80  C   UNL A   1      44.712  33.705  29.496  1.00  0.00     0.023 A 
ATOM     81  C   UNL A   1      45.449  33.884  30.683  1.00  0.00     0.012 A 
ATOM     82  C   UNL A   1      44.531  34.794  28.622  1.00  0.00     0.148 A 
ATOM     83  C   UNL A   1      45.978  35.133  31.008  1.00  0.00     0.002 A 
ATOM     84  C   UNL A   1      45.097  36.026  28.931  1.00  0.00     0.091 A 
ATOM     85  F   UNL A   1      43.808  34.609  27.509  1.00  0.00    -0.205 F 
ATOM     86  C   UNL A   1      45.813  36.200  30.127  1.00  0.00     0.022 A 
BRANCH  84  87
ATOM     87  S   UNL A   1      45.010  37.427  27.810  1.00  0.00     0.127 S 
ATOM     88  O   UNL A   1      45.390  38.534  28.686  1.00  0.00    -0.237 OA
ATOM     89  O   UNL A   1      46.009  37.081  26.797  1.00  0.00    -0.237 OA
ATOM     90  O   UNL A   1      43.639  37.458  27.317  1.00  0.00    -0.744 OA
ENDBRANCH  84  87
ENDBRANCH  57  80
ENDBRANCH  31  32
ENDBRANCH  24  26
ENDBRANCH  23  24
ENDBRANCH   1  23
TORSDOF 18
ENDMDL
MODEL 3
REMARK VINA RESULT:     -11.3      6.324      8.837
REMARK SMILES Nc1cc([N+](=O)[O-])ccc1[C@H]([NH3+])C(=O)OCCOC(=O)c1ccc(-c2c3nc(c(-c4cccc(S(=O)(=O)[O-])c4F)c4ccc([nH]4)c(-c4cccc(S(=O)(=O)[O-])c4F)c4nc(c(-c5cccc(S(=O)(=O)[O-])c5F)c5ccc2[nH]5)C=C4)C=C3)cc1
REMARK SMILES IDX 17 1 16 2 15 3 13 4 14 5 11 6 10 7 2 8 3 9 4 10 9 11 8 12
REMARK SMILES IDX 1 13 5 16 6 17 7 18 12 19 18 23 19 24 20 25 21 26 22 27
REMARK SMILES IDX 83 28 23 29 82 30 24 31 25 32 26 33 76 34 27 35 81 36 75 37
REMARK SMILES IDX 77 38 28 39 80 40 74 41 73 42 29 44 61 45 41 46 60 47 42 48
REMARK SMILES IDX 45 49 59 50 78 51 43 52 44 53 58 55 79 56 46 57 30 58 31 59
REMARK SMILES IDX 39 60 32 61 34 62 40 63 33 64 35 65 36 66 37 67 38 68 62 69
REMARK SMILES IDX 63 70 71 71 64 72 66 73 72 74 65 75 67 76 68 77 69 78 70 79
REMARK SMILES IDX 47 80 48 81 56 82 49 83 51 84 57 85 50 86 52 87 53 88 54 89
REMARK SMILES IDX 55 90
REMARK H PARENT 1 14 1 15 12 20 12 21 12 22 77 43 45 54
REMARK Flexibility Score: inf
ROOT
ATOM      1  C   UNL A   1      31.930  30.519  25.840  1.00  0.00     0.275 C 
ENDROOT
BRANCH   1   2
ATOM      2  C   UNL A   1      32.133  29.039  25.502  1.00  0.00     0.274 C 
BRANCH   2   3
ATOM      3  O   UNL A   1      30.881  28.335  25.448  1.00  0.00    -0.457 OA
BRANCH   3   4
ATOM      4  C   UNL A   1      30.892  27.087  24.895  1.00  0.00     0.369 C 
ATOM      5  O   UNL A   1      31.543  26.147  25.342  1.00  0.00    -0.245 OA
BRANCH   4   6
ATOM      6  C   UNL A   1      29.970  26.973  23.648  1.00  0.00     0.325 C 
BRANCH   6   7
ATOM      7  C   UNL A   1      29.467  28.309  23.087  1.00  0.00     0.044 A 
ATOM      8  C   UNL A   1      30.299  29.130  22.285  1.00  0.00     0.048 A 
ATOM      9  C   UNL A   1      29.759  30.265  21.661  1.00  0.00     0.111 A 
ATOM     10  C   UNL A   1      28.451  30.672  21.940  1.00  0.00     0.271 A 
ATOM     11  C   UNL A   1      28.167  28.773  23.386  1.00  0.00     0.020 A 
ATOM     12  C   UNL A   1      27.662  29.951  22.832  1.00  0.00     0.086 A 
BRANCH   8  13
ATOM     13  N   UNL A   1      31.629  28.802  22.012  1.00  0.00    -0.398 N 
ATOM     14  H   UNL A   1      32.173  28.341  22.691  1.00  0.00     0.156 HD
ATOM     15  H   UNL A   1      32.023  29.032  21.139  1.00  0.00     0.156 HD
ENDBRANCH   8  13
BRANCH  10  16
ATOM     16  N   UNL A   1      27.905  31.868  21.290  1.00  0.00     0.062 N 
ATOM     17  O   UNL A   1      27.612  31.790  20.088  1.00  0.00    -0.258 OA
ATOM     18  O   UNL A   1      27.751  32.884  21.982  1.00  0.00    -0.258 OA
ENDBRANCH  10  16
ENDBRANCH   6   7
BRANCH   6  19
ATOM     19  N   UNL A   1      28.855  26.033  23.924  1.00  0.00    -0.342 N 
ATOM     20  H   UNL A   1      28.884  25.265  23.254  1.00  0.00     0.345 HD
ATOM     21  H   UNL A   1      27.966  26.526  23.838  1.00  0.00     0.345 HD
ATOM     22  H   UNL A   1      28.947  25.663  24.870  1.00  0.00     0.345 HD
ENDBRANCH   6  19
ENDBRANCH   4   6
ENDBRANCH   3   4
ENDBRANCH   2   3
ENDBRANCH   1   2
BRANCH   1  23
ATOM     23  O   UNL A   1      32.326  30.827  27.190  1.00  0.00    -0.458 OA
BRANCH  23  24
ATOM     24  C   UNL A   1      33.128  31.909  27.327  1.00  0.00     0.338 C 
ATOM     25  O   UNL A   1      32.819  33.081  27.178  1.00  0.00    -0.246 OA
BRANCH  24  26
ATOM     26  C   UNL A   1      34.439  31.497  27.859  1.00  0.00     0.060 A 
ATOM     27  C   UNL A   1      34.623  30.138  28.134  1.00  0.00     0.016 A 
ATOM     28  C   UNL A   1      35.444  32.421  28.148  1.00  0.00     0.016 A 
ATOM     29  C   UNL A   1      35.801  29.696  28.722  1.00  0.00     0.010 A 
ATOM     30  C   UNL A   1      36.632  31.974  28.735  1.00  0.00     0.010 A 
ATOM     31  C   UNL A   1      36.807  30.612  29.042  1.00  0.00    -0.014 A 
BRANCH  31  32
ATOM     32  C   UNL A   1      38.020  30.140  29.748  1.00  0.00     0.031 A 
ATOM     33  C   UNL A   1      38.314  30.632  31.134  1.00  0.00     0.074 A 
ATOM     34  C   UNL A   1      38.846  29.265  29.145  1.00  0.00     0.049 A 
ATOM     35  N   UNL A   1      39.347  30.387  31.896  1.00  0.00    -0.248 NA
ATOM     36  C   UNL A   1      37.311  31.520  31.746  1.00  0.00     0.031 C 
ATOM     37  C   UNL A   1      38.654  28.714  27.804  1.00  0.00     0.029 A 
ATOM     38  N   UNL A   1      40.023  28.708  29.574  1.00  0.00    -0.354 N 
ATOM     39  C   UNL A   1      39.143  31.120  33.058  1.00  0.00     0.074 A 
ATOM     40  C   UNL A   1      37.886  31.821  32.901  1.00  0.00     0.031 C 
ATOM     41  C   UNL A   1      39.695  27.920  27.507  1.00  0.00     0.029 A 
ATOM     42  C   UNL A   1      40.639  27.934  28.621  1.00  0.00     0.049 A 
ATOM     43  H   UNL A   1      40.391  28.848  30.477  1.00  0.00     0.167 HD
ATOM     44  C   UNL A   1      39.926  31.192  34.159  1.00  0.00     0.034 A 
ATOM     45  C   UNL A   1      41.845  27.332  28.631  1.00  0.00     0.034 A 
ATOM     46  C   UNL A   1      41.159  30.467  34.321  1.00  0.00     0.049 A 
ATOM     47  C   UNL A   1      42.698  27.428  29.865  1.00  0.00     0.074 A 
ATOM     48  C   UNL A   1      42.004  30.438  35.416  1.00  0.00     0.029 A 
ATOM     49  N   UNL A   1      41.725  29.647  33.357  1.00  0.00    -0.354 N 
ATOM     50  N   UNL A   1      42.446  28.043  30.995  1.00  0.00    -0.248 NA
ATOM     51  C   UNL A   1      43.988  26.724  29.839  1.00  0.00     0.031 C 
ATOM     52  C   UNL A   1      43.090  29.610  35.107  1.00  0.00     0.029 A 
ATOM     53  C   UNL A   1      42.912  29.112  33.827  1.00  0.00     0.049 A 
ATOM     54  H   UNL A   1      41.339  29.470  32.468  1.00  0.00     0.167 HD
ATOM     55  C   UNL A   1      43.533  27.785  31.822  1.00  0.00     0.074 A 
ATOM     56  C   UNL A   1      44.435  26.935  31.071  1.00  0.00     0.031 C 
ATOM     57  C   UNL A   1      43.774  28.227  33.081  1.00  0.00     0.034 A 
BRANCH  44  58
ATOM     58  C   UNL A   1      39.454  32.068  35.289  1.00  0.00     0.023 A 
ATOM     59  C   UNL A   1      39.765  33.442  35.280  1.00  0.00     0.012 A 
ATOM     60  C   UNL A   1      38.682  31.540  36.341  1.00  0.00     0.148 A 
ATOM     61  C   UNL A   1      39.342  34.272  36.318  1.00  0.00     0.002 A 
ATOM     62  C   UNL A   1      38.230  32.380  37.353  1.00  0.00     0.091 A 
ATOM     63  F   UNL A   1      38.420  30.224  36.348  1.00  0.00    -0.205 F 
ATOM     64  C   UNL A   1      38.568  33.744  37.348  1.00  0.00     0.022 A 
BRANCH  62  65
ATOM     65  S   UNL A   1      37.172  31.798  38.682  1.00  0.00     0.127 S 
ATOM     66  O   UNL A   1      36.916  30.419  38.273  1.00  0.00    -0.237 OA
ATOM     67  O   UNL A   1      38.040  31.934  39.854  1.00  0.00    -0.237 OA
ATOM     68  O   UNL A   1      36.017  32.684  38.684  1.00  0.00    -0.744 OA
ENDBRANCH  62  65
ENDBRANCH  44  58
BRANCH  45  69
ATOM     69  C   UNL A   1      42.293  26.570  27.432  1.00  0.00     0.023 A 
ATOM     70  C   UNL A   1      43.035  27.221  26.429  1.00  0.00     0.012 A 
ATOM     71  C   UNL A   1      42.035  25.190  27.311  1.00  0.00     0.148 A 
ATOM     72  C   UNL A   1      43.500  26.514  25.320  1.00  0.00     0.002 A 
ATOM     73  C   UNL A   1      42.549  24.480  26.233  1.00  0.00     0.091 A 
ATOM     74  F   UNL A   1      41.307  24.594  28.266  1.00  0.00    -0.205 F 
ATOM     75  C   UNL A   1      43.270  25.143  25.228  1.00  0.00     0.022 A 
BRANCH  73  76
ATOM     76  S   UNL A   1      42.419  22.693  26.111  1.00  0.00     0.127 S 
ATOM     77  O   UNL A   1      43.123  22.259  27.316  1.00  0.00    -0.237 OA
ATOM     78  O   UNL A   1      40.970  22.491  26.139  1.00  0.00    -0.237 OA
ATOM     79  O   UNL A   1      43.048  22.339  24.846  1.00  0.00    -0.744 OA
ENDBRANCH  73  76
ENDBRANCH  45  69
BRANCH  57  80
ATOM     80  C   UNL A   1      45.055  27.790  33.740  1.00  0.00     0.023 A 
ATOM     81  C   UNL A   1      46.198  28.608  33.645  1.00  0.00     0.012 A 
ATOM     82  C   UNL A   1      45.107  26.613  34.512  1.00  0.00     0.148 A 
ATOM     83  C   UNL A   1      47.382  28.248  34.288  1.00  0.00     0.002 A 
ATOM     84  C   UNL A   1      46.277  26.283  35.185  1.00  0.00     0.091 A 
ATOM     85  F   UNL A   1      44.015  25.838  34.572  1.00  0.00    -0.205 F 
ATOM     86  C   UNL A   1      47.418  27.093  35.068  1.00  0.00     0.022 A 
BRANCH  84  87
ATOM     87  S   UNL A   1      46.383  24.864  36.283  1.00  0.00     0.127 S 
ATOM     88  O   UNL A   1      47.756  24.967  36.773  1.00  0.00    -0.237 OA
ATOM     89  O   UNL A   1      45.354  25.162  37.281  1.00  0.00    -0.237 OA
ATOM     90  O   UNL A   1      46.096  23.700  35.455  1.00  0.00    -0.744 OA
ENDBRANCH  84  87
ENDBRANCH  57  80
ENDBRANCH  31  32
ENDBRANCH  24  26
ENDBRANCH  23  24
ENDBRANCH   1  23
TORSDOF 18
ENDMDL
