MODEL 1
REMARK VINA RESULT:     -11.7      0.000      0.000
REMARK SMILES CNC(=O)[C@H](C)S(=O)(=O)c1cc(C(=O)OCCOC(=O)c2ccc(-c3c4nc(c(-c5cccc(S(=O)(=O)[O-])c5F)c5ccc([nH]5)c(-c5cccc(S(=O)(=O)[O-])c5F)c5nc(c(-c6cccc(S(=O)(=O)[O-])c6F)c6ccc3[nH]6)C=C5)C=C4)cc2)c(C)cc1C
REMARK SMILES IDX 16 1 15 2 13 3 14 4 12 5 10 6 11 7 87 8 86 9 88 10 84 11
REMARK SMILES IDX 85 12 7 13 8 14 9 15 5 16 6 17 3 18 1 19 2 20 4 22 17 23
REMARK SMILES IDX 18 24 19 25 20 26 21 27 22 28 83 29 23 30 82 31 24 32 25 33
REMARK SMILES IDX 26 34 76 35 27 36 81 37 75 38 77 39 28 40 80 41 74 42 73 43
REMARK SMILES IDX 29 45 61 46 41 47 60 48 42 49 45 50 59 51 78 52 43 53 44 54
REMARK SMILES IDX 58 56 79 57 46 58 30 59 31 60 39 61 32 62 34 63 40 64 33 65
REMARK SMILES IDX 35 66 36 67 37 68 38 69 62 70 63 71 71 72 64 73 66 74 72 75
REMARK SMILES IDX 65 76 67 77 68 78 69 79 70 80 47 81 48 82 56 83 49 84 51 85
REMARK SMILES IDX 57 86 50 87 52 88 53 89 54 90 55 91
REMARK H PARENT 2 21 77 44 45 55
REMARK Flexibility Score: inf
ROOT
ATOM      1  C   UNL A   1      31.468  28.942  25.370  1.00  0.00     0.275 C 
ENDROOT
BRANCH   1   2
ATOM      2  O   UNL A   1      32.700  28.191  25.442  1.00  0.00    -0.458 OA
BRANCH   2   3
ATOM      3  C   UNL A   1      33.289  27.916  24.255  1.00  0.00     0.338 C 
ATOM      4  O   UNL A   1      33.961  28.675  23.577  1.00  0.00    -0.246 OA
BRANCH   3   5
ATOM      5  C   UNL A   1      33.053  26.518  23.823  1.00  0.00     0.064 A 
ATOM      6  C   UNL A   1      34.107  24.305  23.595  1.00  0.00     0.071 A 
ATOM      7  C   UNL A   1      34.041  25.584  24.173  1.00  0.00     0.036 A 
ATOM      8  C   UNL A   1      33.052  23.883  22.773  1.00  0.00    -0.032 A 
ATOM      9  C   UNL A   1      32.050  24.827  22.442  1.00  0.00     0.009 A 
ATOM     10  C   UNL A   1      32.894  22.518  22.168  1.00  0.00     0.046 C 
ATOM     11  C   UNL A   1      32.052  26.151  22.923  1.00  0.00    -0.036 A 
ATOM     12  C   UNL A   1      31.029  27.102  22.373  1.00  0.00     0.045 C 
BRANCH   6  13
ATOM     13  S   UNL A   1      35.553  23.317  24.018  1.00  0.00     0.190 S 
ATOM     14  O   UNL A   1      36.230  24.057  25.070  1.00  0.00    -0.223 OA
ATOM     15  O   UNL A   1      36.259  23.082  22.772  1.00  0.00    -0.223 OA
BRANCH  13  16
ATOM     16  C   UNL A   1      35.088  21.747  24.665  1.00  0.00     0.199 C 
ATOM     17  C   UNL A   1      36.201  20.794  25.040  1.00  0.00     0.036 C 
BRANCH  16  18
ATOM     18  C   UNL A   1      33.956  21.707  25.664  1.00  0.00     0.238 C 
ATOM     19  C   UNL A   1      32.497  19.810  24.765  1.00  0.00     0.142 C 
ATOM     20  N   UNL A   1      32.849  20.936  25.583  1.00  0.00    -0.358 N 
ATOM     21  H   UNL A   1      32.140  21.198  26.214  1.00  0.00     0.163 HD
ATOM     22  O   UNL A   1      33.915  22.570  26.553  1.00  0.00    -0.274 OA
ENDBRANCH  16  18
ENDBRANCH  13  16
ENDBRANCH   6  13
ENDBRANCH   3   5
ENDBRANCH   2   3
ENDBRANCH   1   2
BRANCH   1  23
ATOM     23  C   UNL A   1      31.701  30.409  25.721  1.00  0.00     0.275 C 
BRANCH  23  24
ATOM     24  O   UNL A   1      32.319  30.507  27.013  1.00  0.00    -0.458 OA
BRANCH  24  25
ATOM     25  C   UNL A   1      33.008  31.647  27.230  1.00  0.00     0.338 C 
ATOM     26  O   UNL A   1      32.582  32.795  27.178  1.00  0.00    -0.246 OA
BRANCH  25  27
ATOM     27  C   UNL A   1      34.377  31.328  27.643  1.00  0.00     0.060 A 
ATOM     28  C   UNL A   1      34.689  30.003  27.924  1.00  0.00     0.016 A 
ATOM     29  C   UNL A   1      35.290  32.341  27.922  1.00  0.00     0.016 A 
ATOM     30  C   UNL A   1      35.847  29.706  28.635  1.00  0.00     0.010 A 
ATOM     31  C   UNL A   1      36.518  32.014  28.509  1.00  0.00     0.010 A 
ATOM     32  C   UNL A   1      36.790  30.700  28.931  1.00  0.00    -0.014 A 
BRANCH  32  33
ATOM     33  C   UNL A   1      38.033  30.372  29.696  1.00  0.00     0.031 A 
ATOM     34  C   UNL A   1      39.100  29.497  29.082  1.00  0.00     0.074 A 
ATOM     35  C   UNL A   1      38.213  30.841  30.949  1.00  0.00     0.049 A 
ATOM     36  N   UNL A   1      40.121  28.908  29.653  1.00  0.00    -0.248 NA
ATOM     37  C   UNL A   1      38.990  29.223  27.639  1.00  0.00     0.031 C 
ATOM     38  C   UNL A   1      37.292  31.723  31.669  1.00  0.00     0.029 A 
ATOM     39  N   UNL A   1      39.232  30.633  31.848  1.00  0.00    -0.354 N 
ATOM     40  C   UNL A   1      40.715  28.126  28.667  1.00  0.00     0.074 A 
ATOM     41  C   UNL A   1      39.945  28.321  27.457  1.00  0.00     0.031 C 
ATOM     42  C   UNL A   1      37.800  32.010  32.874  1.00  0.00     0.029 A 
ATOM     43  C   UNL A   1      39.023  31.243  33.065  1.00  0.00     0.049 A 
ATOM     44  H   UNL A   1      40.034  30.099  31.643  1.00  0.00     0.167 HD
ATOM     45  C   UNL A   1      41.805  27.325  28.760  1.00  0.00     0.034 A 
ATOM     46  C   UNL A   1      39.697  31.156  34.228  1.00  0.00     0.034 A 
ATOM     47  C   UNL A   1      42.622  27.210  29.940  1.00  0.00     0.049 A 
ATOM     48  C   UNL A   1      40.902  30.265  34.306  1.00  0.00     0.074 A 
ATOM     49  C   UNL A   1      43.773  26.462  30.121  1.00  0.00     0.029 A 
ATOM     50  N   UNL A   1      42.388  27.874  31.135  1.00  0.00    -0.354 N 
ATOM     51  N   UNL A   1      41.453  29.538  33.364  1.00  0.00    -0.248 NA
ATOM     52  C   UNL A   1      41.582  30.183  35.606  1.00  0.00     0.031 C 
ATOM     53  C   UNL A   1      44.221  26.656  31.432  1.00  0.00     0.029 A 
ATOM     54  C   UNL A   1      43.367  27.549  32.059  1.00  0.00     0.049 A 
ATOM     55  H   UNL A   1      41.637  28.489  31.302  1.00  0.00     0.167 HD
ATOM     56  C   UNL A   1      42.558  28.933  33.950  1.00  0.00     0.074 A 
ATOM     57  C   UNL A   1      42.612  29.399  35.320  1.00  0.00     0.031 C 
ATOM     58  C   UNL A   1      43.438  28.057  33.405  1.00  0.00     0.034 A 
BRANCH  45  59
ATOM     59  C   UNL A   1      42.189  26.507  27.550  1.00  0.00     0.023 A 
ATOM     60  C   UNL A   1      42.934  27.090  26.506  1.00  0.00     0.012 A 
ATOM     61  C   UNL A   1      41.862  25.137  27.479  1.00  0.00     0.148 A 
ATOM     62  C   UNL A   1      43.311  26.335  25.394  1.00  0.00     0.002 A 
ATOM     63  C   UNL A   1      42.282  24.380  26.391  1.00  0.00     0.091 A 
ATOM     64  F   UNL A   1      41.139  24.599  28.473  1.00  0.00    -0.205 F 
ATOM     65  C   UNL A   1      42.995  24.980  25.342  1.00  0.00     0.022 A 
BRANCH  63  66
ATOM     66  S   UNL A   1      41.998  22.609  26.274  1.00  0.00     0.127 S 
ATOM     67  O   UNL A   1      42.623  22.126  27.506  1.00  0.00    -0.237 OA
ATOM     68  O   UNL A   1      40.536  22.531  26.265  1.00  0.00    -0.237 OA
ATOM     69  O   UNL A   1      42.634  22.178  25.039  1.00  0.00    -0.744 OA
ENDBRANCH  63  66
ENDBRANCH  45  59
BRANCH  46  70
ATOM     70  C   UNL A   1      39.229  31.930  35.415  1.00  0.00     0.023 A 
ATOM     71  C   UNL A   1      38.368  31.319  36.346  1.00  0.00     0.012 A 
ATOM     72  C   UNL A   1      39.674  33.246  35.653  1.00  0.00     0.148 A 
ATOM     73  C   UNL A   1      37.942  32.012  37.481  1.00  0.00     0.002 A 
ATOM     74  C   UNL A   1      39.302  33.904  36.818  1.00  0.00     0.091 A 
ATOM     75  F   UNL A   1      40.476  33.820  34.745  1.00  0.00    -0.205 F 
ATOM     76  C   UNL A   1      38.421  33.297  37.724  1.00  0.00     0.022 A 
BRANCH  74  77
ATOM     77  S   UNL A   1      39.996  35.494  37.285  1.00  0.00     0.127 S 
ATOM     78  O   UNL A   1      39.335  35.746  38.564  1.00  0.00    -0.237 OA
ATOM     79  O   UNL A   1      41.424  35.186  37.381  1.00  0.00    -0.237 OA
ATOM     80  O   UNL A   1      39.653  36.408  36.205  1.00  0.00    -0.744 OA
ENDBRANCH  74  77
ENDBRANCH  46  70
BRANCH  58  81
ATOM     81  C   UNL A   1      44.561  27.569  34.281  1.00  0.00     0.023 A 
ATOM     82  C   UNL A   1      45.765  28.298  34.348  1.00  0.00     0.012 A 
ATOM     83  C   UNL A   1      44.399  26.421  35.081  1.00  0.00     0.148 A 
ATOM     84  C   UNL A   1      46.805  27.871  35.174  1.00  0.00     0.002 A 
ATOM     85  C   UNL A   1      45.421  26.031  35.939  1.00  0.00     0.091 A 
ATOM     86  F   UNL A   1      43.253  25.733  34.989  1.00  0.00    -0.205 F 
ATOM     87  C   UNL A   1      46.629  26.746  35.976  1.00  0.00     0.022 A 
BRANCH  85  88
ATOM     88  S   UNL A   1      45.249  24.652  37.078  1.00  0.00     0.127 S 
ATOM     89  O   UNL A   1      44.827  23.576  36.181  1.00  0.00    -0.237 OA
ATOM     90  O   UNL A   1      46.608  24.511  37.601  1.00  0.00    -0.237 OA
ATOM     91  O   UNL A   1      44.261  25.064  38.065  1.00  0.00    -0.744 OA
ENDBRANCH  85  88
ENDBRANCH  58  81
ENDBRANCH  32  33
ENDBRANCH  25  27
ENDBRANCH  24  25
ENDBRANCH  23  24
ENDBRANCH   1  23
TORSDOF 17
ENDMDL
MODEL 2
REMARK VINA RESULT:     -11.7      5.208     10.106
REMARK SMILES CNC(=O)[C@H](C)S(=O)(=O)c1cc(C(=O)OCCOC(=O)c2ccc(-c3c4nc(c(-c5cccc(S(=O)(=O)[O-])c5F)c5ccc([nH]5)c(-c5cccc(S(=O)(=O)[O-])c5F)c5nc(c(-c6cccc(S(=O)(=O)[O-])c6F)c6ccc3[nH]6)C=C5)C=C4)cc2)c(C)cc1C
REMARK SMILES IDX 16 1 15 2 13 3 14 4 12 5 10 6 11 7 87 8 86 9 88 10 84 11
REMARK SMILES IDX 85 12 7 13 8 14 9 15 5 16 6 17 3 18 1 19 2 20 4 22 17 23
REMARK SMILES IDX 18 24 19 25 20 26 21 27 22 28 83 29 23 30 82 31 24 32 25 33
REMARK SMILES IDX 26 34 76 35 27 36 81 37 75 38 77 39 28 40 80 41 74 42 73 43
REMARK SMILES IDX 29 45 61 46 41 47 60 48 42 49 45 50 59 51 78 52 43 53 44 54
REMARK SMILES IDX 58 56 79 57 46 58 30 59 31 60 39 61 32 62 34 63 40 64 33 65
REMARK SMILES IDX 35 66 36 67 37 68 38 69 62 70 63 71 71 72 64 73 66 74 72 75
REMARK SMILES IDX 65 76 67 77 68 78 69 79 70 80 47 81 48 82 56 83 49 84 51 85
REMARK SMILES IDX 57 86 50 87 52 88 53 89 54 90 55 91
REMARK H PARENT 2 21 77 44 45 55
REMARK Flexibility Score: inf
ROOT
ATOM      1  C   UNL A   1      35.402  21.153  24.736  1.00  0.00     0.275 C 
ENDROOT
BRANCH   1   2
ATOM      2  O   UNL A   1      35.139  22.567  24.861  1.00  0.00    -0.458 OA
BRANCH   2   3
ATOM      3  C   UNL A   1      35.008  23.244  23.697  1.00  0.00     0.338 C 
ATOM      4  O   UNL A   1      35.811  23.288  22.780  1.00  0.00    -0.246 OA
BRANCH   3   5
ATOM      5  C   UNL A   1      33.714  23.963  23.609  1.00  0.00     0.064 A 
ATOM      6  C   UNL A   1      32.388  25.791  24.587  1.00  0.00     0.071 A 
ATOM      7  C   UNL A   1      33.618  25.159  24.335  1.00  0.00     0.036 A 
ATOM      8  C   UNL A   1      31.240  25.307  23.943  1.00  0.00    -0.032 A 
ATOM      9  C   UNL A   1      31.352  24.109  23.197  1.00  0.00     0.009 A 
ATOM     10  C   UNL A   1      29.870  25.921  23.999  1.00  0.00     0.046 C 
ATOM     11  C   UNL A   1      32.564  23.406  23.049  1.00  0.00    -0.036 A 
ATOM     12  C   UNL A   1      32.524  22.067  22.373  1.00  0.00     0.045 C 
BRANCH   6  13
ATOM     13  S   UNL A   1      32.437  27.208  25.700  1.00  0.00     0.190 S 
ATOM     14  O   UNL A   1      33.839  27.385  26.035  1.00  0.00    -0.223 OA
ATOM     15  O   UNL A   1      31.500  26.912  26.768  1.00  0.00    -0.223 OA
BRANCH  13  16
ATOM     16  C   UNL A   1      31.876  28.671  24.897  1.00  0.00     0.199 C 
ATOM     17  C   UNL A   1      31.783  29.928  25.733  1.00  0.00     0.036 C 
BRANCH  16  18
ATOM     18  C   UNL A   1      32.402  28.957  23.511  1.00  0.00     0.238 C 
ATOM     19  C   UNL A   1      30.262  29.435  22.198  1.00  0.00     0.142 C 
ATOM     20  N   UNL A   1      31.657  29.169  22.403  1.00  0.00    -0.358 N 
ATOM     21  H   UNL A   1      32.176  29.134  21.568  1.00  0.00     0.163 HD
ATOM     22  O   UNL A   1      33.614  28.816  23.294  1.00  0.00    -0.274 OA
ENDBRANCH  16  18
ENDBRANCH  13  16
ENDBRANCH   6  13
ENDBRANCH   3   5
ENDBRANCH   2   3
ENDBRANCH   1   2
BRANCH   1  23
ATOM     23  C   UNL A   1      36.886  20.853  24.929  1.00  0.00     0.275 C 
BRANCH  23  24
ATOM     24  O   UNL A   1      37.446  21.767  25.886  1.00  0.00    -0.458 OA
BRANCH  24  25
ATOM     25  C   UNL A   1      38.771  21.628  26.098  1.00  0.00     0.338 C 
ATOM     26  O   UNL A   1      39.495  20.718  25.712  1.00  0.00    -0.246 OA
BRANCH  25  27
ATOM     27  C   UNL A   1      39.285  22.803  26.807  1.00  0.00     0.060 A 
ATOM     28  C   UNL A   1      38.744  24.047  26.501  1.00  0.00     0.016 A 
ATOM     29  C   UNL A   1      40.404  22.704  27.628  1.00  0.00     0.016 A 
ATOM     30  C   UNL A   1      39.418  25.202  26.883  1.00  0.00     0.010 A 
ATOM     31  C   UNL A   1      40.993  23.873  28.125  1.00  0.00     0.010 A 
ATOM     32  C   UNL A   1      40.547  25.141  27.711  1.00  0.00    -0.014 A 
BRANCH  32  33
ATOM     33  C   UNL A   1      41.267  26.388  28.116  1.00  0.00     0.031 A 
ATOM     34  C   UNL A   1      40.550  27.464  28.897  1.00  0.00     0.074 A 
ATOM     35  C   UNL A   1      42.560  26.576  27.779  1.00  0.00     0.049 A 
ATOM     36  N   UNL A   1      40.915  28.700  29.134  1.00  0.00    -0.248 NA
ATOM     37  C   UNL A   1      39.237  27.116  29.464  1.00  0.00     0.031 C 
ATOM     38  C   UNL A   1      43.399  25.618  27.055  1.00  0.00     0.029 A 
ATOM     39  N   UNL A   1      43.398  27.645  27.992  1.00  0.00    -0.354 N 
ATOM     40  C   UNL A   1      39.843  29.298  29.790  1.00  0.00     0.074 A 
ATOM     41  C   UNL A   1      38.816  28.287  29.923  1.00  0.00     0.031 C 
ATOM     42  C   UNL A   1      44.633  26.121  26.917  1.00  0.00     0.029 A 
ATOM     43  C   UNL A   1      44.647  27.482  27.436  1.00  0.00     0.049 A 
ATOM     44  H   UNL A   1      43.131  28.450  28.493  1.00  0.00     0.167 HD
ATOM     45  C   UNL A   1      39.728  30.569  30.246  1.00  0.00     0.034 A 
ATOM     46  C   UNL A   1      45.676  28.342  27.298  1.00  0.00     0.034 A 
ATOM     47  C   UNL A   1      40.790  31.542  30.196  1.00  0.00     0.049 A 
ATOM     48  C   UNL A   1      45.526  29.743  27.814  1.00  0.00     0.074 A 
ATOM     49  C   UNL A   1      40.790  32.841  30.674  1.00  0.00     0.029 A 
ATOM     50  N   UNL A   1      42.047  31.317  29.655  1.00  0.00    -0.354 N 
ATOM     51  N   UNL A   1      44.511  30.290  28.436  1.00  0.00    -0.248 NA
ATOM     52  C   UNL A   1      46.666  30.648  27.610  1.00  0.00     0.031 C 
ATOM     53  C   UNL A   1      42.038  33.410  30.399  1.00  0.00     0.029 A 
ATOM     54  C   UNL A   1      42.827  32.455  29.779  1.00  0.00     0.049 A 
ATOM     55  H   UNL A   1      42.342  30.473  29.244  1.00  0.00     0.167 HD
ATOM     56  C   UNL A   1      44.898  31.593  28.723  1.00  0.00     0.074 A 
ATOM     57  C   UNL A   1      46.250  31.746  28.227  1.00  0.00     0.031 C 
ATOM     58  C   UNL A   1      44.189  32.579  29.325  1.00  0.00     0.034 A 
BRANCH  45  59
ATOM     59  C   UNL A   1      38.410  30.991  30.848  1.00  0.00     0.023 A 
ATOM     60  C   UNL A   1      38.165  30.806  32.224  1.00  0.00     0.012 A 
ATOM     61  C   UNL A   1      37.433  31.630  30.057  1.00  0.00     0.148 A 
ATOM     62  C   UNL A   1      36.957  31.212  32.792  1.00  0.00     0.002 A 
ATOM     63  C   UNL A   1      36.251  32.075  30.640  1.00  0.00     0.091 A 
ATOM     64  F   UNL A   1      37.672  31.784  28.746  1.00  0.00    -0.205 F 
ATOM     65  C   UNL A   1      36.007  31.855  32.004  1.00  0.00     0.022 A 
BRANCH  63  66
ATOM     66  S   UNL A   1      35.003  32.989  29.724  1.00  0.00     0.127 S 
ATOM     67  O   UNL A   1      35.804  34.043  29.103  1.00  0.00    -0.237 OA
ATOM     68  O   UNL A   1      34.503  31.978  28.791  1.00  0.00    -0.237 OA
ATOM     69  O   UNL A   1      34.030  33.439  30.708  1.00  0.00    -0.744 OA
ENDBRANCH  63  66
ENDBRANCH  45  59
BRANCH  46  70
ATOM     70  C   UNL A   1      46.931  27.893  26.628  1.00  0.00     0.023 A 
ATOM     71  C   UNL A   1      47.946  27.287  27.391  1.00  0.00     0.012 A 
ATOM     72  C   UNL A   1      47.101  28.015  25.234  1.00  0.00     0.148 A 
ATOM     73  C   UNL A   1      49.117  26.831  26.782  1.00  0.00     0.002 A 
ATOM     74  C   UNL A   1      48.237  27.497  24.626  1.00  0.00     0.091 A 
ATOM     75  F   UNL A   1      46.134  28.615  24.524  1.00  0.00    -0.205 F 
ATOM     76  C   UNL A   1      49.255  26.921  25.400  1.00  0.00     0.022 A 
BRANCH  74  77
ATOM     77  S   UNL A   1      48.424  27.430  22.840  1.00  0.00     0.127 S 
ATOM     78  O   UNL A   1      48.338  25.994  22.583  1.00  0.00    -0.237 OA
ATOM     79  O   UNL A   1      47.270  28.207  22.384  1.00  0.00    -0.237 OA
ATOM     80  O   UNL A   1      49.711  28.048  22.553  1.00  0.00    -0.744 OA
ENDBRANCH  74  77
ENDBRANCH  46  70
BRANCH  58  81
ATOM     81  C   UNL A   1      44.875  33.905  29.519  1.00  0.00     0.023 A 
ATOM     82  C   UNL A   1      45.602  34.153  30.700  1.00  0.00     0.012 A 
ATOM     83  C   UNL A   1      44.846  34.882  28.504  1.00  0.00     0.148 A 
ATOM     84  C   UNL A   1      46.263  35.368  30.882  1.00  0.00     0.002 A 
ATOM     85  C   UNL A   1      45.548  36.070  28.672  1.00  0.00     0.091 A 
ATOM     86  F   UNL A   1      44.134  34.633  27.396  1.00  0.00    -0.205 F 
ATOM     87  C   UNL A   1      46.245  36.320  29.866  1.00  0.00     0.022 A 
BRANCH  85  88
ATOM     88  S   UNL A   1      45.661  37.313  27.380  1.00  0.00     0.127 S 
ATOM     89  O   UNL A   1      46.505  38.325  28.015  1.00  0.00    -0.237 OA
ATOM     90  O   UNL A   1      46.308  36.575  26.295  1.00  0.00    -0.237 OA
ATOM     91  O   UNL A   1      44.295  37.728  27.098  1.00  0.00    -0.744 OA
ENDBRANCH  85  88
ENDBRANCH  58  81
ENDBRANCH  32  33
ENDBRANCH  25  27
ENDBRANCH  24  25
ENDBRANCH  23  24
ENDBRANCH   1  23
TORSDOF 17
ENDMDL
MODEL 3
REMARK VINA RESULT:     -11.3      4.786      7.885
REMARK SMILES CNC(=O)[C@H](C)S(=O)(=O)c1cc(C(=O)OCCOC(=O)c2ccc(-c3c4nc(c(-c5cccc(S(=O)(=O)[O-])c5F)c5ccc([nH]5)c(-c5cccc(S(=O)(=O)[O-])c5F)c5nc(c(-c6cccc(S(=O)(=O)[O-])c6F)c6ccc3[nH]6)C=C5)C=C4)cc2)c(C)cc1C
REMARK SMILES IDX 16 1 15 2 13 3 14 4 12 5 10 6 11 7 87 8 86 9 88 10 84 11
REMARK SMILES IDX 85 12 7 13 8 14 9 15 5 16 6 17 3 18 1 19 2 20 4 22 17 23
REMARK SMILES IDX 18 24 19 25 20 26 21 27 22 28 83 29 23 30 82 31 24 32 25 33
REMARK SMILES IDX 26 34 76 35 27 36 81 37 75 38 77 39 28 40 80 41 74 42 73 43
REMARK SMILES IDX 29 45 61 46 41 47 60 48 42 49 45 50 59 51 78 52 43 53 44 54
REMARK SMILES IDX 58 56 79 57 46 58 30 59 31 60 39 61 32 62 34 63 40 64 33 65
REMARK SMILES IDX 35 66 36 67 37 68 38 69 62 70 63 71 71 72 64 73 66 74 72 75
REMARK SMILES IDX 65 76 67 77 68 78 69 79 70 80 47 81 48 82 56 83 49 84 51 85
REMARK SMILES IDX 57 86 50 87 52 88 53 89 54 90 55 91
REMARK H PARENT 2 21 77 44 45 55
REMARK Flexibility Score: inf
ROOT
ATOM      1  C   UNL A   1      36.140  19.905  24.987  1.00  0.00     0.275 C 
ENDROOT
BRANCH   1   2
ATOM      2  O   UNL A   1      35.807  21.311  24.998  1.00  0.00    -0.458 OA
BRANCH   2   3
ATOM      3  C   UNL A   1      34.750  21.657  25.769  1.00  0.00     0.338 C 
ATOM      4  O   UNL A   1      34.619  21.457  26.965  1.00  0.00    -0.246 OA
BRANCH   3   5
ATOM      5  C   UNL A   1      33.701  22.364  24.997  1.00  0.00     0.064 A 
ATOM      6  C   UNL A   1      32.515  24.508  24.760  1.00  0.00     0.071 A 
ATOM      7  C   UNL A   1      33.621  23.753  25.184  1.00  0.00     0.036 A 
ATOM      8  C   UNL A   1      31.539  23.885  23.969  1.00  0.00    -0.032 A 
ATOM      9  C   UNL A   1      31.639  22.487  23.770  1.00  0.00     0.009 A 
ATOM     10  C   UNL A   1      30.356  24.556  23.333  1.00  0.00     0.046 C 
ATOM     11  C   UNL A   1      32.684  21.707  24.303  1.00  0.00    -0.036 A 
ATOM     12  C   UNL A   1      32.594  20.215  24.161  1.00  0.00     0.045 C 
BRANCH   6  13
ATOM     13  S   UNL A   1      32.499  26.240  25.259  1.00  0.00     0.190 S 
ATOM     14  O   UNL A   1      33.626  26.390  26.163  1.00  0.00    -0.223 OA
ATOM     15  O   UNL A   1      31.164  26.500  25.766  1.00  0.00    -0.223 OA
BRANCH  13  16
ATOM     16  C   UNL A   1      32.756  27.304  23.881  1.00  0.00     0.199 C 
ATOM     17  C   UNL A   1      33.494  26.732  22.691  1.00  0.00     0.036 C 
BRANCH  16  18
ATOM     18  C   UNL A   1      31.610  28.191  23.455  1.00  0.00     0.238 C 
ATOM     19  C   UNL A   1      31.529  29.923  25.333  1.00  0.00     0.142 C 
ATOM     20  N   UNL A   1      31.084  29.212  24.169  1.00  0.00    -0.358 N 
ATOM     21  H   UNL A   1      30.222  29.533  23.819  1.00  0.00     0.163 HD
ATOM     22  O   UNL A   1      30.952  27.875  22.453  1.00  0.00    -0.274 OA
ENDBRANCH  16  18
ENDBRANCH  13  16
ENDBRANCH   6  13
ENDBRANCH   3   5
ENDBRANCH   2   3
ENDBRANCH   1   2
BRANCH   1  23
ATOM     23  C   UNL A   1      37.652  19.702  24.972  1.00  0.00     0.275 C 
BRANCH  23  24
ATOM     24  O   UNL A   1      38.311  20.931  25.314  1.00  0.00    -0.458 OA
BRANCH  24  25
ATOM     25  C   UNL A   1      39.393  20.795  26.109  1.00  0.00     0.338 C 
ATOM     26  O   UNL A   1      40.055  19.782  26.296  1.00  0.00    -0.246 OA
BRANCH  25  27
ATOM     27  C   UNL A   1      39.753  22.095  26.682  1.00  0.00     0.060 A 
ATOM     28  C   UNL A   1      39.042  23.217  26.271  1.00  0.00     0.016 A 
ATOM     29  C   UNL A   1      40.889  22.232  27.474  1.00  0.00     0.016 A 
ATOM     30  C   UNL A   1      39.558  24.485  26.516  1.00  0.00     0.010 A 
ATOM     31  C   UNL A   1      41.321  23.514  27.835  1.00  0.00     0.010 A 
ATOM     32  C   UNL A   1      40.698  24.662  27.311  1.00  0.00    -0.014 A 
BRANCH  32  33
ATOM     33  C   UNL A   1      41.248  26.029  27.569  1.00  0.00     0.031 A 
ATOM     34  C   UNL A   1      42.636  26.394  27.098  1.00  0.00     0.074 A 
ATOM     35  C   UNL A   1      40.520  26.949  28.235  1.00  0.00     0.049 A 
ATOM     36  N   UNL A   1      43.378  27.424  27.422  1.00  0.00    -0.248 NA
ATOM     37  C   UNL A   1      43.290  25.465  26.161  1.00  0.00     0.031 C 
ATOM     38  C   UNL A   1      39.153  26.761  28.725  1.00  0.00     0.029 A 
ATOM     39  N   UNL A   1      40.832  28.230  28.626  1.00  0.00    -0.354 N 
ATOM     40  C   UNL A   1      44.610  27.219  26.807  1.00  0.00     0.074 A 
ATOM     41  C   UNL A   1      44.514  25.970  26.083  1.00  0.00     0.031 C 
ATOM     42  C   UNL A   1      38.731  27.888  29.313  1.00  0.00     0.029 A 
ATOM     43  C   UNL A   1      39.832  28.841  29.350  1.00  0.00     0.049 A 
ATOM     44  H   UNL A   1      41.686  28.668  28.410  1.00  0.00     0.167 HD
ATOM     45  C   UNL A   1      45.715  28.002  26.838  1.00  0.00     0.034 A 
ATOM     46  C   UNL A   1      39.811  30.007  30.024  1.00  0.00     0.034 A 
ATOM     47  C   UNL A   1      45.772  29.290  27.482  1.00  0.00     0.049 A 
ATOM     48  C   UNL A   1      41.047  30.860  30.041  1.00  0.00     0.074 A 
ATOM     49  C   UNL A   1      46.830  30.182  27.530  1.00  0.00     0.029 A 
ATOM     50  N   UNL A   1      44.724  29.879  28.172  1.00  0.00    -0.354 N 
ATOM     51  N   UNL A   1      42.199  30.655  29.451  1.00  0.00    -0.248 NA
ATOM     52  C   UNL A   1      40.979  32.106  30.816  1.00  0.00     0.031 C 
ATOM     53  C   UNL A   1      46.429  31.299  28.270  1.00  0.00     0.029 A 
ATOM     54  C   UNL A   1      45.110  31.118  28.656  1.00  0.00     0.049 A 
ATOM     55  H   UNL A   1      43.834  29.477  28.298  1.00  0.00     0.167 HD
ATOM     56  C   UNL A   1      42.985  31.758  29.760  1.00  0.00     0.074 A 
ATOM     57  C   UNL A   1      42.169  32.639  30.569  1.00  0.00     0.031 C 
ATOM     58  C   UNL A   1      44.273  32.008  29.419  1.00  0.00     0.034 A 
BRANCH  45  59
ATOM     59  C   UNL A   1      46.962  27.498  26.152  1.00  0.00     0.023 A 
ATOM     60  C   UNL A   1      47.197  27.798  24.795  1.00  0.00     0.012 A 
ATOM     61  C   UNL A   1      47.934  26.776  26.874  1.00  0.00     0.148 A 
ATOM     62  C   UNL A   1      48.357  27.353  24.159  1.00  0.00     0.002 A 
ATOM     63  C   UNL A   1      49.109  26.377  26.246  1.00  0.00     0.091 A 
ATOM     64  F   UNL A   1      47.691  26.483  28.160  1.00  0.00    -0.205 F 
ATOM     65  C   UNL A   1      49.316  26.654  24.886  1.00  0.00     0.022 A 
BRANCH  63  66
ATOM     66  S   UNL A   1      50.441  25.546  27.120  1.00  0.00     0.127 S 
ATOM     67  O   UNL A   1      51.407  25.321  26.045  1.00  0.00    -0.237 OA
ATOM     68  O   UNL A   1      50.846  26.556  28.099  1.00  0.00    -0.237 OA
ATOM     69  O   UNL A   1      49.858  24.344  27.698  1.00  0.00    -0.744 OA
ENDBRANCH  63  66
ENDBRANCH  45  59
BRANCH  46  70
ATOM     70  C   UNL A   1      38.575  30.423  30.747  1.00  0.00     0.023 A 
ATOM     71  C   UNL A   1      38.445  30.137  32.119  1.00  0.00     0.012 A 
ATOM     72  C   UNL A   1      37.553  31.144  30.098  1.00  0.00     0.148 A 
ATOM     73  C   UNL A   1      37.311  30.543  32.826  1.00  0.00     0.002 A 
ATOM     74  C   UNL A   1      36.461  31.605  30.821  1.00  0.00     0.091 A 
ATOM     75  F   UNL A   1      37.682  31.388  28.786  1.00  0.00    -0.205 F 
ATOM     76  C   UNL A   1      36.328  31.290  32.181  1.00  0.00     0.022 A 
BRANCH  74  77
ATOM     77  S   UNL A   1      35.231  32.703  30.108  1.00  0.00     0.127 S 
ATOM     78  O   UNL A   1      34.674  31.877  29.039  1.00  0.00    -0.237 OA
ATOM     79  O   UNL A   1      34.333  32.931  31.241  1.00  0.00    -0.237 OA
ATOM     80  O   UNL A   1      35.960  33.888  29.677  1.00  0.00    -0.744 OA
ENDBRANCH  74  77
ENDBRANCH  46  70
BRANCH  58  81
ATOM     81  C   UNL A   1      44.873  33.307  29.888  1.00  0.00     0.023 A 
ATOM     82  C   UNL A   1      45.579  33.354  31.106  1.00  0.00     0.012 A 
ATOM     83  C   UNL A   1      44.785  34.466  29.091  1.00  0.00     0.148 A 
ATOM     84  C   UNL A   1      46.161  34.545  31.541  1.00  0.00     0.002 A 
ATOM     85  C   UNL A   1      45.410  35.635  29.508  1.00  0.00     0.091 A 
ATOM     86  F   UNL A   1      44.093  34.403  27.945  1.00  0.00    -0.205 F 
ATOM     87  C   UNL A   1      46.086  35.681  30.738  1.00  0.00     0.022 A 
BRANCH  85  88
ATOM     88  S   UNL A   1      45.448  37.119  28.496  1.00  0.00     0.127 S 
ATOM     89  O   UNL A   1      46.377  37.966  29.245  1.00  0.00    -0.237 OA
ATOM     90  O   UNL A   1      45.972  36.616  27.227  1.00  0.00    -0.237 OA
ATOM     91  O   UNL A   1      44.076  37.602  28.435  1.00  0.00    -0.744 OA
ENDBRANCH  85  88
ENDBRANCH  58  81
ENDBRANCH  32  33
ENDBRANCH  25  27
ENDBRANCH  24  25
ENDBRANCH  23  24
ENDBRANCH   1  23
TORSDOF 17
ENDMDL
