MODEL 1
REMARK VINA RESULT:     -12.5      0.000      0.000
REMARK SMILES CC1=CC2=[NH+]C(=O)C[C@@](C)(C(=O)OCCOC(=O)c3ccc(-c4c5nc(c(-c6cccc(S(=O)(=O)[O-])c6F)c6ccc([nH]6)c(-c6cccc(S(=O)(=O)[O-])c6F)c6nc(c(-c7cccc(S(=O)(=O)[O-])c7F)c7ccc4[nH]7)C=C6)C=C5)cc3)N2C=C1
REMARK SMILES IDX 16 1 15 2 14 3 13 4 11 5 12 6 9 7 1 8 2 9 3 10 84 11 4 12
REMARK SMILES IDX 83 13 5 14 82 15 6 16 7 18 8 19 10 20 17 21 18 22 19 23
REMARK SMILES IDX 20 24 81 25 21 26 80 27 22 28 23 29 24 30 74 31 25 32 79 33
REMARK SMILES IDX 73 34 75 35 26 36 78 37 72 38 71 39 27 41 59 42 39 43 58 44
REMARK SMILES IDX 40 45 43 46 57 47 76 48 41 49 42 50 56 52 77 53 44 54 28 55
REMARK SMILES IDX 29 56 37 57 30 58 32 59 38 60 31 61 33 62 34 63 35 64 36 65
REMARK SMILES IDX 60 66 61 67 69 68 62 69 64 70 70 71 63 72 65 73 66 74 67 75
REMARK SMILES IDX 68 76 45 77 46 78 54 79 47 80 49 81 55 82 48 83 50 84 51 85
REMARK SMILES IDX 52 86 53 87
REMARK H PARENT 5 17 75 40 43 51
REMARK Flexibility Score: inf
ROOT
ATOM      1  O   UNL A   1      37.252  21.903  25.308  1.00  0.00    -0.458 OA
ENDROOT
BRANCH   1   2
ATOM      2  C   UNL A   1      37.101  21.905  23.872  1.00  0.00     0.275 C 
BRANCH   2   3
ATOM      3  C   UNL A   1      36.593  23.294  23.420  1.00  0.00     0.274 C 
BRANCH   3   4
ATOM      4  O   UNL A   1      35.279  23.526  23.988  1.00  0.00    -0.459 OA
BRANCH   4   5
ATOM      5  C   UNL A   1      34.171  23.090  23.294  1.00  0.00     0.355 C 
ATOM      6  O   UNL A   1      34.030  23.225  22.088  1.00  0.00    -0.247 OA
BRANCH   5   7
ATOM      7  C   UNL A   1      33.197  22.374  24.281  1.00  0.00     0.216 C 
ATOM      8  C   UNL A   1      33.850  16.632  24.560  1.00  0.00     0.045 C 
ATOM      9  C   UNL A   1      33.723  18.088  24.224  1.00  0.00    -0.039 C 
ATOM     10  C   UNL A   1      34.734  18.892  24.591  1.00  0.00     0.102 C 
ATOM     11  C   UNL A   1      32.482  18.658  23.706  1.00  0.00     0.047 C 
ATOM     12  C   UNL A   1      34.260  20.253  24.936  1.00  0.00     0.282 C 
ATOM     13  C   UNL A   1      32.337  20.000  23.621  1.00  0.00     0.202 C 
ATOM     14  N   UNL A   1      34.622  20.671  26.111  1.00  0.00    -0.210 N 
ATOM     15  N   UNL A   1      33.279  20.879  24.171  1.00  0.00    -0.217 N 
ATOM     16  C   UNL A   1      33.847  21.678  26.596  1.00  0.00     0.312 C 
ATOM     17  H   UNL A   1      35.385  20.294  26.605  1.00  0.00     0.315 HD
ATOM     18  O   UNL A   1      33.386  21.706  27.732  1.00  0.00    -0.247 OA
ATOM     19  C   UNL A   1      33.682  22.824  25.673  1.00  0.00     0.193 C 
ATOM     20  C   UNL A   1      31.772  22.890  24.049  1.00  0.00     0.076 C 
ENDBRANCH   5   7
ENDBRANCH   4   5
ENDBRANCH   3   4
ENDBRANCH   2   3
ENDBRANCH   1   2
BRANCH   1  21
ATOM     21  C   UNL A   1      38.471  21.554  25.817  1.00  0.00     0.338 C 
ATOM     22  O   UNL A   1      39.036  20.492  25.617  1.00  0.00    -0.246 OA
BRANCH  21  23
ATOM     23  C   UNL A   1      39.060  22.710  26.567  1.00  0.00     0.060 A 
ATOM     24  C   UNL A   1      38.512  23.974  26.420  1.00  0.00     0.016 A 
ATOM     25  C   UNL A   1      40.227  22.592  27.335  1.00  0.00     0.016 A 
ATOM     26  C   UNL A   1      39.195  25.097  26.896  1.00  0.00     0.010 A 
ATOM     27  C   UNL A   1      40.859  23.743  27.888  1.00  0.00     0.010 A 
ATOM     28  C   UNL A   1      40.392  25.042  27.621  1.00  0.00    -0.014 A 
BRANCH  28  29
ATOM     29  C   UNL A   1      41.133  26.325  27.977  1.00  0.00     0.031 A 
ATOM     30  C   UNL A   1      40.513  27.380  28.885  1.00  0.00     0.074 A 
ATOM     31  C   UNL A   1      42.418  26.557  27.599  1.00  0.00     0.049 A 
ATOM     32  N   UNL A   1      40.911  28.612  29.118  1.00  0.00    -0.248 NA
ATOM     33  C   UNL A   1      39.295  27.013  29.621  1.00  0.00     0.031 C 
ATOM     34  C   UNL A   1      43.251  25.670  26.789  1.00  0.00     0.029 A 
ATOM     35  N   UNL A   1      43.273  27.608  27.884  1.00  0.00    -0.354 N 
ATOM     36  C   UNL A   1      39.928  29.198  29.913  1.00  0.00     0.074 A 
ATOM     37  C   UNL A   1      38.941  28.169  30.166  1.00  0.00     0.031 C 
ATOM     38  C   UNL A   1      44.507  26.134  26.751  1.00  0.00     0.029 A 
ATOM     39  C   UNL A   1      44.545  27.452  27.369  1.00  0.00     0.049 A 
ATOM     40  H   UNL A   1      43.000  28.397  28.406  1.00  0.00     0.167 HD
ATOM     41  C   UNL A   1      39.843  30.468  30.386  1.00  0.00     0.034 A 
ATOM     42  C   UNL A   1      45.613  28.279  27.318  1.00  0.00     0.034 A 
ATOM     43  C   UNL A   1      40.870  31.472  30.267  1.00  0.00     0.049 A 
ATOM     44  C   UNL A   1      45.500  29.683  27.846  1.00  0.00     0.074 A 
ATOM     45  C   UNL A   1      40.839  32.793  30.690  1.00  0.00     0.029 A 
ATOM     46  N   UNL A   1      42.127  31.265  29.726  1.00  0.00    -0.354 N 
ATOM     47  N   UNL A   1      44.521  30.242  28.512  1.00  0.00    -0.248 NA
ATOM     48  C   UNL A   1      46.641  30.580  27.594  1.00  0.00     0.031 C 
ATOM     49  C   UNL A   1      42.073  33.384  30.398  1.00  0.00     0.029 A 
ATOM     50  C   UNL A   1      42.882  32.426  29.812  1.00  0.00     0.049 A 
ATOM     51  H   UNL A   1      42.440  30.416  29.337  1.00  0.00     0.167 HD
ATOM     52  C   UNL A   1      44.930  31.548  28.761  1.00  0.00     0.074 A 
ATOM     53  C   UNL A   1      46.265  31.684  28.223  1.00  0.00     0.031 C 
ATOM     54  C   UNL A   1      44.237  32.556  29.346  1.00  0.00     0.034 A 
BRANCH  41  55
ATOM     55  C   UNL A   1      38.557  30.876  31.064  1.00  0.00     0.023 A 
ATOM     56  C   UNL A   1      38.374  30.671  32.444  1.00  0.00     0.012 A 
ATOM     57  C   UNL A   1      37.547  31.525  30.321  1.00  0.00     0.148 A 
ATOM     58  C   UNL A   1      37.189  31.068  33.067  1.00  0.00     0.002 A 
ATOM     59  C   UNL A   1      36.389  31.958  30.956  1.00  0.00     0.091 A 
ATOM     60  F   UNL A   1      37.737  31.705  29.007  1.00  0.00    -0.205 F 
ATOM     61  C   UNL A   1      36.203  31.719  32.327  1.00  0.00     0.022 A 
BRANCH  59  62
ATOM     62  S   UNL A   1      35.104  32.874  30.098  1.00  0.00     0.127 S 
ATOM     63  O   UNL A   1      35.859  33.995  29.542  1.00  0.00    -0.237 OA
ATOM     64  O   UNL A   1      34.639  31.902  29.106  1.00  0.00    -0.237 OA
ATOM     65  O   UNL A   1      34.116  33.223  31.110  1.00  0.00    -0.744 OA
ENDBRANCH  59  62
ENDBRANCH  41  55
BRANCH  42  66
ATOM     66  C   UNL A   1      46.896  27.830  26.690  1.00  0.00     0.023 A 
ATOM     67  C   UNL A   1      47.918  27.300  27.503  1.00  0.00     0.012 A 
ATOM     68  C   UNL A   1      47.120  27.942  25.304  1.00  0.00     0.148 A 
ATOM     69  C   UNL A   1      49.142  26.915  26.951  1.00  0.00     0.002 A 
ATOM     70  C   UNL A   1      48.308  27.480  24.751  1.00  0.00     0.091 A 
ATOM     71  F   UNL A   1      46.163  28.495  24.545  1.00  0.00    -0.205 F 
ATOM     72  C   UNL A   1      49.330  26.988  25.574  1.00  0.00     0.022 A 
BRANCH  70  73
ATOM     73  S   UNL A   1      48.550  27.383  22.973  1.00  0.00     0.127 S 
ATOM     74  O   UNL A   1      49.902  27.915  22.825  1.00  0.00    -0.237 OA
ATOM     75  O   UNL A   1      48.420  25.947  22.725  1.00  0.00    -0.237 OA
ATOM     76  O   UNL A   1      47.480  28.185  22.395  1.00  0.00    -0.744 OA
ENDBRANCH  70  73
ENDBRANCH  42  66
BRANCH  54  77
ATOM     77  C   UNL A   1      44.918  33.895  29.476  1.00  0.00     0.023 A 
ATOM     78  C   UNL A   1      45.632  34.207  30.650  1.00  0.00     0.012 A 
ATOM     79  C   UNL A   1      44.892  34.828  28.419  1.00  0.00     0.148 A 
ATOM     80  C   UNL A   1      46.278  35.437  30.786  1.00  0.00     0.002 A 
ATOM     81  C   UNL A   1      45.576  36.034  28.544  1.00  0.00     0.091 A 
ATOM     82  F   UNL A   1      44.187  34.530  27.317  1.00  0.00    -0.205 F 
ATOM     83  C   UNL A   1      46.259  36.344  29.730  1.00  0.00     0.022 A 
BRANCH  81  84
ATOM     84  S   UNL A   1      45.677  37.222  27.198  1.00  0.00     0.127 S 
ATOM     85  O   UNL A   1      44.271  37.569  27.001  1.00  0.00    -0.237 OA
ATOM     86  O   UNL A   1      46.492  38.288  27.781  1.00  0.00    -0.237 OA
ATOM     87  O   UNL A   1      46.312  36.515  26.095  1.00  0.00    -0.744 OA
ENDBRANCH  81  84
ENDBRANCH  54  77
ENDBRANCH  28  29
ENDBRANCH  21  23
ENDBRANCH   1  21
TORSDOF 14
ENDMDL
MODEL 2
REMARK VINA RESULT:     -12.4      2.072      3.212
REMARK SMILES CC1=CC2=[NH+]C(=O)C[C@@](C)(C(=O)OCCOC(=O)c3ccc(-c4c5nc(c(-c6cccc(S(=O)(=O)[O-])c6F)c6ccc([nH]6)c(-c6cccc(S(=O)(=O)[O-])c6F)c6nc(c(-c7cccc(S(=O)(=O)[O-])c7F)c7ccc4[nH]7)C=C6)C=C5)cc3)N2C=C1
REMARK SMILES IDX 16 1 15 2 14 3 13 4 11 5 12 6 9 7 1 8 2 9 3 10 84 11 4 12
REMARK SMILES IDX 83 13 5 14 82 15 6 16 7 18 8 19 10 20 17 21 18 22 19 23
REMARK SMILES IDX 20 24 81 25 21 26 80 27 22 28 23 29 24 30 74 31 25 32 79 33
REMARK SMILES IDX 73 34 75 35 26 36 78 37 72 38 71 39 27 41 59 42 39 43 58 44
REMARK SMILES IDX 40 45 43 46 57 47 76 48 41 49 42 50 56 52 77 53 44 54 28 55
REMARK SMILES IDX 29 56 37 57 30 58 32 59 38 60 31 61 33 62 34 63 35 64 36 65
REMARK SMILES IDX 60 66 61 67 69 68 62 69 64 70 70 71 63 72 65 73 66 74 67 75
REMARK SMILES IDX 68 76 45 77 46 78 54 79 47 80 49 81 55 82 48 83 50 84 51 85
REMARK SMILES IDX 52 86 53 87
REMARK H PARENT 5 17 75 40 43 51
REMARK Flexibility Score: inf
ROOT
ATOM      1  O   UNL A   1      36.859  21.621  24.770  1.00  0.00    -0.458 OA
ENDROOT
BRANCH   1   2
ATOM      2  C   UNL A   1      35.618  20.919  25.000  1.00  0.00     0.275 C 
BRANCH   2   3
ATOM      3  C   UNL A   1      34.741  21.747  25.967  1.00  0.00     0.274 C 
BRANCH   3   4
ATOM      4  O   UNL A   1      34.039  22.768  25.212  1.00  0.00    -0.459 OA
BRANCH   4   5
ATOM      5  C   UNL A   1      32.759  22.503  24.773  1.00  0.00     0.355 C 
ATOM      6  O   UNL A   1      32.162  21.464  25.008  1.00  0.00    -0.247 OA
BRANCH   5   7
ATOM      7  C   UNL A   1      32.217  23.746  23.999  1.00  0.00     0.216 C 
ATOM      8  C   UNL A   1      32.315  28.683  27.013  1.00  0.00     0.045 C 
ATOM      9  C   UNL A   1      32.214  27.291  26.464  1.00  0.00    -0.039 C 
ATOM     10  C   UNL A   1      33.365  26.657  26.187  1.00  0.00     0.102 C 
ATOM     11  C   UNL A   1      30.938  26.711  26.053  1.00  0.00     0.047 C 
ATOM     12  C   UNL A   1      33.225  25.739  25.033  1.00  0.00     0.282 C 
ATOM     13  C   UNL A   1      30.914  25.546  25.367  1.00  0.00     0.202 C 
ATOM     14  N   UNL A   1      34.087  25.931  24.081  1.00  0.00    -0.210 N 
ATOM     15  N   UNL A   1      32.087  24.951  24.886  1.00  0.00    -0.217 N 
ATOM     16  C   UNL A   1      33.698  25.426  22.880  1.00  0.00     0.312 C 
ATOM     17  H   UNL A   1      34.942  26.399  24.215  1.00  0.00     0.315 HD
ATOM     18  O   UNL A   1      33.759  26.041  21.821  1.00  0.00    -0.247 OA
ATOM     19  C   UNL A   1      33.284  24.004  22.917  1.00  0.00     0.193 C 
ATOM     20  C   UNL A   1      30.889  23.382  23.325  1.00  0.00     0.076 C 
ENDBRANCH   5   7
ENDBRANCH   4   5
ENDBRANCH   3   4
ENDBRANCH   2   3
ENDBRANCH   1   2
BRANCH   1  21
ATOM     21  C   UNL A   1      37.985  21.133  25.369  1.00  0.00     0.338 C 
ATOM     22  O   UNL A   1      38.419  20.001  25.232  1.00  0.00    -0.246 OA
BRANCH  21  23
ATOM     23  C   UNL A   1      38.670  22.226  26.134  1.00  0.00     0.060 A 
ATOM     24  C   UNL A   1      38.146  23.508  26.116  1.00  0.00     0.016 A 
ATOM     25  C   UNL A   1      39.897  22.034  26.784  1.00  0.00     0.016 A 
ATOM     26  C   UNL A   1      38.899  24.583  26.598  1.00  0.00     0.010 A 
ATOM     27  C   UNL A   1      40.607  23.132  27.348  1.00  0.00     0.010 A 
ATOM     28  C   UNL A   1      40.153  24.455  27.206  1.00  0.00    -0.014 A 
BRANCH  28  29
ATOM     29  C   UNL A   1      40.958  25.697  27.572  1.00  0.00     0.031 A 
ATOM     30  C   UNL A   1      40.405  26.757  28.518  1.00  0.00     0.074 A 
ATOM     31  C   UNL A   1      42.243  25.882  27.170  1.00  0.00     0.049 A 
ATOM     32  N   UNL A   1      40.862  27.964  28.768  1.00  0.00    -0.248 NA
ATOM     33  C   UNL A   1      39.189  26.426  29.274  1.00  0.00     0.031 C 
ATOM     34  C   UNL A   1      43.018  24.978  26.321  1.00  0.00     0.029 A 
ATOM     35  N   UNL A   1      43.150  26.888  27.458  1.00  0.00    -0.354 N 
ATOM     36  C   UNL A   1      39.923  28.574  29.598  1.00  0.00     0.074 A 
ATOM     37  C   UNL A   1      38.898  27.584  29.852  1.00  0.00     0.031 C 
ATOM     38  C   UNL A   1      44.292  25.388  26.265  1.00  0.00     0.029 A 
ATOM     39  C   UNL A   1      44.402  26.689  26.910  1.00  0.00     0.049 A 
ATOM     40  H   UNL A   1      42.923  27.675  28.003  1.00  0.00     0.167 HD
ATOM     41  C   UNL A   1      39.904  29.835  30.101  1.00  0.00     0.034 A 
ATOM     42  C   UNL A   1      45.503  27.469  26.853  1.00  0.00     0.034 A 
ATOM     43  C   UNL A   1      40.972  30.797  29.980  1.00  0.00     0.049 A 
ATOM     44  C   UNL A   1      45.464  28.864  27.414  1.00  0.00     0.074 A 
ATOM     45  C   UNL A   1      41.009  32.108  30.432  1.00  0.00     0.029 A 
ATOM     46  N   UNL A   1      42.206  30.548  29.406  1.00  0.00    -0.354 N 
ATOM     47  N   UNL A   1      44.526  29.450  28.114  1.00  0.00    -0.248 NA
ATOM     48  C   UNL A   1      46.637  29.716  27.155  1.00  0.00     0.031 C 
ATOM     49  C   UNL A   1      42.261  32.651  30.125  1.00  0.00     0.029 A 
ATOM     50  C   UNL A   1      43.013  31.672  29.499  1.00  0.00     0.049 A 
ATOM     51  H   UNL A   1      42.473  29.696  28.991  1.00  0.00     0.167 HD
ATOM     52  C   UNL A   1      44.996  30.731  28.382  1.00  0.00     0.074 A 
ATOM     53  C   UNL A   1      46.325  30.821  27.817  1.00  0.00     0.031 C 
ATOM     54  C   UNL A   1      44.362  31.754  29.005  1.00  0.00     0.034 A 
BRANCH  41  55
ATOM     55  C   UNL A   1      38.654  30.284  30.817  1.00  0.00     0.023 A 
ATOM     56  C   UNL A   1      38.495  30.061  32.198  1.00  0.00     0.012 A 
ATOM     57  C   UNL A   1      37.654  30.987  30.111  1.00  0.00     0.148 A 
ATOM     58  C   UNL A   1      37.342  30.496  32.856  1.00  0.00     0.002 A 
ATOM     59  C   UNL A   1      36.530  31.455  30.781  1.00  0.00     0.091 A 
ATOM     60  F   UNL A   1      37.819  31.182  28.795  1.00  0.00    -0.205 F 
ATOM     61  C   UNL A   1      36.367  31.199  32.152  1.00  0.00     0.022 A 
BRANCH  59  62
ATOM     62  S   UNL A   1      35.263  32.437  29.971  1.00  0.00     0.127 S 
ATOM     63  O   UNL A   1      34.309  32.648  31.058  1.00  0.00    -0.237 OA
ATOM     64  O   UNL A   1      36.006  33.635  29.573  1.00  0.00    -0.237 OA
ATOM     65  O   UNL A   1      34.780  31.631  28.858  1.00  0.00    -0.744 OA
ENDBRANCH  59  62
ENDBRANCH  41  55
BRANCH  42  66
ATOM     66  C   UNL A   1      46.751  26.980  26.186  1.00  0.00     0.023 A 
ATOM     67  C   UNL A   1      46.902  27.140  24.793  1.00  0.00     0.012 A 
ATOM     68  C   UNL A   1      47.777  26.342  26.911  1.00  0.00     0.148 A 
ATOM     69  C   UNL A   1      48.035  26.653  24.137  1.00  0.00     0.002 A 
ATOM     70  C   UNL A   1      48.938  25.936  26.264  1.00  0.00     0.091 A 
ATOM     71  F   UNL A   1      47.603  26.148  28.226  1.00  0.00    -0.205 F 
ATOM     72  C   UNL A   1      49.060  26.068  24.874  1.00  0.00     0.022 A 
BRANCH  70  73
ATOM     73  S   UNL A   1      50.366  25.335  27.173  1.00  0.00     0.127 S 
ATOM     74  O   UNL A   1      50.701  26.489  28.003  1.00  0.00    -0.237 OA
ATOM     75  O   UNL A   1      49.809  24.193  27.899  1.00  0.00    -0.237 OA
ATOM     76  O   UNL A   1      51.345  24.972  26.157  1.00  0.00    -0.744 OA
ENDBRANCH  70  73
ENDBRANCH  42  66
BRANCH  54  77
ATOM     77  C   UNL A   1      45.103  33.060  29.148  1.00  0.00     0.023 A 
ATOM     78  C   UNL A   1      45.909  33.288  30.282  1.00  0.00     0.012 A 
ATOM     79  C   UNL A   1      45.043  34.043  28.139  1.00  0.00     0.148 A 
ATOM     80  C   UNL A   1      46.612  34.484  30.429  1.00  0.00     0.002 A 
ATOM     81  C   UNL A   1      45.782  35.215  28.272  1.00  0.00     0.091 A 
ATOM     82  F   UNL A   1      44.253  33.825  27.078  1.00  0.00    -0.205 F 
ATOM     83  C   UNL A   1      46.557  35.442  29.420  1.00  0.00     0.022 A 
BRANCH  81  84
ATOM     84  S   UNL A   1      45.839  36.463  26.978  1.00  0.00     0.127 S 
ATOM     85  O   UNL A   1      44.458  36.941  26.964  1.00  0.00    -0.237 OA
ATOM     86  O   UNL A   1      46.811  37.420  27.507  1.00  0.00    -0.237 OA
ATOM     87  O   UNL A   1      46.276  35.766  25.776  1.00  0.00    -0.744 OA
ENDBRANCH  81  84
ENDBRANCH  54  77
ENDBRANCH  28  29
ENDBRANCH  21  23
ENDBRANCH   1  21
TORSDOF 14
ENDMDL
MODEL 3
REMARK VINA RESULT:     -12.4      5.377      9.967
REMARK SMILES CC1=CC2=[NH+]C(=O)C[C@@](C)(C(=O)OCCOC(=O)c3ccc(-c4c5nc(c(-c6cccc(S(=O)(=O)[O-])c6F)c6ccc([nH]6)c(-c6cccc(S(=O)(=O)[O-])c6F)c6nc(c(-c7cccc(S(=O)(=O)[O-])c7F)c7ccc4[nH]7)C=C6)C=C5)cc3)N2C=C1
REMARK SMILES IDX 16 1 15 2 14 3 13 4 11 5 12 6 9 7 1 8 2 9 3 10 84 11 4 12
REMARK SMILES IDX 83 13 5 14 82 15 6 16 7 18 8 19 10 20 17 21 18 22 19 23
REMARK SMILES IDX 20 24 81 25 21 26 80 27 22 28 23 29 24 30 74 31 25 32 79 33
REMARK SMILES IDX 73 34 75 35 26 36 78 37 72 38 71 39 27 41 59 42 39 43 58 44
REMARK SMILES IDX 40 45 43 46 57 47 76 48 41 49 42 50 56 52 77 53 44 54 28 55
REMARK SMILES IDX 29 56 37 57 30 58 32 59 38 60 31 61 33 62 34 63 35 64 36 65
REMARK SMILES IDX 60 66 61 67 69 68 62 69 64 70 70 71 63 72 65 73 66 74 67 75
REMARK SMILES IDX 68 76 45 77 46 78 54 79 47 80 49 81 55 82 48 83 50 84 51 85
REMARK SMILES IDX 52 86 53 87
REMARK H PARENT 5 17 75 40 43 51
REMARK Flexibility Score: inf
ROOT
ATOM      1  O   UNL A   1      32.008  29.893  26.618  1.00  0.00    -0.458 OA
ENDROOT
BRANCH   1   2
ATOM      2  C   UNL A   1      31.680  29.656  25.233  1.00  0.00     0.275 C 
BRANCH   2   3
ATOM      3  C   UNL A   1      32.251  28.284  24.807  1.00  0.00     0.274 C 
BRANCH   3   4
ATOM      4  O   UNL A   1      31.157  27.346  24.639  1.00  0.00    -0.459 OA
BRANCH   4   5
ATOM      5  C   UNL A   1      31.188  26.476  23.570  1.00  0.00     0.355 C 
ATOM      6  O   UNL A   1      31.145  26.835  22.403  1.00  0.00    -0.247 OA
BRANCH   5   7
ATOM      7  C   UNL A   1      31.338  25.016  24.102  1.00  0.00     0.216 C 
ATOM      8  C   UNL A   1      36.794  23.368  25.093  1.00  0.00     0.045 C 
ATOM      9  C   UNL A   1      35.481  23.917  24.619  1.00  0.00    -0.039 C 
ATOM     10  C   UNL A   1      34.957  24.937  25.316  1.00  0.00     0.102 C 
ATOM     11  C   UNL A   1      34.696  23.258  23.578  1.00  0.00     0.047 C 
ATOM     12  C   UNL A   1      33.475  24.904  25.316  1.00  0.00     0.282 C 
ATOM     13  C   UNL A   1      33.428  23.658  23.331  1.00  0.00     0.202 C 
ATOM     14  N   UNL A   1      32.932  24.930  26.495  1.00  0.00    -0.210 N 
ATOM     15  N   UNL A   1      32.773  24.580  24.158  1.00  0.00    -0.217 N 
ATOM     16  C   UNL A   1      31.658  24.458  26.521  1.00  0.00     0.312 C 
ATOM     17  H   UNL A   1      33.400  25.259  27.295  1.00  0.00     0.315 HD
ATOM     18  O   UNL A   1      31.238  23.653  27.346  1.00  0.00    -0.247 OA
ATOM     19  C   UNL A   1      30.753  25.079  25.527  1.00  0.00     0.193 C 
ATOM     20  C   UNL A   1      30.484  24.075  23.244  1.00  0.00     0.076 C 
ENDBRANCH   5   7
ENDBRANCH   4   5
ENDBRANCH   3   4
ENDBRANCH   2   3
ENDBRANCH   1   2
BRANCH   1  21
ATOM     21  C   UNL A   1      32.583  31.091  26.938  1.00  0.00     0.338 C 
ATOM     22  O   UNL A   1      32.005  32.165  26.954  1.00  0.00    -0.246 OA
BRANCH  21  23
ATOM     23  C   UNL A   1      34.002  30.876  27.371  1.00  0.00     0.060 A 
ATOM     24  C   UNL A   1      34.459  29.590  27.609  1.00  0.00     0.016 A 
ATOM     25  C   UNL A   1      34.870  31.939  27.660  1.00  0.00     0.016 A 
ATOM     26  C   UNL A   1      35.681  29.386  28.257  1.00  0.00     0.010 A 
ATOM     27  C   UNL A   1      36.149  31.703  28.238  1.00  0.00     0.010 A 
ATOM     28  C   UNL A   1      36.561  30.413  28.618  1.00  0.00    -0.014 A 
BRANCH  28  29
ATOM     29  C   UNL A   1      37.804  30.103  29.445  1.00  0.00     0.031 A 
ATOM     30  C   UNL A   1      38.986  29.343  28.856  1.00  0.00     0.074 A 
ATOM     31  C   UNL A   1      37.979  30.572  30.708  1.00  0.00     0.049 A 
ATOM     32  N   UNL A   1      40.022  28.814  29.469  1.00  0.00    -0.248 NA
ATOM     33  C   UNL A   1      39.011  29.147  27.399  1.00  0.00     0.031 C 
ATOM     34  C   UNL A   1      37.025  31.382  31.465  1.00  0.00     0.029 A 
ATOM     35  N   UNL A   1      39.051  30.466  31.577  1.00  0.00    -0.354 N 
ATOM     36  C   UNL A   1      40.740  28.118  28.499  1.00  0.00     0.074 A 
ATOM     37  C   UNL A   1      40.050  28.337  27.246  1.00  0.00     0.031 C 
ATOM     38  C   UNL A   1      37.590  31.803  32.605  1.00  0.00     0.029 A 
ATOM     39  C   UNL A   1      38.879  31.144  32.767  1.00  0.00     0.049 A 
ATOM     40  H   UNL A   1      39.864  29.952  31.367  1.00  0.00     0.167 HD
ATOM     41  C   UNL A   1      41.861  27.363  28.630  1.00  0.00     0.034 A 
ATOM     42  C   UNL A   1      39.614  31.193  33.900  1.00  0.00     0.034 A 
ATOM     43  C   UNL A   1      42.645  27.237  29.833  1.00  0.00     0.049 A 
ATOM     44  C   UNL A   1      40.852  30.349  34.028  1.00  0.00     0.074 A 
ATOM     45  C   UNL A   1      43.774  26.461  30.050  1.00  0.00     0.029 A 
ATOM     46  N   UNL A   1      42.419  27.932  31.007  1.00  0.00    -0.354 N 
ATOM     47  N   UNL A   1      41.458  29.625  33.122  1.00  0.00    -0.248 NA
ATOM     48  C   UNL A   1      41.499  30.316  35.351  1.00  0.00     0.031 C 
ATOM     49  C   UNL A   1      44.224  26.681  31.357  1.00  0.00     0.029 A 
ATOM     50  C   UNL A   1      43.387  27.612  31.948  1.00  0.00     0.049 A 
ATOM     51  H   UNL A   1      41.677  28.564  31.155  1.00  0.00     0.167 HD
ATOM     52  C   UNL A   1      42.555  29.056  33.762  1.00  0.00     0.074 A 
ATOM     53  C   UNL A   1      42.563  29.562  35.117  1.00  0.00     0.031 C 
ATOM     54  C   UNL A   1      43.449  28.160  33.277  1.00  0.00     0.034 A 
BRANCH  41  55
ATOM     55  C   UNL A   1      42.308  26.563  27.431  1.00  0.00     0.023 A 
ATOM     56  C   UNL A   1      43.086  27.155  26.418  1.00  0.00     0.012 A 
ATOM     57  C   UNL A   1      41.995  25.189  27.347  1.00  0.00     0.148 A 
ATOM     58  C   UNL A   1      43.511  26.403  25.321  1.00  0.00     0.002 A 
ATOM     59  C   UNL A   1      42.459  24.436  26.275  1.00  0.00     0.091 A 
ATOM     60  F   UNL A   1      41.247  24.644  28.317  1.00  0.00    -0.205 F 
ATOM     61  C   UNL A   1      43.206  25.044  25.254  1.00  0.00     0.022 A 
BRANCH  59  62
ATOM     62  S   UNL A   1      42.182  22.665  26.149  1.00  0.00     0.127 S 
ATOM     63  O   UNL A   1      42.784  22.181  27.390  1.00  0.00    -0.237 OA
ATOM     64  O   UNL A   1      40.721  22.581  26.108  1.00  0.00    -0.237 OA
ATOM     65  O   UNL A   1      42.845  22.242  24.923  1.00  0.00    -0.744 OA
ENDBRANCH  59  62
ENDBRANCH  41  55
BRANCH  42  66
ATOM     66  C   UNL A   1      39.178  32.039  35.056  1.00  0.00     0.023 A 
ATOM     67  C   UNL A   1      38.260  31.518  35.990  1.00  0.00     0.012 A 
ATOM     68  C   UNL A   1      39.648  33.356  35.229  1.00  0.00     0.148 A 
ATOM     69  C   UNL A   1      37.801  32.300  37.053  1.00  0.00     0.002 A 
ATOM     70  C   UNL A   1      39.252  34.098  36.334  1.00  0.00     0.091 A 
ATOM     71  F   UNL A   1      40.481  33.862  34.308  1.00  0.00    -0.205 F 
ATOM     72  C   UNL A   1      38.310  33.582  37.236  1.00  0.00     0.022 A 
BRANCH  70  73
ATOM     73  S   UNL A   1      39.997  35.685  36.725  1.00  0.00     0.127 S 
ATOM     74  O   UNL A   1      39.357  36.012  37.997  1.00  0.00    -0.237 OA
ATOM     75  O   UNL A   1      41.417  35.342  36.818  1.00  0.00    -0.237 OA
ATOM     76  O   UNL A   1      39.668  36.552  35.602  1.00  0.00    -0.744 OA
ENDBRANCH  70  73
ENDBRANCH  42  66
BRANCH  54  77
ATOM     77  C   UNL A   1      44.543  27.688  34.201  1.00  0.00     0.023 A 
ATOM     78  C   UNL A   1      45.749  28.413  34.289  1.00  0.00     0.012 A 
ATOM     79  C   UNL A   1      44.363  26.553  35.018  1.00  0.00     0.148 A 
ATOM     80  C   UNL A   1      46.770  27.999  35.145  1.00  0.00     0.002 A 
ATOM     81  C   UNL A   1      45.369  26.172  35.902  1.00  0.00     0.091 A 
ATOM     82  F   UNL A   1      43.223  25.857  34.906  1.00  0.00    -0.205 F 
ATOM     83  C   UNL A   1      46.575  26.886  35.958  1.00  0.00     0.022 A 
BRANCH  81  84
ATOM     84  S   UNL A   1      45.165  24.803  37.050  1.00  0.00     0.127 S 
ATOM     85  O   UNL A   1      45.234  23.650  36.155  1.00  0.00    -0.237 OA
ATOM     86  O   UNL A   1      46.322  24.959  37.933  1.00  0.00    -0.237 OA
ATOM     87  O   UNL A   1      43.880  25.020  37.700  1.00  0.00    -0.744 OA
ENDBRANCH  81  84
ENDBRANCH  54  77
ENDBRANCH  28  29
ENDBRANCH  21  23
ENDBRANCH   1  21
TORSDOF 14
ENDMDL
