MODEL 1
REMARK VINA RESULT:     -10.7      0.000      0.000
REMARK SMILES CCC(CC)[C@H](C(=O)OCCOC(=O)c1ccc(-c2c3nc(c(-c4cccc(S(=O)(=O)[O-])c4F)c4ccc([nH]4)c(-c4cccc(S(=O)(=O)[O-])c4F)c4nc(c(-c5cccc(S(=O)(=O)[O-])c5F)c5ccc2[nH]5)C=C4)C=C3)cc1)c1ccc(OC(F)F)cc1
REMARK SMILES IDX 10 1 9 2 7 3 8 4 6 5 3 6 2 7 1 8 4 9 5 10 78 11 79 12 87 13
REMARK SMILES IDX 80 14 86 15 81 16 82 17 83 18 84 19 85 20 11 21 12 22 13 23
REMARK SMILES IDX 14 24 15 25 16 26 77 27 17 28 76 29 18 30 19 31 20 32 70 33
REMARK SMILES IDX 21 34 75 35 69 36 71 37 22 38 74 39 68 40 67 41 23 43 55 44
REMARK SMILES IDX 35 45 54 46 36 47 39 48 53 49 72 50 37 51 38 52 52 54 73 55
REMARK SMILES IDX 40 56 24 57 25 58 33 59 26 60 28 61 34 62 27 63 29 64 30 65
REMARK SMILES IDX 31 66 32 67 56 68 57 69 65 70 58 71 60 72 66 73 59 74 61 75
REMARK SMILES IDX 62 76 63 77 64 78 41 79 42 80 50 81 43 82 45 83 51 84 44 85
REMARK SMILES IDX 46 86 47 87 48 88 49 89
REMARK H PARENT 71 42 39 53
REMARK Flexibility Score: inf
ROOT
ATOM      1  C   UNL A   1      31.976  28.771  25.115  1.00  0.00     0.274 C 
ENDROOT
BRANCH   1   2
ATOM      2  O   UNL A   1      32.594  27.532  25.526  1.00  0.00    -0.462 OA
BRANCH   2   3
ATOM      3  C   UNL A   1      31.930  26.851  26.509  1.00  0.00     0.313 C 
ATOM      4  O   UNL A   1      31.566  27.361  27.560  1.00  0.00    -0.252 OA
BRANCH   3   5
ATOM      5  C   UNL A   1      31.875  25.347  26.203  1.00  0.00     0.132 C 
BRANCH   5   6
ATOM      6  C   UNL A   1      30.969  25.151  24.909  1.00  0.00     0.007 C 
BRANCH   6   7
ATOM      7  C   UNL A   1      30.887  23.646  24.507  1.00  0.00     0.001 C 
ATOM      8  C   UNL A   1      31.133  23.341  23.037  1.00  0.00     0.004 C 
ENDBRANCH   6   7
BRANCH   6   9
ATOM      9  C   UNL A   1      29.562  25.814  24.911  1.00  0.00     0.001 C 
ATOM     10  C   UNL A   1      29.262  26.820  23.817  1.00  0.00     0.004 C 
ENDBRANCH   6   9
ENDBRANCH   5   6
BRANCH   5  11
ATOM     11  C   UNL A   1      33.248  24.664  26.215  1.00  0.00    -0.033 A 
ATOM     12  C   UNL A   1      33.540  23.581  27.056  1.00  0.00     0.008 A 
ATOM     13  C   UNL A   1      34.290  25.115  25.392  1.00  0.00     0.008 A 
ATOM     14  C   UNL A   1      34.708  22.826  26.887  1.00  0.00     0.047 A 
ATOM     15  C   UNL A   1      35.468  24.373  25.230  1.00  0.00     0.047 A 
ATOM     16  C   UNL A   1      35.638  23.177  25.914  1.00  0.00     0.126 A 
BRANCH  16  17
ATOM     17  O   UNL A   1      36.683  22.314  25.730  1.00  0.00    -0.435 OA
BRANCH  17  18
ATOM     18  C   UNL A   1      36.581  21.482  24.567  1.00  0.00     0.542 C 
ATOM     19  F   UNL A   1      35.296  21.079  24.399  1.00  0.00    -0.167 F 
ATOM     20  F   UNL A   1      36.948  22.201  23.482  1.00  0.00    -0.167 F 
ENDBRANCH  17  18
ENDBRANCH  16  17
ENDBRANCH   5  11
ENDBRANCH   3   5
ENDBRANCH   2   3
ENDBRANCH   1   2
BRANCH   1  21
ATOM     21  C   UNL A   1      32.806  29.991  25.501  1.00  0.00     0.275 C 
BRANCH  21  22
ATOM     22  O   UNL A   1      32.312  30.548  26.727  1.00  0.00    -0.458 OA
BRANCH  22  23
ATOM     23  C   UNL A   1      33.014  31.593  27.222  1.00  0.00     0.338 C 
ATOM     24  O   UNL A   1      32.600  32.726  27.402  1.00  0.00    -0.246 OA
BRANCH  23  25
ATOM     25  C   UNL A   1      34.388  31.177  27.576  1.00  0.00     0.060 A 
ATOM     26  C   UNL A   1      34.686  29.837  27.807  1.00  0.00     0.016 A 
ATOM     27  C   UNL A   1      35.344  32.152  27.856  1.00  0.00     0.016 A 
ATOM     28  C   UNL A   1      35.859  29.486  28.469  1.00  0.00     0.010 A 
ATOM     29  C   UNL A   1      36.575  31.785  28.414  1.00  0.00     0.010 A 
ATOM     30  C   UNL A   1      36.815  30.457  28.804  1.00  0.00    -0.014 A 
BRANCH  30  31
ATOM     31  C   UNL A   1      37.984  30.092  29.658  1.00  0.00     0.031 A 
ATOM     32  C   UNL A   1      39.103  29.249  29.087  1.00  0.00     0.074 A 
ATOM     33  C   UNL A   1      38.102  30.565  30.915  1.00  0.00     0.049 A 
ATOM     34  N   UNL A   1      40.135  28.724  29.699  1.00  0.00    -0.248 NA
ATOM     35  C   UNL A   1      39.053  28.948  27.646  1.00  0.00     0.031 C 
ATOM     36  C   UNL A   1      37.128  31.427  31.589  1.00  0.00     0.029 A 
ATOM     37  N   UNL A   1      39.104  30.414  31.844  1.00  0.00    -0.354 N 
ATOM     38  C   UNL A   1      40.794  27.957  28.745  1.00  0.00     0.074 A 
ATOM     39  C   UNL A   1      40.067  28.106  27.504  1.00  0.00     0.031 C 
ATOM     40  C   UNL A   1      37.611  31.784  32.787  1.00  0.00     0.029 A 
ATOM     41  C   UNL A   1      38.882  31.106  33.012  1.00  0.00     0.049 A 
ATOM     42  H   UNL A   1      39.904  29.861  31.687  1.00  0.00     0.167 HD
ATOM     43  C   UNL A   1      41.911  27.204  28.882  1.00  0.00     0.034 A 
ATOM     44  C   UNL A   1      39.605  31.173  34.149  1.00  0.00     0.034 A 
ATOM     45  C   UNL A   1      42.706  27.146  30.077  1.00  0.00     0.049 A 
ATOM     46  C   UNL A   1      40.874  30.373  34.257  1.00  0.00     0.074 A 
ATOM     47  C   UNL A   1      43.852  26.408  30.314  1.00  0.00     0.029 A 
ATOM     48  N   UNL A   1      42.460  27.882  31.225  1.00  0.00    -0.354 N 
ATOM     49  N   UNL A   1      41.466  29.638  33.347  1.00  0.00    -0.248 NA
ATOM     50  C   UNL A   1      41.573  30.410  35.549  1.00  0.00     0.031 C 
ATOM     51  C   UNL A   1      44.309  26.709  31.601  1.00  0.00     0.029 A 
ATOM     52  C   UNL A   1      43.444  27.633  32.165  1.00  0.00     0.049 A 
ATOM     53  H   UNL A   1      41.697  28.490  31.353  1.00  0.00     0.167 HD
ATOM     54  C   UNL A   1      42.601  29.120  33.959  1.00  0.00     0.074 A 
ATOM     55  C   UNL A   1      42.645  29.671  35.297  1.00  0.00     0.031 C 
ATOM     56  C   UNL A   1      43.503  28.233  33.472  1.00  0.00     0.034 A 
BRANCH  43  57
ATOM     57  C   UNL A   1      42.358  26.391  27.699  1.00  0.00     0.023 A 
ATOM     58  C   UNL A   1      43.229  26.954  26.747  1.00  0.00     0.012 A 
ATOM     59  C   UNL A   1      41.963  25.044  27.568  1.00  0.00     0.148 A 
ATOM     60  C   UNL A   1      43.688  26.192  25.671  1.00  0.00     0.002 A 
ATOM     61  C   UNL A   1      42.453  24.282  26.515  1.00  0.00     0.091 A 
ATOM     62  F   UNL A   1      41.110  24.537  28.471  1.00  0.00    -0.205 F 
ATOM     63  C   UNL A   1      43.310  24.855  25.562  1.00  0.00     0.022 A 
BRANCH  61  64
ATOM     64  S   UNL A   1      42.074  22.533  26.339  1.00  0.00     0.127 S 
ATOM     65  O   UNL A   1      40.615  22.552  26.261  1.00  0.00    -0.237 OA
ATOM     66  O   UNL A   1      42.747  22.194  25.084  1.00  0.00    -0.237 OA
ATOM     67  O   UNL A   1      42.634  21.886  27.516  1.00  0.00    -0.744 OA
ENDBRANCH  61  64
ENDBRANCH  43  57
BRANCH  44  68
ATOM     68  C   UNL A   1      39.155  32.054  35.266  1.00  0.00     0.023 A 
ATOM     69  C   UNL A   1      38.273  31.541  36.237  1.00  0.00     0.012 A 
ATOM     70  C   UNL A   1      39.632  33.371  35.406  1.00  0.00     0.148 A 
ATOM     71  C   UNL A   1      37.868  32.328  37.318  1.00  0.00     0.002 A 
ATOM     72  C   UNL A   1      39.282  34.122  36.522  1.00  0.00     0.091 A 
ATOM     73  F   UNL A   1      40.438  33.867  34.455  1.00  0.00    -0.205 F 
ATOM     74  C   UNL A   1      38.388  33.611  37.472  1.00  0.00     0.022 A 
BRANCH  72  75
ATOM     75  S   UNL A   1      40.074  35.702  36.849  1.00  0.00     0.127 S 
ATOM     76  O   UNL A   1      39.630  36.507  35.716  1.00  0.00    -0.237 OA
ATOM     77  O   UNL A   1      39.500  36.087  38.139  1.00  0.00    -0.237 OA
ATOM     78  O   UNL A   1      41.497  35.391  36.907  1.00  0.00    -0.744 OA
ENDBRANCH  72  75
ENDBRANCH  44  68
BRANCH  56  79
ATOM     79  C   UNL A   1      44.612  27.800  34.391  1.00  0.00     0.023 A 
ATOM     80  C   UNL A   1      45.808  28.545  34.421  1.00  0.00     0.012 A 
ATOM     81  C   UNL A   1      44.455  26.706  35.261  1.00  0.00     0.148 A 
ATOM     82  C   UNL A   1      46.842  28.189  35.285  1.00  0.00     0.002 A 
ATOM     83  C   UNL A   1      45.477  26.380  36.147  1.00  0.00     0.091 A 
ATOM     84  F   UNL A   1      43.321  25.992  35.202  1.00  0.00    -0.205 F 
ATOM     85  C   UNL A   1      46.674  27.114  36.155  1.00  0.00     0.022 A 
BRANCH  83  86
ATOM     86  S   UNL A   1      45.291  25.057  37.348  1.00  0.00     0.127 S 
ATOM     87  O   UNL A   1      45.166  23.883  36.486  1.00  0.00    -0.237 OA
ATOM     88  O   UNL A   1      46.542  25.128  38.103  1.00  0.00    -0.237 OA
ATOM     89  O   UNL A   1      44.106  25.407  38.123  1.00  0.00    -0.744 OA
ENDBRANCH  83  86
ENDBRANCH  56  79
ENDBRANCH  30  31
ENDBRANCH  23  25
ENDBRANCH  22  23
ENDBRANCH  21  22
ENDBRANCH   1  21
TORSDOF 20
ENDMDL
MODEL 2
REMARK VINA RESULT:     -10.6      2.771      3.908
REMARK SMILES CCC(CC)[C@H](C(=O)OCCOC(=O)c1ccc(-c2c3nc(c(-c4cccc(S(=O)(=O)[O-])c4F)c4ccc([nH]4)c(-c4cccc(S(=O)(=O)[O-])c4F)c4nc(c(-c5cccc(S(=O)(=O)[O-])c5F)c5ccc2[nH]5)C=C4)C=C3)cc1)c1ccc(OC(F)F)cc1
REMARK SMILES IDX 10 1 9 2 7 3 8 4 6 5 3 6 2 7 1 8 4 9 5 10 78 11 79 12 87 13
REMARK SMILES IDX 80 14 86 15 81 16 82 17 83 18 84 19 85 20 11 21 12 22 13 23
REMARK SMILES IDX 14 24 15 25 16 26 77 27 17 28 76 29 18 30 19 31 20 32 70 33
REMARK SMILES IDX 21 34 75 35 69 36 71 37 22 38 74 39 68 40 67 41 23 43 55 44
REMARK SMILES IDX 35 45 54 46 36 47 39 48 53 49 72 50 37 51 38 52 52 54 73 55
REMARK SMILES IDX 40 56 24 57 25 58 33 59 26 60 28 61 34 62 27 63 29 64 30 65
REMARK SMILES IDX 31 66 32 67 56 68 57 69 65 70 58 71 60 72 66 73 59 74 61 75
REMARK SMILES IDX 62 76 63 77 64 78 41 79 42 80 50 81 43 82 45 83 51 84 44 85
REMARK SMILES IDX 46 86 47 87 48 88 49 89
REMARK H PARENT 71 42 39 53
REMARK Flexibility Score: inf
ROOT
ATOM      1  C   UNL A   1      31.867  28.496  27.490  1.00  0.00     0.274 C 
ENDROOT
BRANCH   1   2
ATOM      2  O   UNL A   1      31.200  27.518  26.663  1.00  0.00    -0.462 OA
BRANCH   2   3
ATOM      3  C   UNL A   1      32.030  26.722  25.922  1.00  0.00     0.313 C 
ATOM      4  O   UNL A   1      33.212  26.546  26.184  1.00  0.00    -0.252 OA
BRANCH   3   5
ATOM      5  C   UNL A   1      31.340  26.244  24.636  1.00  0.00     0.132 C 
BRANCH   5   6
ATOM      6  C   UNL A   1      30.578  24.889  24.973  1.00  0.00     0.007 C 
BRANCH   6   7
ATOM      7  C   UNL A   1      31.028  23.742  24.016  1.00  0.00     0.001 C 
ATOM      8  C   UNL A   1      31.997  24.144  22.915  1.00  0.00     0.004 C 
ENDBRANCH   6   7
BRANCH   6   9
ATOM      9  C   UNL A   1      30.570  24.419  26.455  1.00  0.00     0.001 C 
ATOM     10  C   UNL A   1      30.378  22.938  26.719  1.00  0.00     0.004 C 
ENDBRANCH   6   9
ENDBRANCH   5   6
BRANCH   5  11
ATOM     11  C   UNL A   1      30.548  27.342  23.917  1.00  0.00    -0.033 A 
ATOM     12  C   UNL A   1      29.206  27.178  23.544  1.00  0.00     0.008 A 
ATOM     13  C   UNL A   1      31.146  28.564  23.577  1.00  0.00     0.008 A 
ATOM     14  C   UNL A   1      28.436  28.264  23.107  1.00  0.00     0.047 A 
ATOM     15  C   UNL A   1      30.385  29.650  23.124  1.00  0.00     0.047 A 
ATOM     16  C   UNL A   1      29.010  29.524  22.973  1.00  0.00     0.126 A 
BRANCH  16  17
ATOM     17  O   UNL A   1      28.160  30.551  22.667  1.00  0.00    -0.435 OA
BRANCH  17  18
ATOM     18  C   UNL A   1      28.595  31.395  21.593  1.00  0.00     0.542 C 
ATOM     19  F   UNL A   1      27.520  31.901  20.940  1.00  0.00    -0.167 F 
ATOM     20  F   UNL A   1      29.306  32.425  22.107  1.00  0.00    -0.167 F 
ENDBRANCH  17  18
ENDBRANCH  16  17
ENDBRANCH   5  11
ENDBRANCH   3   5
ENDBRANCH   2   3
ENDBRANCH   1   2
BRANCH   1  21
ATOM     21  C   UNL A   1      31.871  29.886  26.861  1.00  0.00     0.275 C 
BRANCH  21  22
ATOM     22  O   UNL A   1      33.214  30.266  26.530  1.00  0.00    -0.458 OA
BRANCH  22  23
ATOM     23  C   UNL A   1      33.739  31.269  27.270  1.00  0.00     0.338 C 
ATOM     24  O   UNL A   1      33.194  32.320  27.561  1.00  0.00    -0.246 OA
BRANCH  23  25
ATOM     25  C   UNL A   1      35.094  30.912  27.743  1.00  0.00     0.060 A 
ATOM     26  C   UNL A   1      35.407  29.595  28.072  1.00  0.00     0.016 A 
ATOM     27  C   UNL A   1      36.004  31.928  28.033  1.00  0.00     0.016 A 
ATOM     28  C   UNL A   1      36.537  29.316  28.834  1.00  0.00     0.010 A 
ATOM     29  C   UNL A   1      37.199  31.627  28.698  1.00  0.00     0.010 A 
ATOM     30  C   UNL A   1      37.442  30.330  29.179  1.00  0.00    -0.014 A 
BRANCH  30  31
ATOM     31  C   UNL A   1      38.555  30.046  30.133  1.00  0.00     0.031 A 
ATOM     32  C   UNL A   1      39.725  29.192  29.698  1.00  0.00     0.074 A 
ATOM     33  C   UNL A   1      38.578  30.604  31.361  1.00  0.00     0.049 A 
ATOM     34  N   UNL A   1      40.721  28.731  30.412  1.00  0.00    -0.248 NA
ATOM     35  C   UNL A   1      39.781  28.797  28.279  1.00  0.00     0.031 C 
ATOM     36  C   UNL A   1      37.546  31.486  31.909  1.00  0.00     0.029 A 
ATOM     37  N   UNL A   1      39.516  30.534  32.364  1.00  0.00    -0.354 N 
ATOM     38  C   UNL A   1      41.457  27.917  29.558  1.00  0.00     0.074 A 
ATOM     39  C   UNL A   1      40.816  27.969  28.263  1.00  0.00     0.031 C 
ATOM     40  C   UNL A   1      37.938  31.931  33.110  1.00  0.00     0.029 A 
ATOM     41  C   UNL A   1      39.202  31.296  33.466  1.00  0.00     0.049 A 
ATOM     42  H   UNL A   1      40.334  29.989  32.300  1.00  0.00     0.167 HD
ATOM     43  C   UNL A   1      42.574  27.199  29.821  1.00  0.00     0.034 A 
ATOM     44  C   UNL A   1      39.843  31.452  34.643  1.00  0.00     0.034 A 
ATOM     45  C   UNL A   1      43.285  27.235  31.068  1.00  0.00     0.049 A 
ATOM     46  C   UNL A   1      41.114  30.689  34.889  1.00  0.00     0.074 A 
ATOM     47  C   UNL A   1      44.424  26.538  31.431  1.00  0.00     0.029 A 
ATOM     48  N   UNL A   1      42.949  28.039  32.145  1.00  0.00    -0.354 N 
ATOM     49  N   UNL A   1      41.780  29.909  34.073  1.00  0.00    -0.248 NA
ATOM     50  C   UNL A   1      41.722  30.825  36.221  1.00  0.00     0.031 C 
ATOM     51  C   UNL A   1      44.786  26.932  32.724  1.00  0.00     0.029 A 
ATOM     52  C   UNL A   1      43.869  27.873  33.165  1.00  0.00     0.049 A 
ATOM     53  H   UNL A   1      42.168  28.638  32.180  1.00  0.00     0.167 HD
ATOM     54  C   UNL A   1      42.879  29.456  34.793  1.00  0.00     0.074 A 
ATOM     55  C   UNL A   1      42.821  30.093  36.092  1.00  0.00     0.031 C 
ATOM     56  C   UNL A   1      43.827  28.558  34.430  1.00  0.00     0.034 A 
BRANCH  43  57
ATOM     57  C   UNL A   1      43.116  26.319  28.727  1.00  0.00     0.023 A 
ATOM     58  C   UNL A   1      42.588  25.028  28.536  1.00  0.00     0.012 A 
ATOM     59  C   UNL A   1      44.107  26.801  27.848  1.00  0.00     0.148 A 
ATOM     60  C   UNL A   1      43.049  24.222  27.495  1.00  0.00     0.002 A 
ATOM     61  C   UNL A   1      44.536  26.007  26.792  1.00  0.00     0.091 A 
ATOM     62  F   UNL A   1      44.616  28.022  28.067  1.00  0.00    -0.205 F 
ATOM     63  C   UNL A   1      44.013  24.715  26.618  1.00  0.00     0.022 A 
BRANCH  61  64
ATOM     64  S   UNL A   1      45.721  26.589  25.574  1.00  0.00     0.127 S 
ATOM     65  O   UNL A   1      45.833  25.431  24.690  1.00  0.00    -0.237 OA
ATOM     66  O   UNL A   1      45.027  27.738  24.988  1.00  0.00    -0.237 OA
ATOM     67  O   UNL A   1      46.923  26.930  26.321  1.00  0.00    -0.744 OA
ENDBRANCH  61  64
ENDBRANCH  43  57
BRANCH  44  68
ATOM     68  C   UNL A   1      39.302  32.394  35.665  1.00  0.00     0.023 A 
ATOM     69  C   UNL A   1      38.337  31.937  36.584  1.00  0.00     0.012 A 
ATOM     70  C   UNL A   1      39.771  33.717  35.772  1.00  0.00     0.148 A 
ATOM     71  C   UNL A   1      37.844  32.783  37.579  1.00  0.00     0.002 A 
ATOM     72  C   UNL A   1      39.329  34.530  36.810  1.00  0.00     0.091 A 
ATOM     73  F   UNL A   1      40.658  34.160  34.868  1.00  0.00    -0.205 F 
ATOM     74  C   UNL A   1      38.353  34.073  37.705  1.00  0.00     0.022 A 
BRANCH  72  75
ATOM     75  S   UNL A   1      40.096  36.126  37.115  1.00  0.00     0.127 S 
ATOM     76  O   UNL A   1      39.332  36.619  38.256  1.00  0.00    -0.237 OA
ATOM     77  O   UNL A   1      41.482  35.764  37.414  1.00  0.00    -0.237 OA
ATOM     78  O   UNL A   1      39.934  36.854  35.862  1.00  0.00    -0.744 OA
ENDBRANCH  72  75
ENDBRANCH  44  68
BRANCH  56  79
ATOM     79  C   UNL A   1      44.877  28.209  35.448  1.00  0.00     0.023 A 
ATOM     80  C   UNL A   1      46.125  28.860  35.397  1.00  0.00     0.012 A 
ATOM     81  C   UNL A   1      44.615  27.294  36.484  1.00  0.00     0.148 A 
ATOM     82  C   UNL A   1      47.108  28.584  36.346  1.00  0.00     0.002 A 
ATOM     83  C   UNL A   1      45.587  27.051  37.449  1.00  0.00     0.091 A 
ATOM     84  F   UNL A   1      43.431  26.664  36.504  1.00  0.00    -0.205 F 
ATOM     85  C   UNL A   1      46.836  27.688  37.378  1.00  0.00     0.022 A 
BRANCH  83  86
ATOM     86  S   UNL A   1      45.270  25.970  38.848  1.00  0.00     0.127 S 
ATOM     87  O   UNL A   1      45.148  24.666  38.199  1.00  0.00    -0.237 OA
ATOM     88  O   UNL A   1      46.475  26.134  39.662  1.00  0.00    -0.237 OA
ATOM     89  O   UNL A   1      44.057  26.489  39.467  1.00  0.00    -0.744 OA
ENDBRANCH  83  86
ENDBRANCH  56  79
ENDBRANCH  30  31
ENDBRANCH  23  25
ENDBRANCH  22  23
ENDBRANCH  21  22
ENDBRANCH   1  21
TORSDOF 20
ENDMDL
MODEL 3
REMARK VINA RESULT:     -10.6      2.370      8.613
REMARK SMILES CCC(CC)[C@H](C(=O)OCCOC(=O)c1ccc(-c2c3nc(c(-c4cccc(S(=O)(=O)[O-])c4F)c4ccc([nH]4)c(-c4cccc(S(=O)(=O)[O-])c4F)c4nc(c(-c5cccc(S(=O)(=O)[O-])c5F)c5ccc2[nH]5)C=C4)C=C3)cc1)c1ccc(OC(F)F)cc1
REMARK SMILES IDX 10 1 9 2 7 3 8 4 6 5 3 6 2 7 1 8 4 9 5 10 78 11 79 12 87 13
REMARK SMILES IDX 80 14 86 15 81 16 82 17 83 18 84 19 85 20 11 21 12 22 13 23
REMARK SMILES IDX 14 24 15 25 16 26 77 27 17 28 76 29 18 30 19 31 20 32 70 33
REMARK SMILES IDX 21 34 75 35 69 36 71 37 22 38 74 39 68 40 67 41 23 43 55 44
REMARK SMILES IDX 35 45 54 46 36 47 39 48 53 49 72 50 37 51 38 52 52 54 73 55
REMARK SMILES IDX 40 56 24 57 25 58 33 59 26 60 28 61 34 62 27 63 29 64 30 65
REMARK SMILES IDX 31 66 32 67 56 68 57 69 65 70 58 71 60 72 66 73 59 74 61 75
REMARK SMILES IDX 62 76 63 77 64 78 41 79 42 80 50 81 43 82 45 83 51 84 44 85
REMARK SMILES IDX 46 86 47 87 48 88 49 89
REMARK H PARENT 71 42 39 53
REMARK Flexibility Score: inf
ROOT
ATOM      1  C   UNL A   1      31.806  28.836  27.109  1.00  0.00     0.274 C 
ENDROOT
BRANCH   1   2
ATOM      2  O   UNL A   1      31.154  28.038  26.097  1.00  0.00    -0.462 OA
BRANCH   2   3
ATOM      3  C   UNL A   1      31.986  27.235  25.366  1.00  0.00     0.313 C 
ATOM      4  O   UNL A   1      33.193  27.156  25.556  1.00  0.00    -0.252 OA
BRANCH   3   5
ATOM      5  C   UNL A   1      31.247  26.606  24.175  1.00  0.00     0.132 C 
BRANCH   5   6
ATOM      6  C   UNL A   1      30.597  25.243  24.677  1.00  0.00     0.007 C 
BRANCH   6   7
ATOM      7  C   UNL A   1      30.689  24.142  23.576  1.00  0.00     0.001 C 
ATOM      8  C   UNL A   1      32.050  23.983  22.914  1.00  0.00     0.004 C 
ENDBRANCH   6   7
BRANCH   6   9
ATOM      9  C   UNL A   1      31.049  24.699  26.062  1.00  0.00     0.001 C 
ATOM     10  C   UNL A   1      30.448  23.387  26.528  1.00  0.00     0.004 C 
ENDBRANCH   6   9
ENDBRANCH   5   6
BRANCH   5  11
ATOM     11  C   UNL A   1      30.341  27.588  23.423  1.00  0.00    -0.033 A 
ATOM     12  C   UNL A   1      28.943  27.499  23.462  1.00  0.00     0.008 A 
ATOM     13  C   UNL A   1      30.881  28.616  22.636  1.00  0.00     0.008 A 
ATOM     14  C   UNL A   1      28.136  28.534  22.969  1.00  0.00     0.047 A 
ATOM     15  C   UNL A   1      30.079  29.646  22.127  1.00  0.00     0.047 A 
ATOM     16  C   UNL A   1      28.711  29.650  22.372  1.00  0.00     0.126 A 
BRANCH  16  17
ATOM     17  O   UNL A   1      27.861  30.668  22.037  1.00  0.00    -0.435 OA
BRANCH  17  18
ATOM     18  C   UNL A   1      27.941  31.823  22.883  1.00  0.00     0.542 C 
ATOM     19  F   UNL A   1      28.258  31.449  24.147  1.00  0.00    -0.167 F 
ATOM     20  F   UNL A   1      28.918  32.636  22.420  1.00  0.00    -0.167 F 
ENDBRANCH  17  18
ENDBRANCH  16  17
ENDBRANCH   5  11
ENDBRANCH   3   5
ENDBRANCH   2   3
ENDBRANCH   1   2
BRANCH   1  21
ATOM     21  C   UNL A   1      31.720  30.330  26.817  1.00  0.00     0.275 C 
BRANCH  21  22
ATOM     22  O   UNL A   1      33.009  30.826  26.430  1.00  0.00    -0.458 OA
BRANCH  22  23
ATOM     23  C   UNL A   1      33.598  31.673  27.305  1.00  0.00     0.338 C 
ATOM     24  O   UNL A   1      33.091  32.657  27.817  1.00  0.00    -0.246 OA
BRANCH  23  25
ATOM     25  C   UNL A   1      34.974  31.229  27.615  1.00  0.00     0.060 A 
ATOM     26  C   UNL A   1      35.283  29.872  27.682  1.00  0.00     0.016 A 
ATOM     27  C   UNL A   1      35.920  32.169  28.019  1.00  0.00     0.016 A 
ATOM     28  C   UNL A   1      36.454  29.453  28.305  1.00  0.00     0.010 A 
ATOM     29  C   UNL A   1      37.149  31.747  28.538  1.00  0.00     0.010 A 
ATOM     30  C   UNL A   1      37.399  30.383  28.764  1.00  0.00    -0.014 A 
BRANCH  30  31
ATOM     31  C   UNL A   1      38.566  29.925  29.576  1.00  0.00     0.031 A 
ATOM     32  C   UNL A   1      38.688  30.340  31.025  1.00  0.00     0.074 A 
ATOM     33  C   UNL A   1      39.481  29.079  29.062  1.00  0.00     0.049 A 
ATOM     34  N   UNL A   1      39.682  30.152  31.856  1.00  0.00    -0.248 NA
ATOM     35  C   UNL A   1      37.551  31.068  31.617  1.00  0.00     0.031 C 
ATOM     36  C   UNL A   1      39.474  28.554  27.695  1.00  0.00     0.029 A 
ATOM     37  N   UNL A   1      40.583  28.488  29.634  1.00  0.00    -0.354 N 
ATOM     38  C   UNL A   1      39.333  30.820  33.025  1.00  0.00     0.074 A 
ATOM     39  C   UNL A   1      38.023  31.394  32.812  1.00  0.00     0.031 C 
ATOM     40  C   UNL A   1      40.471  27.669  27.558  1.00  0.00     0.029 A 
ATOM     41  C   UNL A   1      41.249  27.629  28.790  1.00  0.00     0.049 A 
ATOM     42  H   UNL A   1      40.867  28.664  30.560  1.00  0.00     0.167 HD
ATOM     43  C   UNL A   1      40.033  30.937  34.178  1.00  0.00     0.034 A 
ATOM     44  C   UNL A   1      42.374  26.908  28.974  1.00  0.00     0.034 A 
ATOM     45  C   UNL A   1      41.279  30.273  34.440  1.00  0.00     0.049 A 
ATOM     46  C   UNL A   1      43.102  27.009  30.285  1.00  0.00     0.074 A 
ATOM     47  C   UNL A   1      42.065  30.335  35.578  1.00  0.00     0.029 A 
ATOM     48  N   UNL A   1      41.903  29.394  33.570  1.00  0.00    -0.354 N 
ATOM     49  N   UNL A   1      42.763  27.665  31.369  1.00  0.00    -0.248 NA
ATOM     50  C   UNL A   1      44.369  26.274  30.399  1.00  0.00     0.031 C 
ATOM     51  C   UNL A   1      43.158  29.481  35.401  1.00  0.00     0.029 A 
ATOM     52  C   UNL A   1      43.052  28.890  34.152  1.00  0.00     0.049 A 
ATOM     53  H   UNL A   1      41.577  29.164  32.670  1.00  0.00     0.167 HD
ATOM     54  C   UNL A   1      43.777  27.427  32.288  1.00  0.00     0.074 A 
ATOM     55  C   UNL A   1      44.713  26.522  31.655  1.00  0.00     0.031 C 
ATOM     56  C   UNL A   1      43.943  27.946  33.529  1.00  0.00     0.034 A 
BRANCH  43  57
ATOM     57  C   UNL A   1      39.457  31.807  35.262  1.00  0.00     0.023 A 
ATOM     58  C   UNL A   1      38.484  31.288  36.137  1.00  0.00     0.012 A 
ATOM     59  C   UNL A   1      39.930  33.121  35.450  1.00  0.00     0.148 A 
ATOM     60  C   UNL A   1      37.979  32.071  37.176  1.00  0.00     0.002 A 
ATOM     61  C   UNL A   1      39.449  33.882  36.508  1.00  0.00     0.091 A 
ATOM     62  F   UNL A   1      40.836  33.605  34.586  1.00  0.00    -0.205 F 
ATOM     63  C   UNL A   1      38.469  33.362  37.368  1.00  0.00     0.022 A 
BRANCH  61  64
ATOM     64  S   UNL A   1      40.076  35.527  36.870  1.00  0.00     0.127 S 
ATOM     65  O   UNL A   1      39.469  36.318  35.802  1.00  0.00    -0.237 OA
ATOM     66  O   UNL A   1      39.531  35.782  38.204  1.00  0.00    -0.237 OA
ATOM     67  O   UNL A   1      41.527  35.416  36.825  1.00  0.00    -0.744 OA
ENDBRANCH  61  64
ENDBRANCH  43  57
BRANCH  44  68
ATOM     68  C   UNL A   1      42.861  26.003  27.892  1.00  0.00     0.023 A 
ATOM     69  C   UNL A   1      43.906  26.433  27.050  1.00  0.00     0.012 A 
ATOM     70  C   UNL A   1      42.341  24.706  27.724  1.00  0.00     0.148 A 
ATOM     71  C   UNL A   1      44.413  25.592  26.057  1.00  0.00     0.002 A 
ATOM     72  C   UNL A   1      42.901  23.849  26.782  1.00  0.00     0.091 A 
ATOM     73  F   UNL A   1      41.319  24.317  28.501  1.00  0.00    -0.205 F 
ATOM     74  C   UNL A   1      43.925  24.294  25.936  1.00  0.00     0.022 A 
BRANCH  72  75
ATOM     75  S   UNL A   1      42.427  22.117  26.722  1.00  0.00     0.127 S 
ATOM     76  O   UNL A   1      43.503  21.533  25.928  1.00  0.00    -0.237 OA
ATOM     77  O   UNL A   1      42.428  21.735  28.135  1.00  0.00    -0.237 OA
ATOM     78  O   UNL A   1      41.101  22.123  26.115  1.00  0.00    -0.744 OA
ENDBRANCH  72  75
ENDBRANCH  44  68
BRANCH  56  79
ATOM     79  C   UNL A   1      45.182  27.551  34.284  1.00  0.00     0.023 A 
ATOM     80  C   UNL A   1      46.335  28.353  34.176  1.00  0.00     0.012 A 
ATOM     81  C   UNL A   1      45.192  26.437  35.142  1.00  0.00     0.148 A 
ATOM     82  C   UNL A   1      47.490  28.034  34.888  1.00  0.00     0.002 A 
ATOM     83  C   UNL A   1      46.336  26.146  35.878  1.00  0.00     0.091 A 
ATOM     84  F   UNL A   1      44.095  25.669  35.215  1.00  0.00    -0.205 F 
ATOM     85  C   UNL A   1      47.488  26.938  35.747  1.00  0.00     0.022 A 
BRANCH  83  86
ATOM     86  S   UNL A   1      46.371  24.795  37.062  1.00  0.00     0.127 S 
ATOM     87  O   UNL A   1      45.275  25.153  37.960  1.00  0.00    -0.237 OA
ATOM     88  O   UNL A   1      46.113  23.624  36.223  1.00  0.00    -0.237 OA
ATOM     89  O   UNL A   1      47.708  24.829  37.643  1.00  0.00    -0.744 OA
ENDBRANCH  83  86
ENDBRANCH  56  79
ENDBRANCH  30  31
ENDBRANCH  23  25
ENDBRANCH  22  23
ENDBRANCH  21  22
ENDBRANCH   1  21
TORSDOF 20
ENDMDL
