MODEL 1
REMARK VINA RESULT:     -13.9      0.000      0.000
REMARK SMILES Cc1oc2cc3c(cc2c1C)[C@H](C)[C@@H](CC(=O)N[C@H](CC1=c2ccccc2=NC1)C(=O)OCCOC(=O)c1ccc(-c2c4nc(c(-c5cccc(S(=O)(=O)[O-])c5F)c5ccc([nH]5)c(-c5cccc(S(=O)(=O)[O-])c5F)c5nc(c(-c6cccc(S(=O)(=O)[O-])c6F)c6ccc2[nH]6)C=C5)C=C4)cc1)C(=O)O3
REMARK SMILES IDX 33 1 32 2 30 3 31 4 19 5 18 6 16 7 17 8 15 10 14 11 1 12
REMARK SMILES IDX 2 13 3 14 10 15 4 16 9 17 11 18 5 19 8 20 6 21 7 22 103 23
REMARK SMILES IDX 12 24 101 25 13 26 102 27 20 28 21 29 22 30 29 31 23 32
REMARK SMILES IDX 27 33 28 34 24 35 26 36 25 37 34 38 35 39 36 40 37 41 38 42
REMARK SMILES IDX 39 43 100 44 40 45 99 46 41 47 42 48 43 49 93 50 44 51 98 52
REMARK SMILES IDX 92 53 94 54 45 55 97 56 91 57 90 58 46 60 78 61 58 62 77 63
REMARK SMILES IDX 59 64 62 65 76 66 95 67 60 68 61 69 75 71 96 72 63 73 47 74
REMARK SMILES IDX 48 75 56 76 49 77 51 78 57 79 50 80 52 81 53 82 54 83 55 84
REMARK SMILES IDX 79 85 80 86 88 87 81 88 83 89 89 90 82 91 84 92 85 93 86 94
REMARK SMILES IDX 87 95 64 96 65 97 73 98 66 99 68 100 74 101 67 102 69 103
REMARK SMILES IDX 70 104 71 105 72 106
REMARK H PARENT 18 9 94 59 62 70
REMARK Flexibility Score: inf
ROOT
ATOM      1  C   UNL A   1      32.821  30.219  27.189  1.00  0.00     0.274 C 
ENDROOT
BRANCH   1   2
ATOM      2  O   UNL A   1      32.787  30.152  25.745  1.00  0.00    -0.461 OA
BRANCH   2   3
ATOM      3  C   UNL A   1      31.576  30.137  25.150  1.00  0.00     0.329 C 
ATOM      4  O   UNL A   1      30.729  31.000  25.352  1.00  0.00    -0.250 OA
BRANCH   3   5
ATOM      5  C   UNL A   1      31.253  28.853  24.365  1.00  0.00     0.196 C 
BRANCH   5   6
ATOM      6  N   UNL A   1      32.229  28.677  23.247  1.00  0.00    -0.342 N 
ATOM      7  C   UNL A   1      32.707  27.551  22.650  1.00  0.00     0.221 C 
ATOM      8  O   UNL A   1      33.850  27.569  22.184  1.00  0.00    -0.275 OA
ATOM      9  H   UNL A   1      32.585  29.519  22.880  1.00  0.00     0.164 HD
BRANCH   7  10
ATOM     10  C   UNL A   1      31.864  26.297  22.492  1.00  0.00     0.116 C 
BRANCH  10  11
ATOM     11  C   UNL A   1      32.446  25.056  23.168  1.00  0.00     0.116 C 
ATOM     12  C   UNL A   1      32.503  16.923  25.612  1.00  0.00     0.088 C 
ATOM     13  C   UNL A   1      32.525  18.255  24.977  1.00  0.00     0.105 A 
ATOM     14  O   UNL A   1      32.572  19.297  25.849  1.00  0.00    -0.461 OA
ATOM     15  C   UNL A   1      32.517  18.715  23.670  1.00  0.00    -0.002 A 
ATOM     16  C   UNL A   1      32.593  20.435  25.114  1.00  0.00     0.138 A 
ATOM     17  C   UNL A   1      32.545  20.143  23.757  1.00  0.00     0.024 A 
ATOM     18  C   UNL A   1      32.488  17.919  22.422  1.00  0.00     0.049 C 
ATOM     19  C   UNL A   1      32.642  21.712  25.642  1.00  0.00     0.095 A 
ATOM     20  C   UNL A   1      32.520  21.209  22.828  1.00  0.00     0.020 A 
ATOM     21  C   UNL A   1      32.619  22.742  24.704  1.00  0.00     0.138 A 
ATOM     22  C   UNL A   1      32.564  22.531  23.301  1.00  0.00    -0.001 A 
ATOM     23  O   UNL A   1      32.580  24.019  25.257  1.00  0.00    -0.426 OA
ATOM     24  C   UNL A   1      32.343  23.736  22.361  1.00  0.00     0.035 C 
ATOM     25  C   UNL A   1      31.717  24.657  24.416  1.00  0.00     0.315 C 
ATOM     26  C   UNL A   1      33.267  23.751  21.146  1.00  0.00     0.014 C 
ATOM     27  O   UNL A   1      30.508  24.626  24.565  1.00  0.00    -0.251 OA
ENDBRANCH  10  11
ENDBRANCH   7  10
ENDBRANCH   5   6
BRANCH   5  28
ATOM     28  C   UNL A   1      29.878  28.314  23.889  1.00  0.00     0.070 C 
BRANCH  28  29
ATOM     29  C   UNL A   1      28.970  28.795  22.740  1.00  0.00    -0.037 C 
ATOM     30  C   UNL A   1      28.949  30.088  22.373  1.00  0.00     0.001 A 
ATOM     31  C   UNL A   1      27.520  28.460  23.108  1.00  0.00     0.174 C 
ATOM     32  C   UNL A   1      28.829  30.649  21.038  1.00  0.00     0.010 A 
ATOM     33  C   UNL A   1      27.810  30.587  23.204  1.00  0.00     0.065 A 
ATOM     34  N   UNL A   1      26.974  29.717  23.680  1.00  0.00    -0.280 NA
ATOM     35  C   UNL A   1      28.451  31.937  20.932  1.00  0.00     0.001 A 
ATOM     36  C   UNL A   1      27.740  32.062  23.265  1.00  0.00     0.028 A 
ATOM     37  C   UNL A   1      28.115  32.693  22.135  1.00  0.00     0.002 A 
ENDBRANCH  28  29
ENDBRANCH   5  28
ENDBRANCH   3   5
ENDBRANCH   2   3
ENDBRANCH   1   2
BRANCH   1  38
ATOM     38  C   UNL A   1      34.259  30.439  27.632  1.00  0.00     0.275 C 
BRANCH  38  39
ATOM     39  O   UNL A   1      34.278  31.642  28.396  1.00  0.00    -0.458 OA
BRANCH  39  40
ATOM     40  C   UNL A   1      35.310  32.481  28.135  1.00  0.00     0.338 C 
ATOM     41  O   UNL A   1      35.285  33.560  27.593  1.00  0.00    -0.246 OA
BRANCH  40  42
ATOM     42  C   UNL A   1      36.485  31.814  28.704  1.00  0.00     0.060 A 
ATOM     43  C   UNL A   1      37.270  31.015  27.885  1.00  0.00     0.016 A 
ATOM     44  C   UNL A   1      36.714  31.892  30.078  1.00  0.00     0.016 A 
ATOM     45  C   UNL A   1      38.264  30.241  28.470  1.00  0.00     0.010 A 
ATOM     46  C   UNL A   1      37.707  31.126  30.667  1.00  0.00     0.010 A 
ATOM     47  C   UNL A   1      38.471  30.281  29.861  1.00  0.00    -0.014 A 
BRANCH  47  48
ATOM     48  C   UNL A   1      39.452  29.343  30.431  1.00  0.00     0.031 A 
ATOM     49  C   UNL A   1      39.514  27.995  29.759  1.00  0.00     0.074 A 
ATOM     50  C   UNL A   1      40.610  29.930  30.793  1.00  0.00     0.049 A 
ATOM     51  N   UNL A   1      40.229  27.633  28.736  1.00  0.00    -0.248 NA
ATOM     52  C   UNL A   1      38.552  26.974  30.192  1.00  0.00     0.031 C 
ATOM     53  C   UNL A   1      41.477  30.750  29.948  1.00  0.00     0.029 A 
ATOM     54  N   UNL A   1      41.276  29.823  31.997  1.00  0.00    -0.354 N 
ATOM     55  C   UNL A   1      39.837  26.338  28.399  1.00  0.00     0.074 A 
ATOM     56  C   UNL A   1      38.781  25.985  29.320  1.00  0.00     0.031 C 
ATOM     57  C   UNL A   1      42.645  30.937  30.591  1.00  0.00     0.029 A 
ATOM     58  C   UNL A   1      42.593  30.276  31.897  1.00  0.00     0.049 A 
ATOM     59  H   UNL A   1      40.872  29.472  32.824  1.00  0.00     0.167 HD
ATOM     60  C   UNL A   1      40.422  25.584  27.429  1.00  0.00     0.034 A 
ATOM     61  C   UNL A   1      43.632  29.642  32.515  1.00  0.00     0.034 A 
ATOM     62  C   UNL A   1      41.531  26.194  26.762  1.00  0.00     0.049 A 
ATOM     63  C   UNL A   1      43.982  28.605  31.468  1.00  0.00     0.074 A 
ATOM     64  C   UNL A   1      41.769  26.850  25.576  1.00  0.00     0.029 A 
ATOM     65  N   UNL A   1      42.739  26.212  27.417  1.00  0.00    -0.354 N 
ATOM     66  N   UNL A   1      44.647  28.817  30.360  1.00  0.00    -0.248 NA
ATOM     67  C   UNL A   1      43.177  27.380  31.463  1.00  0.00     0.031 C 
ATOM     68  C   UNL A   1      42.968  27.601  25.788  1.00  0.00     0.029 A 
ATOM     69  C   UNL A   1      43.369  27.388  27.107  1.00  0.00     0.049 A 
ATOM     70  H   UNL A   1      43.090  25.503  28.004  1.00  0.00     0.167 HD
ATOM     71  C   UNL A   1      44.082  27.948  29.418  1.00  0.00     0.074 A 
ATOM     72  C   UNL A   1      43.213  27.067  30.175  1.00  0.00     0.031 C 
ATOM     73  C   UNL A   1      44.193  28.104  28.062  1.00  0.00     0.034 A 
BRANCH  60  74
ATOM     74  C   UNL A   1      40.157  24.133  27.218  1.00  0.00     0.023 A 
ATOM     75  C   UNL A   1      41.198  23.249  27.577  1.00  0.00     0.012 A 
ATOM     76  C   UNL A   1      39.040  23.632  26.529  1.00  0.00     0.148 A 
ATOM     77  C   UNL A   1      41.167  21.909  27.204  1.00  0.00     0.002 A 
ATOM     78  C   UNL A   1      39.008  22.282  26.171  1.00  0.00     0.091 A 
ATOM     79  F   UNL A   1      38.056  24.479  26.194  1.00  0.00    -0.205 F 
ATOM     80  C   UNL A   1      40.077  21.427  26.493  1.00  0.00     0.022 A 
BRANCH  78  81
ATOM     81  S   UNL A   1      37.642  21.533  25.273  1.00  0.00     0.127 S 
ATOM     82  O   UNL A   1      38.121  20.167  25.072  1.00  0.00    -0.237 OA
ATOM     83  O   UNL A   1      36.541  21.659  26.230  1.00  0.00    -0.237 OA
ATOM     84  O   UNL A   1      37.480  22.331  24.065  1.00  0.00    -0.744 OA
ENDBRANCH  78  81
ENDBRANCH  60  74
BRANCH  61  85
ATOM     85  C   UNL A   1      43.408  29.362  33.976  1.00  0.00     0.023 A 
ATOM     86  C   UNL A   1      42.428  30.153  34.629  1.00  0.00     0.012 A 
ATOM     87  C   UNL A   1      44.026  28.348  34.726  1.00  0.00     0.148 A 
ATOM     88  C   UNL A   1      41.988  29.868  35.922  1.00  0.00     0.002 A 
ATOM     89  C   UNL A   1      43.544  28.027  35.996  1.00  0.00     0.091 A 
ATOM     90  F   UNL A   1      45.063  27.687  34.201  1.00  0.00    -0.205 F 
ATOM     91  C   UNL A   1      42.523  28.779  36.594  1.00  0.00     0.022 A 
BRANCH  89  92
ATOM     92  S   UNL A   1      44.102  26.577  36.900  1.00  0.00     0.127 S 
ATOM     93  O   UNL A   1      45.454  26.966  37.300  1.00  0.00    -0.237 OA
ATOM     94  O   UNL A   1      43.127  26.526  37.987  1.00  0.00    -0.237 OA
ATOM     95  O   UNL A   1      44.035  25.472  35.954  1.00  0.00    -0.744 OA
ENDBRANCH  89  92
ENDBRANCH  61  85
BRANCH  73  96
ATOM     96  C   UNL A   1      45.099  29.201  27.578  1.00  0.00     0.023 A 
ATOM     97  C   UNL A   1      46.460  28.910  27.375  1.00  0.00     0.012 A 
ATOM     98  C   UNL A   1      44.618  30.484  27.241  1.00  0.00     0.148 A 
ATOM     99  C   UNL A   1      47.322  29.861  26.830  1.00  0.00     0.002 A 
ATOM    100  C   UNL A   1      45.468  31.409  26.644  1.00  0.00     0.091 A 
ATOM    101  F   UNL A   1      43.339  30.788  27.506  1.00  0.00    -0.205 F 
ATOM    102  C   UNL A   1      46.822  31.101  26.445  1.00  0.00     0.022 A 
BRANCH 100 103
ATOM    103  S   UNL A   1      44.903  32.994  26.010  1.00  0.00     0.127 S 
ATOM    104  O   UNL A   1      46.147  33.590  25.524  1.00  0.00    -0.237 OA
ATOM    105  O   UNL A   1      43.975  32.581  24.954  1.00  0.00    -0.237 OA
ATOM    106  O   UNL A   1      44.274  33.683  27.127  1.00  0.00    -0.744 OA
ENDBRANCH 100 103
ENDBRANCH  73  96
ENDBRANCH  47  48
ENDBRANCH  40  42
ENDBRANCH  39  40
ENDBRANCH  38  39
ENDBRANCH   1  38
TORSDOF 19
ENDMDL
MODEL 2
REMARK VINA RESULT:     -12.8      3.483      4.773
REMARK SMILES Cc1oc2cc3c(cc2c1C)[C@H](C)[C@@H](CC(=O)N[C@H](CC1=c2ccccc2=NC1)C(=O)OCCOC(=O)c1ccc(-c2c4nc(c(-c5cccc(S(=O)(=O)[O-])c5F)c5ccc([nH]5)c(-c5cccc(S(=O)(=O)[O-])c5F)c5nc(c(-c6cccc(S(=O)(=O)[O-])c6F)c6ccc2[nH]6)C=C5)C=C4)cc1)C(=O)O3
REMARK SMILES IDX 33 1 32 2 30 3 31 4 19 5 18 6 16 7 17 8 15 10 14 11 1 12
REMARK SMILES IDX 2 13 3 14 10 15 4 16 9 17 11 18 5 19 8 20 6 21 7 22 103 23
REMARK SMILES IDX 12 24 101 25 13 26 102 27 20 28 21 29 22 30 29 31 23 32
REMARK SMILES IDX 27 33 28 34 24 35 26 36 25 37 34 38 35 39 36 40 37 41 38 42
REMARK SMILES IDX 39 43 100 44 40 45 99 46 41 47 42 48 43 49 93 50 44 51 98 52
REMARK SMILES IDX 92 53 94 54 45 55 97 56 91 57 90 58 46 60 78 61 58 62 77 63
REMARK SMILES IDX 59 64 62 65 76 66 95 67 60 68 61 69 75 71 96 72 63 73 47 74
REMARK SMILES IDX 48 75 56 76 49 77 51 78 57 79 50 80 52 81 53 82 54 83 55 84
REMARK SMILES IDX 79 85 80 86 88 87 81 88 83 89 89 90 82 91 84 92 85 93 86 94
REMARK SMILES IDX 87 95 64 96 65 97 73 98 66 99 68 100 74 101 67 102 69 103
REMARK SMILES IDX 70 104 71 105 72 106
REMARK H PARENT 18 9 94 59 62 70
REMARK Flexibility Score: inf
ROOT
ATOM      1  C   UNL A   1      32.445  29.096  27.003  1.00  0.00     0.274 C 
ENDROOT
BRANCH   1   2
ATOM      2  O   UNL A   1      31.673  28.794  25.818  1.00  0.00    -0.461 OA
BRANCH   2   3
ATOM      3  C   UNL A   1      30.917  27.676  25.835  1.00  0.00     0.329 C 
ATOM      4  O   UNL A   1      31.004  26.832  26.719  1.00  0.00    -0.250 OA
BRANCH   3   5
ATOM      5  C   UNL A   1      30.091  27.431  24.559  1.00  0.00     0.196 C 
BRANCH   5   6
ATOM      6  N   UNL A   1      29.985  25.965  24.292  1.00  0.00    -0.342 N 
ATOM      7  C   UNL A   1      30.750  25.140  23.525  1.00  0.00     0.221 C 
ATOM      8  O   UNL A   1      30.216  24.162  22.995  1.00  0.00    -0.275 OA
ATOM      9  H   UNL A   1      29.234  25.520  24.749  1.00  0.00     0.164 HD
BRANCH   7  10
ATOM     10  C   UNL A   1      32.244  25.355  23.347  1.00  0.00     0.116 C 
BRANCH  10  11
ATOM     11  C   UNL A   1      33.119  24.346  24.089  1.00  0.00     0.116 C 
ATOM     12  C   UNL A   1      40.435  20.627  26.274  1.00  0.00     0.088 C 
ATOM     13  C   UNL A   1      39.237  21.450  26.017  1.00  0.00     0.105 A 
ATOM     14  O   UNL A   1      38.215  20.789  25.412  1.00  0.00    -0.461 OA
ATOM     15  C   UNL A   1      38.888  22.769  26.257  1.00  0.00    -0.002 A 
ATOM     16  C   UNL A   1      37.201  21.674  25.255  1.00  0.00     0.138 A 
ATOM     17  C   UNL A   1      37.561  22.923  25.744  1.00  0.00     0.024 A 
ATOM     18  C   UNL A   1      39.697  23.824  26.908  1.00  0.00     0.049 C 
ATOM     19  C   UNL A   1      35.980  21.378  24.677  1.00  0.00     0.095 A 
ATOM     20  C   UNL A   1      36.642  23.992  25.634  1.00  0.00     0.020 A 
ATOM     21  C   UNL A   1      35.094  22.449  24.584  1.00  0.00     0.138 A 
ATOM     22  C   UNL A   1      35.385  23.757  25.052  1.00  0.00    -0.001 A 
ATOM     23  O   UNL A   1      33.906  22.154  23.921  1.00  0.00    -0.426 OA
ATOM     24  C   UNL A   1      34.415  24.913  24.725  1.00  0.00     0.035 C 
ATOM     25  C   UNL A   1      33.704  23.292  23.199  1.00  0.00     0.315 C 
ATOM     26  C   UNL A   1      34.105  25.818  25.914  1.00  0.00     0.014 C 
ATOM     27  O   UNL A   1      34.198  23.471  22.099  1.00  0.00    -0.251 OA
ENDBRANCH  10  11
ENDBRANCH   7  10
ENDBRANCH   5   6
BRANCH   5  28
ATOM     28  C   UNL A   1      30.158  28.163  23.192  1.00  0.00     0.070 C 
BRANCH  28  29
ATOM     29  C   UNL A   1      29.028  28.759  22.331  1.00  0.00    -0.037 C 
ATOM     30  C   UNL A   1      28.959  30.082  22.104  1.00  0.00     0.001 A 
ATOM     31  C   UNL A   1      27.690  28.395  22.985  1.00  0.00     0.174 C 
ATOM     32  C   UNL A   1      28.556  30.773  20.891  1.00  0.00     0.010 A 
ATOM     33  C   UNL A   1      28.050  30.501  23.215  1.00  0.00     0.065 A 
ATOM     34  N   UNL A   1      27.321  29.591  23.784  1.00  0.00    -0.280 NA
ATOM     35  C   UNL A   1      28.198  32.067  20.997  1.00  0.00     0.001 A 
ATOM     36  C   UNL A   1      28.035  31.962  23.432  1.00  0.00     0.028 A 
ATOM     37  C   UNL A   1      28.162  32.701  22.312  1.00  0.00     0.002 A 
ENDBRANCH  28  29
ENDBRANCH   5  28
ENDBRANCH   3   5
ENDBRANCH   2   3
ENDBRANCH   1   2
BRANCH   1  38
ATOM     38  C   UNL A   1      32.651  30.600  27.079  1.00  0.00     0.275 C 
BRANCH  38  39
ATOM     39  O   UNL A   1      34.047  30.819  27.271  1.00  0.00    -0.458 OA
BRANCH  39  40
ATOM     40  C   UNL A   1      34.371  31.934  27.970  1.00  0.00     0.338 C 
ATOM     41  O   UNL A   1      33.820  33.008  27.973  1.00  0.00    -0.246 OA
BRANCH  40  42
ATOM     42  C   UNL A   1      35.529  31.542  28.779  1.00  0.00     0.060 A 
ATOM     43  C   UNL A   1      35.599  31.954  30.102  1.00  0.00     0.016 A 
ATOM     44  C   UNL A   1      36.593  30.875  28.169  1.00  0.00     0.016 A 
ATOM     45  C   UNL A   1      36.780  31.741  30.801  1.00  0.00     0.010 A 
ATOM     46  C   UNL A   1      37.772  30.654  28.863  1.00  0.00     0.010 A 
ATOM     47  C   UNL A   1      37.872  31.108  30.178  1.00  0.00    -0.014 A 
BRANCH  47  48
ATOM     48  C   UNL A   1      39.134  31.028  30.933  1.00  0.00     0.031 A 
ATOM     49  C   UNL A   1      40.051  29.903  30.529  1.00  0.00     0.074 A 
ATOM     50  C   UNL A   1      39.678  32.233  31.198  1.00  0.00     0.049 A 
ATOM     51  N   UNL A   1      40.966  29.896  29.606  1.00  0.00    -0.248 NA
ATOM     52  C   UNL A   1      39.815  28.584  31.131  1.00  0.00     0.031 C 
ATOM     53  C   UNL A   1      40.007  33.277  30.229  1.00  0.00     0.029 A 
ATOM     54  N   UNL A   1      40.124  32.715  32.412  1.00  0.00    -0.354 N 
ATOM     55  C   UNL A   1      41.445  28.590  29.514  1.00  0.00     0.074 A 
ATOM     56  C   UNL A   1      40.683  27.813  30.465  1.00  0.00     0.031 C 
ATOM     57  C   UNL A   1      40.756  34.210  30.846  1.00  0.00     0.029 A 
ATOM     58  C   UNL A   1      40.933  33.841  32.252  1.00  0.00     0.049 A 
ATOM     59  H   UNL A   1      39.898  32.314  33.283  1.00  0.00     0.167 HD
ATOM     60  C   UNL A   1      42.476  28.201  28.714  1.00  0.00     0.034 A 
ATOM     61  C   UNL A   1      42.058  34.043  32.997  1.00  0.00     0.034 A 
ATOM     62  C   UNL A   1      43.098  29.249  27.963  1.00  0.00     0.049 A 
ATOM     63  C   UNL A   1      43.075  33.282  32.172  1.00  0.00     0.074 A 
ATOM     64  C   UNL A   1      43.059  29.742  26.680  1.00  0.00     0.029 A 
ATOM     65  N   UNL A   1      43.977  30.073  28.625  1.00  0.00    -0.354 N 
ATOM     66  N   UNL A   1      43.627  33.687  31.056  1.00  0.00    -0.248 NA
ATOM     67  C   UNL A   1      43.139  31.833  32.384  1.00  0.00     0.031 C 
ATOM     68  C   UNL A   1      43.561  31.079  26.767  1.00  0.00     0.029 A 
ATOM     69  C   UNL A   1      43.840  31.335  28.110  1.00  0.00     0.049 A 
ATOM     70  H   UNL A   1      44.596  29.804  29.342  1.00  0.00     0.167 HD
ATOM     71  C   UNL A   1      43.796  32.530  30.285  1.00  0.00     0.074 A 
ATOM     72  C   UNL A   1      43.513  31.423  31.180  1.00  0.00     0.031 C 
ATOM     73  C   UNL A   1      43.967  32.527  28.926  1.00  0.00     0.034 A 
BRANCH  60  74
ATOM     74  C   UNL A   1      43.132  26.866  28.777  1.00  0.00     0.023 A 
ATOM     75  C   UNL A   1      44.077  26.681  29.809  1.00  0.00     0.012 A 
ATOM     76  C   UNL A   1      43.003  25.881  27.783  1.00  0.00     0.148 A 
ATOM     77  C   UNL A   1      44.924  25.577  29.824  1.00  0.00     0.002 A 
ATOM     78  C   UNL A   1      43.846  24.768  27.811  1.00  0.00     0.091 A 
ATOM     79  F   UNL A   1      42.102  26.065  26.808  1.00  0.00    -0.205 F 
ATOM     80  C   UNL A   1      44.816  24.626  28.819  1.00  0.00     0.022 A 
BRANCH  78  81
ATOM     81  S   UNL A   1      43.786  23.455  26.584  1.00  0.00     0.127 S 
ATOM     82  O   UNL A   1      45.198  23.108  26.438  1.00  0.00    -0.237 OA
ATOM     83  O   UNL A   1      42.975  22.441  27.260  1.00  0.00    -0.237 OA
ATOM     84  O   UNL A   1      43.154  24.042  25.409  1.00  0.00    -0.744 OA
ENDBRANCH  78  81
ENDBRANCH  60  74
BRANCH  61  85
ATOM     85  C   UNL A   1      41.856  33.896  34.480  1.00  0.00     0.023 A 
ATOM     86  C   UNL A   1      42.871  33.205  35.192  1.00  0.00     0.012 A 
ATOM     87  C   UNL A   1      40.798  34.440  35.227  1.00  0.00     0.148 A 
ATOM     88  C   UNL A   1      42.903  33.168  36.586  1.00  0.00     0.002 A 
ATOM     89  C   UNL A   1      40.862  34.453  36.621  1.00  0.00     0.091 A 
ATOM     90  F   UNL A   1      39.745  34.957  34.586  1.00  0.00    -0.205 F 
ATOM     91  C   UNL A   1      41.914  33.825  37.303  1.00  0.00     0.022 A 
BRANCH  89  92
ATOM     92  S   UNL A   1      39.686  35.363  37.631  1.00  0.00     0.127 S 
ATOM     93  O   UNL A   1      39.804  36.718  37.093  1.00  0.00    -0.237 OA
ATOM     94  O   UNL A   1      38.438  34.675  37.306  1.00  0.00    -0.237 OA
ATOM     95  O   UNL A   1      40.142  35.205  39.005  1.00  0.00    -0.744 OA
ENDBRANCH  89  92
ENDBRANCH  61  85
BRANCH  73  96
ATOM     96  C   UNL A   1      44.120  33.865  28.260  1.00  0.00     0.023 A 
ATOM     97  C   UNL A   1      43.021  34.744  28.254  1.00  0.00     0.012 A 
ATOM     98  C   UNL A   1      45.347  34.303  27.719  1.00  0.00     0.148 A 
ATOM     99  C   UNL A   1      43.140  36.035  27.742  1.00  0.00     0.002 A 
ATOM    100  C   UNL A   1      45.477  35.611  27.263  1.00  0.00     0.091 A 
ATOM    101  F   UNL A   1      46.373  33.442  27.654  1.00  0.00    -0.205 F 
ATOM    102  C   UNL A   1      44.371  36.476  27.268  1.00  0.00     0.022 A 
BRANCH 100 103
ATOM    103  S   UNL A   1      47.045  36.315  26.735  1.00  0.00     0.127 S 
ATOM    104  O   UNL A   1      46.674  37.697  26.432  1.00  0.00    -0.237 OA
ATOM    105  O   UNL A   1      47.866  36.156  27.937  1.00  0.00    -0.237 OA
ATOM    106  O   UNL A   1      47.487  35.524  25.595  1.00  0.00    -0.744 OA
ENDBRANCH 100 103
ENDBRANCH  73  96
ENDBRANCH  47  48
ENDBRANCH  40  42
ENDBRANCH  39  40
ENDBRANCH  38  39
ENDBRANCH   1  38
TORSDOF 19
ENDMDL
MODEL 3
REMARK VINA RESULT:     -12.4      1.829      2.222
REMARK SMILES Cc1oc2cc3c(cc2c1C)[C@H](C)[C@@H](CC(=O)N[C@H](CC1=c2ccccc2=NC1)C(=O)OCCOC(=O)c1ccc(-c2c4nc(c(-c5cccc(S(=O)(=O)[O-])c5F)c5ccc([nH]5)c(-c5cccc(S(=O)(=O)[O-])c5F)c5nc(c(-c6cccc(S(=O)(=O)[O-])c6F)c6ccc2[nH]6)C=C5)C=C4)cc1)C(=O)O3
REMARK SMILES IDX 33 1 32 2 30 3 31 4 19 5 18 6 16 7 17 8 15 10 14 11 1 12
REMARK SMILES IDX 2 13 3 14 10 15 4 16 9 17 11 18 5 19 8 20 6 21 7 22 103 23
REMARK SMILES IDX 12 24 101 25 13 26 102 27 20 28 21 29 22 30 29 31 23 32
REMARK SMILES IDX 27 33 28 34 24 35 26 36 25 37 34 38 35 39 36 40 37 41 38 42
REMARK SMILES IDX 39 43 100 44 40 45 99 46 41 47 42 48 43 49 93 50 44 51 98 52
REMARK SMILES IDX 92 53 94 54 45 55 97 56 91 57 90 58 46 60 78 61 58 62 77 63
REMARK SMILES IDX 59 64 62 65 76 66 95 67 60 68 61 69 75 71 96 72 63 73 47 74
REMARK SMILES IDX 48 75 56 76 49 77 51 78 57 79 50 80 52 81 53 82 54 83 55 84
REMARK SMILES IDX 79 85 80 86 88 87 81 88 83 89 89 90 82 91 84 92 85 93 86 94
REMARK SMILES IDX 87 95 64 96 65 97 73 98 66 99 68 100 74 101 67 102 69 103
REMARK SMILES IDX 70 104 71 105 72 106
REMARK H PARENT 18 9 94 59 62 70
REMARK Flexibility Score: inf
ROOT
ATOM      1  C   UNL A   1      33.375  29.086  26.618  1.00  0.00     0.274 C 
ENDROOT
BRANCH   1   2
ATOM      2  O   UNL A   1      32.318  29.095  25.632  1.00  0.00    -0.461 OA
BRANCH   2   3
ATOM      3  C   UNL A   1      31.340  28.174  25.757  1.00  0.00     0.329 C 
ATOM      4  O   UNL A   1      31.353  27.309  26.626  1.00  0.00    -0.250 OA
BRANCH   3   5
ATOM      5  C   UNL A   1      30.317  28.151  24.606  1.00  0.00     0.196 C 
BRANCH   5   6
ATOM      6  N   UNL A   1      30.061  26.743  24.177  1.00  0.00    -0.342 N 
ATOM      7  C   UNL A   1      30.847  25.860  23.501  1.00  0.00     0.221 C 
ATOM      8  O   UNL A   1      30.304  25.019  22.779  1.00  0.00    -0.275 OA
ATOM      9  H   UNL A   1      29.174  26.395  24.427  1.00  0.00     0.164 HD
BRANCH   7  10
ATOM     10  C   UNL A   1      32.359  25.842  23.651  1.00  0.00     0.116 C 
BRANCH  10  11
ATOM     11  C   UNL A   1      32.931  24.502  24.111  1.00  0.00     0.116 C 
ATOM     12  C   UNL A   1      32.710  16.158  25.677  1.00  0.00     0.088 C 
ATOM     13  C   UNL A   1      32.747  17.549  25.186  1.00  0.00     0.105 A 
ATOM     14  O   UNL A   1      32.981  18.483  26.145  1.00  0.00    -0.461 OA
ATOM     15  C   UNL A   1      32.605  18.151  23.946  1.00  0.00    -0.002 A 
ATOM     16  C   UNL A   1      32.990  19.693  25.535  1.00  0.00     0.138 A 
ATOM     17  C   UNL A   1      32.748  19.557  24.174  1.00  0.00     0.024 A 
ATOM     18  C   UNL A   1      32.359  17.502  22.638  1.00  0.00     0.049 C 
ATOM     19  C   UNL A   1      33.199  20.898  26.180  1.00  0.00     0.095 A 
ATOM     20  C   UNL A   1      32.682  20.719  23.371  1.00  0.00     0.020 A 
ATOM     21  C   UNL A   1      33.131  22.025  25.364  1.00  0.00     0.138 A 
ATOM     22  C   UNL A   1      32.882  21.975  23.967  1.00  0.00    -0.001 A 
ATOM     23  O   UNL A   1      33.256  23.233  26.045  1.00  0.00    -0.426 OA
ATOM     24  C   UNL A   1      32.631  23.288  23.194  1.00  0.00     0.035 C 
ATOM     25  C   UNL A   1      32.341  24.010  25.398  1.00  0.00     0.315 C 
ATOM     26  C   UNL A   1      33.390  23.384  21.874  1.00  0.00     0.014 C 
ATOM     27  O   UNL A   1      31.162  24.033  25.705  1.00  0.00    -0.251 OA
ENDBRANCH  10  11
ENDBRANCH   7  10
ENDBRANCH   5   6
BRANCH   5  28
ATOM     28  C   UNL A   1      30.236  29.057  23.349  1.00  0.00     0.070 C 
BRANCH  28  29
ATOM     29  C   UNL A   1      29.047  29.348  22.413  1.00  0.00    -0.037 C 
ATOM     30  C   UNL A   1      28.886  30.563  21.860  1.00  0.00     0.001 A 
ATOM     31  C   UNL A   1      27.753  29.092  23.195  1.00  0.00     0.174 C 
ATOM     32  C   UNL A   1      28.407  30.896  20.530  1.00  0.00     0.010 A 
ATOM     33  C   UNL A   1      27.984  31.203  22.866  1.00  0.00     0.065 A 
ATOM     34  N   UNL A   1      27.330  30.430  23.678  1.00  0.00    -0.280 NA
ATOM     35  C   UNL A   1      27.970  32.152  20.318  1.00  0.00     0.001 A 
ATOM     36  C   UNL A   1      27.880  32.667  22.703  1.00  0.00     0.028 A 
ATOM     37  C   UNL A   1      27.929  33.099  21.428  1.00  0.00     0.002 A 
ENDBRANCH  28  29
ENDBRANCH   5  28
ENDBRANCH   3   5
ENDBRANCH   2   3
ENDBRANCH   1   2
BRANCH   1  38
ATOM     38  C   UNL A   1      33.472  30.469  27.241  1.00  0.00     0.275 C 
BRANCH  38  39
ATOM     39  O   UNL A   1      34.769  30.973  26.934  1.00  0.00    -0.458 OA
BRANCH  39  40
ATOM     40  C   UNL A   1      35.426  31.559  27.965  1.00  0.00     0.338 C 
ATOM     41  O   UNL A   1      35.241  32.648  28.454  1.00  0.00    -0.246 OA
BRANCH  40  42
ATOM     42  C   UNL A   1      36.398  30.555  28.407  1.00  0.00     0.060 A 
ATOM     43  C   UNL A   1      36.383  30.137  29.730  1.00  0.00     0.016 A 
ATOM     44  C   UNL A   1      37.395  30.137  27.524  1.00  0.00     0.016 A 
ATOM     45  C   UNL A   1      37.421  29.333  30.182  1.00  0.00     0.010 A 
ATOM     46  C   UNL A   1      38.431  29.330  27.969  1.00  0.00     0.010 A 
ATOM     47  C   UNL A   1      38.454  28.944  29.309  1.00  0.00    -0.014 A 
BRANCH  47  48
ATOM     48  C   UNL A   1      39.587  28.200  29.882  1.00  0.00     0.031 A 
ATOM     49  C   UNL A   1      40.031  26.998  29.089  1.00  0.00     0.074 A 
ATOM     50  C   UNL A   1      40.533  28.994  30.422  1.00  0.00     0.049 A 
ATOM     51  N   UNL A   1      40.892  26.943  28.117  1.00  0.00    -0.248 NA
ATOM     52  C   UNL A   1      39.318  25.734  29.314  1.00  0.00     0.031 C 
ATOM     53  C   UNL A   1      41.237  30.092  29.760  1.00  0.00     0.029 A 
ATOM     54  N   UNL A   1      41.109  28.900  31.673  1.00  0.00    -0.354 N 
ATOM     55  C   UNL A   1      40.857  25.643  27.613  1.00  0.00     0.074 A 
ATOM     56  C   UNL A   1      39.851  24.941  28.376  1.00  0.00     0.031 C 
ATOM     57  C   UNL A   1      42.268  30.469  30.539  1.00  0.00     0.029 A 
ATOM     58  C   UNL A   1      42.278  29.658  31.759  1.00  0.00     0.049 A 
ATOM     59  H   UNL A   1      40.739  28.365  32.413  1.00  0.00     0.167 HD
ATOM     60  C   UNL A   1      41.684  25.172  26.639  1.00  0.00     0.034 A 
ATOM     61  C   UNL A   1      43.388  29.215  32.417  1.00  0.00     0.034 A 
ATOM     62  C   UNL A   1      42.658  26.103  26.157  1.00  0.00     0.049 A 
ATOM     63  C   UNL A   1      44.064  28.426  31.314  1.00  0.00     0.074 A 
ATOM     64  C   UNL A   1      42.820  26.937  25.075  1.00  0.00     0.029 A 
ATOM     65  N   UNL A   1      43.769  26.323  26.935  1.00  0.00    -0.354 N 
ATOM     66  N   UNL A   1      44.742  28.923  30.310  1.00  0.00    -0.248 NA
ATOM     67  C   UNL A   1      43.588  27.057  31.102  1.00  0.00     0.031 C 
ATOM     68  C   UNL A   1      43.778  27.917  25.488  1.00  0.00     0.029 A 
ATOM     69  C   UNL A   1      44.113  27.644  26.813  1.00  0.00     0.049 A 
ATOM     70  H   UNL A   1      44.236  25.651  27.483  1.00  0.00     0.167 HD
ATOM     71  C   UNL A   1      44.483  28.068  29.231  1.00  0.00     0.074 A 
ATOM     72  C   UNL A   1      43.801  26.921  29.800  1.00  0.00     0.031 C 
ATOM     73  C   UNL A   1      44.659  28.411  27.917  1.00  0.00     0.034 A 
BRANCH  60  74
ATOM     74  C   UNL A   1      41.801  23.737  26.257  1.00  0.00     0.023 A 
ATOM     75  C   UNL A   1      40.803  22.873  26.758  1.00  0.00     0.012 A 
ATOM     76  C   UNL A   1      42.918  23.187  25.606  1.00  0.00     0.148 A 
ATOM     77  C   UNL A   1      40.936  21.491  26.676  1.00  0.00     0.002 A 
ATOM     78  C   UNL A   1      43.040  21.799  25.514  1.00  0.00     0.091 A 
ATOM     79  F   UNL A   1      43.860  24.016  25.133  1.00  0.00    -0.205 F 
ATOM     80  C   UNL A   1      42.060  20.953  26.063  1.00  0.00     0.022 A 
BRANCH  78  81
ATOM     81  S   UNL A   1      44.432  20.983  24.721  1.00  0.00     0.127 S 
ATOM     82  O   UNL A   1      44.514  21.689  23.445  1.00  0.00    -0.237 OA
ATOM     83  O   UNL A   1      45.526  21.273  25.650  1.00  0.00    -0.237 OA
ATOM     84  O   UNL A   1      44.070  19.574  24.642  1.00  0.00    -0.744 OA
ENDBRANCH  78  81
ENDBRANCH  60  74
BRANCH  61  85
ATOM     85  C   UNL A   1      43.126  28.713  33.810  1.00  0.00     0.023 A 
ATOM     86  C   UNL A   1      41.991  29.248  34.472  1.00  0.00     0.012 A 
ATOM     87  C   UNL A   1      43.857  27.718  34.481  1.00  0.00     0.148 A 
ATOM     88  C   UNL A   1      41.527  28.730  35.682  1.00  0.00     0.002 A 
ATOM     89  C   UNL A   1      43.359  27.161  35.659  1.00  0.00     0.091 A 
ATOM     90  F   UNL A   1      45.018  27.303  33.966  1.00  0.00    -0.205 F 
ATOM     91  C   UNL A   1      42.193  27.660  36.259  1.00  0.00     0.022 A 
BRANCH  89  92
ATOM     92  S   UNL A   1      44.093  25.710  36.425  1.00  0.00     0.127 S 
ATOM     93  O   UNL A   1      43.335  25.604  37.670  1.00  0.00    -0.237 OA
ATOM     94  O   UNL A   1      43.794  24.681  35.430  1.00  0.00    -0.237 OA
ATOM     95  O   UNL A   1      45.506  26.022  36.588  1.00  0.00    -0.744 OA
ENDBRANCH  89  92
ENDBRANCH  61  85
BRANCH  73  96
ATOM     96  C   UNL A   1      45.303  29.741  27.644  1.00  0.00     0.023 A 
ATOM     97  C   UNL A   1      46.702  29.844  27.741  1.00  0.00     0.012 A 
ATOM     98  C   UNL A   1      44.564  30.864  27.214  1.00  0.00     0.148 A 
ATOM     99  C   UNL A   1      47.358  31.026  27.399  1.00  0.00     0.002 A 
ATOM    100  C   UNL A   1      45.227  32.020  26.818  1.00  0.00     0.091 A 
ATOM    101  F   UNL A   1      43.225  30.791  27.194  1.00  0.00    -0.205 F 
ATOM    102  C   UNL A   1      46.625  32.105  26.918  1.00  0.00     0.022 A 
BRANCH 100 103
ATOM    103  S   UNL A   1      44.387  33.428  26.079  1.00  0.00     0.127 S 
ATOM    104  O   UNL A   1      43.483  33.842  27.151  1.00  0.00    -0.237 OA
ATOM    105  O   UNL A   1      45.500  34.348  25.835  1.00  0.00    -0.237 OA
ATOM    106  O   UNL A   1      43.740  32.933  24.873  1.00  0.00    -0.744 OA
ENDBRANCH 100 103
ENDBRANCH  73  96
ENDBRANCH  47  48
ENDBRANCH  40  42
ENDBRANCH  39  40
ENDBRANCH  38  39
ENDBRANCH   1  38
TORSDOF 19
ENDMDL
