MODEL 1
REMARK VINA RESULT:     -11.6      0.000      0.000
REMARK SMILES O=C(OCCOC(=O)c1cc(S(=O)(=O)NCc2ccncc2)c(Cl)cc1Cl)c1ccc(-c2c3nc(c(-c4cccc(S(=O)(=O)[O-])c4F)c4ccc([nH]4)c(-c4cccc(S(=O)(=O)[O-])c4F)c4nc(c(-c5cccc(S(=O)(=O)[O-])c5F)c5ccc2[nH]5)C=C4)C=C3)cc1
REMARK SMILES IDX 5 1 4 2 3 3 2 4 1 5 28 6 29 7 90 8 30 9 89 10 31 11 32 12
REMARK SMILES IDX 33 13 83 14 34 15 88 16 82 17 84 18 35 19 87 20 81 21 80 22
REMARK SMILES IDX 36 24 68 25 48 26 67 27 49 28 52 29 66 30 85 31 50 32 51 33
REMARK SMILES IDX 65 35 86 36 53 37 37 38 38 39 46 40 39 41 41 42 47 43 40 44
REMARK SMILES IDX 42 45 43 46 44 47 45 48 69 49 70 50 78 51 71 52 73 53 79 54
REMARK SMILES IDX 72 55 74 56 75 57 76 58 77 59 54 60 55 61 63 62 56 63 58 64
REMARK SMILES IDX 64 65 57 66 59 67 60 68 61 69 62 70 6 71 7 72 8 73 9 74
REMARK SMILES IDX 10 75 26 76 11 77 25 78 27 79 23 80 24 81 12 82 13 83 14 84
REMARK SMILES IDX 15 85 16 87 17 88 18 89 22 90 19 91 21 92 20 93
REMARK H PARENT 84 23 52 34 15 86
REMARK Flexibility Score: inf
ROOT
ATOM      1  C   UNL A   1      38.506  21.624  25.744  1.00  0.00     0.275 C 
ENDROOT
BRANCH   1   2
ATOM      2  C   UNL A   1      38.926  20.165  25.559  1.00  0.00     0.275 C 
BRANCH   2   3
ATOM      3  O   UNL A   1      40.029  19.729  26.371  1.00  0.00    -0.458 OA
BRANCH   3   4
ATOM      4  C   UNL A   1      41.342  19.876  26.064  1.00  0.00     0.338 C 
ATOM      5  O   UNL A   1      41.991  18.942  25.603  1.00  0.00    -0.246 OA
BRANCH   4   6
ATOM      6  C   UNL A   1      42.059  21.110  26.466  1.00  0.00     0.060 A 
ATOM      7  C   UNL A   1      42.401  21.410  27.789  1.00  0.00     0.016 A 
ATOM      8  C   UNL A   1      42.324  22.042  25.455  1.00  0.00     0.016 A 
ATOM      9  C   UNL A   1      43.083  22.593  28.090  1.00  0.00     0.010 A 
ATOM     10  C   UNL A   1      42.978  23.235  25.761  1.00  0.00     0.010 A 
ATOM     11  C   UNL A   1      43.368  23.516  27.079  1.00  0.00    -0.014 A 
BRANCH  11  12
ATOM     12  C   UNL A   1      43.905  24.854  27.426  1.00  0.00     0.031 A 
ATOM     13  C   UNL A   1      42.925  25.936  27.780  1.00  0.00     0.074 A 
ATOM     14  C   UNL A   1      45.226  25.110  27.377  1.00  0.00     0.049 A 
ATOM     15  N   UNL A   1      43.145  27.187  28.078  1.00  0.00    -0.248 NA
ATOM     16  C   UNL A   1      41.501  25.555  27.810  1.00  0.00     0.031 C 
ATOM     17  C   UNL A   1      46.255  24.152  26.972  1.00  0.00     0.029 A 
ATOM     18  N   UNL A   1      45.917  26.287  27.561  1.00  0.00    -0.354 N 
ATOM     19  C   UNL A   1      41.903  27.733  28.364  1.00  0.00     0.074 A 
ATOM     20  C   UNL A   1      40.919  26.697  28.146  1.00  0.00     0.031 C 
ATOM     21  C   UNL A   1      47.411  24.810  26.780  1.00  0.00     0.029 A 
ATOM     22  C   UNL A   1      47.208  26.224  27.085  1.00  0.00     0.049 A 
ATOM     23  H   UNL A   1      45.530  27.086  27.987  1.00  0.00     0.167 HD
ATOM     24  C   UNL A   1      41.617  28.972  28.825  1.00  0.00     0.034 A 
ATOM     25  C   UNL A   1      48.092  27.213  26.845  1.00  0.00     0.034 A 
ATOM     26  C   UNL A   1      42.605  29.994  29.019  1.00  0.00     0.049 A 
ATOM     27  C   UNL A   1      47.751  28.616  27.273  1.00  0.00     0.074 A 
ATOM     28  C   UNL A   1      42.463  31.233  29.615  1.00  0.00     0.029 A 
ATOM     29  N   UNL A   1      43.916  29.906  28.573  1.00  0.00    -0.354 N 
ATOM     30  N   UNL A   1      46.641  29.060  27.808  1.00  0.00    -0.248 NA
ATOM     31  C   UNL A   1      48.786  29.648  27.106  1.00  0.00     0.031 C 
ATOM     32  C   UNL A   1      43.696  31.890  29.546  1.00  0.00     0.029 A 
ATOM     33  C   UNL A   1      44.605  31.058  28.907  1.00  0.00     0.049 A 
ATOM     34  H   UNL A   1      44.299  29.139  28.090  1.00  0.00     0.167 HD
ATOM     35  C   UNL A   1      46.842  30.412  28.053  1.00  0.00     0.074 A 
ATOM     36  C   UNL A   1      48.196  30.713  27.637  1.00  0.00     0.031 C 
ATOM     37  C   UNL A   1      45.977  31.321  28.562  1.00  0.00     0.034 A 
BRANCH  24  38
ATOM     38  C   UNL A   1      40.199  29.226  29.258  1.00  0.00     0.023 A 
ATOM     39  C   UNL A   1      39.255  29.593  28.273  1.00  0.00     0.012 A 
ATOM     40  C   UNL A   1      39.790  29.097  30.596  1.00  0.00     0.148 A 
ATOM     41  C   UNL A   1      37.934  29.862  28.619  1.00  0.00     0.002 A 
ATOM     42  C   UNL A   1      38.461  29.340  30.929  1.00  0.00     0.091 A 
ATOM     43  F   UNL A   1      40.707  28.773  31.519  1.00  0.00    -0.205 F 
ATOM     44  C   UNL A   1      37.535  29.730  29.945  1.00  0.00     0.022 A 
BRANCH  42  45
ATOM     45  S   UNL A   1      37.826  29.164  32.601  1.00  0.00     0.127 S 
ATOM     46  O   UNL A   1      38.706  30.064  33.346  1.00  0.00    -0.237 OA
ATOM     47  O   UNL A   1      36.450  29.640  32.458  1.00  0.00    -0.237 OA
ATOM     48  O   UNL A   1      37.952  27.753  32.934  1.00  0.00    -0.744 OA
ENDBRANCH  42  45
ENDBRANCH  24  38
BRANCH  25  49
ATOM     49  C   UNL A   1      49.318  26.942  26.044  1.00  0.00     0.023 A 
ATOM     50  C   UNL A   1      50.523  26.532  26.636  1.00  0.00     0.012 A 
ATOM     51  C   UNL A   1      49.282  27.158  24.653  1.00  0.00     0.148 A 
ATOM     52  C   UNL A   1      51.678  26.390  25.858  1.00  0.00     0.002 A 
ATOM     53  C   UNL A   1      50.422  27.007  23.881  1.00  0.00     0.091 A 
ATOM     54  F   UNL A   1      48.118  27.520  24.103  1.00  0.00    -0.205 F 
ATOM     55  C   UNL A   1      51.631  26.632  24.483  1.00  0.00     0.022 A 
BRANCH  53  56
ATOM     56  S   UNL A   1      50.408  27.317  22.112  1.00  0.00     0.127 S 
ATOM     57  O   UNL A   1      49.290  26.485  21.673  1.00  0.00    -0.237 OA
ATOM     58  O   UNL A   1      50.164  28.756  22.055  1.00  0.00    -0.237 OA
ATOM     59  O   UNL A   1      51.717  26.890  21.617  1.00  0.00    -0.744 OA
ENDBRANCH  53  56
ENDBRANCH  25  49
BRANCH  37  60
ATOM     60  C   UNL A   1      46.482  32.717  28.782  1.00  0.00     0.023 A 
ATOM     61  C   UNL A   1      47.075  33.058  30.010  1.00  0.00     0.012 A 
ATOM     62  C   UNL A   1      46.463  33.656  27.732  1.00  0.00     0.148 A 
ATOM     63  C   UNL A   1      47.640  34.320  30.195  1.00  0.00     0.002 A 
ATOM     64  C   UNL A   1      47.063  34.896  27.908  1.00  0.00     0.091 A 
ATOM     65  F   UNL A   1      45.864  33.320  26.580  1.00  0.00    -0.205 F 
ATOM     66  C   UNL A   1      47.648  35.233  29.140  1.00  0.00     0.022 A 
BRANCH  64  67
ATOM     67  S   UNL A   1      47.192  36.072  26.557  1.00  0.00     0.127 S 
ATOM     68  O   UNL A   1      47.816  35.264  25.512  1.00  0.00    -0.237 OA
ATOM     69  O   UNL A   1      45.794  36.422  26.301  1.00  0.00    -0.237 OA
ATOM     70  O   UNL A   1      47.995  37.172  27.075  1.00  0.00    -0.744 OA
ENDBRANCH  64  67
ENDBRANCH  37  60
ENDBRANCH  11  12
ENDBRANCH   4   6
ENDBRANCH   3   4
ENDBRANCH   2   3
ENDBRANCH   1   2
BRANCH   1  71
ATOM     71  O   UNL A   1      37.086  21.798  25.807  1.00  0.00    -0.458 OA
BRANCH  71  72
ATOM     72  C   UNL A   1      36.669  23.088  25.827  1.00  0.00     0.339 C 
ATOM     73  O   UNL A   1      37.281  24.041  26.276  1.00  0.00    -0.246 OA
BRANCH  72  74
ATOM     74  C   UNL A   1      35.345  23.201  25.181  1.00  0.00     0.080 A 
ATOM     75  C   UNL A   1      34.188  23.350  25.956  1.00  0.00     0.040 A 
ATOM     76  C   UNL A   1      35.234  23.188  23.794  1.00  0.00     0.057 A 
ATOM     77  C   UNL A   1      32.916  23.534  25.353  1.00  0.00     0.102 A 
ATOM     78  C   UNL A   1      33.991  23.422  23.200  1.00  0.00     0.043 A 
ATOM     79  Cl  UNL A   1      36.562  22.833  22.747  1.00  0.00    -0.083 Cl
ATOM     80  C   UNL A   1      32.834  23.634  23.969  1.00  0.00     0.062 A 
ATOM     81  Cl  UNL A   1      31.443  24.056  23.055  1.00  0.00    -0.083 Cl
BRANCH  77  82
ATOM     82  S   UNL A   1      31.554  23.374  26.496  1.00  0.00     0.242 S 
ATOM     83  O   UNL A   1      30.708  22.414  25.823  1.00  0.00    -0.207 OA
ATOM     84  O   UNL A   1      32.201  23.070  27.752  1.00  0.00    -0.207 OA
BRANCH  82  85
ATOM     85  N   UNL A   1      30.723  24.799  26.676  1.00  0.00    -0.207 NA
ATOM     86  H   UNL A   1      30.527  24.899  27.672  1.00  0.00     0.141 HD
BRANCH  85  87
ATOM     87  C   UNL A   1      31.313  26.072  26.233  1.00  0.00     0.134 C 
BRANCH  87  88
ATOM     88  C   UNL A   1      30.645  26.840  25.121  1.00  0.00    -0.030 A 
ATOM     89  C   UNL A   1      31.153  28.082  24.706  1.00  0.00     0.025 A 
ATOM     90  C   UNL A   1      29.487  26.371  24.505  1.00  0.00     0.025 A 
ATOM     91  C   UNL A   1      30.490  28.786  23.713  1.00  0.00     0.111 A 
ATOM     92  C   UNL A   1      28.898  27.146  23.518  1.00  0.00     0.111 A 
ATOM     93  N   UNL A   1      29.362  28.350  23.123  1.00  0.00    -0.265 NA
ENDBRANCH  87  88
ENDBRANCH  85  87
ENDBRANCH  82  85
ENDBRANCH  77  82
ENDBRANCH  72  74
ENDBRANCH  71  72
ENDBRANCH   1  71
TORSDOF 18
ENDMDL
MODEL 2
REMARK VINA RESULT:     -11.4      5.634     11.565
REMARK SMILES O=C(OCCOC(=O)c1cc(S(=O)(=O)NCc2ccncc2)c(Cl)cc1Cl)c1ccc(-c2c3nc(c(-c4cccc(S(=O)(=O)[O-])c4F)c4ccc([nH]4)c(-c4cccc(S(=O)(=O)[O-])c4F)c4nc(c(-c5cccc(S(=O)(=O)[O-])c5F)c5ccc2[nH]5)C=C4)C=C3)cc1
REMARK SMILES IDX 5 1 4 2 3 3 2 4 1 5 28 6 29 7 90 8 30 9 89 10 31 11 32 12
REMARK SMILES IDX 33 13 83 14 34 15 88 16 82 17 84 18 35 19 87 20 81 21 80 22
REMARK SMILES IDX 36 24 68 25 48 26 67 27 49 28 52 29 66 30 85 31 50 32 51 33
REMARK SMILES IDX 65 35 86 36 53 37 37 38 38 39 46 40 39 41 41 42 47 43 40 44
REMARK SMILES IDX 42 45 43 46 44 47 45 48 69 49 70 50 78 51 71 52 73 53 79 54
REMARK SMILES IDX 72 55 74 56 75 57 76 58 77 59 54 60 55 61 63 62 56 63 58 64
REMARK SMILES IDX 64 65 57 66 59 67 60 68 61 69 62 70 6 71 7 72 8 73 9 74
REMARK SMILES IDX 10 75 26 76 11 77 25 78 27 79 23 80 24 81 12 82 13 83 14 84
REMARK SMILES IDX 15 85 16 87 17 88 18 89 22 90 19 91 21 92 20 93
REMARK H PARENT 84 23 52 34 15 86
REMARK Flexibility Score: inf
ROOT
ATOM      1  C   UNL A   1      32.185  30.533  26.912  1.00  0.00     0.275 C 
ENDROOT
BRANCH   1   2
ATOM      2  C   UNL A   1      33.247  31.563  27.304  1.00  0.00     0.275 C 
BRANCH   2   3
ATOM      3  O   UNL A   1      32.772  32.908  27.476  1.00  0.00    -0.458 OA
BRANCH   3   4
ATOM      4  C   UNL A   1      33.264  33.811  28.362  1.00  0.00     0.338 C 
ATOM      5  O   UNL A   1      32.798  34.944  28.433  1.00  0.00    -0.246 OA
BRANCH   4   6
ATOM      6  C   UNL A   1      34.503  33.502  29.116  1.00  0.00     0.060 A 
ATOM      7  C   UNL A   1      35.782  33.871  28.688  1.00  0.00     0.016 A 
ATOM      8  C   UNL A   1      34.357  32.731  30.276  1.00  0.00     0.016 A 
ATOM      9  C   UNL A   1      36.903  33.548  29.458  1.00  0.00     0.010 A 
ATOM     10  C   UNL A   1      35.479  32.385  31.028  1.00  0.00     0.010 A 
ATOM     11  C   UNL A   1      36.760  32.796  30.628  1.00  0.00    -0.014 A 
BRANCH  11  12
ATOM     12  C   UNL A   1      37.959  32.282  31.331  1.00  0.00     0.031 A 
ATOM     13  C   UNL A   1      38.622  31.050  30.785  1.00  0.00     0.074 A 
ATOM     14  C   UNL A   1      38.414  32.868  32.456  1.00  0.00     0.049 A 
ATOM     15  N   UNL A   1      39.651  30.392  31.243  1.00  0.00    -0.248 NA
ATOM     16  C   UNL A   1      38.052  30.485  29.549  1.00  0.00     0.031 C 
ATOM     17  C   UNL A   1      37.799  34.022  33.111  1.00  0.00     0.029 A 
ATOM     18  N   UNL A   1      39.433  32.503  33.306  1.00  0.00    -0.354 N 
ATOM     19  C   UNL A   1      39.876  29.363  30.341  1.00  0.00     0.074 A 
ATOM     20  C   UNL A   1      38.840  29.440  29.337  1.00  0.00     0.031 C 
ATOM     21  C   UNL A   1      38.342  34.171  34.332  1.00  0.00     0.029 A 
ATOM     22  C   UNL A   1      39.365  33.146  34.523  1.00  0.00     0.049 A 
ATOM     23  H   UNL A   1      40.134  31.853  33.071  1.00  0.00     0.167 HD
ATOM     24  C   UNL A   1      40.891  28.470  30.322  1.00  0.00     0.034 A 
ATOM     25  C   UNL A   1      39.999  32.877  35.682  1.00  0.00     0.034 A 
ATOM     26  C   UNL A   1      41.902  28.397  31.337  1.00  0.00     0.049 A 
ATOM     27  C   UNL A   1      41.074  31.822  35.697  1.00  0.00     0.074 A 
ATOM     28  C   UNL A   1      43.058  27.639  31.355  1.00  0.00     0.029 A 
ATOM     29  N   UNL A   1      41.848  29.080  32.544  1.00  0.00    -0.354 N 
ATOM     30  N   UNL A   1      41.461  31.035  34.725  1.00  0.00    -0.248 NA
ATOM     31  C   UNL A   1      41.828  31.639  36.947  1.00  0.00     0.031 C 
ATOM     32  C   UNL A   1      43.714  27.878  32.568  1.00  0.00     0.029 A 
ATOM     33  C   UNL A   1      42.965  28.786  33.303  1.00  0.00     0.049 A 
ATOM     34  H   UNL A   1      41.121  29.684  32.819  1.00  0.00     0.167 HD
ATOM     35  C   UNL A   1      42.504  30.275  35.233  1.00  0.00     0.074 A 
ATOM     36  C   UNL A   1      42.715  30.715  36.596  1.00  0.00     0.031 C 
ATOM     37  C   UNL A   1      43.212  29.290  34.628  1.00  0.00     0.034 A 
BRANCH  24  38
ATOM     38  C   UNL A   1      41.009  27.600  29.101  1.00  0.00     0.023 A 
ATOM     39  C   UNL A   1      40.277  26.392  29.069  1.00  0.00     0.012 A 
ATOM     40  C   UNL A   1      41.806  27.955  28.000  1.00  0.00     0.148 A 
ATOM     41  C   UNL A   1      40.363  25.535  27.976  1.00  0.00     0.002 A 
ATOM     42  C   UNL A   1      41.865  27.108  26.899  1.00  0.00     0.091 A 
ATOM     43  F   UNL A   1      42.513  29.093  28.061  1.00  0.00    -0.205 F 
ATOM     44  C   UNL A   1      41.152  25.895  26.888  1.00  0.00     0.022 A 
BRANCH  42  45
ATOM     45  S   UNL A   1      42.820  27.488  25.425  1.00  0.00     0.127 S 
ATOM     46  O   UNL A   1      42.627  26.277  24.629  1.00  0.00    -0.237 OA
ATOM     47  O   UNL A   1      42.132  28.672  24.910  1.00  0.00    -0.237 OA
ATOM     48  O   UNL A   1      44.183  27.724  25.878  1.00  0.00    -0.744 OA
ENDBRANCH  42  45
ENDBRANCH  24  38
BRANCH  25  49
ATOM     49  C   UNL A   1      39.543  33.513  36.949  1.00  0.00     0.023 A 
ATOM     50  C   UNL A   1      40.090  34.717  37.421  1.00  0.00     0.012 A 
ATOM     51  C   UNL A   1      38.570  32.856  37.727  1.00  0.00     0.148 A 
ATOM     52  C   UNL A   1      39.706  35.224  38.668  1.00  0.00     0.002 A 
ATOM     53  C   UNL A   1      38.182  33.363  38.955  1.00  0.00     0.091 A 
ATOM     54  F   UNL A   1      38.040  31.726  37.247  1.00  0.00    -0.205 F 
ATOM     55  C   UNL A   1      38.757  34.547  39.438  1.00  0.00     0.022 A 
BRANCH  53  56
ATOM     56  S   UNL A   1      36.974  32.520  39.982  1.00  0.00     0.127 S 
ATOM     57  O   UNL A   1      36.916  33.394  41.152  1.00  0.00    -0.237 OA
ATOM     58  O   UNL A   1      35.783  32.541  39.137  1.00  0.00    -0.237 OA
ATOM     59  O   UNL A   1      37.525  31.189  40.243  1.00  0.00    -0.744 OA
ENDBRANCH  53  56
ENDBRANCH  25  49
BRANCH  37  60
ATOM     60  C   UNL A   1      44.341  28.669  35.398  1.00  0.00     0.023 A 
ATOM     61  C   UNL A   1      45.636  29.208  35.290  1.00  0.00     0.012 A 
ATOM     62  C   UNL A   1      44.095  27.623  36.306  1.00  0.00     0.148 A 
ATOM     63  C   UNL A   1      46.675  28.707  36.074  1.00  0.00     0.002 A 
ATOM     64  C   UNL A   1      45.124  27.156  37.113  1.00  0.00     0.091 A 
ATOM     65  F   UNL A   1      42.860  27.103  36.369  1.00  0.00    -0.205 F 
ATOM     66  C   UNL A   1      46.416  27.693  36.996  1.00  0.00     0.022 A 
BRANCH  64  67
ATOM     67  S   UNL A   1      44.828  25.923  38.386  1.00  0.00     0.127 S 
ATOM     68  O   UNL A   1      44.322  24.797  37.604  1.00  0.00    -0.237 OA
ATOM     69  O   UNL A   1      46.163  25.718  38.951  1.00  0.00    -0.237 OA
ATOM     70  O   UNL A   1      43.880  26.536  39.307  1.00  0.00    -0.744 OA
ENDBRANCH  64  67
ENDBRANCH  37  60
ENDBRANCH  11  12
ENDBRANCH   4   6
ENDBRANCH   3   4
ENDBRANCH   2   3
ENDBRANCH   1   2
BRANCH   1  71
ATOM     71  O   UNL A   1      32.719  29.219  26.718  1.00  0.00    -0.458 OA
BRANCH  71  72
ATOM     72  C   UNL A   1      31.861  28.207  26.997  1.00  0.00     0.339 C 
ATOM     73  O   UNL A   1      31.107  28.139  27.952  1.00  0.00    -0.246 OA
BRANCH  72  74
ATOM     74  C   UNL A   1      31.932  27.178  25.940  1.00  0.00     0.080 A 
ATOM     75  C   UNL A   1      32.589  25.963  26.175  1.00  0.00     0.040 A 
ATOM     76  C   UNL A   1      31.325  27.391  24.706  1.00  0.00     0.057 A 
ATOM     77  C   UNL A   1      32.605  24.933  25.198  1.00  0.00     0.102 A 
ATOM     78  C   UNL A   1      31.295  26.358  23.764  1.00  0.00     0.043 A 
ATOM     79  Cl  UNL A   1      30.644  28.910  24.241  1.00  0.00    -0.083 Cl
ATOM     80  C   UNL A   1      31.898  25.113  24.016  1.00  0.00     0.062 A 
ATOM     81  Cl  UNL A   1      31.617  23.933  22.801  1.00  0.00    -0.083 Cl
BRANCH  77  82
ATOM     82  S   UNL A   1      33.759  23.620  25.565  1.00  0.00     0.242 S 
ATOM     83  O   UNL A   1      35.020  24.212  25.178  1.00  0.00    -0.207 OA
ATOM     84  O   UNL A   1      33.464  23.286  26.939  1.00  0.00    -0.207 OA
BRANCH  82  85
ATOM     85  N   UNL A   1      33.482  22.273  24.636  1.00  0.00    -0.207 NA
ATOM     86  H   UNL A   1      34.343  21.727  24.650  1.00  0.00     0.141 HD
BRANCH  85  87
ATOM     87  C   UNL A   1      32.390  21.345  24.968  1.00  0.00     0.134 C 
BRANCH  87  88
ATOM     88  C   UNL A   1      32.509  19.898  24.558  1.00  0.00    -0.030 A 
ATOM     89  C   UNL A   1      32.858  18.917  25.500  1.00  0.00     0.025 A 
ATOM     90  C   UNL A   1      32.323  19.498  23.237  1.00  0.00     0.025 A 
ATOM     91  C   UNL A   1      33.005  17.603  25.083  1.00  0.00     0.111 A 
ATOM     92  C   UNL A   1      32.489  18.159  22.919  1.00  0.00     0.111 A 
ATOM     93  N   UNL A   1      32.844  17.208  23.807  1.00  0.00    -0.265 NA
ENDBRANCH  87  88
ENDBRANCH  85  87
ENDBRANCH  82  85
ENDBRANCH  77  82
ENDBRANCH  72  74
ENDBRANCH  71  72
ENDBRANCH   1  71
TORSDOF 18
ENDMDL
MODEL 3
REMARK VINA RESULT:     -11.3      1.487      2.173
REMARK SMILES O=C(OCCOC(=O)c1cc(S(=O)(=O)NCc2ccncc2)c(Cl)cc1Cl)c1ccc(-c2c3nc(c(-c4cccc(S(=O)(=O)[O-])c4F)c4ccc([nH]4)c(-c4cccc(S(=O)(=O)[O-])c4F)c4nc(c(-c5cccc(S(=O)(=O)[O-])c5F)c5ccc2[nH]5)C=C4)C=C3)cc1
REMARK SMILES IDX 5 1 4 2 3 3 2 4 1 5 28 6 29 7 90 8 30 9 89 10 31 11 32 12
REMARK SMILES IDX 33 13 83 14 34 15 88 16 82 17 84 18 35 19 87 20 81 21 80 22
REMARK SMILES IDX 36 24 68 25 48 26 67 27 49 28 52 29 66 30 85 31 50 32 51 33
REMARK SMILES IDX 65 35 86 36 53 37 37 38 38 39 46 40 39 41 41 42 47 43 40 44
REMARK SMILES IDX 42 45 43 46 44 47 45 48 69 49 70 50 78 51 71 52 73 53 79 54
REMARK SMILES IDX 72 55 74 56 75 57 76 58 77 59 54 60 55 61 63 62 56 63 58 64
REMARK SMILES IDX 64 65 57 66 59 67 60 68 61 69 62 70 6 71 7 72 8 73 9 74
REMARK SMILES IDX 10 75 26 76 11 77 25 78 27 79 23 80 24 81 12 82 13 83 14 84
REMARK SMILES IDX 15 85 16 87 17 88 18 89 22 90 19 91 21 92 20 93
REMARK H PARENT 84 23 52 34 15 86
REMARK Flexibility Score: inf
ROOT
ATOM      1  C   UNL A   1      38.271  21.218  25.337  1.00  0.00     0.275 C 
ENDROOT
BRANCH   1   2
ATOM      2  C   UNL A   1      38.875  19.813  25.305  1.00  0.00     0.275 C 
BRANCH   2   3
ATOM      3  O   UNL A   1      39.922  19.565  26.258  1.00  0.00    -0.458 OA
BRANCH   3   4
ATOM      4  C   UNL A   1      41.250  19.720  26.030  1.00  0.00     0.338 C 
ATOM      5  O   UNL A   1      41.929  18.793  25.601  1.00  0.00    -0.246 OA
BRANCH   4   6
ATOM      6  C   UNL A   1      41.935  20.954  26.484  1.00  0.00     0.060 A 
ATOM      7  C   UNL A   1      41.904  21.417  27.803  1.00  0.00     0.016 A 
ATOM      8  C   UNL A   1      42.575  21.718  25.499  1.00  0.00     0.016 A 
ATOM      9  C   UNL A   1      42.582  22.587  28.156  1.00  0.00     0.010 A 
ATOM     10  C   UNL A   1      43.225  22.901  25.847  1.00  0.00     0.010 A 
ATOM     11  C   UNL A   1      43.238  23.341  27.179  1.00  0.00    -0.014 A 
BRANCH  11  12
ATOM     12  C   UNL A   1      43.779  24.680  27.514  1.00  0.00     0.031 A 
ATOM     13  C   UNL A   1      42.801  25.776  27.829  1.00  0.00     0.074 A 
ATOM     14  C   UNL A   1      45.104  24.925  27.486  1.00  0.00     0.049 A 
ATOM     15  N   UNL A   1      43.026  27.030  28.111  1.00  0.00    -0.248 NA
ATOM     16  C   UNL A   1      41.374  25.407  27.837  1.00  0.00     0.031 C 
ATOM     17  C   UNL A   1      46.132  23.952  27.118  1.00  0.00     0.029 A 
ATOM     18  N   UNL A   1      45.800  26.099  27.664  1.00  0.00    -0.354 N 
ATOM     19  C   UNL A   1      41.784  27.591  28.363  1.00  0.00     0.074 A 
ATOM     20  C   UNL A   1      40.796  26.559  28.142  1.00  0.00     0.031 C 
ATOM     21  C   UNL A   1      47.298  24.598  26.938  1.00  0.00     0.029 A 
ATOM     22  C   UNL A   1      47.100  26.018  27.215  1.00  0.00     0.049 A 
ATOM     23  H   UNL A   1      45.412  26.909  28.069  1.00  0.00     0.167 HD
ATOM     24  C   UNL A   1      41.498  28.839  28.796  1.00  0.00     0.034 A 
ATOM     25  C   UNL A   1      47.997  26.996  26.976  1.00  0.00     0.034 A 
ATOM     26  C   UNL A   1      42.491  29.857  28.993  1.00  0.00     0.049 A 
ATOM     27  C   UNL A   1      47.659  28.409  27.373  1.00  0.00     0.074 A 
ATOM     28  C   UNL A   1      42.347  31.107  29.564  1.00  0.00     0.029 A 
ATOM     29  N   UNL A   1      43.810  29.751  28.575  1.00  0.00    -0.354 N 
ATOM     30  N   UNL A   1      46.542  28.871  27.878  1.00  0.00    -0.248 NA
ATOM     31  C   UNL A   1      48.705  29.429  27.209  1.00  0.00     0.031 C 
ATOM     32  C   UNL A   1      43.587  31.753  29.509  1.00  0.00     0.029 A 
ATOM     33  C   UNL A   1      44.501  30.903  28.903  1.00  0.00     0.049 A 
ATOM     34  H   UNL A   1      44.196  28.973  28.112  1.00  0.00     0.167 HD
ATOM     35  C   UNL A   1      46.750  30.225  28.104  1.00  0.00     0.074 A 
ATOM     36  C   UNL A   1      48.114  30.508  27.710  1.00  0.00     0.031 C 
ATOM     37  C   UNL A   1      45.882  31.150  28.580  1.00  0.00     0.034 A 
BRANCH  24  38
ATOM     38  C   UNL A   1      40.075  29.112  29.197  1.00  0.00     0.023 A 
ATOM     39  C   UNL A   1      39.139  29.408  28.180  1.00  0.00     0.012 A 
ATOM     40  C   UNL A   1      39.651  29.069  30.536  1.00  0.00     0.148 A 
ATOM     41  C   UNL A   1      37.812  29.690  28.493  1.00  0.00     0.002 A 
ATOM     42  C   UNL A   1      38.318  29.324  30.838  1.00  0.00     0.091 A 
ATOM     43  F   UNL A   1      40.560  28.812  31.488  1.00  0.00    -0.205 F 
ATOM     44  C   UNL A   1      37.400  29.643  29.821  1.00  0.00     0.022 A 
BRANCH  42  45
ATOM     45  S   UNL A   1      37.666  29.255  32.511  1.00  0.00     0.127 S 
ATOM     46  O   UNL A   1      37.779  27.829  32.813  1.00  0.00    -0.237 OA
ATOM     47  O   UNL A   1      38.604  30.108  33.242  1.00  0.00    -0.237 OA
ATOM     48  O   UNL A   1      36.306  29.770  32.435  1.00  0.00    -0.744 OA
ENDBRANCH  42  45
ENDBRANCH  24  38
BRANCH  25  49
ATOM     49  C   UNL A   1      49.236  26.702  26.204  1.00  0.00     0.023 A 
ATOM     50  C   UNL A   1      50.398  26.206  26.816  1.00  0.00     0.012 A 
ATOM     51  C   UNL A   1      49.260  26.983  24.824  1.00  0.00     0.148 A 
ATOM     52  C   UNL A   1      51.572  26.043  26.071  1.00  0.00     0.002 A 
ATOM     53  C   UNL A   1      50.418  26.810  24.084  1.00  0.00     0.091 A 
ATOM     54  F   UNL A   1      48.135  27.426  24.254  1.00  0.00    -0.205 F 
ATOM     55  C   UNL A   1      51.585  26.349  24.708  1.00  0.00     0.022 A 
BRANCH  53  56
ATOM     56  S   UNL A   1      50.482  27.202  22.332  1.00  0.00     0.127 S 
ATOM     57  O   UNL A   1      50.286  28.650  22.345  1.00  0.00    -0.237 OA
ATOM     58  O   UNL A   1      51.827  26.765  21.969  1.00  0.00    -0.237 OA
ATOM     59  O   UNL A   1      49.395  26.445  21.710  1.00  0.00    -0.744 OA
ENDBRANCH  53  56
ENDBRANCH  25  49
BRANCH  37  60
ATOM     60  C   UNL A   1      46.395  32.545  28.786  1.00  0.00     0.023 A 
ATOM     61  C   UNL A   1      46.940  32.910  30.030  1.00  0.00     0.012 A 
ATOM     62  C   UNL A   1      46.430  33.457  27.714  1.00  0.00     0.148 A 
ATOM     63  C   UNL A   1      47.511  34.170  30.206  1.00  0.00     0.002 A 
ATOM     64  C   UNL A   1      47.037  34.695  27.884  1.00  0.00     0.091 A 
ATOM     65  F   UNL A   1      45.876  33.099  26.546  1.00  0.00    -0.205 F 
ATOM     66  C   UNL A   1      47.574  35.056  29.130  1.00  0.00     0.022 A 
BRANCH  64  67
ATOM     67  S   UNL A   1      47.236  35.835  26.510  1.00  0.00     0.127 S 
ATOM     68  O   UNL A   1      47.855  36.987  27.162  1.00  0.00    -0.237 OA
ATOM     69  O   UNL A   1      48.123  35.099  25.607  1.00  0.00    -0.237 OA
ATOM     70  O   UNL A   1      45.894  36.047  25.984  1.00  0.00    -0.744 OA
ENDBRANCH  64  67
ENDBRANCH  37  60
ENDBRANCH  11  12
ENDBRANCH   4   6
ENDBRANCH   3   4
ENDBRANCH   2   3
ENDBRANCH   1   2
BRANCH   1  71
ATOM     71  O   UNL A   1      37.252  21.416  24.351  1.00  0.00    -0.458 OA
BRANCH  71  72
ATOM     72  C   UNL A   1      35.989  21.483  24.840  1.00  0.00     0.339 C 
ATOM     73  O   UNL A   1      35.378  20.586  25.394  1.00  0.00    -0.246 OA
BRANCH  72  74
ATOM     74  C   UNL A   1      35.442  22.841  24.642  1.00  0.00     0.080 A 
ATOM     75  C   UNL A   1      34.501  23.087  23.634  1.00  0.00     0.040 A 
ATOM     76  C   UNL A   1      35.834  23.887  25.472  1.00  0.00     0.057 A 
ATOM     77  C   UNL A   1      33.909  24.367  23.476  1.00  0.00     0.102 A 
ATOM     78  C   UNL A   1      35.213  25.133  25.351  1.00  0.00     0.043 A 
ATOM     79  Cl  UNL A   1      37.112  23.745  26.627  1.00  0.00    -0.083 Cl
ATOM     80  C   UNL A   1      34.223  25.373  24.382  1.00  0.00     0.062 A 
ATOM     81  Cl  UNL A   1      33.478  26.915  24.498  1.00  0.00    -0.083 Cl
BRANCH  77  82
ATOM     82  S   UNL A   1      33.000  24.549  21.949  1.00  0.00     0.242 S 
ATOM     83  O   UNL A   1      33.542  25.782  21.422  1.00  0.00    -0.207 OA
ATOM     84  O   UNL A   1      33.202  23.283  21.284  1.00  0.00    -0.207 OA
BRANCH  82  85
ATOM     85  N   UNL A   1      31.373  24.740  22.214  1.00  0.00    -0.207 NA
ATOM     86  H   UNL A   1      30.925  24.725  21.298  1.00  0.00     0.141 HD
BRANCH  85  87
ATOM     87  C   UNL A   1      30.635  23.788  23.059  1.00  0.00     0.134 C 
BRANCH  87  88
ATOM     88  C   UNL A   1      30.878  23.790  24.547  1.00  0.00    -0.030 A 
ATOM     89  C   UNL A   1      30.695  24.963  25.298  1.00  0.00     0.025 A 
ATOM     90  C   UNL A   1      31.331  22.653  25.212  1.00  0.00     0.025 A 
ATOM     91  C   UNL A   1      30.971  24.945  26.656  1.00  0.00     0.111 A 
ATOM     92  C   UNL A   1      31.575  22.734  26.575  1.00  0.00     0.111 A 
ATOM     93  N   UNL A   1      31.424  23.857  27.306  1.00  0.00    -0.265 NA
ENDBRANCH  87  88
ENDBRANCH  85  87
ENDBRANCH  82  85
ENDBRANCH  77  82
ENDBRANCH  72  74
ENDBRANCH  71  72
ENDBRANCH   1  71
TORSDOF 18
ENDMDL
