MODEL 1
REMARK VINA RESULT:     -12.2      0.000      0.000
REMARK SMILES C[C@@H](C(=O)OCCOC(=O)c1ccc(-c2c3nc(c(-c4cccc(S(=O)(=O)[O-])c4F)c4ccc([nH]4)c(-c4cccc(S(=O)(=O)[O-])c4F)c4nc(c(-c5cccc(S(=O)(=O)[O-])c5F)c5ccc2[nH]5)C=C4)C=C3)cc1)c1ccc(-c2ccn(C(F)F)c(=O)c2)cc1
REMARK SMILES IDX 6 1 5 2 3 3 4 4 2 5 1 6 74 7 75 8 89 9 76 10 88 11 77 12
REMARK SMILES IDX 78 13 79 14 87 15 80 16 85 17 81 18 86 19 82 20 83 21 84 22
REMARK SMILES IDX 7 23 8 24 9 25 10 26 11 27 12 28 73 29 13 30 72 31 14 32
REMARK SMILES IDX 15 33 16 34 66 35 17 36 71 37 65 38 67 39 18 40 70 41 64 42
REMARK SMILES IDX 63 43 19 45 51 46 31 47 50 48 32 49 35 50 49 51 68 52 33 53
REMARK SMILES IDX 34 54 48 56 69 57 36 58 20 59 21 60 29 61 22 62 24 63 30 64
REMARK SMILES IDX 23 65 25 66 26 67 27 68 28 69 52 70 53 71 61 72 54 73 56 74
REMARK SMILES IDX 62 75 55 76 57 77 58 78 59 79 60 80 37 81 38 82 46 83 39 84
REMARK SMILES IDX 41 85 47 86 40 87 42 88 43 89 44 90 45 91
REMARK H PARENT 67 44 35 55
REMARK Flexibility Score: inf
ROOT
ATOM      1  C   UNL A   1      31.246  28.411  25.050  1.00  0.00     0.274 C 
ENDROOT
BRANCH   1   2
ATOM      2  O   UNL A   1      30.739  28.325  23.702  1.00  0.00    -0.462 OA
BRANCH   2   3
ATOM      3  C   UNL A   1      31.331  27.415  22.879  1.00  0.00     0.313 C 
ATOM      4  O   UNL A   1      30.892  27.098  21.779  1.00  0.00    -0.252 OA
BRANCH   3   5
ATOM      5  C   UNL A   1      32.573  26.771  23.510  1.00  0.00     0.126 C 
ATOM      6  C   UNL A   1      33.894  27.278  22.921  1.00  0.00     0.025 C 
BRANCH   5   7
ATOM      7  C   UNL A   1      32.472  25.249  23.519  1.00  0.00    -0.034 A 
ATOM      8  C   UNL A   1      33.481  24.486  22.913  1.00  0.00     0.005 A 
ATOM      9  C   UNL A   1      31.434  24.566  24.165  1.00  0.00     0.005 A 
ATOM     10  C   UNL A   1      33.461  23.086  22.965  1.00  0.00     0.009 A 
ATOM     11  C   UNL A   1      31.421  23.165  24.222  1.00  0.00     0.009 A 
ATOM     12  C   UNL A   1      32.445  22.399  23.644  1.00  0.00    -0.018 A 
BRANCH  12  13
ATOM     13  C   UNL A   1      32.464  20.919  23.811  1.00  0.00    -0.011 A 
ATOM     14  C   UNL A   1      32.705  20.262  25.088  1.00  0.00     0.027 A 
ATOM     15  C   UNL A   1      32.331  20.134  22.724  1.00  0.00     0.080 A 
ATOM     16  C   UNL A   1      32.803  18.930  25.174  1.00  0.00     0.095 A 
ATOM     17  C   UNL A   1      32.383  18.645  22.807  1.00  0.00     0.255 A 
ATOM     18  N   UNL A   1      32.621  18.126  24.066  1.00  0.00    -0.258 N 
ATOM     19  O   UNL A   1      32.183  18.007  21.777  1.00  0.00    -0.269 OA
BRANCH  18  20
ATOM     20  C   UNL A   1      32.868  16.708  24.167  1.00  0.00     0.451 C 
ATOM     21  F   UNL A   1      34.187  16.416  24.075  1.00  0.00    -0.185 F 
ATOM     22  F   UNL A   1      32.414  16.273  25.355  1.00  0.00    -0.185 F 
ENDBRANCH  18  20
ENDBRANCH  12  13
ENDBRANCH   5   7
ENDBRANCH   3   5
ENDBRANCH   2   3
ENDBRANCH   1   2
BRANCH   1  23
ATOM     23  C   UNL A   1      31.584  29.858  25.393  1.00  0.00     0.275 C 
BRANCH  23  24
ATOM     24  O   UNL A   1      32.224  29.902  26.679  1.00  0.00    -0.458 OA
BRANCH  24  25
ATOM     25  C   UNL A   1      32.789  31.078  27.023  1.00  0.00     0.338 C 
ATOM     26  O   UNL A   1      32.288  32.191  26.959  1.00  0.00    -0.246 OA
BRANCH  25  27
ATOM     27  C   UNL A   1      34.152  30.838  27.524  1.00  0.00     0.060 A 
ATOM     28  C   UNL A   1      34.639  29.536  27.620  1.00  0.00     0.016 A 
ATOM     29  C   UNL A   1      34.908  31.906  28.013  1.00  0.00     0.016 A 
ATOM     30  C   UNL A   1      35.833  29.294  28.298  1.00  0.00     0.010 A 
ATOM     31  C   UNL A   1      36.147  31.661  28.614  1.00  0.00     0.010 A 
ATOM     32  C   UNL A   1      36.604  30.347  28.816  1.00  0.00    -0.014 A 
BRANCH  32  33
ATOM     33  C   UNL A   1      37.844  30.074  29.605  1.00  0.00     0.031 A 
ATOM     34  C   UNL A   1      38.989  29.302  28.994  1.00  0.00     0.074 A 
ATOM     35  C   UNL A   1      37.963  30.515  30.874  1.00  0.00     0.049 A 
ATOM     36  N   UNL A   1      40.072  28.839  29.566  1.00  0.00    -0.248 NA
ATOM     37  C   UNL A   1      38.904  28.995  27.557  1.00  0.00     0.031 C 
ATOM     38  C   UNL A   1      36.957  31.297  31.592  1.00  0.00     0.029 A 
ATOM     39  N   UNL A   1      38.987  30.383  31.782  1.00  0.00    -0.354 N 
ATOM     40  C   UNL A   1      40.736  28.101  28.597  1.00  0.00     0.074 A 
ATOM     41  C   UNL A   1      39.958  28.207  27.382  1.00  0.00     0.031 C 
ATOM     42  C   UNL A   1      37.440  31.639  32.795  1.00  0.00     0.029 A 
ATOM     43  C   UNL A   1      38.751  31.023  32.977  1.00  0.00     0.049 A 
ATOM     44  H   UNL A   1      39.811  29.879  31.594  1.00  0.00     0.167 HD
ATOM     45  C   UNL A   1      41.888  27.397  28.708  1.00  0.00     0.034 A 
ATOM     46  C   UNL A   1      39.491  31.099  34.102  1.00  0.00     0.034 A 
ATOM     47  C   UNL A   1      42.711  27.361  29.889  1.00  0.00     0.049 A 
ATOM     48  C   UNL A   1      40.794  30.357  34.191  1.00  0.00     0.074 A 
ATOM     49  C   UNL A   1      43.911  26.696  30.076  1.00  0.00     0.029 A 
ATOM     50  N   UNL A   1      42.438  28.029  31.074  1.00  0.00    -0.354 N 
ATOM     51  N   UNL A   1      41.345  29.554  33.316  1.00  0.00    -0.248 NA
ATOM     52  C   UNL A   1      41.580  30.525  35.423  1.00  0.00     0.031 C 
ATOM     53  C   UNL A   1      44.372  26.973  31.368  1.00  0.00     0.029 A 
ATOM     54  C   UNL A   1      43.462  27.816  31.984  1.00  0.00     0.049 A 
ATOM     55  H   UNL A   1      41.635  28.573  31.244  1.00  0.00     0.167 HD
ATOM     56  C   UNL A   1      42.569  29.179  33.851  1.00  0.00     0.074 A 
ATOM     57  C   UNL A   1      42.660  29.801  35.156  1.00  0.00     0.031 C 
ATOM     58  C   UNL A   1      43.531  28.400  33.300  1.00  0.00     0.034 A 
BRANCH  45  59
ATOM     59  C   UNL A   1      42.352  26.621  27.503  1.00  0.00     0.023 A 
ATOM     60  C   UNL A   1      43.138  27.256  26.523  1.00  0.00     0.012 A 
ATOM     61  C   UNL A   1      42.067  25.246  27.377  1.00  0.00     0.148 A 
ATOM     62  C   UNL A   1      43.615  26.541  25.424  1.00  0.00     0.002 A 
ATOM     63  C   UNL A   1      42.577  24.532  26.298  1.00  0.00     0.091 A 
ATOM     64  F   UNL A   1      41.293  24.663  28.303  1.00  0.00    -0.205 F 
ATOM     65  C   UNL A   1      43.346  25.178  25.318  1.00  0.00     0.022 A 
BRANCH  63  66
ATOM     66  S   UNL A   1      42.337  22.758  26.129  1.00  0.00     0.127 S 
ATOM     67  O   UNL A   1      43.011  22.254  27.323  1.00  0.00    -0.237 OA
ATOM     68  O   UNL A   1      40.879  22.633  26.155  1.00  0.00    -0.237 OA
ATOM     69  O   UNL A   1      42.945  22.402  24.855  1.00  0.00    -0.744 OA
ENDBRANCH  63  66
ENDBRANCH  45  59
BRANCH  46  70
ATOM     70  C   UNL A   1      39.032  31.989  35.205  1.00  0.00     0.023 A 
ATOM     71  C   UNL A   1      38.186  31.457  36.198  1.00  0.00     0.012 A 
ATOM     72  C   UNL A   1      39.504  33.306  35.341  1.00  0.00     0.148 A 
ATOM     73  C   UNL A   1      37.806  32.229  37.297  1.00  0.00     0.002 A 
ATOM     74  C   UNL A   1      39.180  34.046  36.475  1.00  0.00     0.091 A 
ATOM     75  F   UNL A   1      40.295  33.809  34.381  1.00  0.00    -0.205 F 
ATOM     76  C   UNL A   1      38.318  33.517  37.445  1.00  0.00     0.022 A 
BRANCH  74  77
ATOM     77  S   UNL A   1      39.977  35.624  36.797  1.00  0.00     0.127 S 
ATOM     78  O   UNL A   1      39.430  35.986  38.099  1.00  0.00    -0.237 OA
ATOM     79  O   UNL A   1      41.399  35.272  36.807  1.00  0.00    -0.237 OA
ATOM     80  O   UNL A   1      39.589  36.465  35.672  1.00  0.00    -0.744 OA
ENDBRANCH  74  77
ENDBRANCH  46  70
BRANCH  58  81
ATOM     81  C   UNL A   1      44.742  28.099  34.138  1.00  0.00     0.023 A 
ATOM     82  C   UNL A   1      45.817  29.011  34.135  1.00  0.00     0.012 A 
ATOM     83  C   UNL A   1      44.792  26.972  34.980  1.00  0.00     0.148 A 
ATOM     84  C   UNL A   1      46.933  28.794  34.941  1.00  0.00     0.002 A 
ATOM     85  C   UNL A   1      45.894  26.780  35.807  1.00  0.00     0.091 A 
ATOM     86  F   UNL A   1      43.767  26.106  34.956  1.00  0.00    -0.205 F 
ATOM     87  C   UNL A   1      46.967  27.685  35.784  1.00  0.00     0.022 A 
BRANCH  85  88
ATOM     88  S   UNL A   1      45.982  25.423  36.982  1.00  0.00     0.127 S 
ATOM     89  O   UNL A   1      46.022  24.261  36.097  1.00  0.00    -0.237 OA
ATOM     90  O   UNL A   1      47.235  25.695  37.688  1.00  0.00    -0.237 OA
ATOM     91  O   UNL A   1      44.790  25.543  37.812  1.00  0.00    -0.744 OA
ENDBRANCH  85  88
ENDBRANCH  58  81
ENDBRANCH  32  33
ENDBRANCH  25  27
ENDBRANCH  24  25
ENDBRANCH  23  24
ENDBRANCH   1  23
TORSDOF 17
ENDMDL
MODEL 2
REMARK VINA RESULT:     -12.1      5.352     10.371
REMARK SMILES C[C@@H](C(=O)OCCOC(=O)c1ccc(-c2c3nc(c(-c4cccc(S(=O)(=O)[O-])c4F)c4ccc([nH]4)c(-c4cccc(S(=O)(=O)[O-])c4F)c4nc(c(-c5cccc(S(=O)(=O)[O-])c5F)c5ccc2[nH]5)C=C4)C=C3)cc1)c1ccc(-c2ccn(C(F)F)c(=O)c2)cc1
REMARK SMILES IDX 6 1 5 2 3 3 4 4 2 5 1 6 74 7 75 8 89 9 76 10 88 11 77 12
REMARK SMILES IDX 78 13 79 14 87 15 80 16 85 17 81 18 86 19 82 20 83 21 84 22
REMARK SMILES IDX 7 23 8 24 9 25 10 26 11 27 12 28 73 29 13 30 72 31 14 32
REMARK SMILES IDX 15 33 16 34 66 35 17 36 71 37 65 38 67 39 18 40 70 41 64 42
REMARK SMILES IDX 63 43 19 45 51 46 31 47 50 48 32 49 35 50 49 51 68 52 33 53
REMARK SMILES IDX 34 54 48 56 69 57 36 58 20 59 21 60 29 61 22 62 24 63 30 64
REMARK SMILES IDX 23 65 25 66 26 67 27 68 28 69 52 70 53 71 61 72 54 73 56 74
REMARK SMILES IDX 62 75 55 76 57 77 58 78 59 79 60 80 37 81 38 82 46 83 39 84
REMARK SMILES IDX 41 85 47 86 40 87 42 88 43 89 44 90 45 91
REMARK H PARENT 67 44 35 55
REMARK Flexibility Score: inf
ROOT
ATOM      1  C   UNL A   1      35.271  21.388  24.536  1.00  0.00     0.274 C 
ENDROOT
BRANCH   1   2
ATOM      2  O   UNL A   1      34.036  20.703  24.834  1.00  0.00    -0.462 OA
BRANCH   2   3
ATOM      3  C   UNL A   1      33.027  21.453  25.358  1.00  0.00     0.313 C 
ATOM      4  O   UNL A   1      31.837  21.181  25.238  1.00  0.00    -0.252 OA
BRANCH   3   5
ATOM      5  C   UNL A   1      33.537  22.721  26.055  1.00  0.00     0.126 C 
ATOM      6  C   UNL A   1      33.597  22.601  27.582  1.00  0.00     0.025 C 
BRANCH   5   7
ATOM      7  C   UNL A   1      32.781  23.961  25.587  1.00  0.00    -0.034 A 
ATOM      8  C   UNL A   1      32.144  24.780  26.532  1.00  0.00     0.005 A 
ATOM      9  C   UNL A   1      32.741  24.358  24.245  1.00  0.00     0.005 A 
ATOM     10  C   UNL A   1      31.503  25.966  26.149  1.00  0.00     0.009 A 
ATOM     11  C   UNL A   1      32.106  25.549  23.866  1.00  0.00     0.009 A 
ATOM     12  C   UNL A   1      31.495  26.387  24.811  1.00  0.00    -0.018 A 
BRANCH  12  13
ATOM     13  C   UNL A   1      30.921  27.698  24.398  1.00  0.00    -0.011 A 
ATOM     14  C   UNL A   1      31.265  28.959  25.040  1.00  0.00     0.027 A 
ATOM     15  C   UNL A   1      29.978  27.727  23.435  1.00  0.00     0.080 A 
ATOM     16  C   UNL A   1      30.658  30.099  24.695  1.00  0.00     0.095 A 
ATOM     17  C   UNL A   1      29.328  28.997  22.998  1.00  0.00     0.255 A 
ATOM     18  N   UNL A   1      29.724  30.134  23.677  1.00  0.00    -0.258 N 
ATOM     19  O   UNL A   1      28.529  28.940  22.067  1.00  0.00    -0.269 OA
BRANCH  18  20
ATOM     20  C   UNL A   1      28.991  31.351  23.424  1.00  0.00     0.451 C 
ATOM     21  F   UNL A   1      27.692  31.246  23.792  1.00  0.00    -0.185 F 
ATOM     22  F   UNL A   1      29.555  32.350  24.125  1.00  0.00    -0.185 F 
ENDBRANCH  18  20
ENDBRANCH  12  13
ENDBRANCH   5   7
ENDBRANCH   3   5
ENDBRANCH   2   3
ENDBRANCH   1   2
BRANCH   1  23
ATOM     23  C   UNL A   1      36.461  20.540  24.972  1.00  0.00     0.275 C 
BRANCH  23  24
ATOM     24  O   UNL A   1      37.661  21.325  24.873  1.00  0.00    -0.458 OA
BRANCH  24  25
ATOM     25  C   UNL A   1      38.663  20.988  25.713  1.00  0.00     0.338 C 
ATOM     26  O   UNL A   1      39.092  19.868  25.946  1.00  0.00    -0.246 OA
BRANCH  25  27
ATOM     27  C   UNL A   1      39.212  22.205  26.333  1.00  0.00     0.060 A 
ATOM     28  C   UNL A   1      38.650  23.447  26.044  1.00  0.00     0.016 A 
ATOM     29  C   UNL A   1      40.366  22.123  27.114  1.00  0.00     0.016 A 
ATOM     30  C   UNL A   1      39.304  24.610  26.449  1.00  0.00     0.010 A 
ATOM     31  C   UNL A   1      40.966  23.293  27.591  1.00  0.00     0.010 A 
ATOM     32  C   UNL A   1      40.476  24.558  27.219  1.00  0.00    -0.014 A 
BRANCH  32  33
ATOM     33  C   UNL A   1      41.210  25.807  27.587  1.00  0.00     0.031 A 
ATOM     34  C   UNL A   1      40.571  26.836  28.489  1.00  0.00     0.074 A 
ATOM     35  C   UNL A   1      42.455  26.036  27.122  1.00  0.00     0.049 A 
ATOM     36  N   UNL A   1      40.985  28.041  28.792  1.00  0.00    -0.248 NA
ATOM     37  C   UNL A   1      39.293  26.475  29.124  1.00  0.00     0.031 C 
ATOM     38  C   UNL A   1      43.215  25.127  26.266  1.00  0.00     0.029 A 
ATOM     39  N   UNL A   1      43.309  27.096  27.316  1.00  0.00    -0.354 N 
ATOM     40  C   UNL A   1      39.979  28.616  29.555  1.00  0.00     0.074 A 
ATOM     41  C   UNL A   1      38.944  27.616  29.707  1.00  0.00     0.031 C 
ATOM     42  C   UNL A   1      44.443  25.628  26.070  1.00  0.00     0.029 A 
ATOM     43  C   UNL A   1      44.532  26.938  26.705  1.00  0.00     0.049 A 
ATOM     44  H   UNL A   1      43.068  27.892  27.842  1.00  0.00     0.167 HD
ATOM     45  C   UNL A   1      39.920  29.862  30.080  1.00  0.00     0.034 A 
ATOM     46  C   UNL A   1      45.603  27.756  26.643  1.00  0.00     0.034 A 
ATOM     47  C   UNL A   1      40.984  30.829  30.006  1.00  0.00     0.049 A 
ATOM     48  C   UNL A   1      45.542  29.116  27.278  1.00  0.00     0.074 A 
ATOM     49  C   UNL A   1      41.018  32.108  30.539  1.00  0.00     0.029 A 
ATOM     50  N   UNL A   1      42.208  30.626  29.384  1.00  0.00    -0.354 N 
ATOM     51  N   UNL A   1      44.536  29.700  27.880  1.00  0.00    -0.248 NA
ATOM     52  C   UNL A   1      46.761  29.937  27.224  1.00  0.00     0.031 C 
ATOM     53  C   UNL A   1      42.266  32.672  30.252  1.00  0.00     0.029 A 
ATOM     54  C   UNL A   1      43.012  31.743  29.546  1.00  0.00     0.049 A 
ATOM     55  H   UNL A   1      42.466  29.809  28.898  1.00  0.00     0.167 HD
ATOM     56  C   UNL A   1      45.014  30.917  28.340  1.00  0.00     0.074 A 
ATOM     57  C   UNL A   1      46.391  31.017  27.902  1.00  0.00     0.031 C 
ATOM     58  C   UNL A   1      44.368  31.859  29.071  1.00  0.00     0.034 A 
BRANCH  45  59
ATOM     59  C   UNL A   1      38.664  30.254  30.814  1.00  0.00     0.023 A 
ATOM     60  C   UNL A   1      38.510  29.908  32.170  1.00  0.00     0.012 A 
ATOM     61  C   UNL A   1      37.666  31.022  30.179  1.00  0.00     0.148 A 
ATOM     62  C   UNL A   1      37.374  30.302  32.878  1.00  0.00     0.002 A 
ATOM     63  C   UNL A   1      36.554  31.442  30.901  1.00  0.00     0.091 A 
ATOM     64  F   UNL A   1      37.813  31.318  28.880  1.00  0.00    -0.205 F 
ATOM     65  C   UNL A   1      36.403  31.078  32.248  1.00  0.00     0.022 A 
BRANCH  63  66
ATOM     66  S   UNL A   1      35.297  32.506  30.182  1.00  0.00     0.127 S 
ATOM     67  O   UNL A   1      34.824  31.691  29.066  1.00  0.00    -0.237 OA
ATOM     68  O   UNL A   1      34.338  32.649  31.279  1.00  0.00    -0.237 OA
ATOM     69  O   UNL A   1      35.986  33.738  29.826  1.00  0.00    -0.744 OA
ENDBRANCH  63  66
ENDBRANCH  45  59
BRANCH  46  70
ATOM     70  C   UNL A   1      46.855  27.253  26.013  1.00  0.00     0.023 A 
ATOM     71  C   UNL A   1      47.135  27.612  24.680  1.00  0.00     0.012 A 
ATOM     72  C   UNL A   1      47.812  26.524  26.741  1.00  0.00     0.148 A 
ATOM     73  C   UNL A   1      48.339  27.239  24.080  1.00  0.00     0.002 A 
ATOM     74  C   UNL A   1      49.039  26.217  26.160  1.00  0.00     0.091 A 
ATOM     75  F   UNL A   1      47.527  26.171  28.004  1.00  0.00    -0.205 F 
ATOM     76  C   UNL A   1      49.299  26.558  24.826  1.00  0.00     0.022 A 
BRANCH  74  77
ATOM     77  S   UNL A   1      50.369  25.522  27.148  1.00  0.00     0.127 S 
ATOM     78  O   UNL A   1      49.786  24.268  27.613  1.00  0.00    -0.237 OA
ATOM     79  O   UNL A   1      51.451  25.369  26.173  1.00  0.00    -0.237 OA
ATOM     80  O   UNL A   1      50.635  26.531  28.166  1.00  0.00    -0.744 OA
ENDBRANCH  74  77
ENDBRANCH  46  70
BRANCH  58  81
ATOM     81  C   UNL A   1      45.114  33.127  29.379  1.00  0.00     0.023 A 
ATOM     82  C   UNL A   1      45.872  33.202  30.564  1.00  0.00     0.012 A 
ATOM     83  C   UNL A   1      45.132  34.207  28.475  1.00  0.00     0.148 A 
ATOM     84  C   UNL A   1      46.620  34.341  30.857  1.00  0.00     0.002 A 
ATOM     85  C   UNL A   1      45.908  35.326  28.757  1.00  0.00     0.091 A 
ATOM     86  F   UNL A   1      44.389  34.124  27.361  1.00  0.00    -0.205 F 
ATOM     87  C   UNL A   1      46.647  35.398  29.950  1.00  0.00     0.022 A 
BRANCH  85  88
ATOM     88  S   UNL A   1      46.062  36.697  27.606  1.00  0.00     0.127 S 
ATOM     89  O   UNL A   1      46.935  37.610  28.340  1.00  0.00    -0.237 OA
ATOM     90  O   UNL A   1      46.683  36.064  26.441  1.00  0.00    -0.237 OA
ATOM     91  O   UNL A   1      44.704  37.172  27.375  1.00  0.00    -0.744 OA
ENDBRANCH  85  88
ENDBRANCH  58  81
ENDBRANCH  32  33
ENDBRANCH  25  27
ENDBRANCH  24  25
ENDBRANCH  23  24
ENDBRANCH   1  23
TORSDOF 17
ENDMDL
MODEL 3
REMARK VINA RESULT:     -12.1      5.818     10.472
REMARK SMILES C[C@@H](C(=O)OCCOC(=O)c1ccc(-c2c3nc(c(-c4cccc(S(=O)(=O)[O-])c4F)c4ccc([nH]4)c(-c4cccc(S(=O)(=O)[O-])c4F)c4nc(c(-c5cccc(S(=O)(=O)[O-])c5F)c5ccc2[nH]5)C=C4)C=C3)cc1)c1ccc(-c2ccn(C(F)F)c(=O)c2)cc1
REMARK SMILES IDX 6 1 5 2 3 3 4 4 2 5 1 6 74 7 75 8 89 9 76 10 88 11 77 12
REMARK SMILES IDX 78 13 79 14 87 15 80 16 85 17 81 18 86 19 82 20 83 21 84 22
REMARK SMILES IDX 7 23 8 24 9 25 10 26 11 27 12 28 73 29 13 30 72 31 14 32
REMARK SMILES IDX 15 33 16 34 66 35 17 36 71 37 65 38 67 39 18 40 70 41 64 42
REMARK SMILES IDX 63 43 19 45 51 46 31 47 50 48 32 49 35 50 49 51 68 52 33 53
REMARK SMILES IDX 34 54 48 56 69 57 36 58 20 59 21 60 29 61 22 62 24 63 30 64
REMARK SMILES IDX 23 65 25 66 26 67 27 68 28 69 52 70 53 71 61 72 54 73 56 74
REMARK SMILES IDX 62 75 55 76 57 77 58 78 59 79 60 80 37 81 38 82 46 83 39 84
REMARK SMILES IDX 41 85 47 86 40 87 42 88 43 89 44 90 45 91
REMARK H PARENT 67 44 35 55
REMARK Flexibility Score: inf
ROOT
ATOM      1  C   UNL A   1      35.768  21.221  24.716  1.00  0.00     0.274 C 
ENDROOT
BRANCH   1   2
ATOM      2  O   UNL A   1      35.399  22.601  24.511  1.00  0.00    -0.462 OA
BRANCH   2   3
ATOM      3  C   UNL A   1      34.421  22.848  23.595  1.00  0.00     0.313 C 
ATOM      4  O   UNL A   1      34.636  23.189  22.437  1.00  0.00    -0.252 OA
BRANCH   3   5
ATOM      5  C   UNL A   1      33.012  22.724  24.191  1.00  0.00     0.126 C 
ATOM      6  C   UNL A   1      32.275  21.450  23.765  1.00  0.00     0.025 C 
BRANCH   5   7
ATOM      7  C   UNL A   1      32.193  23.990  23.961  1.00  0.00    -0.034 A 
ATOM      8  C   UNL A   1      32.795  25.245  24.139  1.00  0.00     0.005 A 
ATOM      9  C   UNL A   1      30.864  23.959  23.517  1.00  0.00     0.005 A 
ATOM     10  C   UNL A   1      32.096  26.429  23.865  1.00  0.00     0.009 A 
ATOM     11  C   UNL A   1      30.172  25.145  23.237  1.00  0.00     0.009 A 
ATOM     12  C   UNL A   1      30.780  26.401  23.383  1.00  0.00    -0.018 A 
BRANCH  12  13
ATOM     13  C   UNL A   1      30.059  27.639  22.977  1.00  0.00    -0.011 A 
ATOM     14  C   UNL A   1      30.711  28.766  22.324  1.00  0.00     0.027 A 
ATOM     15  C   UNL A   1      28.755  27.773  23.292  1.00  0.00     0.080 A 
ATOM     16  C   UNL A   1      30.043  29.893  22.058  1.00  0.00     0.095 A 
ATOM     17  C   UNL A   1      27.978  29.001  22.956  1.00  0.00     0.255 A 
ATOM     18  N   UNL A   1      28.696  30.011  22.341  1.00  0.00    -0.258 N 
ATOM     19  O   UNL A   1      26.779  29.010  23.218  1.00  0.00    -0.269 OA
BRANCH  18  20
ATOM     20  C   UNL A   1      28.040  31.285  22.169  1.00  0.00     0.451 C 
ATOM     21  F   UNL A   1      28.909  32.319  22.270  1.00  0.00    -0.185 F 
ATOM     22  F   UNL A   1      27.474  31.319  20.950  1.00  0.00    -0.185 F 
ENDBRANCH  18  20
ENDBRANCH  12  13
ENDBRANCH   5   7
ENDBRANCH   3   5
ENDBRANCH   2   3
ENDBRANCH   1   2
BRANCH   1  23
ATOM     23  C   UNL A   1      37.286  21.082  24.748  1.00  0.00     0.275 C 
BRANCH  23  24
ATOM     24  O   UNL A   1      37.769  21.479  26.042  1.00  0.00    -0.458 OA
BRANCH  24  25
ATOM     25  C   UNL A   1      39.106  21.427  26.219  1.00  0.00     0.338 C 
ATOM     26  O   UNL A   1      39.858  20.505  25.938  1.00  0.00    -0.246 OA
BRANCH  25  27
ATOM     27  C   UNL A   1      39.571  22.691  26.813  1.00  0.00     0.060 A 
ATOM     28  C   UNL A   1      38.988  23.897  26.428  1.00  0.00     0.016 A 
ATOM     29  C   UNL A   1      40.675  22.689  27.669  1.00  0.00     0.016 A 
ATOM     30  C   UNL A   1      39.573  25.101  26.816  1.00  0.00     0.010 A 
ATOM     31  C   UNL A   1      41.201  23.902  28.125  1.00  0.00     0.010 A 
ATOM     32  C   UNL A   1      40.694  25.128  27.661  1.00  0.00    -0.014 A 
BRANCH  32  33
ATOM     33  C   UNL A   1      41.359  26.420  28.013  1.00  0.00     0.031 A 
ATOM     34  C   UNL A   1      40.645  27.445  28.862  1.00  0.00     0.074 A 
ATOM     35  C   UNL A   1      42.607  26.692  27.581  1.00  0.00     0.049 A 
ATOM     36  N   UNL A   1      40.995  28.676  29.140  1.00  0.00    -0.248 NA
ATOM     37  C   UNL A   1      39.364  27.046  29.467  1.00  0.00     0.031 C 
ATOM     38  C   UNL A   1      43.434  25.793  26.777  1.00  0.00     0.029 A 
ATOM     39  N   UNL A   1      43.406  27.795  27.768  1.00  0.00    -0.354 N 
ATOM     40  C   UNL A   1      39.940  29.227  29.853  1.00  0.00     0.074 A 
ATOM     41  C   UNL A   1      38.946  28.186  30.003  1.00  0.00     0.031 C 
ATOM     42  C   UNL A   1      44.644  26.343  26.605  1.00  0.00     0.029 A 
ATOM     43  C   UNL A   1      44.654  27.675  27.201  1.00  0.00     0.049 A 
ATOM     44  H   UNL A   1      43.113  28.594  28.261  1.00  0.00     0.167 HD
ATOM     45  C   UNL A   1      39.808  30.485  30.337  1.00  0.00     0.034 A 
ATOM     46  C   UNL A   1      45.689  28.538  27.147  1.00  0.00     0.034 A 
ATOM     47  C   UNL A   1      40.830  31.496  30.266  1.00  0.00     0.049 A 
ATOM     48  C   UNL A   1      45.547  29.912  27.738  1.00  0.00     0.074 A 
ATOM     49  C   UNL A   1      40.789  32.790  30.760  1.00  0.00     0.029 A 
ATOM     50  N   UNL A   1      42.081  31.331  29.690  1.00  0.00    -0.354 N 
ATOM     51  N   UNL A   1      44.497  30.467  28.289  1.00  0.00    -0.248 NA
ATOM     52  C   UNL A   1      46.729  30.786  27.697  1.00  0.00     0.031 C 
ATOM     53  C   UNL A   1      42.020  33.401  30.495  1.00  0.00     0.029 A 
ATOM     54  C   UNL A   1      42.830  32.487  29.842  1.00  0.00     0.049 A 
ATOM     55  H   UNL A   1      42.391  30.512  29.238  1.00  0.00     0.167 HD
ATOM     56  C   UNL A   1      44.905  31.718  28.727  1.00  0.00     0.074 A 
ATOM     57  C   UNL A   1      46.290  31.867  28.329  1.00  0.00     0.031 C 
ATOM     58  C   UNL A   1      44.194  32.650  29.408  1.00  0.00     0.034 A 
BRANCH  45  59
ATOM     59  C   UNL A   1      38.512  30.840  31.018  1.00  0.00     0.023 A 
ATOM     60  C   UNL A   1      38.347  30.569  32.390  1.00  0.00     0.012 A 
ATOM     61  C   UNL A   1      37.485  31.503  30.315  1.00  0.00     0.148 A 
ATOM     62  C   UNL A   1      37.172  30.933  33.048  1.00  0.00     0.002 A 
ATOM     63  C   UNL A   1      36.332  31.895  30.986  1.00  0.00     0.091 A 
ATOM     64  F   UNL A   1      37.646  31.727  29.004  1.00  0.00    -0.205 F 
ATOM     65  C   UNL A   1      36.170  31.606  32.350  1.00  0.00     0.022 A 
BRANCH  63  66
ATOM     66  S   UNL A   1      35.029  32.831  30.176  1.00  0.00     0.127 S 
ATOM     67  O   UNL A   1      34.123  33.102  31.290  1.00  0.00    -0.237 OA
ATOM     68  O   UNL A   1      35.747  34.005  29.677  1.00  0.00    -0.237 OA
ATOM     69  O   UNL A   1      34.513  31.957  29.132  1.00  0.00    -0.744 OA
ENDBRANCH  63  66
ENDBRANCH  45  59
BRANCH  46  70
ATOM     70  C   UNL A   1      46.983  28.074  26.573  1.00  0.00     0.023 A 
ATOM     71  C   UNL A   1      47.911  27.438  27.421  1.00  0.00     0.012 A 
ATOM     72  C   UNL A   1      47.257  28.157  25.197  1.00  0.00     0.148 A 
ATOM     73  C   UNL A   1      49.096  26.908  26.907  1.00  0.00     0.002 A 
ATOM     74  C   UNL A   1      48.405  27.564  24.681  1.00  0.00     0.091 A 
ATOM     75  F   UNL A   1      46.374  28.781  24.402  1.00  0.00    -0.205 F 
ATOM     76  C   UNL A   1      49.334  26.954  25.535  1.00  0.00     0.022 A 
BRANCH  74  77
ATOM     77  S   UNL A   1      48.646  27.427  22.906  1.00  0.00     0.127 S 
ATOM     78  O   UNL A   1      48.580  25.985  22.695  1.00  0.00    -0.237 OA
ATOM     79  O   UNL A   1      47.509  28.177  22.367  1.00  0.00    -0.237 OA
ATOM     80  O   UNL A   1      49.936  28.061  22.662  1.00  0.00    -0.744 OA
ENDBRANCH  74  77
ENDBRANCH  46  70
BRANCH  58  81
ATOM     81  C   UNL A   1      44.872  33.960  29.699  1.00  0.00     0.023 A 
ATOM     82  C   UNL A   1      45.633  34.086  30.878  1.00  0.00     0.012 A 
ATOM     83  C   UNL A   1      44.825  35.031  28.786  1.00  0.00     0.148 A 
ATOM     84  C   UNL A   1      46.320  35.266  31.156  1.00  0.00     0.002 A 
ATOM     85  C   UNL A   1      45.541  36.193  29.053  1.00  0.00     0.091 A 
ATOM     86  F   UNL A   1      44.080  34.898  27.678  1.00  0.00    -0.205 F 
ATOM     87  C   UNL A   1      46.283  36.315  30.239  1.00  0.00     0.022 A 
BRANCH  85  88
ATOM     88  S   UNL A   1      45.613  37.560  27.889  1.00  0.00     0.127 S 
ATOM     89  O   UNL A   1      44.198  37.870  27.701  1.00  0.00    -0.237 OA
ATOM     90  O   UNL A   1      46.365  38.572  28.633  1.00  0.00    -0.237 OA
ATOM     91  O   UNL A   1      46.306  37.042  26.717  1.00  0.00    -0.744 OA
ENDBRANCH  85  88
ENDBRANCH  58  81
ENDBRANCH  32  33
ENDBRANCH  25  27
ENDBRANCH  24  25
ENDBRANCH  23  24
ENDBRANCH   1  23
TORSDOF 17
ENDMDL
