MODEL 1
REMARK VINA RESULT:     -13.7      0.000      0.000
REMARK SMILES O=C(OCCOC(=O)[C@@H]1C=C[C@H](NS(=O)(=O)c2ccc(Cl)cc2)C1)c1ccc(-c2c3nc(c(-c4cccc(S(=O)(=O)[O-])c4F)c4ccc([nH]4)c(-c4cccc(S(=O)(=O)[O-])c4F)c4nc(c(-c5cccc(S(=O)(=O)[O-])c5F)c5ccc2[nH]5)C=C4)C=C3)cc1
REMARK SMILES IDX 4 1 3 2 2 3 1 4 25 5 26 6 87 7 27 8 86 9 28 10 29 11 30 12
REMARK SMILES IDX 80 13 31 14 85 15 79 16 81 17 32 18 84 19 78 20 77 21 33 23
REMARK SMILES IDX 65 24 45 25 64 26 46 27 49 28 63 29 82 30 47 31 48 32 62 34
REMARK SMILES IDX 83 35 50 36 34 37 35 38 43 39 36 40 38 41 44 42 37 43 39 44
REMARK SMILES IDX 40 45 41 46 42 47 66 48 67 49 75 50 68 51 70 52 76 53 69 54
REMARK SMILES IDX 71 55 72 56 73 57 74 58 51 59 52 60 60 61 53 62 55 63 61 64
REMARK SMILES IDX 54 65 56 66 57 67 58 68 59 69 5 70 6 71 7 72 8 73 9 74 10 75
REMARK SMILES IDX 24 76 11 77 12 78 13 79 14 81 15 82 16 83 17 84 18 85 23 86
REMARK SMILES IDX 19 87 22 88 20 89 21 90
REMARK H PARENT 81 22 49 33 13 80
REMARK Flexibility Score: inf
ROOT
ATOM      1  C   UNL A   1      32.464  28.364  25.412  1.00  0.00     0.275 C 
ENDROOT
BRANCH   1   2
ATOM      2  O   UNL A   1      32.665  29.776  25.551  1.00  0.00    -0.458 OA
BRANCH   2   3
ATOM      3  C   UNL A   1      32.792  30.424  26.728  1.00  0.00     0.338 C 
ATOM      4  O   UNL A   1      31.832  31.009  27.221  1.00  0.00    -0.246 OA
BRANCH   3   5
ATOM      5  C   UNL A   1      34.149  30.620  27.294  1.00  0.00     0.060 A 
ATOM      6  C   UNL A   1      34.840  31.782  27.630  1.00  0.00     0.016 A 
ATOM      7  C   UNL A   1      34.851  29.471  27.428  1.00  0.00     0.016 A 
ATOM      8  C   UNL A   1      36.179  31.753  28.217  1.00  0.00     0.010 A 
ATOM      9  C   UNL A   1      36.159  29.517  27.950  1.00  0.00     0.010 A 
ATOM     10  C   UNL A   1      36.935  30.581  28.504  1.00  0.00    -0.014 A 
BRANCH  10  11
ATOM     11  C   UNL A   1      38.529  30.674  29.274  1.00  0.00     0.031 A 
ATOM     12  C   UNL A   1      39.366  31.881  30.537  1.00  0.00     0.074 A 
ATOM     13  C   UNL A   1      39.283  29.656  28.699  1.00  0.00     0.049 A 
ATOM     14  N   UNL A   1      40.235  31.387  32.057  1.00  0.00    -0.248 NA
ATOM     15  C   UNL A   1      38.569  33.683  31.225  1.00  0.00     0.031 C 
ATOM     16  C   UNL A   1      39.476  29.328  27.276  1.00  0.00     0.029 A 
ATOM     17  N   UNL A   1      39.979  28.590  29.246  1.00  0.00    -0.354 N 
ATOM     18  C   UNL A   1      39.917  32.400  33.503  1.00  0.00     0.074 A 
ATOM     19  C   UNL A   1      38.807  33.796  32.872  1.00  0.00     0.031 C 
ATOM     20  C   UNL A   1      40.443  28.384  27.152  1.00  0.00     0.029 A 
ATOM     21  C   UNL A   1      40.947  28.016  28.480  1.00  0.00     0.049 A 
ATOM     22  H   UNL A   1      39.781  28.262  30.153  1.00  0.00     0.167 HD
ATOM     23  C   UNL A   1      40.192  31.914  34.747  1.00  0.00     0.034 A 
ATOM     24  C   UNL A   1      42.123  27.409  28.833  1.00  0.00     0.034 A 
ATOM     25  C   UNL A   1      41.106  30.788  34.987  1.00  0.00     0.049 A 
ATOM     26  C   UNL A   1      42.770  27.330  30.290  1.00  0.00     0.074 A 
ATOM     27  C   UNL A   1      41.717  30.369  36.156  1.00  0.00     0.029 A 
ATOM     28  N   UNL A   1      41.616  29.928  33.999  1.00  0.00    -0.354 N 
ATOM     29  N   UNL A   1      42.308  27.670  31.477  1.00  0.00    -0.248 NA
ATOM     30  C   UNL A   1      44.184  26.903  30.386  1.00  0.00     0.031 C 
ATOM     31  C   UNL A   1      42.595  29.301  35.848  1.00  0.00     0.029 A 
ATOM     32  C   UNL A   1      42.546  29.014  34.481  1.00  0.00     0.049 A 
ATOM     33  H   UNL A   1      41.341  29.969  33.054  1.00  0.00     0.167 HD
ATOM     34  C   UNL A   1      43.342  27.635  32.416  1.00  0.00     0.074 A 
ATOM     35  C   UNL A   1      44.456  27.038  31.686  1.00  0.00     0.031 C 
ATOM     36  C   UNL A   1      43.444  28.127  33.698  1.00  0.00     0.034 A 
BRANCH  23  37
ATOM     37  C   UNL A   1      39.412  32.554  35.839  1.00  0.00     0.023 A 
ATOM     38  C   UNL A   1      39.663  33.901  36.179  1.00  0.00     0.012 A 
ATOM     39  C   UNL A   1      38.515  31.804  36.607  1.00  0.00     0.148 A 
ATOM     40  C   UNL A   1      39.070  34.471  37.308  1.00  0.00     0.002 A 
ATOM     41  C   UNL A   1      37.955  32.365  37.747  1.00  0.00     0.091 A 
ATOM     42  F   UNL A   1      38.270  30.541  36.233  1.00  0.00    -0.205 F 
ATOM     43  C   UNL A   1      38.231  33.697  38.104  1.00  0.00     0.022 A 
BRANCH  41  44
ATOM     44  S   UNL A   1      36.973  31.398  38.895  1.00  0.00     0.127 S 
ATOM     45  O   UNL A   1      35.712  32.140  38.894  1.00  0.00    -0.237 OA
ATOM     46  O   UNL A   1      36.920  30.094  38.238  1.00  0.00    -0.237 OA
ATOM     47  O   UNL A   1      37.694  31.425  40.161  1.00  0.00    -0.744 OA
ENDBRANCH  41  44
ENDBRANCH  23  37
BRANCH  24  48
ATOM     48  C   UNL A   1      42.984  26.962  27.691  1.00  0.00     0.023 A 
ATOM     49  C   UNL A   1      43.845  27.899  27.096  1.00  0.00     0.012 A 
ATOM     50  C   UNL A   1      42.977  25.631  27.216  1.00  0.00     0.148 A 
ATOM     51  C   UNL A   1      44.685  27.522  26.049  1.00  0.00     0.002 A 
ATOM     52  C   UNL A   1      43.867  25.247  26.221  1.00  0.00     0.091 A 
ATOM     53  F   UNL A   1      42.131  24.754  27.775  1.00  0.00    -0.205 F 
ATOM     54  C   UNL A   1      44.710  26.195  25.625  1.00  0.00     0.022 A 
BRANCH  52  55
ATOM     55  S   UNL A   1      44.076  23.537  25.710  1.00  0.00     0.127 S 
ATOM     56  O   UNL A   1      42.757  23.220  25.170  1.00  0.00    -0.237 OA
ATOM     57  O   UNL A   1      45.138  23.659  24.711  1.00  0.00    -0.237 OA
ATOM     58  O   UNL A   1      44.455  22.801  26.909  1.00  0.00    -0.744 OA
ENDBRANCH  52  55
ENDBRANCH  24  48
BRANCH  36  59
ATOM     59  C   UNL A   1      44.686  27.708  34.471  1.00  0.00     0.023 A 
ATOM     60  C   UNL A   1      45.754  28.609  34.644  1.00  0.00     0.012 A 
ATOM     61  C   UNL A   1      44.680  26.499  35.200  1.00  0.00     0.148 A 
ATOM     62  C   UNL A   1      46.784  28.321  35.544  1.00  0.00     0.002 A 
ATOM     63  C   UNL A   1      45.678  26.245  36.136  1.00  0.00     0.091 A 
ATOM     64  F   UNL A   1      43.669  25.639  35.003  1.00  0.00    -0.205 F 
ATOM     65  C   UNL A   1      46.734  27.154  36.306  1.00  0.00     0.022 A 
BRANCH  63  66
ATOM     66  S   UNL A   1      45.579  24.844  37.261  1.00  0.00     0.127 S 
ATOM     67  O   UNL A   1      46.889  24.879  37.907  1.00  0.00    -0.237 OA
ATOM     68  O   UNL A   1      44.461  25.212  38.133  1.00  0.00    -0.237 OA
ATOM     69  O   UNL A   1      45.317  23.686  36.417  1.00  0.00    -0.744 OA
ENDBRANCH  63  66
ENDBRANCH  36  59
ENDBRANCH  10  11
ENDBRANCH   3   5
ENDBRANCH   2   3
ENDBRANCH   1   2
BRANCH   1  70
ATOM     70  C   UNL A   1      33.481  27.663  24.497  1.00  0.00     0.274 C 
BRANCH  70  71
ATOM     71  O   UNL A   1      33.416  27.981  23.074  1.00  0.00    -0.462 OA
BRANCH  71  72
ATOM     72  C   UNL A   1      32.972  26.993  22.237  1.00  0.00     0.312 C 
ATOM     73  O   UNL A   1      33.726  26.326  21.532  1.00  0.00    -0.252 OA
BRANCH  72  74
ATOM     74  C   UNL A   1      31.428  26.857  22.099  1.00  0.00     0.123 C 
ATOM     75  C   UNL A   1      30.492  27.938  22.485  1.00  0.00    -0.015 C 
ATOM     76  C   UNL A   1      30.798  25.625  22.823  1.00  0.00     0.043 C 
ATOM     77  C   UNL A   1      29.498  27.503  23.283  1.00  0.00    -0.011 C 
ATOM     78  C   UNL A   1      29.574  26.069  23.715  1.00  0.00     0.093 C 
BRANCH  78  79
ATOM     79  N   UNL A   1      29.692  25.405  25.163  1.00  0.00    -0.204 NA
ATOM     80  H   UNL A   1      28.947  24.711  25.107  1.00  0.00     0.142 HD
BRANCH  79  81
ATOM     81  S   UNL A   1      30.953  24.475  26.441  1.00  0.00     0.241 S 
ATOM     82  O   UNL A   1      31.578  25.578  27.147  1.00  0.00    -0.207 OA
ATOM     83  O   UNL A   1      30.360  23.404  27.207  1.00  0.00    -0.207 OA
BRANCH  81  84
ATOM     84  C   UNL A   1      32.480  23.514  25.286  1.00  0.00     0.082 A 
ATOM     85  C   UNL A   1      33.561  22.859  26.554  1.00  0.00     0.023 A 
ATOM     86  C   UNL A   1      32.055  22.224  23.718  1.00  0.00     0.023 A 
ATOM     87  C   UNL A   1      34.057  21.187  26.268  1.00  0.00     0.022 A 
ATOM     88  C   UNL A   1      32.517  20.606  23.701  1.00  0.00     0.022 A 
ATOM     89  C   UNL A   1      33.468  20.122  24.957  1.00  0.00     0.041 A 
ATOM     90  Cl  UNL A   1      33.931  18.480  24.674  1.00  0.00    -0.084 Cl
ENDBRANCH  81  84
ENDBRANCH  79  81
ENDBRANCH  78  79
ENDBRANCH  72  74
ENDBRANCH  71  72
ENDBRANCH  70  71
ENDBRANCH   1  70
TORSDOF 17
ENDMDL
MODEL 2
REMARK VINA RESULT:     -13.4      1.807      2.142
REMARK SMILES O=C(OCCOC(=O)[C@@H]1C=C[C@H](NS(=O)(=O)c2ccc(Cl)cc2)C1)c1ccc(-c2c3nc(c(-c4cccc(S(=O)(=O)[O-])c4F)c4ccc([nH]4)c(-c4cccc(S(=O)(=O)[O-])c4F)c4nc(c(-c5cccc(S(=O)(=O)[O-])c5F)c5ccc2[nH]5)C=C4)C=C3)cc1
REMARK SMILES IDX 4 1 3 2 2 3 1 4 25 5 26 6 87 7 27 8 86 9 28 10 29 11 30 12
REMARK SMILES IDX 80 13 31 14 85 15 79 16 81 17 32 18 84 19 78 20 77 21 33 23
REMARK SMILES IDX 65 24 45 25 64 26 46 27 49 28 63 29 82 30 47 31 48 32 62 34
REMARK SMILES IDX 83 35 50 36 34 37 35 38 43 39 36 40 38 41 44 42 37 43 39 44
REMARK SMILES IDX 40 45 41 46 42 47 66 48 67 49 75 50 68 51 70 52 76 53 69 54
REMARK SMILES IDX 71 55 72 56 73 57 74 58 51 59 52 60 60 61 53 62 55 63 61 64
REMARK SMILES IDX 54 65 56 66 57 67 58 68 59 69 5 70 6 71 7 72 8 73 9 74 10 75
REMARK SMILES IDX 24 76 11 77 12 78 13 79 14 81 15 82 16 83 17 84 18 85 23 86
REMARK SMILES IDX 19 87 22 88 20 89 21 90
REMARK H PARENT 81 22 49 33 13 80
REMARK Flexibility Score: inf
ROOT
ATOM      1  C   UNL A   1      32.839  29.230  24.702  1.00  0.00     0.275 C 
ENDROOT
BRANCH   1   2
ATOM      2  O   UNL A   1      32.449  29.467  26.061  1.00  0.00    -0.458 OA
BRANCH   2   3
ATOM      3  C   UNL A   1      32.888  30.493  26.821  1.00  0.00     0.338 C 
ATOM      4  O   UNL A   1      32.275  31.556  26.840  1.00  0.00    -0.246 OA
BRANCH   3   5
ATOM      5  C   UNL A   1      34.233  30.401  27.438  1.00  0.00     0.060 A 
ATOM      6  C   UNL A   1      34.954  29.301  27.898  1.00  0.00     0.016 A 
ATOM      7  C   UNL A   1      34.813  31.604  27.654  1.00  0.00     0.016 A 
ATOM      8  C   UNL A   1      36.303  29.426  28.450  1.00  0.00     0.010 A 
ATOM      9  C   UNL A   1      36.093  31.659  28.241  1.00  0.00     0.010 A 
ATOM     10  C   UNL A   1      37.031  30.642  28.597  1.00  0.00    -0.014 A 
BRANCH  10  11
ATOM     11  C   UNL A   1      38.688  30.656  29.226  1.00  0.00     0.031 A 
ATOM     12  C   UNL A   1      39.698  31.833  30.387  1.00  0.00     0.074 A 
ATOM     13  C   UNL A   1      39.332  29.587  28.610  1.00  0.00     0.049 A 
ATOM     14  N   UNL A   1      40.665  31.315  31.837  1.00  0.00    -0.248 NA
ATOM     15  C   UNL A   1      39.065  33.689  31.102  1.00  0.00     0.031 C 
ATOM     16  C   UNL A   1      39.382  29.225  27.184  1.00  0.00     0.029 A 
ATOM     17  N   UNL A   1      40.011  28.492  29.118  1.00  0.00    -0.354 N 
ATOM     18  C   UNL A   1      40.530  32.368  33.283  1.00  0.00     0.074 A 
ATOM     19  C   UNL A   1      39.450  33.815  32.720  1.00  0.00     0.031 C 
ATOM     20  C   UNL A   1      40.281  28.225  26.997  1.00  0.00     0.029 A 
ATOM     21  C   UNL A   1      40.876  27.851  28.285  1.00  0.00     0.049 A 
ATOM     22  H   UNL A   1      39.874  28.191  30.046  1.00  0.00     0.167 HD
ATOM     23  C   UNL A   1      40.884  31.887  34.510  1.00  0.00     0.034 A 
ATOM     24  C   UNL A   1      42.042  27.183  28.549  1.00  0.00     0.034 A 
ATOM     25  C   UNL A   1      41.751  30.714  34.694  1.00  0.00     0.049 A 
ATOM     26  C   UNL A   1      42.808  27.090  29.948  1.00  0.00     0.074 A 
ATOM     27  C   UNL A   1      42.436  30.280  35.816  1.00  0.00     0.029 A 
ATOM     28  N   UNL A   1      42.125  29.810  33.685  1.00  0.00    -0.354 N 
ATOM     29  N   UNL A   1      42.469  27.475  31.162  1.00  0.00    -0.248 NA
ATOM     30  C   UNL A   1      44.198  26.584  29.931  1.00  0.00     0.031 C 
ATOM     31  C   UNL A   1      43.223  29.158  35.456  1.00  0.00     0.029 A 
ATOM     32  C   UNL A   1      43.041  28.852  34.105  1.00  0.00     0.049 A 
ATOM     33  H   UNL A   1      41.772  29.852  32.766  1.00  0.00     0.167 HD
ATOM     34  C   UNL A   1      43.577  27.396  32.010  1.00  0.00     0.074 A 
ATOM     35  C   UNL A   1      44.589  26.725  31.200  1.00  0.00     0.031 C 
ATOM     36  C   UNL A   1      43.816  27.903  33.267  1.00  0.00     0.034 A 
BRANCH  23  37
ATOM     37  C   UNL A   1      40.238  32.588  35.650  1.00  0.00     0.023 A 
ATOM     38  C   UNL A   1      39.130  31.997  36.296  1.00  0.00     0.012 A 
ATOM     39  C   UNL A   1      40.641  33.877  36.014  1.00  0.00     0.148 A 
ATOM     40  C   UNL A   1      38.401  32.709  37.252  1.00  0.00     0.002 A 
ATOM     41  C   UNL A   1      39.893  34.593  36.939  1.00  0.00     0.091 A 
ATOM     42  F   UNL A   1      41.719  34.393  35.409  1.00  0.00    -0.205 F 
ATOM     43  C   UNL A   1      38.770  34.014  37.559  1.00  0.00     0.022 A 
BRANCH  41  44
ATOM     44  S   UNL A   1      40.221  36.321  37.291  1.00  0.00     0.127 S 
ATOM     45  O   UNL A   1      40.009  36.930  35.978  1.00  0.00    -0.237 OA
ATOM     46  O   UNL A   1      39.199  36.636  38.287  1.00  0.00    -0.237 OA
ATOM     47  O   UNL A   1      41.594  36.378  37.774  1.00  0.00    -0.744 OA
ENDBRANCH  41  44
ENDBRANCH  23  37
BRANCH  24  48
ATOM     48  C   UNL A   1      42.776  26.668  27.348  1.00  0.00     0.023 A 
ATOM     49  C   UNL A   1      43.524  27.577  26.581  1.00  0.00     0.012 A 
ATOM     50  C   UNL A   1      42.760  25.304  26.981  1.00  0.00     0.148 A 
ATOM     51  C   UNL A   1      44.245  27.139  25.470  1.00  0.00     0.002 A 
ATOM     52  C   UNL A   1      43.536  24.864  25.917  1.00  0.00     0.091 A 
ATOM     53  F   UNL A   1      42.020  24.452  27.706  1.00  0.00    -0.205 F 
ATOM     54  C   UNL A   1      44.266  25.784  25.150  1.00  0.00     0.022 A 
BRANCH  52  55
ATOM     55  S   UNL A   1      43.745  23.125  25.516  1.00  0.00     0.127 S 
ATOM     56  O   UNL A   1      42.393  22.742  25.120  1.00  0.00    -0.237 OA
ATOM     57  O   UNL A   1      44.713  23.192  24.422  1.00  0.00    -0.237 OA
ATOM     58  O   UNL A   1      44.246  22.490  26.728  1.00  0.00    -0.744 OA
ENDBRANCH  52  55
ENDBRANCH  24  48
BRANCH  36  59
ATOM     59  C   UNL A   1      45.095  27.426  33.941  1.00  0.00     0.023 A 
ATOM     60  C   UNL A   1      46.229  28.259  33.986  1.00  0.00     0.012 A 
ATOM     61  C   UNL A   1      45.079  26.241  34.709  1.00  0.00     0.148 A 
ATOM     62  C   UNL A   1      47.317  27.930  34.800  1.00  0.00     0.002 A 
ATOM     63  C   UNL A   1      46.142  25.950  35.560  1.00  0.00     0.091 A 
ATOM     64  F   UNL A   1      44.003  25.445  34.634  1.00  0.00    -0.205 F 
ATOM     65  C   UNL A   1      47.264  26.791  35.603  1.00  0.00     0.022 A 
BRANCH  63  66
ATOM     66  S   UNL A   1      46.057  24.592  36.739  1.00  0.00     0.127 S 
ATOM     67  O   UNL A   1      44.868  24.935  37.514  1.00  0.00    -0.237 OA
ATOM     68  O   UNL A   1      45.902  23.423  35.870  1.00  0.00    -0.237 OA
ATOM     69  O   UNL A   1      47.321  24.629  37.464  1.00  0.00    -0.744 OA
ENDBRANCH  63  66
ENDBRANCH  36  59
ENDBRANCH  10  11
ENDBRANCH   3   5
ENDBRANCH   2   3
ENDBRANCH   1   2
BRANCH   1  70
ATOM     70  C   UNL A   1      33.970  28.203  24.534  1.00  0.00     0.274 C 
BRANCH  70  71
ATOM     71  O   UNL A   1      33.635  26.960  23.846  1.00  0.00    -0.462 OA
BRANCH  71  72
ATOM     72  C   UNL A   1      33.225  27.063  22.543  1.00  0.00     0.312 C 
ATOM     73  O   UNL A   1      33.921  27.562  21.662  1.00  0.00    -0.252 OA
BRANCH  72  74
ATOM     74  C   UNL A   1      31.752  26.652  22.255  1.00  0.00     0.123 C 
ATOM     75  C   UNL A   1      30.594  27.370  22.836  1.00  0.00    -0.015 C 
ATOM     76  C   UNL A   1      31.395  25.167  22.583  1.00  0.00     0.043 C 
ATOM     77  C   UNL A   1      29.706  26.540  23.414  1.00  0.00    -0.011 C 
ATOM     78  C   UNL A   1      30.087  25.090  23.463  1.00  0.00     0.093 C 
BRANCH  78  79
ATOM     79  N   UNL A   1      30.321  24.098  24.693  1.00  0.00    -0.204 NA
ATOM     80  H   UNL A   1      30.909  23.392  24.249  1.00  0.00     0.142 HD
BRANCH  79  81
ATOM     81  S   UNL A   1      30.994  23.978  26.596  1.00  0.00     0.241 S 
ATOM     82  O   UNL A   1      31.173  25.369  26.969  1.00  0.00    -0.207 OA
ATOM     83  O   UNL A   1      30.218  23.120  27.460  1.00  0.00    -0.207 OA
BRANCH  81  84
ATOM     84  C   UNL A   1      32.936  23.075  26.558  1.00  0.00     0.082 A 
ATOM     85  C   UNL A   1      32.727  21.775  25.344  1.00  0.00     0.023 A 
ATOM     86  C   UNL A   1      34.683  24.181  26.393  1.00  0.00     0.023 A 
ATOM     87  C   UNL A   1      34.047  21.680  24.173  1.00  0.00     0.022 A 
ATOM     88  C   UNL A   1      35.758  24.025  25.108  1.00  0.00     0.022 A 
ATOM     89  C   UNL A   1      35.418  22.821  24.034  1.00  0.00     0.041 A 
ATOM     90  Cl  UNL A   1      36.707  22.752  22.884  1.00  0.00    -0.084 Cl
ENDBRANCH  81  84
ENDBRANCH  79  81
ENDBRANCH  78  79
ENDBRANCH  72  74
ENDBRANCH  71  72
ENDBRANCH  70  71
ENDBRANCH   1  70
TORSDOF 17
ENDMDL
MODEL 3
REMARK VINA RESULT:     -13.1      1.404      1.982
REMARK SMILES O=C(OCCOC(=O)[C@@H]1C=C[C@H](NS(=O)(=O)c2ccc(Cl)cc2)C1)c1ccc(-c2c3nc(c(-c4cccc(S(=O)(=O)[O-])c4F)c4ccc([nH]4)c(-c4cccc(S(=O)(=O)[O-])c4F)c4nc(c(-c5cccc(S(=O)(=O)[O-])c5F)c5ccc2[nH]5)C=C4)C=C3)cc1
REMARK SMILES IDX 4 1 3 2 2 3 1 4 25 5 26 6 87 7 27 8 86 9 28 10 29 11 30 12
REMARK SMILES IDX 80 13 31 14 85 15 79 16 81 17 32 18 84 19 78 20 77 21 33 23
REMARK SMILES IDX 65 24 45 25 64 26 46 27 49 28 63 29 82 30 47 31 48 32 62 34
REMARK SMILES IDX 83 35 50 36 34 37 35 38 43 39 36 40 38 41 44 42 37 43 39 44
REMARK SMILES IDX 40 45 41 46 42 47 66 48 67 49 75 50 68 51 70 52 76 53 69 54
REMARK SMILES IDX 71 55 72 56 73 57 74 58 51 59 52 60 60 61 53 62 55 63 61 64
REMARK SMILES IDX 54 65 56 66 57 67 58 68 59 69 5 70 6 71 7 72 8 73 9 74 10 75
REMARK SMILES IDX 24 76 11 77 12 78 13 79 14 81 15 82 16 83 17 84 18 85 23 86
REMARK SMILES IDX 19 87 22 88 20 89 21 90
REMARK H PARENT 81 22 49 33 13 80
REMARK Flexibility Score: inf
ROOT
ATOM      1  C   UNL A   1      31.493  28.487  26.563  1.00  0.00     0.275 C 
ENDROOT
BRANCH   1   2
ATOM      2  O   UNL A   1      32.443  29.483  26.162  1.00  0.00    -0.458 OA
BRANCH   2   3
ATOM      3  C   UNL A   1      32.729  30.602  26.861  1.00  0.00     0.338 C 
ATOM      4  O   UNL A   1      31.939  31.541  26.878  1.00  0.00    -0.246 OA
BRANCH   3   5
ATOM      5  C   UNL A   1      34.097  30.774  27.407  1.00  0.00     0.060 A 
ATOM      6  C   UNL A   1      34.796  31.921  27.776  1.00  0.00     0.016 A 
ATOM      7  C   UNL A   1      34.799  29.620  27.481  1.00  0.00     0.016 A 
ATOM      8  C   UNL A   1      36.146  31.868  28.335  1.00  0.00     0.010 A 
ATOM      9  C   UNL A   1      36.118  29.645  27.978  1.00  0.00     0.010 A 
ATOM     10  C   UNL A   1      36.906  30.684  28.560  1.00  0.00    -0.014 A 
BRANCH  10  11
ATOM     11  C   UNL A   1      38.515  30.746  29.302  1.00  0.00     0.031 A 
ATOM     12  C   UNL A   1      39.396  31.931  30.556  1.00  0.00     0.074 A 
ATOM     13  C   UNL A   1      39.241  29.719  28.706  1.00  0.00     0.049 A 
ATOM     14  N   UNL A   1      40.283  31.413  32.057  1.00  0.00    -0.248 NA
ATOM     15  C   UNL A   1      38.642  33.742  31.269  1.00  0.00     0.031 C 
ATOM     16  C   UNL A   1      39.403  29.397  27.279  1.00  0.00     0.029 A 
ATOM     17  N   UNL A   1      39.928  28.638  29.234  1.00  0.00    -0.354 N 
ATOM     18  C   UNL A   1      40.008  32.422  33.514  1.00  0.00     0.074 A 
ATOM     19  C   UNL A   1      38.912  33.841  32.912  1.00  0.00     0.031 C 
ATOM     20  C   UNL A   1      40.351  28.437  27.131  1.00  0.00     0.029 A 
ATOM     21  C   UNL A   1      40.873  28.052  28.448  1.00  0.00     0.049 A 
ATOM     22  H   UNL A   1      39.741  28.308  30.143  1.00  0.00     0.167 HD
ATOM     23  C   UNL A   1      40.297  31.924  34.751  1.00  0.00     0.034 A 
ATOM     24  C   UNL A   1      42.044  27.423  28.776  1.00  0.00     0.034 A 
ATOM     25  C   UNL A   1      41.196  30.780  34.967  1.00  0.00     0.049 A 
ATOM     26  C   UNL A   1      42.716  27.324  30.221  1.00  0.00     0.074 A 
ATOM     27  C   UNL A   1      41.821  30.344  36.122  1.00  0.00     0.029 A 
ATOM     28  N   UNL A   1      41.674  29.918  33.964  1.00  0.00    -0.354 N 
ATOM     29  N   UNL A   1      42.281  27.664  31.418  1.00  0.00    -0.248 NA
ATOM     30  C   UNL A   1      44.123  26.872  30.288  1.00  0.00     0.031 C 
ATOM     31  C   UNL A   1      42.675  29.263  35.792  1.00  0.00     0.029 A 
ATOM     32  C   UNL A   1      42.597  28.985  34.424  1.00  0.00     0.049 A 
ATOM     33  H   UNL A   1      41.382  29.970  33.025  1.00  0.00     0.167 HD
ATOM     34  C   UNL A   1      43.332  27.606  32.338  1.00  0.00     0.074 A 
ATOM     35  C   UNL A   1      44.422  26.995  31.584  1.00  0.00     0.031 C 
ATOM     36  C   UNL A   1      43.465  28.089  33.620  1.00  0.00     0.034 A 
BRANCH  23  37
ATOM     37  C   UNL A   1      39.548  32.570  35.860  1.00  0.00     0.023 A 
ATOM     38  C   UNL A   1      39.870  33.890  36.243  1.00  0.00     0.012 A 
ATOM     39  C   UNL A   1      38.609  31.846  36.602  1.00  0.00     0.148 A 
ATOM     40  C   UNL A   1      39.304  34.456  37.389  1.00  0.00     0.002 A 
ATOM     41  C   UNL A   1      38.075  32.400  37.757  1.00  0.00     0.091 A 
ATOM     42  F   UNL A   1      38.298  30.611  36.187  1.00  0.00    -0.205 F 
ATOM     43  C   UNL A   1      38.421  33.703  38.157  1.00  0.00     0.022 A 
BRANCH  41  44
ATOM     44  S   UNL A   1      37.037  31.451  38.871  1.00  0.00     0.127 S 
ATOM     45  O   UNL A   1      35.801  32.233  38.852  1.00  0.00    -0.237 OA
ATOM     46  O   UNL A   1      36.958  30.157  38.198  1.00  0.00    -0.237 OA
ATOM     47  O   UNL A   1      37.730  31.441  40.153  1.00  0.00    -0.744 OA
ENDBRANCH  41  44
ENDBRANCH  23  37
BRANCH  24  48
ATOM     48  C   UNL A   1      42.877  26.969  27.616  1.00  0.00     0.023 A 
ATOM     49  C   UNL A   1      43.711  27.905  26.984  1.00  0.00     0.012 A 
ATOM     50  C   UNL A   1      42.869  25.631  27.159  1.00  0.00     0.148 A 
ATOM     51  C   UNL A   1      44.525  27.522  25.918  1.00  0.00     0.002 A 
ATOM     52  C   UNL A   1      43.734  25.242  26.145  1.00  0.00     0.091 A 
ATOM     53  F   UNL A   1      42.047  24.755  27.754  1.00  0.00    -0.205 F 
ATOM     54  C   UNL A   1      44.550  26.190  25.512  1.00  0.00     0.022 A 
BRANCH  52  55
ATOM     55  S   UNL A   1      43.945  23.527  25.650  1.00  0.00     0.127 S 
ATOM     56  O   UNL A   1      44.834  23.653  24.498  1.00  0.00    -0.237 OA
ATOM     57  O   UNL A   1      44.561  22.952  26.845  1.00  0.00    -0.237 OA
ATOM     58  O   UNL A   1      42.609  23.025  25.357  1.00  0.00    -0.744 OA
ENDBRANCH  52  55
ENDBRANCH  24  48
BRANCH  36  59
ATOM     59  C   UNL A   1      44.713  27.644  34.368  1.00  0.00     0.023 A 
ATOM     60  C   UNL A   1      45.810  28.516  34.505  1.00  0.00     0.012 A 
ATOM     61  C   UNL A   1      44.691  26.443  35.112  1.00  0.00     0.148 A 
ATOM     62  C   UNL A   1      46.853  28.209  35.383  1.00  0.00     0.002 A 
ATOM     63  C   UNL A   1      45.705  26.173  36.026  1.00  0.00     0.091 A 
ATOM     64  F   UNL A   1      43.653  25.611  34.949  1.00  0.00    -0.205 F 
ATOM     65  C   UNL A   1      46.789  27.053  36.160  1.00  0.00     0.022 A 
BRANCH  63  66
ATOM     66  S   UNL A   1      45.594  24.788  37.170  1.00  0.00     0.127 S 
ATOM     67  O   UNL A   1      45.643  23.641  36.266  1.00  0.00    -0.237 OA
ATOM     68  O   UNL A   1      46.788  24.961  37.999  1.00  0.00    -0.237 OA
ATOM     69  O   UNL A   1      44.340  24.977  37.888  1.00  0.00    -0.744 OA
ENDBRANCH  63  66
ENDBRANCH  36  59
ENDBRANCH  10  11
ENDBRANCH   3   5
ENDBRANCH   2   3
ENDBRANCH   1   2
BRANCH   1  70
ATOM     70  C   UNL A   1      31.034  27.552  25.434  1.00  0.00     0.274 C 
BRANCH  70  71
ATOM     71  O   UNL A   1      32.078  26.953  24.609  1.00  0.00    -0.462 OA
BRANCH  71  72
ATOM     72  C   UNL A   1      31.925  27.043  23.252  1.00  0.00     0.312 C 
ATOM     73  O   UNL A   1      31.909  28.116  22.651  1.00  0.00    -0.252 OA
BRANCH  72  74
ATOM     74  C   UNL A   1      31.612  25.712  22.508  1.00  0.00     0.123 C 
ATOM     75  C   UNL A   1      30.995  24.546  23.182  1.00  0.00    -0.015 C 
ATOM     76  C   UNL A   1      32.827  25.048  21.786  1.00  0.00     0.043 C 
ATOM     77  C   UNL A   1      31.666  23.401  22.955  1.00  0.00    -0.011 C 
ATOM     78  C   UNL A   1      32.940  23.522  22.175  1.00  0.00     0.093 C 
BRANCH  78  79
ATOM     79  N   UNL A   1      34.452  23.174  22.556  1.00  0.00    -0.204 NA
ATOM     80  H   UNL A   1      34.949  23.812  21.936  1.00  0.00     0.142 HD
BRANCH  79  81
ATOM     81  S   UNL A   1      35.772  23.060  24.084  1.00  0.00     0.241 S 
ATOM     82  O   UNL A   1      37.034  22.818  23.410  1.00  0.00    -0.207 OA
ATOM     83  O   UNL A   1      35.688  24.138  25.040  1.00  0.00    -0.207 OA
BRANCH  81  84
ATOM     84  C   UNL A   1      35.317  21.305  25.225  1.00  0.00     0.082 A 
ATOM     85  C   UNL A   1      33.526  21.308  25.229  1.00  0.00     0.023 A 
ATOM     86  C   UNL A   1      36.208  19.468  24.860  1.00  0.00     0.023 A 
ATOM     87  C   UNL A   1      32.814  19.729  24.878  1.00  0.00     0.022 A 
ATOM     88  C   UNL A   1      35.346  18.096  24.404  1.00  0.00     0.022 A 
ATOM     89  C   UNL A   1      33.705  18.253  24.399  1.00  0.00     0.041 A 
ATOM     90  Cl  UNL A   1      33.022  16.706  24.037  1.00  0.00    -0.084 Cl
ENDBRANCH  81  84
ENDBRANCH  79  81
ENDBRANCH  78  79
ENDBRANCH  72  74
ENDBRANCH  71  72
ENDBRANCH  70  71
ENDBRANCH   1  70
TORSDOF 17
ENDMDL
