MODEL 1
REMARK VINA RESULT:     -13.3      0.000      0.000
REMARK SMILES O=C(N[C@@H](Cc1c[nH]c2ccccc12)C(=O)N[C@@H](CS)C(=O)N[C@@H](CO)C(=O)OCCOC(=O)c1ccc(-c2c3nc(c(-c4cccc(S(=O)(=O)[O-])c4F)c4ccc([nH]4)c(-c4cccc(S(=O)(=O)[O-])c4F)c4nc(c(-c5cccc(S(=O)(=O)[O-])c5F)c5ccc2[nH]5)C=C4)C=C3)cc1)c1ccc(F)cc1
REMARK SMILES IDX 29 1 27 2 28 3 24 4 23 5 21 6 22 7 18 9 17 10 15 11 16 12
REMARK SMILES IDX 4 14 3 15 1 16 2 17 98 19 99 20 104 21 100 22 103 23 101 24
REMARK SMILES IDX 102 25 5 26 6 27 7 28 14 29 8 30 9 31 13 32 10 34 12 35
REMARK SMILES IDX 11 36 19 37 20 38 25 40 26 41 30 43 31 44 32 45 33 46 34 47
REMARK SMILES IDX 35 48 36 49 97 50 37 51 96 52 38 53 39 54 40 55 90 56 41 57
REMARK SMILES IDX 95 58 89 59 91 60 42 61 94 62 88 63 87 64 43 66 75 67 55 68
REMARK SMILES IDX 74 69 56 70 59 71 73 72 92 73 57 74 58 75 72 77 93 78 60 79
REMARK SMILES IDX 44 80 45 81 53 82 46 83 48 84 54 85 47 86 49 87 50 88 51 89
REMARK SMILES IDX 52 90 76 91 77 92 85 93 78 94 80 95 86 96 79 97 81 98 82 99
REMARK SMILES IDX 83 100 84 101 61 102 62 103 70 104 63 105 65 106 71 107
REMARK SMILES IDX 64 108 66 109 67 110 68 111 69 112
REMARK H PARENT 23 8 17 13 3 18 8 33 20 39 26 42 91 65 59 76
REMARK Flexibility Score: inf
ROOT
ATOM      1  O   UNL A   1      31.440  30.832  25.458  1.00  0.00    -0.460 OA
ENDROOT
BRANCH   1   2
ATOM      2  C   UNL A   1      31.874  29.535  25.345  1.00  0.00     0.331 C 
ATOM      3  O   UNL A   1      32.391  29.090  24.325  1.00  0.00    -0.250 OA
BRANCH   2   4
ATOM      4  C   UNL A   1      31.829  28.721  26.684  1.00  0.00     0.218 C 
BRANCH   4   5
ATOM      5  N   UNL A   1      31.293  27.337  26.673  1.00  0.00    -0.339 N 
ATOM      6  C   UNL A   1      30.540  26.532  25.878  1.00  0.00     0.244 C 
ATOM      7  O   UNL A   1      30.159  25.525  26.514  1.00  0.00    -0.273 OA
ATOM      8  H   UNL A   1      31.565  26.857  27.489  1.00  0.00     0.164 HD
BRANCH   6   9
ATOM      9  C   UNL A   1      29.954  26.696  24.221  1.00  0.00     0.181 C 
BRANCH   9  10
ATOM     10  N   UNL A   1      30.063  24.987  23.765  1.00  0.00    -0.342 N 
ATOM     11  C   UNL A   1      31.004  24.059  23.296  1.00  0.00     0.243 C 
ATOM     12  O   UNL A   1      30.504  22.991  22.897  1.00  0.00    -0.273 OA
ATOM     13  H   UNL A   1      29.186  24.552  23.875  1.00  0.00     0.164 HD
BRANCH  11  14
ATOM     14  C   UNL A   1      32.640  24.225  23.119  1.00  0.00     0.176 C 
BRANCH  14  15
ATOM     15  N   UNL A   1      33.467  25.157  23.967  1.00  0.00    -0.340 N 
ATOM     16  O   UNL A   1      34.689  25.872  25.680  1.00  0.00    -0.269 OA
ATOM     17  C   UNL A   1      34.533  25.035  24.797  1.00  0.00     0.251 C 
ATOM     18  H   UNL A   1      33.154  26.089  23.903  1.00  0.00     0.164 HD
BRANCH  17  19
ATOM     19  C   UNL A   1      35.447  23.910  24.676  1.00  0.00     0.040 A 
ATOM     20  C   UNL A   1      36.053  23.631  23.450  1.00  0.00     0.017 A 
ATOM     21  C   UNL A   1      35.727  23.159  25.823  1.00  0.00     0.017 A 
ATOM     22  C   UNL A   1      36.888  22.524  23.354  1.00  0.00     0.040 A 
ATOM     23  C   UNL A   1      36.556  22.049  25.717  1.00  0.00     0.040 A 
ATOM     24  C   UNL A   1      37.113  21.732  24.480  1.00  0.00     0.123 A 
ATOM     25  F   UNL A   1      37.875  20.638  24.364  1.00  0.00    -0.207 F 
ENDBRANCH  17  19
ENDBRANCH  14  15
BRANCH  14  26
ATOM     26  C   UNL A   1      33.328  22.859  23.179  1.00  0.00     0.072 C 
BRANCH  26  27
ATOM     27  C   UNL A   1      32.663  21.990  24.195  1.00  0.00    -0.020 A 
ATOM     28  C   UNL A   1      32.571  22.239  25.561  1.00  0.00     0.087 A 
ATOM     29  C   UNL A   1      32.315  20.630  23.942  1.00  0.00     0.003 A 
ATOM     30  N   UNL A   1      32.342  21.106  26.330  1.00  0.00    -0.361 N 
ATOM     31  C   UNL A   1      32.449  19.980  25.556  1.00  0.00     0.046 A 
ATOM     32  C   UNL A   1      32.376  19.478  22.511  1.00  0.00     0.010 A 
ATOM     33  H   UNL A   1      32.133  21.112  27.291  1.00  0.00     0.166 HD
ATOM     34  C   UNL A   1      32.792  18.267  25.809  1.00  0.00     0.026 A 
ATOM     35  C   UNL A   1      32.808  17.755  22.758  1.00  0.00     0.001 A 
ATOM     36  C   UNL A   1      32.886  17.167  24.407  1.00  0.00     0.002 A 
ENDBRANCH  26  27
ENDBRANCH  14  26
ENDBRANCH  11  14
ENDBRANCH   9  10
BRANCH   9  37
ATOM     37  C   UNL A   1      28.673  28.204  23.273  1.00  0.00     0.101 C 
BRANCH  37  38
ATOM     38  S   UNL A   1      28.793  30.318  23.190  1.00  0.00    -0.177 SA
ATOM     39  H   UNL A   1      28.705  30.726  21.895  1.00  0.00     0.102 HD
ENDBRANCH  37  38
ENDBRANCH   9  37
ENDBRANCH   6   9
ENDBRANCH   4   5
BRANCH   4  40
ATOM     40  C   UNL A   1      33.243  28.697  27.281  1.00  0.00     0.193 C 
BRANCH  40  41
ATOM     41  O   UNL A   1      34.226  28.550  26.253  1.00  0.00    -0.394 OA
ATOM     42  H   UNL A   1      34.078  27.717  25.780  1.00  0.00     0.210 HD
ENDBRANCH  40  41
ENDBRANCH   4  40
ENDBRANCH   2   4
ENDBRANCH   1   2
BRANCH   1  43
ATOM     43  C   UNL A   1      31.382  31.385  26.806  1.00  0.00     0.274 C 
BRANCH  43  44
ATOM     44  C   UNL A   1      31.870  32.852  26.869  1.00  0.00     0.275 C 
BRANCH  44  45
ATOM     45  O   UNL A   1      32.201  33.307  28.213  1.00  0.00    -0.458 OA
BRANCH  45  46
ATOM     46  C   UNL A   1      33.309  34.121  28.260  1.00  0.00     0.338 C 
ATOM     47  O   UNL A   1      33.257  35.329  28.457  1.00  0.00    -0.246 OA
BRANCH  46  48
ATOM     48  C   UNL A   1      34.617  33.390  28.175  1.00  0.00     0.060 A 
ATOM     49  C   UNL A   1      34.769  32.107  27.660  1.00  0.00     0.016 A 
ATOM     50  C   UNL A   1      35.764  34.003  28.688  1.00  0.00     0.016 A 
ATOM     51  C   UNL A   1      35.967  31.384  27.904  1.00  0.00     0.010 A 
ATOM     52  C   UNL A   1      36.942  33.258  28.929  1.00  0.00     0.010 A 
ATOM     53  C   UNL A   1      36.982  31.866  28.762  1.00  0.00    -0.014 A 
BRANCH  53  54
ATOM     54  C   UNL A   1      37.935  30.954  29.592  1.00  0.00     0.031 A 
ATOM     55  C   UNL A   1      38.092  31.092  31.117  1.00  0.00     0.074 A 
ATOM     56  C   UNL A   1      38.505  29.795  29.158  1.00  0.00     0.049 A 
ATOM     57  N   UNL A   1      39.133  30.848  31.883  1.00  0.00    -0.248 NA
ATOM     58  C   UNL A   1      36.912  31.519  31.887  1.00  0.00     0.031 C 
ATOM     59  C   UNL A   1      38.219  29.065  27.923  1.00  0.00     0.029 A 
ATOM     60  N   UNL A   1      39.501  29.018  29.741  1.00  0.00    -0.354 N 
ATOM     61  C   UNL A   1      38.784  31.268  33.170  1.00  0.00     0.074 A 
ATOM     62  C   UNL A   1      37.419  31.741  33.092  1.00  0.00     0.031 C 
ATOM     63  C   UNL A   1      39.116  28.085  27.753  1.00  0.00     0.029 A 
ATOM     64  C   UNL A   1      40.055  28.109  28.864  1.00  0.00     0.049 A 
ATOM     65  H   UNL A   1      39.779  29.107  30.681  1.00  0.00     0.167 HD
ATOM     66  C   UNL A   1      39.518  31.253  34.313  1.00  0.00     0.034 A 
ATOM     67  C   UNL A   1      41.215  27.419  28.882  1.00  0.00     0.034 A 
ATOM     68  C   UNL A   1      40.758  30.533  34.474  1.00  0.00     0.049 A 
ATOM     69  C   UNL A   1      42.112  27.480  30.081  1.00  0.00     0.074 A 
ATOM     70  C   UNL A   1      41.579  30.457  35.588  1.00  0.00     0.029 A 
ATOM     71  N   UNL A   1      41.313  29.697  33.521  1.00  0.00    -0.354 N 
ATOM     72  N   UNL A   1      41.925  28.099  31.218  1.00  0.00    -0.248 NA
ATOM     73  C   UNL A   1      43.370  26.719  30.014  1.00  0.00     0.031 C 
ATOM     74  C   UNL A   1      42.655  29.612  35.290  1.00  0.00     0.029 A 
ATOM     75  C   UNL A   1      42.480  29.126  34.007  1.00  0.00     0.049 A 
ATOM     76  H   UNL A   1      40.935  29.531  32.627  1.00  0.00     0.167 HD
ATOM     77  C   UNL A   1      43.022  27.786  32.010  1.00  0.00     0.074 A 
ATOM     78  C   UNL A   1      43.860  26.898  31.233  1.00  0.00     0.031 C 
ATOM     79  C   UNL A   1      43.309  28.213  33.264  1.00  0.00     0.034 A 
BRANCH  66  80
ATOM     80  C   UNL A   1      39.053  32.098  35.480  1.00  0.00     0.023 A 
ATOM     81  C   UNL A   1      39.192  33.498  35.497  1.00  0.00     0.012 A 
ATOM     82  C   UNL A   1      38.396  31.463  36.559  1.00  0.00     0.148 A 
ATOM     83  C   UNL A   1      38.732  34.243  36.587  1.00  0.00     0.002 A 
ATOM     84  C   UNL A   1      37.894  32.216  37.615  1.00  0.00     0.091 A 
ATOM     85  F   UNL A   1      38.272  30.128  36.536  1.00  0.00    -0.205 F 
ATOM     86  C   UNL A   1      38.075  33.605  37.638  1.00  0.00     0.022 A 
BRANCH  84  87
ATOM     87  S   UNL A   1      36.951  31.484  38.960  1.00  0.00     0.127 S 
ATOM     88  O   UNL A   1      36.674  30.147  38.434  1.00  0.00    -0.237 OA
ATOM     89  O   UNL A   1      37.910  31.515  40.065  1.00  0.00    -0.237 OA
ATOM     90  O   UNL A   1      35.786  32.336  39.149  1.00  0.00    -0.744 OA
ENDBRANCH  84  87
ENDBRANCH  66  80
BRANCH  67  91
ATOM     91  C   UNL A   1      41.636  26.680  27.653  1.00  0.00     0.023 A 
ATOM     92  C   UNL A   1      42.283  27.344  26.596  1.00  0.00     0.012 A 
ATOM     93  C   UNL A   1      41.420  25.288  27.561  1.00  0.00     0.148 A 
ATOM     94  C   UNL A   1      42.701  26.636  25.467  1.00  0.00     0.002 A 
ATOM     95  C   UNL A   1      41.904  24.579  26.469  1.00  0.00     0.091 A 
ATOM     96  F   UNL A   1      40.761  24.679  28.557  1.00  0.00    -0.205 F 
ATOM     97  C   UNL A   1      42.529  25.254  25.411  1.00  0.00     0.022 A 
BRANCH  95  98
ATOM     98  S   UNL A   1      41.872  22.784  26.402  1.00  0.00     0.127 S 
ATOM     99  O   UNL A   1      40.438  22.507  26.414  1.00  0.00    -0.237 OA
ATOM    100  O   UNL A   1      42.541  22.522  25.127  1.00  0.00    -0.237 OA
ATOM    101  O   UNL A   1      42.615  22.330  27.569  1.00  0.00    -0.744 OA
ENDBRANCH  95  98
ENDBRANCH  67  91
BRANCH  79 102
ATOM    102  C   UNL A   1      44.573  27.696  33.902  1.00  0.00     0.023 A 
ATOM    103  C   UNL A   1      45.764  28.443  33.809  1.00  0.00     0.012 A 
ATOM    104  C   UNL A   1      44.581  26.473  34.602  1.00  0.00     0.148 A 
ATOM    105  C   UNL A   1      46.953  27.957  34.352  1.00  0.00     0.002 A 
ATOM    106  C   UNL A   1      45.758  26.018  35.184  1.00  0.00     0.091 A 
ATOM    107  F   UNL A   1      43.444  25.764  34.667  1.00  0.00    -0.205 F 
ATOM    108  C   UNL A   1      46.948  26.749  35.046  1.00  0.00     0.022 A 
BRANCH 106 109
ATOM    109  S   UNL A   1      45.827  24.519  36.172  1.00  0.00     0.127 S 
ATOM    110  O   UNL A   1      44.777  24.764  37.161  1.00  0.00    -0.237 OA
ATOM    111  O   UNL A   1      45.506  23.483  35.189  1.00  0.00    -0.237 OA
ATOM    112  O   UNL A   1      47.182  24.448  36.701  1.00  0.00    -0.744 OA
ENDBRANCH 106 109
ENDBRANCH  79 102
ENDBRANCH  53  54
ENDBRANCH  46  48
ENDBRANCH  45  46
ENDBRANCH  44  45
ENDBRANCH  43  44
ENDBRANCH   1  43
TORSDOF 26
ENDMDL
MODEL 2
REMARK VINA RESULT:     -12.7      2.123      2.599
REMARK SMILES O=C(N[C@@H](Cc1c[nH]c2ccccc12)C(=O)N[C@@H](CS)C(=O)N[C@@H](CO)C(=O)OCCOC(=O)c1ccc(-c2c3nc(c(-c4cccc(S(=O)(=O)[O-])c4F)c4ccc([nH]4)c(-c4cccc(S(=O)(=O)[O-])c4F)c4nc(c(-c5cccc(S(=O)(=O)[O-])c5F)c5ccc2[nH]5)C=C4)C=C3)cc1)c1ccc(F)cc1
REMARK SMILES IDX 29 1 27 2 28 3 24 4 23 5 21 6 22 7 18 9 17 10 15 11 16 12
REMARK SMILES IDX 4 14 3 15 1 16 2 17 98 19 99 20 104 21 100 22 103 23 101 24
REMARK SMILES IDX 102 25 5 26 6 27 7 28 14 29 8 30 9 31 13 32 10 34 12 35
REMARK SMILES IDX 11 36 19 37 20 38 25 40 26 41 30 43 31 44 32 45 33 46 34 47
REMARK SMILES IDX 35 48 36 49 97 50 37 51 96 52 38 53 39 54 40 55 90 56 41 57
REMARK SMILES IDX 95 58 89 59 91 60 42 61 94 62 88 63 87 64 43 66 75 67 55 68
REMARK SMILES IDX 74 69 56 70 59 71 73 72 92 73 57 74 58 75 72 77 93 78 60 79
REMARK SMILES IDX 44 80 45 81 53 82 46 83 48 84 54 85 47 86 49 87 50 88 51 89
REMARK SMILES IDX 52 90 76 91 77 92 85 93 78 94 80 95 86 96 79 97 81 98 82 99
REMARK SMILES IDX 83 100 84 101 61 102 62 103 70 104 63 105 65 106 71 107
REMARK SMILES IDX 64 108 66 109 67 110 68 111 69 112
REMARK H PARENT 23 8 17 13 3 18 8 33 20 39 26 42 91 65 59 76
REMARK Flexibility Score: inf
ROOT
ATOM      1  O   UNL A   1      30.779  31.714  25.622  1.00  0.00    -0.460 OA
ENDROOT
BRANCH   1   2
ATOM      2  C   UNL A   1      31.037  30.525  24.988  1.00  0.00     0.331 C 
ATOM      3  O   UNL A   1      30.422  30.151  23.994  1.00  0.00    -0.250 OA
BRANCH   2   4
ATOM      4  C   UNL A   1      32.304  29.771  25.521  1.00  0.00     0.218 C 
BRANCH   4   5
ATOM      5  N   UNL A   1      32.135  28.678  26.509  1.00  0.00    -0.339 N 
ATOM      6  C   UNL A   1      31.580  27.440  26.588  1.00  0.00     0.244 C 
ATOM      7  O   UNL A   1      31.489  27.078  27.782  1.00  0.00    -0.273 OA
ATOM      8  H   UNL A   1      32.550  28.923  27.367  1.00  0.00     0.164 HD
BRANCH   6   9
ATOM      9  C   UNL A   1      30.910  26.349  25.373  1.00  0.00     0.181 C 
BRANCH   9  10
ATOM     10  N   UNL A   1      30.983  24.859  26.329  1.00  0.00    -0.342 N 
ATOM     11  C   UNL A   1      31.175  23.481  26.155  1.00  0.00     0.243 C 
ATOM     12  O   UNL A   1      30.897  22.802  27.162  1.00  0.00    -0.273 OA
ATOM     13  H   UNL A   1      30.847  25.063  27.283  1.00  0.00     0.164 HD
BRANCH  11  14
ATOM     14  C   UNL A   1      31.619  22.648  24.797  1.00  0.00     0.176 C 
BRANCH  14  15
ATOM     15  N   UNL A   1      32.082  23.327  23.533  1.00  0.00    -0.340 N 
ATOM     16  O   UNL A   1      33.057  24.834  22.223  1.00  0.00    -0.269 OA
ATOM     17  C   UNL A   1      33.171  24.039  23.150  1.00  0.00     0.251 C 
ATOM     18  H   UNL A   1      31.429  23.230  22.802  1.00  0.00     0.164 HD
BRANCH  17  19
ATOM     19  C   UNL A   1      34.438  23.900  23.852  1.00  0.00     0.040 A 
ATOM     20  C   UNL A   1      34.636  24.553  25.070  1.00  0.00     0.017 A 
ATOM     21  C   UNL A   1      35.414  23.067  23.297  1.00  0.00     0.017 A 
ATOM     22  C   UNL A   1      35.871  24.436  25.697  1.00  0.00     0.040 A 
ATOM     23  C   UNL A   1      36.649  22.962  23.926  1.00  0.00     0.040 A 
ATOM     24  C   UNL A   1      36.871  23.663  25.108  1.00  0.00     0.123 A 
ATOM     25  F   UNL A   1      38.074  23.601  25.692  1.00  0.00    -0.207 F 
ENDBRANCH  17  19
ENDBRANCH  14  15
BRANCH  14  26
ATOM     26  C   UNL A   1      32.677  21.594  25.135  1.00  0.00     0.072 C 
BRANCH  26  27
ATOM     27  C   UNL A   1      32.765  20.581  24.043  1.00  0.00    -0.020 A 
ATOM     28  C   UNL A   1      31.760  20.250  23.140  1.00  0.00     0.087 A 
ATOM     29  C   UNL A   1      33.790  19.590  23.988  1.00  0.00     0.003 A 
ATOM     30  N   UNL A   1      31.909  18.999  22.559  1.00  0.00    -0.361 N 
ATOM     31  C   UNL A   1      32.929  18.313  23.166  1.00  0.00     0.046 A 
ATOM     32  C   UNL A   1      35.297  19.169  24.952  1.00  0.00     0.010 A 
ATOM     33  H   UNL A   1      31.362  18.654  21.817  1.00  0.00     0.166 HD
ATOM     34  C   UNL A   1      33.405  16.627  23.381  1.00  0.00     0.026 A 
ATOM     35  C   UNL A   1      35.733  17.454  25.243  1.00  0.00     0.001 A 
ATOM     36  C   UNL A   1      34.849  16.231  24.352  1.00  0.00     0.002 A 
ENDBRANCH  26  27
ENDBRANCH  14  26
ENDBRANCH  11  14
ENDBRANCH   9  10
BRANCH   9  37
ATOM     37  C   UNL A   1      29.589  26.716  23.658  1.00  0.00     0.101 C 
BRANCH  37  38
ATOM     38  S   UNL A   1      27.905  27.977  23.409  1.00  0.00    -0.177 SA
ATOM     39  H   UNL A   1      27.709  28.215  22.084  1.00  0.00     0.102 HD
ENDBRANCH  37  38
ENDBRANCH   9  37
ENDBRANCH   6   9
ENDBRANCH   4   5
BRANCH   4  40
ATOM     40  C   UNL A   1      33.085  29.229  24.315  1.00  0.00     0.193 C 
BRANCH  40  41
ATOM     41  O   UNL A   1      33.972  28.181  24.714  1.00  0.00    -0.394 OA
ATOM     42  H   UNL A   1      33.523  27.326  24.627  1.00  0.00     0.210 HD
ENDBRANCH  40  41
ENDBRANCH   4  40
ENDBRANCH   2   4
ENDBRANCH   1   2
BRANCH   1  43
ATOM     43  C   UNL A   1      31.460  31.937  26.891  1.00  0.00     0.274 C 
BRANCH  43  44
ATOM     44  C   UNL A   1      31.890  33.411  27.086  1.00  0.00     0.275 C 
BRANCH  44  45
ATOM     45  O   UNL A   1      32.435  33.699  28.407  1.00  0.00    -0.458 OA
BRANCH  45  46
ATOM     46  C   UNL A   1      33.683  34.274  28.372  1.00  0.00     0.338 C 
ATOM     47  O   UNL A   1      33.887  35.469  28.548  1.00  0.00    -0.246 OA
BRANCH  46  48
ATOM     48  C   UNL A   1      34.810  33.294  28.225  1.00  0.00     0.060 A 
ATOM     49  C   UNL A   1      34.646  31.919  28.098  1.00  0.00     0.016 A 
ATOM     50  C   UNL A   1      36.125  33.771  28.265  1.00  0.00     0.016 A 
ATOM     51  C   UNL A   1      35.758  31.053  28.278  1.00  0.00     0.010 A 
ATOM     52  C   UNL A   1      37.214  32.888  28.453  1.00  0.00     0.010 A 
ATOM     53  C   UNL A   1      37.022  31.522  28.708  1.00  0.00    -0.014 A 
BRANCH  53  54
ATOM     54  C   UNL A   1      38.032  30.678  29.542  1.00  0.00     0.031 A 
ATOM     55  C   UNL A   1      38.205  30.860  31.061  1.00  0.00     0.074 A 
ATOM     56  C   UNL A   1      38.654  29.540  29.125  1.00  0.00     0.049 A 
ATOM     57  N   UNL A   1      39.268  30.687  31.815  1.00  0.00    -0.248 NA
ATOM     58  C   UNL A   1      37.016  31.244  31.840  1.00  0.00     0.031 C 
ATOM     59  C   UNL A   1      38.386  28.768  27.911  1.00  0.00     0.029 A 
ATOM     60  N   UNL A   1      39.696  28.828  29.709  1.00  0.00    -0.354 N 
ATOM     61  C   UNL A   1      38.918  31.118  33.097  1.00  0.00     0.074 A 
ATOM     62  C   UNL A   1      37.530  31.520  33.031  1.00  0.00     0.031 C 
ATOM     63  C   UNL A   1      39.329  27.831  27.749  1.00  0.00     0.029 A 
ATOM     64  C   UNL A   1      40.282  27.927  28.844  1.00  0.00     0.049 A 
ATOM     65  H   UNL A   1      39.984  28.953  30.642  1.00  0.00     0.167 HD
ATOM     66  C   UNL A   1      39.669  31.166  34.228  1.00  0.00     0.034 A 
ATOM     67  C   UNL A   1      41.476  27.297  28.858  1.00  0.00     0.034 A 
ATOM     68  C   UNL A   1      40.946  30.514  34.385  1.00  0.00     0.049 A 
ATOM     69  C   UNL A   1      42.387  27.431  30.041  1.00  0.00     0.074 A 
ATOM     70  C   UNL A   1      41.787  30.505  35.487  1.00  0.00     0.029 A 
ATOM     71  N   UNL A   1      41.529  29.685  33.442  1.00  0.00    -0.354 N 
ATOM     72  N   UNL A   1      42.186  28.067  31.166  1.00  0.00    -0.248 NA
ATOM     73  C   UNL A   1      43.680  26.733  29.970  1.00  0.00     0.031 C 
ATOM     74  C   UNL A   1      42.901  29.710  35.191  1.00  0.00     0.029 A 
ATOM     75  C   UNL A   1      42.730  29.185  33.921  1.00  0.00     0.049 A 
ATOM     76  H   UNL A   1      41.146  29.479  32.559  1.00  0.00     0.167 HD
ATOM     77  C   UNL A   1      43.309  27.828  31.947  1.00  0.00     0.074 A 
ATOM     78  C   UNL A   1      44.180  26.965  31.177  1.00  0.00     0.031 C 
ATOM     79  C   UNL A   1      43.593  28.298  33.186  1.00  0.00     0.034 A 
BRANCH  66  80
ATOM     80  C   UNL A   1      39.180  32.015  35.383  1.00  0.00     0.023 A 
ATOM     81  C   UNL A   1      38.285  31.523  36.351  1.00  0.00     0.012 A 
ATOM     82  C   UNL A   1      39.692  33.324  35.529  1.00  0.00     0.148 A 
ATOM     83  C   UNL A   1      37.873  32.334  37.413  1.00  0.00     0.002 A 
ATOM     84  C   UNL A   1      39.319  34.107  36.616  1.00  0.00     0.091 A 
ATOM     85  F   UNL A   1      40.540  33.786  34.598  1.00  0.00    -0.205 F 
ATOM     86  C   UNL A   1      38.396  33.619  37.551  1.00  0.00     0.022 A 
BRANCH  84  87
ATOM     87  S   UNL A   1      40.019  35.735  36.921  1.00  0.00     0.127 S 
ATOM     88  O   UNL A   1      39.584  36.471  35.734  1.00  0.00    -0.237 OA
ATOM     89  O   UNL A   1      39.352  36.133  38.161  1.00  0.00    -0.237 OA
ATOM     90  O   UNL A   1      41.456  35.541  37.044  1.00  0.00    -0.744 OA
ENDBRANCH  84  87
ENDBRANCH  66  80
BRANCH  67  91
ATOM     91  C   UNL A   1      41.914  26.552  27.639  1.00  0.00     0.023 A 
ATOM     92  C   UNL A   1      42.574  27.211  26.587  1.00  0.00     0.012 A 
ATOM     93  C   UNL A   1      41.704  25.159  27.553  1.00  0.00     0.148 A 
ATOM     94  C   UNL A   1      43.008  26.498  25.467  1.00  0.00     0.002 A 
ATOM     95  C   UNL A   1      42.204  24.445  26.473  1.00  0.00     0.091 A 
ATOM     96  F   UNL A   1      41.034  24.554  28.544  1.00  0.00    -0.205 F 
ATOM     97  C   UNL A   1      42.841  25.114  25.419  1.00  0.00     0.022 A 
BRANCH  95  98
ATOM     98  S   UNL A   1      42.178  22.649  26.416  1.00  0.00     0.127 S 
ATOM     99  O   UNL A   1      43.031  22.300  27.550  1.00  0.00    -0.237 OA
ATOM    100  O   UNL A   1      40.755  22.365  26.604  1.00  0.00    -0.237 OA
ATOM    101  O   UNL A   1      42.691  22.286  25.103  1.00  0.00    -0.744 OA
ENDBRANCH  95  98
ENDBRANCH  67  91
BRANCH  79 102
ATOM    102  C   UNL A   1      44.891  27.860  33.815  1.00  0.00     0.023 A 
ATOM    103  C   UNL A   1      44.924  26.713  34.634  1.00  0.00     0.012 A 
ATOM    104  C   UNL A   1      46.082  28.578  33.589  1.00  0.00     0.148 A 
ATOM    105  C   UNL A   1      46.105  26.321  35.262  1.00  0.00     0.002 A 
ATOM    106  C   UNL A   1      47.267  28.153  34.178  1.00  0.00     0.091 A 
ATOM    107  F   UNL A   1      46.033  29.677  32.823  1.00  0.00    -0.205 F 
ATOM    108  C   UNL A   1      47.278  27.036  35.028  1.00  0.00     0.022 A 
BRANCH 106 109
ATOM    109  S   UNL A   1      48.842  28.959  33.862  1.00  0.00     0.127 S 
ATOM    110  O   UNL A   1      49.097  28.582  32.472  1.00  0.00    -0.237 OA
ATOM    111  O   UNL A   1      48.514  30.371  34.059  1.00  0.00    -0.237 OA
ATOM    112  O   UNL A   1      49.775  28.415  34.841  1.00  0.00    -0.744 OA
ENDBRANCH 106 109
ENDBRANCH  79 102
ENDBRANCH  53  54
ENDBRANCH  46  48
ENDBRANCH  45  46
ENDBRANCH  44  45
ENDBRANCH  43  44
ENDBRANCH   1  43
TORSDOF 26
ENDMDL
MODEL 3
REMARK VINA RESULT:     -12.6      5.338      9.342
REMARK SMILES O=C(N[C@@H](Cc1c[nH]c2ccccc12)C(=O)N[C@@H](CS)C(=O)N[C@@H](CO)C(=O)OCCOC(=O)c1ccc(-c2c3nc(c(-c4cccc(S(=O)(=O)[O-])c4F)c4ccc([nH]4)c(-c4cccc(S(=O)(=O)[O-])c4F)c4nc(c(-c5cccc(S(=O)(=O)[O-])c5F)c5ccc2[nH]5)C=C4)C=C3)cc1)c1ccc(F)cc1
REMARK SMILES IDX 29 1 27 2 28 3 24 4 23 5 21 6 22 7 18 9 17 10 15 11 16 12
REMARK SMILES IDX 4 14 3 15 1 16 2 17 98 19 99 20 104 21 100 22 103 23 101 24
REMARK SMILES IDX 102 25 5 26 6 27 7 28 14 29 8 30 9 31 13 32 10 34 12 35
REMARK SMILES IDX 11 36 19 37 20 38 25 40 26 41 30 43 31 44 32 45 33 46 34 47
REMARK SMILES IDX 35 48 36 49 97 50 37 51 96 52 38 53 39 54 40 55 90 56 41 57
REMARK SMILES IDX 95 58 89 59 91 60 42 61 94 62 88 63 87 64 43 66 75 67 55 68
REMARK SMILES IDX 74 69 56 70 59 71 73 72 92 73 57 74 58 75 72 77 93 78 60 79
REMARK SMILES IDX 44 80 45 81 53 82 46 83 48 84 54 85 47 86 49 87 50 88 51 89
REMARK SMILES IDX 52 90 76 91 77 92 85 93 78 94 80 95 86 96 79 97 81 98 82 99
REMARK SMILES IDX 83 100 84 101 61 102 62 103 70 104 63 105 65 106 71 107
REMARK SMILES IDX 64 108 66 109 67 110 68 111 69 112
REMARK H PARENT 23 8 17 13 3 18 8 33 20 39 26 42 91 65 59 76
REMARK Flexibility Score: inf
ROOT
ATOM      1  O   UNL A   1      37.990  21.634  26.118  1.00  0.00    -0.460 OA
ENDROOT
BRANCH   1   2
ATOM      2  C   UNL A   1      37.530  22.866  25.727  1.00  0.00     0.331 C 
ATOM      3  O   UNL A   1      38.128  23.910  25.971  1.00  0.00    -0.250 OA
BRANCH   2   4
ATOM      4  C   UNL A   1      36.280  22.819  24.782  1.00  0.00     0.218 C 
BRANCH   4   5
ATOM      5  N   UNL A   1      34.959  23.241  25.306  1.00  0.00    -0.339 N 
ATOM      6  C   UNL A   1      33.639  23.066  25.032  1.00  0.00     0.244 C 
ATOM      7  O   UNL A   1      32.949  23.907  25.649  1.00  0.00    -0.273 OA
ATOM      8  H   UNL A   1      35.071  23.826  26.091  1.00  0.00     0.164 HD
BRANCH   6   9
ATOM      9  C   UNL A   1      32.778  21.980  23.938  1.00  0.00     0.181 C 
BRANCH   9  10
ATOM     10  N   UNL A   1      33.204  22.790  22.421  1.00  0.00    -0.342 N 
ATOM     11  C   UNL A   1      33.182  24.068  21.844  1.00  0.00     0.243 C 
ATOM     12  O   UNL A   1      33.387  24.070  20.616  1.00  0.00    -0.273 OA
ATOM     13  H   UNL A   1      33.572  22.138  21.781  1.00  0.00     0.164 HD
BRANCH  11  14
ATOM     14  C   UNL A   1      32.834  25.527  22.542  1.00  0.00     0.176 C 
BRANCH  14  15
ATOM     15  N   UNL A   1      33.856  26.623  22.703  1.00  0.00    -0.340 N 
ATOM     16  O   UNL A   1      34.682  28.660  23.028  1.00  0.00    -0.269 OA
ATOM     17  C   UNL A   1      33.964  27.756  23.442  1.00  0.00     0.251 C 
ATOM     18  H   UNL A   1      34.642  26.481  22.128  1.00  0.00     0.164 HD
BRANCH  17  19
ATOM     19  C   UNL A   1      33.208  27.917  24.674  1.00  0.00     0.040 A 
ATOM     20  C   UNL A   1      33.151  26.875  25.600  1.00  0.00     0.017 A 
ATOM     21  C   UNL A   1      32.591  29.149  24.914  1.00  0.00     0.017 A 
ATOM     22  C   UNL A   1      32.386  27.042  26.749  1.00  0.00     0.040 A 
ATOM     23  C   UNL A   1      31.821  29.306  26.061  1.00  0.00     0.040 A 
ATOM     24  C   UNL A   1      31.711  28.245  26.956  1.00  0.00     0.123 A 
ATOM     25  F   UNL A   1      30.934  28.376  28.038  1.00  0.00    -0.207 F 
ENDBRANCH  17  19
ENDBRANCH  14  15
BRANCH  14  26
ATOM     26  C   UNL A   1      31.615  26.165  21.870  1.00  0.00     0.072 C 
BRANCH  26  27
ATOM     27  C   UNL A   1      30.590  26.525  22.894  1.00  0.00    -0.020 A 
ATOM     28  C   UNL A   1      29.827  25.638  23.646  1.00  0.00     0.087 A 
ATOM     29  C   UNL A   1      30.033  27.834  23.004  1.00  0.00     0.003 A 
ATOM     30  N   UNL A   1      28.658  26.186  24.155  1.00  0.00    -0.361 N 
ATOM     31  C   UNL A   1      28.452  27.435  23.629  1.00  0.00     0.046 A 
ATOM     32  C   UNL A   1      30.286  29.468  22.202  1.00  0.00     0.010 A 
ATOM     33  H   UNL A   1      28.063  25.742  24.801  1.00  0.00     0.166 HD
ATOM     34  C   UNL A   1      27.082  28.515  23.359  1.00  0.00     0.026 A 
ATOM     35  C   UNL A   1      28.882  30.527  21.850  1.00  0.00     0.001 A 
ATOM     36  C   UNL A   1      27.336  30.082  22.544  1.00  0.00     0.002 A 
ENDBRANCH  26  27
ENDBRANCH  14  26
ENDBRANCH  11  14
ENDBRANCH   9  10
BRANCH   9  37
ATOM     37  C   UNL A   1      32.168  19.883  24.153  1.00  0.00     0.101 C 
BRANCH  37  38
ATOM     38  S   UNL A   1      33.203  18.168  24.843  1.00  0.00    -0.177 SA
ATOM     39  H   UNL A   1      34.517  18.265  24.505  1.00  0.00     0.102 HD
ENDBRANCH  37  38
ENDBRANCH   9  37
ENDBRANCH   6   9
ENDBRANCH   4   5
BRANCH   4  40
ATOM     40  C   UNL A   1      36.596  23.640  23.524  1.00  0.00     0.193 C 
BRANCH  40  41
ATOM     41  O   UNL A   1      36.522  22.824  22.352  1.00  0.00    -0.394 OA
ATOM     42  H   UNL A   1      36.637  21.893  22.598  1.00  0.00     0.210 HD
ENDBRANCH  40  41
ENDBRANCH   4  40
ENDBRANCH   2   4
ENDBRANCH   1   2
BRANCH   1  43
ATOM     43  C   UNL A   1      39.261  21.202  25.549  1.00  0.00     0.274 C 
BRANCH  43  44
ATOM     44  C   UNL A   1      40.437  21.341  26.545  1.00  0.00     0.275 C 
BRANCH  44  45
ATOM     45  O   UNL A   1      41.167  22.597  26.425  1.00  0.00    -0.458 OA
BRANCH  45  46
ATOM     46  C   UNL A   1      42.478  22.435  26.044  1.00  0.00     0.338 C 
ATOM     47  O   UNL A   1      42.880  21.491  25.375  1.00  0.00    -0.246 OA
BRANCH  46  48
ATOM     48  C   UNL A   1      43.374  23.584  26.406  1.00  0.00     0.060 A 
ATOM     49  C   UNL A   1      44.263  23.583  27.474  1.00  0.00     0.016 A 
ATOM     50  C   UNL A   1      43.287  24.764  25.659  1.00  0.00     0.016 A 
ATOM     51  C   UNL A   1      44.831  24.804  27.925  1.00  0.00     0.010 A 
ATOM     52  C   UNL A   1      43.854  25.969  26.135  1.00  0.00     0.010 A 
ATOM     53  C   UNL A   1      44.435  26.060  27.408  1.00  0.00    -0.014 A 
BRANCH  53  54
ATOM     54  C   UNL A   1      44.459  27.389  28.222  1.00  0.00     0.031 A 
ATOM     55  C   UNL A   1      43.203  27.966  28.901  1.00  0.00     0.074 A 
ATOM     56  C   UNL A   1      45.576  28.034  28.661  1.00  0.00     0.049 A 
ATOM     57  N   UNL A   1      42.874  29.216  29.142  1.00  0.00    -0.248 NA
ATOM     58  C   UNL A   1      42.208  27.010  29.415  1.00  0.00     0.031 C 
ATOM     59  C   UNL A   1      46.956  27.550  28.634  1.00  0.00     0.029 A 
ATOM     60  N   UNL A   1      45.713  29.299  29.220  1.00  0.00    -0.354 N 
ATOM     61  C   UNL A   1      41.574  29.190  29.654  1.00  0.00     0.074 A 
ATOM     62  C   UNL A   1      41.189  27.798  29.732  1.00  0.00     0.031 C 
ATOM     63  C   UNL A   1      47.794  28.540  28.968  1.00  0.00     0.029 A 
ATOM     64  C   UNL A   1      47.019  29.743  29.232  1.00  0.00     0.049 A 
ATOM     65  H   UNL A   1      44.957  29.823  29.572  1.00  0.00     0.167 HD
ATOM     66  C   UNL A   1      40.776  30.221  30.037  1.00  0.00     0.034 A 
ATOM     67  C   UNL A   1      47.561  30.973  29.358  1.00  0.00     0.034 A 
ATOM     68  C   UNL A   1      41.233  31.574  30.236  1.00  0.00     0.049 A 
ATOM     69  C   UNL A   1      46.690  32.156  29.656  1.00  0.00     0.074 A 
ATOM     70  C   UNL A   1      40.504  32.690  30.618  1.00  0.00     0.029 A 
ATOM     71  N   UNL A   1      42.553  31.980  30.150  1.00  0.00    -0.354 N 
ATOM     72  N   UNL A   1      45.402  32.193  29.878  1.00  0.00    -0.248 NA
ATOM     73  C   UNL A   1      47.353  33.466  29.755  1.00  0.00     0.031 C 
ATOM     74  C   UNL A   1      41.378  33.780  30.716  1.00  0.00     0.029 A 
ATOM     75  C   UNL A   1      42.658  33.332  30.440  1.00  0.00     0.049 A 
ATOM     76  H   UNL A   1      43.309  31.395  29.916  1.00  0.00     0.167 HD
ATOM     77  C   UNL A   1      45.100  33.518  30.166  1.00  0.00     0.074 A 
ATOM     78  C   UNL A   1      46.348  34.251  30.117  1.00  0.00     0.031 C 
ATOM     79  C   UNL A   1      43.893  34.072  30.432  1.00  0.00     0.034 A 
BRANCH  66  80
ATOM     80  C   UNL A   1      39.293  29.961  30.201  1.00  0.00     0.023 A 
ATOM     81  C   UNL A   1      38.715  29.666  31.450  1.00  0.00     0.012 A 
ATOM     82  C   UNL A   1      38.452  30.085  29.072  1.00  0.00     0.148 A 
ATOM     83  C   UNL A   1      37.337  29.451  31.561  1.00  0.00     0.002 A 
ATOM     84  C   UNL A   1      37.077  29.923  29.199  1.00  0.00     0.091 A 
ATOM     85  F   UNL A   1      39.012  30.362  27.885  1.00  0.00    -0.205 F 
ATOM     86  C   UNL A   1      36.519  29.590  30.441  1.00  0.00     0.022 A 
BRANCH  84  87
ATOM     87  S   UNL A   1      35.942  30.179  27.827  1.00  0.00     0.127 S 
ATOM     88  O   UNL A   1      36.728  29.682  26.697  1.00  0.00    -0.237 OA
ATOM     89  O   UNL A   1      34.810  29.329  28.198  1.00  0.00    -0.237 OA
ATOM     90  O   UNL A   1      35.646  31.603  27.807  1.00  0.00    -0.744 OA
ENDBRANCH  84  87
ENDBRANCH  66  80
BRANCH  67  91
ATOM     91  C   UNL A   1      49.021  31.150  29.094  1.00  0.00     0.023 A 
ATOM     92  C   UNL A   1      49.960  31.074  30.138  1.00  0.00     0.012 A 
ATOM     93  C   UNL A   1      49.477  31.357  27.774  1.00  0.00     0.148 A 
ATOM     94  C   UNL A   1      51.324  31.208  29.874  1.00  0.00     0.002 A 
ATOM     95  C   UNL A   1      50.839  31.414  27.509  1.00  0.00     0.091 A 
ATOM     96  F   UNL A   1      48.566  31.471  26.797  1.00  0.00    -0.205 F 
ATOM     97  C   UNL A   1      51.765  31.359  28.560  1.00  0.00     0.022 A 
BRANCH  95  98
ATOM     98  S   UNL A   1      51.489  31.438  25.834  1.00  0.00     0.127 S 
ATOM     99  O   UNL A   1      52.927  31.535  26.071  1.00  0.00    -0.237 OA
ATOM    100  O   UNL A   1      51.034  30.145  25.320  1.00  0.00    -0.237 OA
ATOM    101  O   UNL A   1      50.875  32.588  25.186  1.00  0.00    -0.744 OA
ENDBRANCH  95  98
ENDBRANCH  67  91
BRANCH  79 102
ATOM    102  C   UNL A   1      43.857  35.549  30.731  1.00  0.00     0.023 A 
ATOM    103  C   UNL A   1      43.933  36.482  29.677  1.00  0.00     0.012 A 
ATOM    104  C   UNL A   1      43.739  36.015  32.056  1.00  0.00     0.148 A 
ATOM    105  C   UNL A   1      43.949  37.852  29.940  1.00  0.00     0.002 A 
ATOM    106  C   UNL A   1      43.705  37.382  32.306  1.00  0.00     0.091 A 
ATOM    107  F   UNL A   1      43.686  35.117  33.050  1.00  0.00    -0.205 F 
ATOM    108  C   UNL A   1      43.827  38.302  31.253  1.00  0.00     0.022 A 
BRANCH 106 109
ATOM    109  S   UNL A   1      43.462  38.053  33.956  1.00  0.00     0.127 S 
ATOM    110  O   UNL A   1      44.803  37.936  34.527  1.00  0.00    -0.237 OA
ATOM    111  O   UNL A   1      43.039  39.425  33.674  1.00  0.00    -0.237 OA
ATOM    112  O   UNL A   1      42.440  37.223  34.580  1.00  0.00    -0.744 OA
ENDBRANCH 106 109
ENDBRANCH  79 102
ENDBRANCH  53  54
ENDBRANCH  46  48
ENDBRANCH  45  46
ENDBRANCH  44  45
ENDBRANCH  43  44
ENDBRANCH   1  43
TORSDOF 26
ENDMDL
