MODEL 1
REMARK VINA RESULT:     -11.2      0.000      0.000
REMARK SMILES CC(=O)N[C@@H](Cc1cc(Br)c(O)c(Br)c1)C(=O)OCCOC(=O)c1ccc(-c2c3nc(c(-c4cccc(S(=O)(=O)[O-])c4F)c4ccc([nH]4)c(-c4cccc(S(=O)(=O)[O-])c4F)c4nc(c(-c5cccc(S(=O)(=O)[O-])c5F)c5ccc2[nH]5)C=C4)C=C3)cc1
REMARK SMILES IDX 19 1 18 2 16 3 17 4 5 5 4 6 1 7 2 8 3 9 6 11 7 12 8 13 15 14
REMARK SMILES IDX 9 15 13 16 10 17 11 18 14 19 12 20 20 22 21 23 22 24 23 25
REMARK SMILES IDX 24 26 25 27 86 28 26 29 85 30 27 31 28 32 29 33 79 34 30 35
REMARK SMILES IDX 84 36 78 37 80 38 31 39 83 40 77 41 76 42 32 44 64 45 44 46
REMARK SMILES IDX 63 47 45 48 48 49 62 50 81 51 46 52 47 53 61 55 82 56 49 57
REMARK SMILES IDX 33 58 34 59 42 60 35 61 37 62 43 63 36 64 38 65 39 66 40 67
REMARK SMILES IDX 41 68 65 69 66 70 74 71 67 72 69 73 75 74 68 75 70 76 71 77
REMARK SMILES IDX 72 78 73 79 50 80 51 81 59 82 52 83 54 84 60 85 53 86 55 87
REMARK SMILES IDX 56 88 57 89 58 90
REMARK H PARENT 4 10 12 21 80 43 48 54
REMARK Flexibility Score: inf
ROOT
ATOM      1  C   UNL A   1      35.759  20.405  24.995  1.00  0.00     0.274 C 
ENDROOT
BRANCH   1   2
ATOM      2  O   UNL A   1      35.632  21.783  25.392  1.00  0.00    -0.461 OA
BRANCH   2   3
ATOM      3  C   UNL A   1      34.660  22.075  26.302  1.00  0.00     0.329 C 
ATOM      4  O   UNL A   1      34.459  21.459  27.341  1.00  0.00    -0.250 OA
BRANCH   3   5
ATOM      5  C   UNL A   1      33.769  23.240  25.834  1.00  0.00     0.196 C 
BRANCH   5   6
ATOM      6  N   UNL A   1      32.593  23.436  26.691  1.00  0.00    -0.343 N 
ATOM      7  C   UNL A   1      30.871  23.380  24.921  1.00  0.00     0.114 C 
ATOM      8  C   UNL A   1      31.283  23.582  26.353  1.00  0.00     0.217 C 
ATOM      9  O   UNL A   1      30.467  23.861  27.229  1.00  0.00    -0.275 OA
ATOM     10  H   UNL A   1      32.781  23.465  27.657  1.00  0.00     0.164 HD
ENDBRANCH   5   6
BRANCH   5  11
ATOM     11  C   UNL A   1      34.615  24.523  25.728  1.00  0.00     0.072 C 
BRANCH  11  12
ATOM     12  C   UNL A   1      34.038  25.556  24.780  1.00  0.00    -0.043 A 
ATOM     13  C   UNL A   1      33.722  25.215  23.458  1.00  0.00     0.023 A 
ATOM     14  C   UNL A   1      33.741  26.848  25.242  1.00  0.00     0.023 A 
ATOM     15  C   UNL A   1      33.082  26.139  22.630  1.00  0.00     0.061 A 
ATOM     16  C   UNL A   1      33.112  27.774  24.405  1.00  0.00     0.061 A 
ATOM     17  Br  UNL A   1      32.619  25.614  20.867  1.00  0.00    -0.047 Br
ATOM     18  C   UNL A   1      32.770  27.419  23.100  1.00  0.00     0.143 A 
ATOM     19  Br  UNL A   1      32.722  29.496  25.098  1.00  0.00    -0.047 Br
BRANCH  18  20
ATOM     20  O   UNL A   1      32.121  28.321  22.298  1.00  0.00    -0.506 OA
ATOM     21  H   UNL A   1      32.168  29.237  22.491  1.00  0.00     0.293 HD
ENDBRANCH  18  20
ENDBRANCH  11  12
ENDBRANCH   5  11
ENDBRANCH   3   5
ENDBRANCH   2   3
ENDBRANCH   1   2
BRANCH   1  22
ATOM     22  C   UNL A   1      37.232  19.994  24.983  1.00  0.00     0.275 C 
BRANCH  22  23
ATOM     23  O   UNL A   1      38.074  21.136  25.223  1.00  0.00    -0.458 OA
BRANCH  23  24
ATOM     24  C   UNL A   1      39.163  20.886  25.989  1.00  0.00     0.338 C 
ATOM     25  O   UNL A   1      39.755  19.829  26.110  1.00  0.00    -0.246 OA
BRANCH  24  26
ATOM     26  C   UNL A   1      39.655  22.142  26.567  1.00  0.00     0.060 A 
ATOM     27  C   UNL A   1      39.075  23.328  26.120  1.00  0.00     0.016 A 
ATOM     28  C   UNL A   1      40.745  22.170  27.433  1.00  0.00     0.016 A 
ATOM     29  C   UNL A   1      39.613  24.556  26.490  1.00  0.00     0.010 A 
ATOM     30  C   UNL A   1      41.261  23.407  27.841  1.00  0.00     0.010 A 
ATOM     31  C   UNL A   1      40.718  24.608  27.349  1.00  0.00    -0.014 A 
BRANCH  31  32
ATOM     32  C   UNL A   1      41.314  25.926  27.687  1.00  0.00     0.031 A 
ATOM     33  C   UNL A   1      42.711  26.263  27.245  1.00  0.00     0.074 A 
ATOM     34  C   UNL A   1      40.588  26.831  28.371  1.00  0.00     0.049 A 
ATOM     35  N   UNL A   1      43.411  27.342  27.483  1.00  0.00    -0.248 NA
ATOM     36  C   UNL A   1      43.418  25.257  26.436  1.00  0.00     0.031 C 
ATOM     37  C   UNL A   1      39.221  26.623  28.854  1.00  0.00     0.029 A 
ATOM     38  N   UNL A   1      40.897  28.103  28.783  1.00  0.00    -0.354 N 
ATOM     39  C   UNL A   1      44.656  27.124  26.905  1.00  0.00     0.074 A 
ATOM     40  C   UNL A   1      44.615  25.812  26.296  1.00  0.00     0.031 C 
ATOM     41  C   UNL A   1      38.808  27.730  29.491  1.00  0.00     0.029 A 
ATOM     42  C   UNL A   1      39.891  28.709  29.500  1.00  0.00     0.049 A 
ATOM     43  H   UNL A   1      41.757  28.541  28.585  1.00  0.00     0.167 HD
ATOM     44  C   UNL A   1      45.731  27.948  26.870  1.00  0.00     0.034 A 
ATOM     45  C   UNL A   1      39.851  29.909  30.112  1.00  0.00     0.034 A 
ATOM     46  C   UNL A   1      45.751  29.279  27.415  1.00  0.00     0.049 A 
ATOM     47  C   UNL A   1      41.048  30.815  30.029  1.00  0.00     0.074 A 
ATOM     48  C   UNL A   1      46.776  30.207  27.380  1.00  0.00     0.029 A 
ATOM     49  N   UNL A   1      44.696  29.875  28.088  1.00  0.00    -0.354 N 
ATOM     50  N   UNL A   1      42.182  30.626  29.398  1.00  0.00    -0.248 NA
ATOM     51  C   UNL A   1      40.954  32.106  30.724  1.00  0.00     0.031 C 
ATOM     52  C   UNL A   1      46.343  31.366  28.034  1.00  0.00     0.029 A 
ATOM     53  C   UNL A   1      45.045  31.158  28.475  1.00  0.00     0.049 A 
ATOM     54  H   UNL A   1      43.827  29.450  28.265  1.00  0.00     0.167 HD
ATOM     55  C   UNL A   1      42.931  31.777  29.610  1.00  0.00     0.074 A 
ATOM     56  C   UNL A   1      42.108  32.673  30.396  1.00  0.00     0.031 C 
ATOM     57  C   UNL A   1      44.197  32.057  29.213  1.00  0.00     0.034 A 
BRANCH  44  58
ATOM     58  C   UNL A   1      46.973  27.449  26.182  1.00  0.00     0.023 A 
ATOM     59  C   UNL A   1      47.188  27.762  24.826  1.00  0.00     0.012 A 
ATOM     60  C   UNL A   1      47.953  26.730  26.893  1.00  0.00     0.148 A 
ATOM     61  C   UNL A   1      48.354  27.349  24.180  1.00  0.00     0.002 A 
ATOM     62  C   UNL A   1      49.127  26.350  26.252  1.00  0.00     0.091 A 
ATOM     63  F   UNL A   1      47.715  26.417  28.175  1.00  0.00    -0.205 F 
ATOM     64  C   UNL A   1      49.327  26.654  24.895  1.00  0.00     0.022 A 
BRANCH  62  65
ATOM     65  S   UNL A   1      50.463  25.510  27.111  1.00  0.00     0.127 S 
ATOM     66  O   UNL A   1      51.416  25.285  26.026  1.00  0.00    -0.237 OA
ATOM     67  O   UNL A   1      50.882  26.511  28.094  1.00  0.00    -0.237 OA
ATOM     68  O   UNL A   1      49.871  24.311  27.689  1.00  0.00    -0.744 OA
ENDBRANCH  62  65
ENDBRANCH  44  58
BRANCH  45  69
ATOM     69  C   UNL A   1      38.612  30.331  30.823  1.00  0.00     0.023 A 
ATOM     70  C   UNL A   1      38.482  30.076  32.202  1.00  0.00     0.012 A 
ATOM     71  C   UNL A   1      37.587  31.029  30.156  1.00  0.00     0.148 A 
ATOM     72  C   UNL A   1      37.349  30.495  32.898  1.00  0.00     0.002 A 
ATOM     73  C   UNL A   1      36.488  31.496  30.868  1.00  0.00     0.091 A 
ATOM     74  F   UNL A   1      37.710  31.239  28.837  1.00  0.00    -0.205 F 
ATOM     75  C   UNL A   1      36.359  31.217  32.237  1.00  0.00     0.022 A 
BRANCH  73  76
ATOM     76  S   UNL A   1      35.262  32.566  30.106  1.00  0.00     0.127 S 
ATOM     77  O   UNL A   1      34.763  31.727  29.021  1.00  0.00    -0.237 OA
ATOM     78  O   UNL A   1      34.315  32.787  31.200  1.00  0.00    -0.237 OA
ATOM     79  O   UNL A   1      35.999  33.759  29.711  1.00  0.00    -0.744 OA
ENDBRANCH  73  76
ENDBRANCH  45  69
BRANCH  57  80
ATOM     80  C   UNL A   1      44.773  33.384  29.624  1.00  0.00     0.023 A 
ATOM     81  C   UNL A   1      45.503  33.476  30.824  1.00  0.00     0.012 A 
ATOM     82  C   UNL A   1      44.649  34.519  28.799  1.00  0.00     0.148 A 
ATOM     83  C   UNL A   1      46.081  34.684  31.212  1.00  0.00     0.002 A 
ATOM     84  C   UNL A   1      45.261  35.711  29.174  1.00  0.00     0.091 A 
ATOM     85  F   UNL A   1      43.930  34.421  27.672  1.00  0.00    -0.205 F 
ATOM     86  C   UNL A   1      45.970  35.797  30.384  1.00  0.00     0.022 A 
BRANCH  84  87
ATOM     87  S   UNL A   1      45.227  37.163  28.117  1.00  0.00     0.127 S 
ATOM     88  O   UNL A   1      43.797  37.458  28.057  1.00  0.00    -0.237 OA
ATOM     89  O   UNL A   1      46.018  38.132  28.878  1.00  0.00    -0.237 OA
ATOM     90  O   UNL A   1      45.842  36.745  26.863  1.00  0.00    -0.744 OA
ENDBRANCH  84  87
ENDBRANCH  57  80
ENDBRANCH  31  32
ENDBRANCH  24  26
ENDBRANCH  23  24
ENDBRANCH  22  23
ENDBRANCH   1  22
TORSDOF 18
ENDMDL
MODEL 2
REMARK VINA RESULT:     -11.0      5.254     10.237
REMARK SMILES CC(=O)N[C@@H](Cc1cc(Br)c(O)c(Br)c1)C(=O)OCCOC(=O)c1ccc(-c2c3nc(c(-c4cccc(S(=O)(=O)[O-])c4F)c4ccc([nH]4)c(-c4cccc(S(=O)(=O)[O-])c4F)c4nc(c(-c5cccc(S(=O)(=O)[O-])c5F)c5ccc2[nH]5)C=C4)C=C3)cc1
REMARK SMILES IDX 19 1 18 2 16 3 17 4 5 5 4 6 1 7 2 8 3 9 6 11 7 12 8 13 15 14
REMARK SMILES IDX 9 15 13 16 10 17 11 18 14 19 12 20 20 22 21 23 22 24 23 25
REMARK SMILES IDX 24 26 25 27 86 28 26 29 85 30 27 31 28 32 29 33 79 34 30 35
REMARK SMILES IDX 84 36 78 37 80 38 31 39 83 40 77 41 76 42 32 44 64 45 44 46
REMARK SMILES IDX 63 47 45 48 48 49 62 50 81 51 46 52 47 53 61 55 82 56 49 57
REMARK SMILES IDX 33 58 34 59 42 60 35 61 37 62 43 63 36 64 38 65 39 66 40 67
REMARK SMILES IDX 41 68 65 69 66 70 74 71 67 72 69 73 75 74 68 75 70 76 71 77
REMARK SMILES IDX 72 78 73 79 50 80 51 81 59 82 52 83 54 84 60 85 53 86 55 87
REMARK SMILES IDX 56 88 57 89 58 90
REMARK H PARENT 4 10 12 21 80 43 48 54
REMARK Flexibility Score: inf
ROOT
ATOM      1  C   UNL A   1      31.247  30.083  25.154  1.00  0.00     0.274 C 
ENDROOT
BRANCH   1   2
ATOM      2  O   UNL A   1      32.231  29.062  25.405  1.00  0.00    -0.461 OA
BRANCH   2   3
ATOM      3  C   UNL A   1      32.963  28.637  24.335  1.00  0.00     0.329 C 
ATOM      4  O   UNL A   1      33.498  29.368  23.511  1.00  0.00    -0.250 OA
BRANCH   3   5
ATOM      5  C   UNL A   1      32.979  27.102  24.227  1.00  0.00     0.196 C 
BRANCH   5   6
ATOM      6  N   UNL A   1      33.349  26.630  22.888  1.00  0.00    -0.343 N 
ATOM      7  C   UNL A   1      31.403  25.161  22.495  1.00  0.00     0.114 C 
ATOM      8  C   UNL A   1      32.740  25.714  22.087  1.00  0.00     0.217 C 
ATOM      9  O   UNL A   1      33.292  25.372  21.042  1.00  0.00    -0.275 OA
ATOM     10  H   UNL A   1      34.162  27.039  22.511  1.00  0.00     0.164 HD
ENDBRANCH   5   6
BRANCH   5  11
ATOM     11  C   UNL A   1      33.907  26.520  25.312  1.00  0.00     0.072 C 
BRANCH  11  12
ATOM     12  C   UNL A   1      33.586  25.085  25.681  1.00  0.00    -0.043 A 
ATOM     13  C   UNL A   1      32.304  24.728  26.118  1.00  0.00     0.023 A 
ATOM     14  C   UNL A   1      34.554  24.082  25.512  1.00  0.00     0.023 A 
ATOM     15  C   UNL A   1      31.987  23.388  26.341  1.00  0.00     0.061 A 
ATOM     16  C   UNL A   1      34.236  22.741  25.750  1.00  0.00     0.061 A 
ATOM     17  Br  UNL A   1      30.221  22.946  26.875  1.00  0.00    -0.047 Br
ATOM     18  C   UNL A   1      32.948  22.389  26.154  1.00  0.00     0.143 A 
ATOM     19  Br  UNL A   1      35.585  21.434  25.485  1.00  0.00    -0.047 Br
BRANCH  18  20
ATOM     20  O   UNL A   1      32.635  21.069  26.349  1.00  0.00    -0.506 OA
ATOM     21  H   UNL A   1      31.861  20.837  26.824  1.00  0.00     0.293 HD
ENDBRANCH  18  20
ENDBRANCH  11  12
ENDBRANCH   5  11
ENDBRANCH   3   5
ENDBRANCH   2   3
ENDBRANCH   1   2
BRANCH   1  22
ATOM     22  C   UNL A   1      31.468  31.268  26.096  1.00  0.00     0.275 C 
BRANCH  22  23
ATOM     23  O   UNL A   1      32.528  30.981  27.026  1.00  0.00    -0.458 OA
BRANCH  23  24
ATOM     24  C   UNL A   1      33.278  32.052  27.377  1.00  0.00     0.338 C 
ATOM     25  O   UNL A   1      32.929  33.218  27.417  1.00  0.00    -0.246 OA
BRANCH  24  26
ATOM     26  C   UNL A   1      34.583  31.597  27.872  1.00  0.00     0.060 A 
ATOM     27  C   UNL A   1      34.709  30.251  28.213  1.00  0.00     0.016 A 
ATOM     28  C   UNL A   1      35.624  32.489  28.117  1.00  0.00     0.016 A 
ATOM     29  C   UNL A   1      35.855  29.793  28.852  1.00  0.00     0.010 A 
ATOM     30  C   UNL A   1      36.796  32.020  28.724  1.00  0.00     0.010 A 
ATOM     31  C   UNL A   1      36.909  30.675  29.123  1.00  0.00    -0.014 A 
BRANCH  31  32
ATOM     32  C   UNL A   1      38.101  30.181  29.858  1.00  0.00     0.031 A 
ATOM     33  C   UNL A   1      38.355  30.618  31.274  1.00  0.00     0.074 A 
ATOM     34  C   UNL A   1      38.943  29.316  29.260  1.00  0.00     0.049 A 
ATOM     35  N   UNL A   1      39.361  30.327  32.058  1.00  0.00    -0.248 NA
ATOM     36  C   UNL A   1      37.353  31.503  31.891  1.00  0.00     0.031 C 
ATOM     37  C   UNL A   1      38.804  28.816  27.891  1.00  0.00     0.029 A 
ATOM     38  N   UNL A   1      40.083  28.709  29.722  1.00  0.00    -0.354 N 
ATOM     39  C   UNL A   1      39.145  31.033  33.235  1.00  0.00     0.074 A 
ATOM     40  C   UNL A   1      37.907  31.763  33.068  1.00  0.00     0.031 C 
ATOM     41  C   UNL A   1      39.816  27.975  27.627  1.00  0.00     0.029 A 
ATOM     42  C   UNL A   1      40.697  27.907  28.788  1.00  0.00     0.049 A 
ATOM     43  H   UNL A   1      40.430  28.835  30.636  1.00  0.00     0.167 HD
ATOM     44  C   UNL A   1      39.901  31.060  34.358  1.00  0.00     0.034 A 
ATOM     45  C   UNL A   1      41.850  27.212  28.851  1.00  0.00     0.034 A 
ATOM     46  C   UNL A   1      41.096  30.281  34.551  1.00  0.00     0.049 A 
ATOM     47  C   UNL A   1      42.652  27.235  30.123  1.00  0.00     0.074 A 
ATOM     48  C   UNL A   1      41.898  30.202  35.676  1.00  0.00     0.029 A 
ATOM     49  N   UNL A   1      41.657  29.444  33.601  1.00  0.00    -0.354 N 
ATOM     50  N   UNL A   1      42.381  27.837  31.256  1.00  0.00    -0.248 NA
ATOM     51  C   UNL A   1      43.905  26.468  30.134  1.00  0.00     0.031 C 
ATOM     52  C   UNL A   1      42.947  29.317  35.405  1.00  0.00     0.029 A 
ATOM     53  C   UNL A   1      42.795  28.844  34.111  1.00  0.00     0.049 A 
ATOM     54  H   UNL A   1      41.299  29.296  32.696  1.00  0.00     0.167 HD
ATOM     55  C   UNL A   1      43.423  27.513  32.117  1.00  0.00     0.074 A 
ATOM     56  C   UNL A   1      44.310  26.632  31.386  1.00  0.00     0.031 C 
ATOM     57  C   UNL A   1      43.641  27.930  33.389  1.00  0.00     0.034 A 
BRANCH  44  58
ATOM     58  C   UNL A   1      39.438  31.933  35.493  1.00  0.00     0.023 A 
ATOM     59  C   UNL A   1      39.735  33.310  35.475  1.00  0.00     0.012 A 
ATOM     60  C   UNL A   1      38.656  31.406  36.538  1.00  0.00     0.148 A 
ATOM     61  C   UNL A   1      39.277  34.147  36.492  1.00  0.00     0.002 A 
ATOM     62  C   UNL A   1      38.175  32.251  37.531  1.00  0.00     0.091 A 
ATOM     63  F   UNL A   1      38.409  30.088  36.551  1.00  0.00    -0.205 F 
ATOM     64  C   UNL A   1      38.488  33.621  37.512  1.00  0.00     0.022 A 
BRANCH  62  65
ATOM     65  S   UNL A   1      37.097  31.673  38.847  1.00  0.00     0.127 S 
ATOM     66  O   UNL A   1      35.933  32.542  38.680  1.00  0.00    -0.237 OA
ATOM     67  O   UNL A   1      36.872  30.274  38.476  1.00  0.00    -0.237 OA
ATOM     68  O   UNL A   1      37.848  31.854  40.082  1.00  0.00    -0.744 OA
ENDBRANCH  62  65
ENDBRANCH  44  58
BRANCH  45  69
ATOM     69  C   UNL A   1      42.287  26.404  27.679  1.00  0.00     0.023 A 
ATOM     70  C   UNL A   1      43.186  26.961  26.749  1.00  0.00     0.012 A 
ATOM     71  C   UNL A   1      41.862  25.072  27.508  1.00  0.00     0.148 A 
ATOM     72  C   UNL A   1      43.640  26.212  25.663  1.00  0.00     0.002 A 
ATOM     73  C   UNL A   1      42.365  24.312  26.458  1.00  0.00     0.091 A 
ATOM     74  F   UNL A   1      40.983  24.564  28.385  1.00  0.00    -0.205 F 
ATOM     75  C   UNL A   1      43.243  24.885  25.525  1.00  0.00     0.022 A 
BRANCH  73  76
ATOM     76  S   UNL A   1      42.014  22.556  26.319  1.00  0.00     0.127 S 
ATOM     77  O   UNL A   1      42.638  22.028  27.529  1.00  0.00    -0.237 OA
ATOM     78  O   UNL A   1      40.551  22.528  26.317  1.00  0.00    -0.237 OA
ATOM     79  O   UNL A   1      42.616  22.151  25.055  1.00  0.00    -0.744 OA
ENDBRANCH  73  76
ENDBRANCH  45  69
BRANCH  57  80
ATOM     80  C   UNL A   1      44.888  27.440  34.073  1.00  0.00     0.023 A 
ATOM     81  C   UNL A   1      46.060  28.217  34.004  1.00  0.00     0.012 A 
ATOM     82  C   UNL A   1      44.886  26.254  34.831  1.00  0.00     0.148 A 
ATOM     83  C   UNL A   1      47.221  27.808  34.659  1.00  0.00     0.002 A 
ATOM     84  C   UNL A   1      46.037  25.873  35.513  1.00  0.00     0.091 A 
ATOM     85  F   UNL A   1      43.769  25.513  34.865  1.00  0.00    -0.205 F 
ATOM     86  C   UNL A   1      47.207  26.644  35.422  1.00  0.00     0.022 A 
BRANCH  84  87
ATOM     87  S   UNL A   1      46.066  24.426  36.580  1.00  0.00     0.127 S 
ATOM     88  O   UNL A   1      45.967  23.336  35.612  1.00  0.00    -0.237 OA
ATOM     89  O   UNL A   1      47.370  24.541  37.237  1.00  0.00    -0.237 OA
ATOM     90  O   UNL A   1      44.930  24.583  37.478  1.00  0.00    -0.744 OA
ENDBRANCH  84  87
ENDBRANCH  57  80
ENDBRANCH  31  32
ENDBRANCH  24  26
ENDBRANCH  23  24
ENDBRANCH  22  23
ENDBRANCH   1  22
TORSDOF 18
ENDMDL
MODEL 3
REMARK VINA RESULT:     -11.0      1.506      7.846
REMARK SMILES CC(=O)N[C@@H](Cc1cc(Br)c(O)c(Br)c1)C(=O)OCCOC(=O)c1ccc(-c2c3nc(c(-c4cccc(S(=O)(=O)[O-])c4F)c4ccc([nH]4)c(-c4cccc(S(=O)(=O)[O-])c4F)c4nc(c(-c5cccc(S(=O)(=O)[O-])c5F)c5ccc2[nH]5)C=C4)C=C3)cc1
REMARK SMILES IDX 19 1 18 2 16 3 17 4 5 5 4 6 1 7 2 8 3 9 6 11 7 12 8 13 15 14
REMARK SMILES IDX 9 15 13 16 10 17 11 18 14 19 12 20 20 22 21 23 22 24 23 25
REMARK SMILES IDX 24 26 25 27 86 28 26 29 85 30 27 31 28 32 29 33 79 34 30 35
REMARK SMILES IDX 84 36 78 37 80 38 31 39 83 40 77 41 76 42 32 44 64 45 44 46
REMARK SMILES IDX 63 47 45 48 48 49 62 50 81 51 46 52 47 53 61 55 82 56 49 57
REMARK SMILES IDX 33 58 34 59 42 60 35 61 37 62 43 63 36 64 38 65 39 66 40 67
REMARK SMILES IDX 41 68 65 69 66 70 74 71 67 72 69 73 75 74 68 75 70 76 71 77
REMARK SMILES IDX 72 78 73 79 50 80 51 81 59 82 52 83 54 84 60 85 53 86 55 87
REMARK SMILES IDX 56 88 57 89 58 90
REMARK H PARENT 4 10 12 21 80 43 48 54
REMARK Flexibility Score: inf
ROOT
ATOM      1  C   UNL A   1      35.153  20.872  25.559  1.00  0.00     0.274 C 
ENDROOT
BRANCH   1   2
ATOM      2  O   UNL A   1      35.351  22.104  26.279  1.00  0.00    -0.461 OA
BRANCH   2   3
ATOM      3  C   UNL A   1      34.302  22.558  27.023  1.00  0.00     0.329 C 
ATOM      4  O   UNL A   1      34.032  22.190  28.159  1.00  0.00    -0.250 OA
BRANCH   3   5
ATOM      5  C   UNL A   1      33.428  23.549  26.234  1.00  0.00     0.196 C 
BRANCH   5   6
ATOM      6  N   UNL A   1      32.149  23.831  26.897  1.00  0.00    -0.343 N 
ATOM      7  C   UNL A   1      30.765  22.188  25.679  1.00  0.00     0.114 C 
ATOM      8  C   UNL A   1      30.910  23.322  26.656  1.00  0.00     0.217 C 
ATOM      9  O   UNL A   1      29.944  23.792  27.253  1.00  0.00    -0.275 OA
ATOM     10  H   UNL A   1      32.195  24.489  27.629  1.00  0.00     0.164 HD
ENDBRANCH   5   6
BRANCH   5  11
ATOM     11  C   UNL A   1      34.226  24.839  25.966  1.00  0.00     0.072 C 
BRANCH  11  12
ATOM     12  C   UNL A   1      33.534  25.797  25.016  1.00  0.00    -0.043 A 
ATOM     13  C   UNL A   1      33.164  27.080  25.438  1.00  0.00     0.023 A 
ATOM     14  C   UNL A   1      33.327  25.432  23.676  1.00  0.00     0.023 A 
ATOM     15  C   UNL A   1      32.636  27.994  24.524  1.00  0.00     0.061 A 
ATOM     16  C   UNL A   1      32.785  26.346  22.767  1.00  0.00     0.061 A 
ATOM     17  Br  UNL A   1      32.204  29.739  25.127  1.00  0.00    -0.047 Br
ATOM     18  C   UNL A   1      32.449  27.633  23.186  1.00  0.00     0.143 A 
ATOM     19  Br  UNL A   1      32.549  25.794  20.968  1.00  0.00    -0.047 Br
BRANCH  18  20
ATOM     20  O   UNL A   1      31.952  28.533  22.280  1.00  0.00    -0.506 OA
ATOM     21  H   UNL A   1      32.534  29.112  21.827  1.00  0.00     0.293 HD
ENDBRANCH  18  20
ENDBRANCH  11  12
ENDBRANCH   5  11
ENDBRANCH   3   5
ENDBRANCH   2   3
ENDBRANCH   1   2
BRANCH   1  22
ATOM     22  C   UNL A   1      36.484  20.372  24.997  1.00  0.00     0.275 C 
BRANCH  22  23
ATOM     23  O   UNL A   1      37.489  21.397  25.096  1.00  0.00    -0.458 OA
BRANCH  23  24
ATOM     24  C   UNL A   1      38.616  21.023  25.746  1.00  0.00     0.338 C 
ATOM     25  O   UNL A   1      39.132  19.920  25.758  1.00  0.00    -0.246 OA
BRANCH  24  26
ATOM     26  C   UNL A   1      39.255  22.205  26.340  1.00  0.00     0.060 A 
ATOM     27  C   UNL A   1      38.675  23.446  26.088  1.00  0.00     0.016 A 
ATOM     28  C   UNL A   1      40.465  22.115  27.023  1.00  0.00     0.016 A 
ATOM     29  C   UNL A   1      39.324  24.615  26.468  1.00  0.00     0.010 A 
ATOM     30  C   UNL A   1      41.100  23.290  27.444  1.00  0.00     0.010 A 
ATOM     31  C   UNL A   1      40.549  24.550  27.143  1.00  0.00    -0.014 A 
BRANCH  31  32
ATOM     32  C   UNL A   1      41.256  25.809  27.490  1.00  0.00     0.031 A 
ATOM     33  C   UNL A   1      40.571  26.861  28.319  1.00  0.00     0.074 A 
ATOM     34  C   UNL A   1      42.526  25.996  27.082  1.00  0.00     0.049 A 
ATOM     35  N   UNL A   1      41.012  28.037  28.684  1.00  0.00    -0.248 NA
ATOM     36  C   UNL A   1      39.212  26.557  28.796  1.00  0.00     0.031 C 
ATOM     37  C   UNL A   1      43.298  25.050  26.275  1.00  0.00     0.029 A 
ATOM     38  N   UNL A   1      43.388  27.045  27.283  1.00  0.00    -0.354 N 
ATOM     39  C   UNL A   1      39.970  28.636  29.382  1.00  0.00     0.074 A 
ATOM     40  C   UNL A   1      38.875  27.690  29.398  1.00  0.00     0.031 C 
ATOM     41  C   UNL A   1      44.521  25.559  26.055  1.00  0.00     0.029 A 
ATOM     42  C   UNL A   1      44.607  26.881  26.667  1.00  0.00     0.049 A 
ATOM     43  H   UNL A   1      43.157  27.839  27.818  1.00  0.00     0.167 HD
ATOM     44  C   UNL A   1      39.933  29.856  29.970  1.00  0.00     0.034 A 
ATOM     45  C   UNL A   1      45.668  27.709  26.586  1.00  0.00     0.034 A 
ATOM     46  C   UNL A   1      41.044  30.769  30.014  1.00  0.00     0.049 A 
ATOM     47  C   UNL A   1      45.609  29.044  27.276  1.00  0.00     0.074 A 
ATOM     48  C   UNL A   1      41.118  32.004  30.633  1.00  0.00     0.029 A 
ATOM     49  N   UNL A   1      42.277  30.545  29.422  1.00  0.00    -0.354 N 
ATOM     50  N   UNL A   1      44.647  29.551  28.008  1.00  0.00    -0.248 NA
ATOM     51  C   UNL A   1      46.788  29.911  27.146  1.00  0.00     0.031 C 
ATOM     52  C   UNL A   1      42.396  32.529  30.413  1.00  0.00     0.029 A 
ATOM     53  C   UNL A   1      43.118  31.618  29.659  1.00  0.00     0.049 A 
ATOM     54  H   UNL A   1      42.519  29.741  28.909  1.00  0.00     0.167 HD
ATOM     55  C   UNL A   1      45.109  30.791  28.436  1.00  0.00     0.074 A 
ATOM     56  C   UNL A   1      46.450  30.941  27.911  1.00  0.00     0.031 C 
ATOM     57  C   UNL A   1      44.469  31.732  29.173  1.00  0.00     0.034 A 
BRANCH  44  58
ATOM     58  C   UNL A   1      38.657  30.265  30.654  1.00  0.00     0.023 A 
ATOM     59  C   UNL A   1      38.467  29.952  32.014  1.00  0.00     0.012 A 
ATOM     60  C   UNL A   1      37.678  31.012  29.970  1.00  0.00     0.148 A 
ATOM     61  C   UNL A   1      37.312  30.361  32.680  1.00  0.00     0.002 A 
ATOM     62  C   UNL A   1      36.545  31.445  30.649  1.00  0.00     0.091 A 
ATOM     63  F   UNL A   1      37.865  31.274  28.669  1.00  0.00    -0.205 F 
ATOM     64  C   UNL A   1      36.358  31.116  32.002  1.00  0.00     0.022 A 
BRANCH  62  65
ATOM     65  S   UNL A   1      35.296  32.477  29.874  1.00  0.00     0.127 S 
ATOM     66  O   UNL A   1      34.759  31.577  28.855  1.00  0.00    -0.237 OA
ATOM     67  O   UNL A   1      34.383  32.752  30.986  1.00  0.00    -0.237 OA
ATOM     68  O   UNL A   1      36.003  33.647  29.373  1.00  0.00    -0.744 OA
ENDBRANCH  62  65
ENDBRANCH  44  58
BRANCH  45  69
ATOM     69  C   UNL A   1      46.888  27.273  25.852  1.00  0.00     0.023 A 
ATOM     70  C   UNL A   1      47.775  26.365  26.461  1.00  0.00     0.012 A 
ATOM     71  C   UNL A   1      47.147  27.709  24.538  1.00  0.00     0.148 A 
ATOM     72  C   UNL A   1      48.905  25.912  25.780  1.00  0.00     0.002 A 
ATOM     73  C   UNL A   1      48.242  27.207  23.844  1.00  0.00     0.091 A 
ATOM     74  F   UNL A   1      46.310  28.597  23.982  1.00  0.00    -0.205 F 
ATOM     75  C   UNL A   1      49.132  26.320  24.468  1.00  0.00     0.022 A 
BRANCH  73  76
ATOM     76  S   UNL A   1      48.496  27.572  22.104  1.00  0.00     0.127 S 
ATOM     77  O   UNL A   1      49.660  28.452  22.147  1.00  0.00    -0.237 OA
ATOM     78  O   UNL A   1      48.747  26.245  21.538  1.00  0.00    -0.237 OA
ATOM     79  O   UNL A   1      47.247  28.178  21.661  1.00  0.00    -0.744 OA
ENDBRANCH  73  76
ENDBRANCH  45  69
BRANCH  57  80
ATOM     80  C   UNL A   1      45.209  33.010  29.455  1.00  0.00     0.023 A 
ATOM     81  C   UNL A   1      46.010  33.101  30.609  1.00  0.00     0.012 A 
ATOM     82  C   UNL A   1      45.165  34.093  28.556  1.00  0.00     0.148 A 
ATOM     83  C   UNL A   1      46.739  34.259  30.878  1.00  0.00     0.002 A 
ATOM     84  C   UNL A   1      45.924  35.230  28.811  1.00  0.00     0.091 A 
ATOM     85  F   UNL A   1      44.377  34.000  27.474  1.00  0.00    -0.205 F 
ATOM     86  C   UNL A   1      46.704  35.318  29.975  1.00  0.00     0.022 A 
BRANCH  84  87
ATOM     87  S   UNL A   1      45.991  36.601  27.651  1.00  0.00     0.127 S 
ATOM     88  O   UNL A   1      46.866  37.541  28.347  1.00  0.00    -0.237 OA
ATOM     89  O   UNL A   1      46.581  35.984  26.461  1.00  0.00    -0.237 OA
ATOM     90  O   UNL A   1      44.609  37.029  27.477  1.00  0.00    -0.744 OA
ENDBRANCH  84  87
ENDBRANCH  57  80
ENDBRANCH  31  32
ENDBRANCH  24  26
ENDBRANCH  23  24
ENDBRANCH  22  23
ENDBRANCH   1  22
TORSDOF 18
ENDMDL
