MODEL 1
REMARK VINA RESULT:     -12.9      0.000      0.000
REMARK SMILES CC[C@H]1CCCC[C@@H]1OCC[C@@H]1CCC[C@]1([NH2+]C)C(=O)OCCOC(=O)c1ccc(-c2c3nc(c(-c4cccc(S(=O)(=O)[O-])c4F)c4ccc([nH]4)c(-c4cccc(S(=O)(=O)[O-])c4F)c4nc(c(-c5cccc(S(=O)(=O)[O-])c5F)c5ccc2[nH]5)C=C4)C=C3)cc1
REMARK SMILES IDX 22 1 21 2 19 3 20 4 16 5 12 6 13 7 14 8 15 9 11 10 10 11
REMARK SMILES IDX 9 12 8 13 3 14 4 15 5 16 7 17 6 18 2 19 1 20 17 21 18 22
REMARK SMILES IDX 23 25 24 26 25 27 26 28 27 29 28 30 89 31 29 32 88 33 30 34
REMARK SMILES IDX 31 35 32 36 82 37 33 38 87 39 81 40 83 41 34 42 86 43 80 44
REMARK SMILES IDX 79 45 35 47 67 48 47 49 66 50 48 51 51 52 65 53 84 54 49 55
REMARK SMILES IDX 50 56 64 58 85 59 52 60 36 61 37 62 45 63 38 64 40 65 46 66
REMARK SMILES IDX 39 67 41 68 42 69 43 70 44 71 68 72 69 73 77 74 70 75 72 76
REMARK SMILES IDX 78 77 71 78 73 79 74 80 75 81 76 82 53 83 54 84 62 85 55 86
REMARK SMILES IDX 57 87 63 88 56 89 58 90 59 91 60 92 61 93
REMARK H PARENT 17 23 17 24 83 46 51 57
REMARK Flexibility Score: inf
ROOT
ATOM      1  C   UNL A   1      31.388  31.059  25.765  1.00  0.00     0.274 C 
ENDROOT
BRANCH   1   2
ATOM      2  O   UNL A   1      32.553  30.062  25.163  1.00  0.00    -0.457 OA
BRANCH   2   3
ATOM      3  C   UNL A   1      32.770  28.695  24.673  1.00  0.00     0.368 C 
ATOM      4  O   UNL A   1      33.602  28.505  23.781  1.00  0.00    -0.245 OA
BRANCH   3   5
ATOM      5  C   UNL A   1      31.744  27.297  25.326  1.00  0.00     0.197 C 
ATOM      6  C   UNL A   1      32.401  25.509  25.634  1.00  0.00     0.065 C 
ATOM      7  C   UNL A   1      31.113  24.726  24.881  1.00  0.00     0.011 C 
ATOM      8  C   UNL A   1      29.933  25.664  24.741  1.00  0.00     0.008 C 
ATOM      9  C   UNL A   1      30.495  27.019  24.387  1.00  0.00     0.081 C 
BRANCH   6  10
ATOM     10  C   UNL A   1      34.447  24.982  25.745  1.00  0.00     0.039 C 
BRANCH  10  11
ATOM     11  C   UNL A   1      35.289  23.666  26.049  1.00  0.00     0.161 C 
BRANCH  11  12
ATOM     12  O   UNL A   1      34.386  22.636  25.852  1.00  0.00    -0.378 OA
BRANCH  12  13
ATOM     13  C   UNL A   1      34.833  22.180  24.576  1.00  0.00     0.121 C 
ATOM     14  C   UNL A   1      33.466  22.634  23.227  1.00  0.00     0.018 C 
ATOM     15  C   UNL A   1      32.121  21.082  22.962  1.00  0.00     0.006 C 
ATOM     16  C   UNL A   1      32.526  19.270  23.478  1.00  0.00     0.000 C 
ATOM     17  C   UNL A   1      35.226  20.349  24.992  1.00  0.00     0.032 C 
ATOM     18  C   UNL A   1      34.062  18.972  24.546  1.00  0.00     0.003 C 
BRANCH  14  19
ATOM     19  C   UNL A   1      33.524  24.220  22.147  1.00  0.00     0.003 C 
ATOM     20  C   UNL A   1      32.550  25.205  21.400  1.00  0.00     0.004 C 
ENDBRANCH  14  19
ENDBRANCH  12  13
ENDBRANCH  11  12
ENDBRANCH  10  11
ENDBRANCH   6  10
BRANCH   5  21
ATOM     21  N   UNL A   1      31.110  27.769  26.623  1.00  0.00    -0.334 N 
ATOM     22  C   UNL A   1      32.056  27.987  27.718  1.00  0.00     0.331 C 
ATOM     23  H   UNL A   1      30.434  27.066  26.921  1.00  0.00     0.347 HD
ATOM     24  H   UNL A   1      30.683  28.674  26.425  1.00  0.00     0.347 HD
ENDBRANCH   5  21
ENDBRANCH   3   5
ENDBRANCH   2   3
ENDBRANCH   1   2
BRANCH   1  25
ATOM     25  C   UNL A   1      31.420  32.124  27.154  1.00  0.00     0.275 C 
BRANCH  25  26
ATOM     26  O   UNL A   1      32.177  33.451  27.123  1.00  0.00    -0.458 OA
BRANCH  26  27
ATOM     27  C   UNL A   1      32.890  34.196  28.038  1.00  0.00     0.338 C 
ATOM     28  O   UNL A   1      32.583  35.335  28.366  1.00  0.00    -0.246 OA
BRANCH  27  29
ATOM     29  C   UNL A   1      34.185  33.454  28.593  1.00  0.00     0.060 A 
ATOM     30  C   UNL A   1      34.188  32.099  28.949  1.00  0.00     0.016 A 
ATOM     31  C   UNL A   1      35.429  34.055  28.788  1.00  0.00     0.016 A 
ATOM     32  C   UNL A   1      35.255  31.347  29.458  1.00  0.00     0.010 A 
ATOM     33  C   UNL A   1      36.558  33.305  29.295  1.00  0.00     0.010 A 
ATOM     34  C   UNL A   1      36.487  31.931  29.633  1.00  0.00    -0.014 A 
BRANCH  34  35
ATOM     35  C   UNL A   1      37.576  31.119  30.283  1.00  0.00     0.031 A 
ATOM     36  C   UNL A   1      37.844  31.293  31.755  1.00  0.00     0.074 A 
ATOM     37  C   UNL A   1      38.256  30.130  29.651  1.00  0.00     0.049 A 
ATOM     38  N   UNL A   1      38.864  30.894  32.471  1.00  0.00    -0.248 NA
ATOM     39  C   UNL A   1      36.810  31.999  32.525  1.00  0.00     0.031 C 
ATOM     40  C   UNL A   1      38.027  29.666  28.282  1.00  0.00     0.029 A 
ATOM     41  N   UNL A   1      39.296  29.328  30.089  1.00  0.00    -0.354 N 
ATOM     42  C   UNL A   1      38.654  31.403  33.747  1.00  0.00     0.074 A 
ATOM     43  C   UNL A   1      37.377  32.086  33.719  1.00  0.00     0.031 C 
ATOM     44  C   UNL A   1      38.901  28.686  27.989  1.00  0.00     0.029 A 
ATOM     45  C   UNL A   1      39.821  28.511  29.109  1.00  0.00     0.049 A 
ATOM     46  H   UNL A   1      39.632  29.342  31.015  1.00  0.00     0.167 HD
ATOM     47  C   UNL A   1      39.457  31.326  34.835  1.00  0.00     0.034 A 
ATOM     48  C   UNL A   1      40.947  27.761  29.076  1.00  0.00     0.034 A 
ATOM     49  C   UNL A   1      40.681  30.574  34.898  1.00  0.00     0.049 A 
ATOM     50  C   UNL A   1      41.866  27.736  30.272  1.00  0.00     0.074 A 
ATOM     51  C   UNL A   1      41.568  30.462  35.957  1.00  0.00     0.029 A 
ATOM     52  N   UNL A   1      41.183  29.786  33.877  1.00  0.00    -0.354 N 
ATOM     53  N   UNL A   1      41.705  28.291  31.449  1.00  0.00    -0.248 NA
ATOM     54  C   UNL A   1      43.124  26.981  30.139  1.00  0.00     0.031 C 
ATOM     55  C   UNL A   1      42.614  29.617  35.569  1.00  0.00     0.029 A 
ATOM     56  C   UNL A   1      42.362  29.180  34.280  1.00  0.00     0.049 A 
ATOM     57  H   UNL A   1      40.764  29.671  32.994  1.00  0.00     0.167 HD
ATOM     58  C   UNL A   1      42.821  27.932  32.199  1.00  0.00     0.074 A 
ATOM     59  C   UNL A   1      43.642  27.090  31.355  1.00  0.00     0.031 C 
ATOM     60  C   UNL A   1      43.146  28.287  33.466  1.00  0.00     0.034 A 
BRANCH  47  61
ATOM     61  C   UNL A   1      39.056  32.122  36.048  1.00  0.00     0.023 A 
ATOM     62  C   UNL A   1      39.504  33.445  36.218  1.00  0.00     0.012 A 
ATOM     63  C   UNL A   1      38.186  31.554  37.000  1.00  0.00     0.148 A 
ATOM     64  C   UNL A   1      39.116  34.181  37.338  1.00  0.00     0.002 A 
ATOM     65  C   UNL A   1      37.766  32.309  38.087  1.00  0.00     0.091 A 
ATOM     66  F   UNL A   1      37.793  30.283  36.831  1.00  0.00    -0.205 F 
ATOM     67  C   UNL A   1      38.240  33.619  38.265  1.00  0.00     0.022 A 
BRANCH  65  68
ATOM     68  S   UNL A   1      36.573  31.697  39.282  1.00  0.00     0.127 S 
ATOM     69  O   UNL A   1      36.542  30.270  38.964  1.00  0.00    -0.237 OA
ATOM     70  O   UNL A   1      37.217  32.024  40.555  1.00  0.00    -0.237 OA
ATOM     71  O   UNL A   1      35.338  32.423  39.024  1.00  0.00    -0.744 OA
ENDBRANCH  65  68
ENDBRANCH  47  61
BRANCH  48  72
ATOM     72  C   UNL A   1      41.323  27.008  27.836  1.00  0.00     0.023 A 
ATOM     73  C   UNL A   1      41.838  27.697  26.719  1.00  0.00     0.012 A 
ATOM     74  C   UNL A   1      41.153  25.612  27.753  1.00  0.00     0.148 A 
ATOM     75  C   UNL A   1      42.157  27.014  25.542  1.00  0.00     0.002 A 
ATOM     76  C   UNL A   1      41.537  24.929  26.604  1.00  0.00     0.091 A 
ATOM     77  F   UNL A   1      40.616  24.973  28.803  1.00  0.00    -0.205 F 
ATOM     78  C   UNL A   1      42.022  25.629  25.490  1.00  0.00     0.022 A 
BRANCH  76  79
ATOM     79  S   UNL A   1      41.530  23.134  26.508  1.00  0.00     0.127 S 
ATOM     80  O   UNL A   1      42.188  22.764  27.757  1.00  0.00    -0.237 OA
ATOM     81  O   UNL A   1      40.097  22.841  26.455  1.00  0.00    -0.237 OA
ATOM     82  O   UNL A   1      42.252  22.805  25.287  1.00  0.00    -0.744 OA
ENDBRANCH  76  79
ENDBRANCH  48  72
BRANCH  60  83
ATOM     83  C   UNL A   1      44.414  27.726  34.057  1.00  0.00     0.023 A 
ATOM     84  C   UNL A   1      45.619  28.448  33.963  1.00  0.00     0.012 A 
ATOM     85  C   UNL A   1      44.395  26.508  34.768  1.00  0.00     0.148 A 
ATOM     86  C   UNL A   1      46.791  27.955  34.538  1.00  0.00     0.002 A 
ATOM     87  C   UNL A   1      45.556  26.045  35.378  1.00  0.00     0.091 A 
ATOM     88  F   UNL A   1      43.244  25.822  34.831  1.00  0.00    -0.205 F 
ATOM     89  C   UNL A   1      46.757  26.761  35.253  1.00  0.00     0.022 A 
BRANCH  87  90
ATOM     90  S   UNL A   1      45.580  24.562  36.394  1.00  0.00     0.127 S 
ATOM     91  O   UNL A   1      44.927  25.027  37.616  1.00  0.00    -0.237 OA
ATOM     92  O   UNL A   1      44.789  23.624  35.597  1.00  0.00    -0.237 OA
ATOM     93  O   UNL A   1      46.984  24.198  36.532  1.00  0.00    -0.744 OA
ENDBRANCH  87  90
ENDBRANCH  60  83
ENDBRANCH  34  35
ENDBRANCH  27  29
ENDBRANCH  26  27
ENDBRANCH  25  26
ENDBRANCH   1  25
TORSDOF 20
ENDMDL
MODEL 2
REMARK VINA RESULT:     -12.9      5.246      7.788
REMARK SMILES CC[C@H]1CCCC[C@@H]1OCC[C@@H]1CCC[C@]1([NH2+]C)C(=O)OCCOC(=O)c1ccc(-c2c3nc(c(-c4cccc(S(=O)(=O)[O-])c4F)c4ccc([nH]4)c(-c4cccc(S(=O)(=O)[O-])c4F)c4nc(c(-c5cccc(S(=O)(=O)[O-])c5F)c5ccc2[nH]5)C=C4)C=C3)cc1
REMARK SMILES IDX 22 1 21 2 19 3 20 4 16 5 12 6 13 7 14 8 15 9 11 10 10 11
REMARK SMILES IDX 9 12 8 13 3 14 4 15 5 16 7 17 6 18 2 19 1 20 17 21 18 22
REMARK SMILES IDX 23 25 24 26 25 27 26 28 27 29 28 30 89 31 29 32 88 33 30 34
REMARK SMILES IDX 31 35 32 36 82 37 33 38 87 39 81 40 83 41 34 42 86 43 80 44
REMARK SMILES IDX 79 45 35 47 67 48 47 49 66 50 48 51 51 52 65 53 84 54 49 55
REMARK SMILES IDX 50 56 64 58 85 59 52 60 36 61 37 62 45 63 38 64 40 65 46 66
REMARK SMILES IDX 39 67 41 68 42 69 43 70 44 71 68 72 69 73 77 74 70 75 72 76
REMARK SMILES IDX 78 77 71 78 73 79 74 80 75 81 76 82 53 83 54 84 62 85 55 86
REMARK SMILES IDX 57 87 63 88 56 89 58 90 59 91 60 92 61 93
REMARK H PARENT 17 23 17 24 83 46 51 57
REMARK Flexibility Score: inf
ROOT
ATOM      1  C   UNL A   1      34.790  23.873  24.795  1.00  0.00     0.274 C 
ENDROOT
BRANCH   1   2
ATOM      2  O   UNL A   1      34.230  25.422  24.757  1.00  0.00    -0.457 OA
BRANCH   2   3
ATOM      3  C   UNL A   1      33.616  26.455  25.602  1.00  0.00     0.368 C 
ATOM      4  O   UNL A   1      34.292  26.981  26.489  1.00  0.00    -0.245 OA
BRANCH   3   5
ATOM      5  C   UNL A   1      31.827  26.889  25.388  1.00  0.00     0.197 C 
ATOM      6  C   UNL A   1      30.398  25.600  25.246  1.00  0.00     0.065 C 
ATOM      7  C   UNL A   1      29.656  26.319  23.915  1.00  0.00     0.011 C 
ATOM      8  C   UNL A   1      30.130  27.749  23.753  1.00  0.00     0.008 C 
ATOM      9  C   UNL A   1      31.604  27.756  24.076  1.00  0.00     0.081 C 
BRANCH   6  10
ATOM     10  C   UNL A   1      30.559  23.562  25.788  1.00  0.00     0.039 C 
BRANCH  10  11
ATOM     11  C   UNL A   1      31.730  22.553  26.167  1.00  0.00     0.161 C 
BRANCH  11  12
ATOM     12  O   UNL A   1      31.421  21.400  25.468  1.00  0.00    -0.378 OA
BRANCH  12  13
ATOM     13  C   UNL A   1      32.668  21.188  24.811  1.00  0.00     0.121 C 
ATOM     14  C   UNL A   1      32.474  21.681  22.910  1.00  0.00     0.018 C 
ATOM     15  C   UNL A   1      31.944  20.046  21.755  1.00  0.00     0.006 C 
ATOM     16  C   UNL A   1      32.226  18.233  22.346  1.00  0.00     0.000 C 
ATOM     17  C   UNL A   1      33.011  19.370  25.319  1.00  0.00     0.032 C 
ATOM     18  C   UNL A   1      32.701  17.953  24.158  1.00  0.00     0.003 C 
BRANCH  14  19
ATOM     19  C   UNL A   1      32.942  23.404  22.206  1.00  0.00     0.003 C 
ATOM     20  C   UNL A   1      32.279  24.795  21.885  1.00  0.00     0.004 C 
ENDBRANCH  14  19
ENDBRANCH  12  13
ENDBRANCH  11  12
ENDBRANCH  10  11
ENDBRANCH   6  10
BRANCH   5  21
ATOM     21  N   UNL A   1      31.456  27.846  26.508  1.00  0.00    -0.334 N 
ATOM     22  C   UNL A   1      31.748  29.252  26.227  1.00  0.00     0.331 C 
ATOM     23  H   UNL A   1      31.974  27.574  27.344  1.00  0.00     0.347 HD
ATOM     24  H   UNL A   1      30.446  27.778  26.625  1.00  0.00     0.347 HD
ENDBRANCH   5  21
ENDBRANCH   3   5
ENDBRANCH   2   3
ENDBRANCH   1   2
BRANCH   1  25
ATOM     25  C   UNL A   1      35.752  23.049  26.003  1.00  0.00     0.275 C 
BRANCH  25  26
ATOM     26  O   UNL A   1      36.589  21.820  25.651  1.00  0.00    -0.458 OA
BRANCH  26  27
ATOM     27  C   UNL A   1      37.933  21.509  25.669  1.00  0.00     0.338 C 
ATOM     28  O   UNL A   1      38.383  20.444  25.271  1.00  0.00    -0.246 OA
BRANCH  27  29
ATOM     29  C   UNL A   1      38.841  22.650  26.309  1.00  0.00     0.060 A 
ATOM     30  C   UNL A   1      38.643  24.013  26.048  1.00  0.00     0.016 A 
ATOM     31  C   UNL A   1      39.914  22.429  27.174  1.00  0.00     0.016 A 
ATOM     32  C   UNL A   1      39.382  25.098  26.537  1.00  0.00     0.010 A 
ATOM     33  C   UNL A   1      40.688  23.525  27.713  1.00  0.00     0.010 A 
ATOM     34  C   UNL A   1      40.426  24.883  27.405  1.00  0.00    -0.014 A 
BRANCH  34  35
ATOM     35  C   UNL A   1      41.262  26.065  27.822  1.00  0.00     0.031 A 
ATOM     36  C   UNL A   1      40.652  27.123  28.704  1.00  0.00     0.074 A 
ATOM     37  C   UNL A   1      42.588  26.178  27.560  1.00  0.00     0.049 A 
ATOM     38  N   UNL A   1      41.085  28.324  28.988  1.00  0.00    -0.248 NA
ATOM     39  C   UNL A   1      39.390  26.767  29.367  1.00  0.00     0.031 C 
ATOM     40  C   UNL A   1      43.421  25.181  26.885  1.00  0.00     0.029 A 
ATOM     41  N   UNL A   1      43.478  27.202  27.836  1.00  0.00    -0.354 N 
ATOM     42  C   UNL A   1      40.094  28.911  29.764  1.00  0.00     0.074 A 
ATOM     43  C   UNL A   1      39.065  27.909  29.957  1.00  0.00     0.031 C 
ATOM     44  C   UNL A   1      44.681  25.644  26.785  1.00  0.00     0.029 A 
ATOM     45  C   UNL A   1      44.734  27.009  27.298  1.00  0.00     0.049 A 
ATOM     46  H   UNL A   1      43.236  27.996  28.365  1.00  0.00     0.167 HD
ATOM     47  C   UNL A   1      40.033  30.172  30.255  1.00  0.00     0.034 A 
ATOM     48  C   UNL A   1      45.788  27.847  27.161  1.00  0.00     0.034 A 
ATOM     49  C   UNL A   1      41.088  31.144  30.148  1.00  0.00     0.049 A 
ATOM     50  C   UNL A   1      45.684  29.269  27.655  1.00  0.00     0.074 A 
ATOM     51  C   UNL A   1      41.099  32.455  30.598  1.00  0.00     0.029 A 
ATOM     52  N   UNL A   1      42.327  30.913  29.574  1.00  0.00    -0.354 N 
ATOM     53  N   UNL A   1      44.708  29.845  28.312  1.00  0.00    -0.248 NA
ATOM     54  C   UNL A   1      46.828  30.159  27.388  1.00  0.00     0.031 C 
ATOM     55  C   UNL A   1      42.340  33.019  30.283  1.00  0.00     0.029 A 
ATOM     56  C   UNL A   1      43.111  32.051  29.663  1.00  0.00     0.049 A 
ATOM     57  H   UNL A   1      42.609  30.064  29.164  1.00  0.00     0.167 HD
ATOM     58  C   UNL A   1      45.128  31.149  28.559  1.00  0.00     0.074 A 
ATOM     59  C   UNL A   1      46.459  31.274  28.005  1.00  0.00     0.031 C 
ATOM     60  C   UNL A   1      44.461  32.157  29.172  1.00  0.00     0.034 A 
BRANCH  47  61
ATOM     61  C   UNL A   1      38.752  30.595  30.922  1.00  0.00     0.023 A 
ATOM     62  C   UNL A   1      38.577  30.430  32.309  1.00  0.00     0.012 A 
ATOM     63  C   UNL A   1      37.735  31.205  30.160  1.00  0.00     0.148 A 
ATOM     64  C   UNL A   1      37.392  30.838  32.922  1.00  0.00     0.002 A 
ATOM     65  C   UNL A   1      36.580  31.652  30.786  1.00  0.00     0.091 A 
ATOM     66  F   UNL A   1      37.914  31.329  28.837  1.00  0.00    -0.205 F 
ATOM     67  C   UNL A   1      36.400  31.458  32.165  1.00  0.00     0.022 A 
BRANCH  65  68
ATOM     68  S   UNL A   1      35.289  32.539  29.906  1.00  0.00     0.127 S 
ATOM     69  O   UNL A   1      34.886  31.554  28.902  1.00  0.00    -0.237 OA
ATOM     70  O   UNL A   1      34.302  32.772  30.961  1.00  0.00    -0.237 OA
ATOM     71  O   UNL A   1      35.914  33.745  29.384  1.00  0.00    -0.744 OA
ENDBRANCH  65  68
ENDBRANCH  47  61
BRANCH  48  72
ATOM     72  C   UNL A   1      47.034  27.393  26.463  1.00  0.00     0.023 A 
ATOM     73  C   UNL A   1      47.230  27.693  25.099  1.00  0.00     0.012 A 
ATOM     74  C   UNL A   1      48.019  26.648  27.143  1.00  0.00     0.148 A 
ATOM     75  C   UNL A   1      48.369  27.244  24.425  1.00  0.00     0.002 A 
ATOM     76  C   UNL A   1      49.182  26.264  26.484  1.00  0.00     0.091 A 
ATOM     77  F   UNL A   1      47.800  26.327  28.426  1.00  0.00    -0.205 F 
ATOM     78  C   UNL A   1      49.351  26.544  25.120  1.00  0.00     0.022 A 
BRANCH  76  79
ATOM     79  S   UNL A   1      50.557  25.487  27.341  1.00  0.00     0.127 S 
ATOM     80  O   UNL A   1      49.971  24.216  27.758  1.00  0.00    -0.237 OA
ATOM     81  O   UNL A   1      51.557  25.388  26.278  1.00  0.00    -0.237 OA
ATOM     82  O   UNL A   1      50.915  26.404  28.415  1.00  0.00    -0.744 OA
ENDBRANCH  76  79
ENDBRANCH  48  72
BRANCH  60  83
ATOM     83  C   UNL A   1      45.169  33.478  29.339  1.00  0.00     0.023 A 
ATOM     84  C   UNL A   1      46.022  33.689  30.440  1.00  0.00     0.012 A 
ATOM     85  C   UNL A   1      45.041  34.488  28.364  1.00  0.00     0.148 A 
ATOM     86  C   UNL A   1      46.711  34.894  30.584  1.00  0.00     0.002 A 
ATOM     87  C   UNL A   1      45.766  35.668  28.490  1.00  0.00     0.091 A 
ATOM     88  F   UNL A   1      44.209  34.279  27.332  1.00  0.00    -0.205 F 
ATOM     89  C   UNL A   1      46.591  35.877  29.606  1.00  0.00     0.022 A 
BRANCH  87  90
ATOM     90  S   UNL A   1      45.740  36.950  27.230  1.00  0.00     0.127 S 
ATOM     91  O   UNL A   1      46.481  38.026  27.884  1.00  0.00    -0.237 OA
ATOM     92  O   UNL A   1      46.446  36.310  26.119  1.00  0.00    -0.237 OA
ATOM     93  O   UNL A   1      44.333  37.223  26.970  1.00  0.00    -0.744 OA
ENDBRANCH  87  90
ENDBRANCH  60  83
ENDBRANCH  34  35
ENDBRANCH  27  29
ENDBRANCH  26  27
ENDBRANCH  25  26
ENDBRANCH   1  25
TORSDOF 20
ENDMDL
MODEL 3
REMARK VINA RESULT:     -12.8      1.966      7.952
REMARK SMILES CC[C@H]1CCCC[C@@H]1OCC[C@@H]1CCC[C@]1([NH2+]C)C(=O)OCCOC(=O)c1ccc(-c2c3nc(c(-c4cccc(S(=O)(=O)[O-])c4F)c4ccc([nH]4)c(-c4cccc(S(=O)(=O)[O-])c4F)c4nc(c(-c5cccc(S(=O)(=O)[O-])c5F)c5ccc2[nH]5)C=C4)C=C3)cc1
REMARK SMILES IDX 22 1 21 2 19 3 20 4 16 5 12 6 13 7 14 8 15 9 11 10 10 11
REMARK SMILES IDX 9 12 8 13 3 14 4 15 5 16 7 17 6 18 2 19 1 20 17 21 18 22
REMARK SMILES IDX 23 25 24 26 25 27 26 28 27 29 28 30 89 31 29 32 88 33 30 34
REMARK SMILES IDX 31 35 32 36 82 37 33 38 87 39 81 40 83 41 34 42 86 43 80 44
REMARK SMILES IDX 79 45 35 47 67 48 47 49 66 50 48 51 51 52 65 53 84 54 49 55
REMARK SMILES IDX 50 56 64 58 85 59 52 60 36 61 37 62 45 63 38 64 40 65 46 66
REMARK SMILES IDX 39 67 41 68 42 69 43 70 44 71 68 72 69 73 77 74 70 75 72 76
REMARK SMILES IDX 78 77 71 78 73 79 74 80 75 81 76 82 53 83 54 84 62 85 55 86
REMARK SMILES IDX 57 87 63 88 56 89 58 90 59 91 60 92 61 93
REMARK H PARENT 17 23 17 24 83 46 51 57
REMARK Flexibility Score: inf
ROOT
ATOM      1  C   UNL A   1      31.945  29.134  22.988  1.00  0.00     0.274 C 
ENDROOT
BRANCH   1   2
ATOM      2  O   UNL A   1      32.214  27.626  22.384  1.00  0.00    -0.457 OA
BRANCH   2   3
ATOM      3  C   UNL A   1      33.055  26.435  22.568  1.00  0.00     0.368 C 
ATOM      4  O   UNL A   1      33.686  25.995  21.603  1.00  0.00    -0.245 OA
BRANCH   3   5
ATOM      5  C   UNL A   1      33.092  25.565  24.202  1.00  0.00     0.197 C 
ATOM      6  C   UNL A   1      32.104  23.957  24.608  1.00  0.00     0.065 C 
ATOM      7  C   UNL A   1      31.505  24.498  26.087  1.00  0.00     0.011 C 
ATOM      8  C   UNL A   1      32.308  25.683  26.582  1.00  0.00     0.008 C 
ATOM      9  C   UNL A   1      32.623  26.529  25.373  1.00  0.00     0.081 C 
BRANCH   6  10
ATOM     10  C   UNL A   1      31.232  22.684  23.161  1.00  0.00     0.039 C 
BRANCH  10  11
ATOM     11  C   UNL A   1      31.712  21.475  22.243  1.00  0.00     0.161 C 
BRANCH  11  12
ATOM     12  O   UNL A   1      32.983  21.185  22.706  1.00  0.00    -0.378 OA
BRANCH  12  13
ATOM     13  C   UNL A   1      32.638  20.459  23.884  1.00  0.00     0.121 C 
ATOM     14  C   UNL A   1      34.129  20.594  25.170  1.00  0.00     0.018 C 
ATOM     15  C   UNL A   1      35.452  19.014  24.962  1.00  0.00     0.006 C 
ATOM     16  C   UNL A   1      34.957  17.364  24.098  1.00  0.00     0.000 C 
ATOM     17  C   UNL A   1      32.164  18.769  23.112  1.00  0.00     0.032 C 
ATOM     18  C   UNL A   1      33.326  17.320  23.135  1.00  0.00     0.003 C 
BRANCH  14  19
ATOM     19  C   UNL A   1      34.207  21.900  26.575  1.00  0.00     0.003 C 
ATOM     20  C   UNL A   1      33.613  22.165  28.008  1.00  0.00     0.004 C 
ENDBRANCH  14  19
ENDBRANCH  12  13
ENDBRANCH  11  12
ENDBRANCH  10  11
ENDBRANCH   6  10
BRANCH   5  21
ATOM     21  N   UNL A   1      34.549  25.289  24.536  1.00  0.00    -0.334 N 
ATOM     22  C   UNL A   1      35.070  24.037  23.988  1.00  0.00     0.331 C 
ATOM     23  H   UNL A   1      34.642  25.256  25.551  1.00  0.00     0.347 HD
ATOM     24  H   UNL A   1      35.091  26.041  24.110  1.00  0.00     0.347 HD
ENDBRANCH   5  21
ENDBRANCH   3   5
ENDBRANCH   2   3
ENDBRANCH   1   2
BRANCH   1  25
ATOM     25  C   UNL A   1      31.497  29.642  24.602  1.00  0.00     0.275 C 
BRANCH  25  26
ATOM     26  O   UNL A   1      32.553  29.936  25.667  1.00  0.00    -0.458 OA
BRANCH  26  27
ATOM     27  C   UNL A   1      32.718  30.889  26.649  1.00  0.00     0.338 C 
ATOM     28  O   UNL A   1      31.880  31.744  26.905  1.00  0.00    -0.246 OA
BRANCH  27  29
ATOM     29  C   UNL A   1      34.126  30.808  27.387  1.00  0.00     0.060 A 
ATOM     30  C   UNL A   1      34.680  29.601  27.834  1.00  0.00     0.016 A 
ATOM     31  C   UNL A   1      34.946  31.901  27.669  1.00  0.00     0.016 A 
ATOM     32  C   UNL A   1      35.895  29.408  28.504  1.00  0.00     0.010 A 
ATOM     33  C   UNL A   1      36.216  31.739  28.343  1.00  0.00     0.010 A 
ATOM     34  C   UNL A   1      36.714  30.481  28.766  1.00  0.00    -0.014 A 
BRANCH  34  35
ATOM     35  C   UNL A   1      37.958  30.247  29.582  1.00  0.00     0.031 A 
ATOM     36  C   UNL A   1      39.085  29.443  28.990  1.00  0.00     0.074 A 
ATOM     37  C   UNL A   1      38.190  30.832  30.784  1.00  0.00     0.049 A 
ATOM     38  N   UNL A   1      40.130  28.915  29.573  1.00  0.00    -0.248 NA
ATOM     39  C   UNL A   1      39.031  29.219  27.538  1.00  0.00     0.031 C 
ATOM     40  C   UNL A   1      37.316  31.796  31.456  1.00  0.00     0.029 A 
ATOM     41  N   UNL A   1      39.249  30.693  31.665  1.00  0.00    -0.354 N 
ATOM     42  C   UNL A   1      40.794  28.198  28.586  1.00  0.00     0.074 A 
ATOM     43  C   UNL A   1      40.065  28.411  27.352  1.00  0.00     0.031 C 
ATOM     44  C   UNL A   1      37.859  32.144  32.637  1.00  0.00     0.029 A 
ATOM     45  C   UNL A   1      39.071  31.360  32.859  1.00  0.00     0.049 A 
ATOM     46  H   UNL A   1      40.054  30.165  31.458  1.00  0.00     0.167 HD
ATOM     47  C   UNL A   1      41.896  27.417  28.698  1.00  0.00     0.034 A 
ATOM     48  C   UNL A   1      39.751  31.302  34.027  1.00  0.00     0.034 A 
ATOM     49  C   UNL A   1      42.679  27.272  29.896  1.00  0.00     0.049 A 
ATOM     50  C   UNL A   1      40.939  30.381  34.158  1.00  0.00     0.074 A 
ATOM     51  C   UNL A   1      43.799  26.482  30.100  1.00  0.00     0.029 A 
ATOM     52  N   UNL A   1      42.447  27.945  31.083  1.00  0.00    -0.354 N 
ATOM     53  N   UNL A   1      41.511  29.637  33.243  1.00  0.00    -0.248 NA
ATOM     54  C   UNL A   1      41.577  30.289  35.482  1.00  0.00     0.031 C 
ATOM     55  C   UNL A   1      44.234  26.667  31.417  1.00  0.00     0.029 A 
ATOM     56  C   UNL A   1      43.403  27.595  32.022  1.00  0.00     0.049 A 
ATOM     57  H   UNL A   1      41.711  28.580  31.238  1.00  0.00     0.167 HD
ATOM     58  C   UNL A   1      42.585  29.013  33.872  1.00  0.00     0.074 A 
ATOM     59  C   UNL A   1      42.603  29.484  35.239  1.00  0.00     0.031 C 
ATOM     60  C   UNL A   1      43.463  28.114  33.364  1.00  0.00     0.034 A 
BRANCH  47  61
ATOM     61  C   UNL A   1      42.300  26.614  27.491  1.00  0.00     0.023 A 
ATOM     62  C   UNL A   1      43.063  27.199  26.463  1.00  0.00     0.012 A 
ATOM     63  C   UNL A   1      41.954  25.250  27.411  1.00  0.00     0.148 A 
ATOM     64  C   UNL A   1      43.447  26.444  25.354  1.00  0.00     0.002 A 
ATOM     65  C   UNL A   1      42.381  24.493  26.328  1.00  0.00     0.091 A 
ATOM     66  F   UNL A   1      41.205  24.721  28.390  1.00  0.00    -0.205 F 
ATOM     67  C   UNL A   1      43.116  25.091  25.292  1.00  0.00     0.022 A 
BRANCH  65  68
ATOM     68  S   UNL A   1      42.077  22.728  26.207  1.00  0.00     0.127 S 
ATOM     69  O   UNL A   1      40.615  22.681  26.177  1.00  0.00    -0.237 OA
ATOM     70  O   UNL A   1      42.725  22.390  24.939  1.00  0.00    -0.237 OA
ATOM     71  O   UNL A   1      42.698  22.132  27.381  1.00  0.00    -0.744 OA
ENDBRANCH  65  68
ENDBRANCH  47  61
BRANCH  48  72
ATOM     72  C   UNL A   1      39.296  32.097  35.213  1.00  0.00     0.023 A 
ATOM     73  C   UNL A   1      38.406  31.527  36.147  1.00  0.00     0.012 A 
ATOM     74  C   UNL A   1      39.726  33.425  35.409  1.00  0.00     0.148 A 
ATOM     75  C   UNL A   1      37.942  32.269  37.237  1.00  0.00     0.002 A 
ATOM     76  C   UNL A   1      39.315  34.134  36.533  1.00  0.00     0.091 A 
ATOM     77  F   UNL A   1      40.533  33.973  34.489  1.00  0.00    -0.205 F 
ATOM     78  C   UNL A   1      38.409  33.565  37.439  1.00  0.00     0.022 A 
BRANCH  76  79
ATOM     79  S   UNL A   1      39.981  35.752  36.941  1.00  0.00     0.127 S 
ATOM     80  O   UNL A   1      39.275  36.063  38.181  1.00  0.00    -0.237 OA
ATOM     81  O   UNL A   1      41.406  35.460  37.098  1.00  0.00    -0.237 OA
ATOM     82  O   UNL A   1      39.667  36.603  35.801  1.00  0.00    -0.744 OA
ENDBRANCH  76  79
ENDBRANCH  48  72
BRANCH  60  83
ATOM     83  C   UNL A   1      44.565  27.614  34.264  1.00  0.00     0.023 A 
ATOM     84  C   UNL A   1      45.754  28.355  34.405  1.00  0.00     0.012 A 
ATOM     85  C   UNL A   1      44.392  26.439  35.024  1.00  0.00     0.148 A 
ATOM     86  C   UNL A   1      46.766  27.921  35.262  1.00  0.00     0.002 A 
ATOM     87  C   UNL A   1      45.384  26.037  35.912  1.00  0.00     0.091 A 
ATOM     88  F   UNL A   1      43.262  25.734  34.864  1.00  0.00    -0.205 F 
ATOM     89  C   UNL A   1      46.576  26.769  36.022  1.00  0.00     0.022 A 
BRANCH  87  90
ATOM     90  S   UNL A   1      45.184  24.616  36.995  1.00  0.00     0.127 S 
ATOM     91  O   UNL A   1      44.773  23.577  36.053  1.00  0.00    -0.237 OA
ATOM     92  O   UNL A   1      46.531  24.447  37.540  1.00  0.00    -0.237 OA
ATOM     93  O   UNL A   1      44.182  25.005  37.979  1.00  0.00    -0.744 OA
ENDBRANCH  87  90
ENDBRANCH  60  83
ENDBRANCH  34  35
ENDBRANCH  27  29
ENDBRANCH  26  27
ENDBRANCH  25  26
ENDBRANCH   1  25
TORSDOF 20
ENDMDL
