MODEL 1
REMARK VINA RESULT:     -12.4      0.000      0.000
REMARK SMILES Cc1c(Br)c(C)c2c(c1Br)O[C@H](C(F)(F)F)C(C(=O)OCCOC(=O)c1ccc(-c3c4nc(c(-c5cccc(S(=O)(=O)[O-])c5F)c5ccc([nH]5)c(-c5cccc(S(=O)(=O)[O-])c5F)c5nc(c(-c6cccc(S(=O)(=O)[O-])c6F)c6ccc3[nH]6)C=C5)C=C4)cc1)=C2
REMARK SMILES IDX 22 1 21 2 20 3 18 4 19 5 17 6 1 7 2 8 3 9 9 10 4 11 5 12
REMARK SMILES IDX 8 13 10 14 6 15 7 16 11 17 89 18 12 19 13 20 14 21 15 22
REMARK SMILES IDX 16 23 23 24 24 25 25 26 26 27 27 28 88 29 28 30 87 31 29 32
REMARK SMILES IDX 30 33 31 34 81 35 32 36 86 37 80 38 82 39 33 40 85 41 79 42
REMARK SMILES IDX 78 43 34 45 66 46 46 47 65 48 47 49 50 50 64 51 83 52 48 53
REMARK SMILES IDX 49 54 63 56 84 57 51 58 35 59 36 60 44 61 37 62 39 63 45 64
REMARK SMILES IDX 38 65 40 66 41 67 42 68 43 69 67 70 68 71 76 72 69 73 71 74
REMARK SMILES IDX 77 75 70 76 72 77 73 78 74 79 75 80 52 81 53 82 61 83 54 84
REMARK SMILES IDX 56 85 62 86 55 87 57 88 58 89 59 90 60 91
REMARK H PARENT 82 44 50 55
REMARK Flexibility Score: inf
ROOT
ATOM      1  C   UNL A   1      31.700  30.009  25.487  1.00  0.00     0.275 C 
ENDROOT
BRANCH   1   2
ATOM      2  C   UNL A   1      31.416  28.554  25.111  1.00  0.00     0.275 C 
BRANCH   2   3
ATOM      3  O   UNL A   1      32.349  27.652  25.747  1.00  0.00    -0.459 OA
BRANCH   3   4
ATOM      4  C   UNL A   1      33.313  27.150  24.943  1.00  0.00     0.338 C 
ATOM      5  O   UNL A   1      34.016  27.782  24.169  1.00  0.00    -0.246 OA
BRANCH   4   6
ATOM      6  C   UNL A   1      33.416  25.687  25.095  1.00  0.00     0.087 C 
ATOM      7  C   UNL A   1      35.126  19.390  24.787  1.00  0.00     0.047 C 
ATOM      8  C   UNL A   1      35.038  20.883  24.999  1.00  0.00    -0.019 A 
ATOM      9  C   UNL A   1      36.186  21.688  25.187  1.00  0.00     0.025 A 
ATOM     10  C   UNL A   1      33.776  21.519  24.951  1.00  0.00     0.064 A 
ATOM     11  Br  UNL A   1      37.919  20.860  25.224  1.00  0.00    -0.050 Br
ATOM     12  C   UNL A   1      36.083  23.094  25.325  1.00  0.00    -0.026 A 
ATOM     13  C   UNL A   1      33.654  22.913  25.077  1.00  0.00     0.142 A 
ATOM     14  Br  UNL A   1      32.177  20.499  24.656  1.00  0.00    -0.046 Br
ATOM     15  C   UNL A   1      37.298  23.971  25.547  1.00  0.00     0.046 C 
ATOM     16  C   UNL A   1      34.798  23.700  25.248  1.00  0.00     0.022 A 
ATOM     17  O   UNL A   1      32.386  23.440  25.050  1.00  0.00    -0.474 OA
ATOM     18  C   UNL A   1      34.626  25.151  25.288  1.00  0.00     0.027 C 
ATOM     19  C   UNL A   1      32.192  24.864  24.868  1.00  0.00     0.316 C 
BRANCH  19  20
ATOM     20  C   UNL A   1      31.586  25.119  23.478  1.00  0.00     0.430 C 
ATOM     21  F   UNL A   1      32.507  25.626  22.624  1.00  0.00    -0.167 F 
ATOM     22  F   UNL A   1      31.133  23.973  22.913  1.00  0.00    -0.167 F 
ATOM     23  F   UNL A   1      30.551  25.988  23.520  1.00  0.00    -0.167 F 
ENDBRANCH  19  20
ENDBRANCH   4   6
ENDBRANCH   3   4
ENDBRANCH   2   3
ENDBRANCH   1   2
BRANCH   1  24
ATOM     24  O   UNL A   1      32.272  30.087  26.805  1.00  0.00    -0.458 OA
BRANCH  24  25
ATOM     25  C   UNL A   1      32.883  31.258  27.092  1.00  0.00     0.338 C 
ATOM     26  O   UNL A   1      32.374  32.365  27.145  1.00  0.00    -0.246 OA
BRANCH  25  27
ATOM     27  C   UNL A   1      34.287  31.022  27.459  1.00  0.00     0.060 A 
ATOM     28  C   UNL A   1      34.691  29.714  27.684  1.00  0.00     0.016 A 
ATOM     29  C   UNL A   1      35.129  32.079  27.790  1.00  0.00     0.016 A 
ATOM     30  C   UNL A   1      35.851  29.464  28.406  1.00  0.00     0.010 A 
ATOM     31  C   UNL A   1      36.375  31.809  28.374  1.00  0.00     0.010 A 
ATOM     32  C   UNL A   1      36.727  30.501  28.754  1.00  0.00    -0.014 A 
BRANCH  32  33
ATOM     33  C   UNL A   1      37.972  30.209  29.532  1.00  0.00     0.031 A 
ATOM     34  C   UNL A   1      39.077  29.368  28.931  1.00  0.00     0.074 A 
ATOM     35  C   UNL A   1      38.138  30.715  30.774  1.00  0.00     0.049 A 
ATOM     36  N   UNL A   1      40.130  28.853  29.512  1.00  0.00    -0.248 NA
ATOM     37  C   UNL A   1      38.981  29.051  27.496  1.00  0.00     0.031 C 
ATOM     38  C   UNL A   1      37.184  31.578  31.475  1.00  0.00     0.029 A 
ATOM     39  N   UNL A   1      39.173  30.587  31.672  1.00  0.00    -0.354 N 
ATOM     40  C   UNL A   1      40.769  28.084  28.544  1.00  0.00     0.074 A 
ATOM     41  C   UNL A   1      39.991  28.207  27.331  1.00  0.00     0.031 C 
ATOM     42  C   UNL A   1      37.698  31.952  32.652  1.00  0.00     0.029 A 
ATOM     43  C   UNL A   1      38.955  31.248  32.861  1.00  0.00     0.049 A 
ATOM     44  H   UNL A   1      39.991  30.072  31.482  1.00  0.00     0.167 HD
ATOM     45  C   UNL A   1      41.904  27.351  28.652  1.00  0.00     0.034 A 
ATOM     46  C   UNL A   1      39.644  31.247  34.019  1.00  0.00     0.034 A 
ATOM     47  C   UNL A   1      42.718  27.301  29.839  1.00  0.00     0.049 A 
ATOM     48  C   UNL A   1      40.882  30.406  34.123  1.00  0.00     0.074 A 
ATOM     49  C   UNL A   1      43.897  26.605  30.040  1.00  0.00     0.029 A 
ATOM     50  N   UNL A   1      42.454  27.985  31.015  1.00  0.00    -0.354 N 
ATOM     51  N   UNL A   1      41.461  29.677  33.200  1.00  0.00    -0.248 NA
ATOM     52  C   UNL A   1      41.563  30.384  35.425  1.00  0.00     0.031 C 
ATOM     53  C   UNL A   1      44.331  26.845  31.347  1.00  0.00     0.029 A 
ATOM     54  C   UNL A   1      43.443  27.724  31.948  1.00  0.00     0.049 A 
ATOM     55  H   UNL A   1      41.676  28.571  31.166  1.00  0.00     0.167 HD
ATOM     56  C   UNL A   1      42.587  29.128  33.802  1.00  0.00     0.074 A 
ATOM     57  C   UNL A   1      42.622  29.630  35.160  1.00  0.00     0.031 C 
ATOM     58  C   UNL A   1      43.496  28.269  33.280  1.00  0.00     0.034 A 
BRANCH  45  59
ATOM     59  C   UNL A   1      42.361  26.550  27.456  1.00  0.00     0.023 A 
ATOM     60  C   UNL A   1      43.200  27.138  26.490  1.00  0.00     0.012 A 
ATOM     61  C   UNL A   1      42.043  25.179  27.347  1.00  0.00     0.148 A 
ATOM     62  C   UNL A   1      43.693  26.385  25.422  1.00  0.00     0.002 A 
ATOM     63  C   UNL A   1      42.579  24.423  26.311  1.00  0.00     0.091 A 
ATOM     64  F   UNL A   1      41.230  24.637  28.267  1.00  0.00    -0.205 F 
ATOM     65  C   UNL A   1      43.395  25.027  25.341  1.00  0.00     0.022 A 
BRANCH  63  66
ATOM     66  S   UNL A   1      42.333  22.648  26.170  1.00  0.00     0.127 S 
ATOM     67  O   UNL A   1      43.037  22.157  27.355  1.00  0.00    -0.237 OA
ATOM     68  O   UNL A   1      40.876  22.534  26.236  1.00  0.00    -0.237 OA
ATOM     69  O   UNL A   1      42.920  22.259  24.895  1.00  0.00    -0.744 OA
ENDBRANCH  63  66
ENDBRANCH  45  59
BRANCH  46  70
ATOM     70  C   UNL A   1      39.162  32.071  35.167  1.00  0.00     0.023 A 
ATOM     71  C   UNL A   1      38.284  31.499  36.107  1.00  0.00     0.012 A 
ATOM     72  C   UNL A   1      39.625  33.386  35.374  1.00  0.00     0.148 A 
ATOM     73  C   UNL A   1      37.872  32.224  37.228  1.00  0.00     0.002 A 
ATOM     74  C   UNL A   1      39.272  34.074  36.529  1.00  0.00     0.091 A 
ATOM     75  F   UNL A   1      40.441  33.924  34.456  1.00  0.00    -0.205 F 
ATOM     76  C   UNL A   1      38.380  33.502  37.448  1.00  0.00     0.022 A 
BRANCH  74  77
ATOM     77  S   UNL A   1      40.011  35.650  36.976  1.00  0.00     0.127 S 
ATOM     78  O   UNL A   1      39.611  36.496  35.854  1.00  0.00    -0.237 OA
ATOM     79  O   UNL A   1      39.342  35.946  38.243  1.00  0.00    -0.237 OA
ATOM     80  O   UNL A   1      41.440  35.395  37.096  1.00  0.00    -0.744 OA
ENDBRANCH  74  77
ENDBRANCH  46  70
BRANCH  58  81
ATOM     81  C   UNL A   1      44.636  27.834  34.162  1.00  0.00     0.023 A 
ATOM     82  C   UNL A   1      45.804  28.619  34.236  1.00  0.00     0.012 A 
ATOM     83  C   UNL A   1      44.508  26.703  34.992  1.00  0.00     0.148 A 
ATOM     84  C   UNL A   1      46.838  28.269  35.103  1.00  0.00     0.002 A 
ATOM     85  C   UNL A   1      45.519  26.392  35.893  1.00  0.00     0.091 A 
ATOM     86  F   UNL A   1      43.396  25.960  34.893  1.00  0.00    -0.205 F 
ATOM     87  C   UNL A   1      46.690  27.165  35.941  1.00  0.00     0.022 A 
BRANCH  85  88
ATOM     88  S   UNL A   1      45.372  25.057  37.087  1.00  0.00     0.127 S 
ATOM     89  O   UNL A   1      44.155  25.434  37.806  1.00  0.00    -0.237 OA
ATOM     90  O   UNL A   1      45.232  23.885  36.223  1.00  0.00    -0.237 OA
ATOM     91  O   UNL A   1      46.596  25.086  37.877  1.00  0.00    -0.744 OA
ENDBRANCH  85  88
ENDBRANCH  58  81
ENDBRANCH  32  33
ENDBRANCH  25  27
ENDBRANCH  24  25
ENDBRANCH   1  24
TORSDOF 15
ENDMDL
MODEL 2
REMARK VINA RESULT:     -12.3      4.818      9.903
REMARK SMILES Cc1c(Br)c(C)c2c(c1Br)O[C@H](C(F)(F)F)C(C(=O)OCCOC(=O)c1ccc(-c3c4nc(c(-c5cccc(S(=O)(=O)[O-])c5F)c5ccc([nH]5)c(-c5cccc(S(=O)(=O)[O-])c5F)c5nc(c(-c6cccc(S(=O)(=O)[O-])c6F)c6ccc3[nH]6)C=C5)C=C4)cc1)=C2
REMARK SMILES IDX 22 1 21 2 20 3 18 4 19 5 17 6 1 7 2 8 3 9 9 10 4 11 5 12
REMARK SMILES IDX 8 13 10 14 6 15 7 16 11 17 89 18 12 19 13 20 14 21 15 22
REMARK SMILES IDX 16 23 23 24 24 25 25 26 26 27 27 28 88 29 28 30 87 31 29 32
REMARK SMILES IDX 30 33 31 34 81 35 32 36 86 37 80 38 82 39 33 40 85 41 79 42
REMARK SMILES IDX 78 43 34 45 66 46 46 47 65 48 47 49 50 50 64 51 83 52 48 53
REMARK SMILES IDX 49 54 63 56 84 57 51 58 35 59 36 60 44 61 37 62 39 63 45 64
REMARK SMILES IDX 38 65 40 66 41 67 42 68 43 69 67 70 68 71 76 72 69 73 71 74
REMARK SMILES IDX 77 75 70 76 72 77 73 78 74 79 75 80 52 81 53 82 61 83 54 84
REMARK SMILES IDX 56 85 62 86 55 87 57 88 58 89 59 90 60 91
REMARK H PARENT 82 44 50 55
REMARK Flexibility Score: inf
ROOT
ATOM      1  C   UNL A   1      36.376  20.665  24.909  1.00  0.00     0.275 C 
ENDROOT
BRANCH   1   2
ATOM      2  C   UNL A   1      35.008  21.349  24.895  1.00  0.00     0.275 C 
BRANCH   2   3
ATOM      3  O   UNL A   1      35.136  22.784  24.777  1.00  0.00    -0.459 OA
BRANCH   3   4
ATOM      4  C   UNL A   1      34.545  23.502  25.758  1.00  0.00     0.338 C 
ATOM      5  O   UNL A   1      34.556  23.248  26.953  1.00  0.00    -0.246 OA
BRANCH   4   6
ATOM      6  C   UNL A   1      33.840  24.672  25.202  1.00  0.00     0.087 C 
ATOM      7  C   UNL A   1      30.414  30.157  24.283  1.00  0.00     0.047 C 
ATOM      8  C   UNL A   1      31.420  29.095  24.660  1.00  0.00    -0.019 A 
ATOM      9  C   UNL A   1      32.347  29.274  25.714  1.00  0.00     0.025 A 
ATOM     10  C   UNL A   1      31.407  27.853  23.986  1.00  0.00     0.064 A 
ATOM     11  Br  UNL A   1      32.370  30.938  26.674  1.00  0.00    -0.050 Br
ATOM     12  C   UNL A   1      33.242  28.241  26.089  1.00  0.00    -0.026 A 
ATOM     13  C   UNL A   1      32.279  26.813  24.348  1.00  0.00     0.142 A 
ATOM     14  Br  UNL A   1      30.148  27.520  22.575  1.00  0.00    -0.046 Br
ATOM     15  C   UNL A   1      34.255  28.420  27.201  1.00  0.00     0.046 C 
ATOM     16  C   UNL A   1      33.182  26.997  25.402  1.00  0.00     0.022 A 
ATOM     17  O   UNL A   1      32.217  25.653  23.616  1.00  0.00    -0.474 OA
ATOM     18  C   UNL A   1      34.009  25.858  25.796  1.00  0.00     0.027 C 
ATOM     19  C   UNL A   1      32.851  24.447  24.107  1.00  0.00     0.316 C 
BRANCH  19  20
ATOM     20  C   UNL A   1      31.769  23.436  24.518  1.00  0.00     0.430 C 
ATOM     21  F   UNL A   1      32.114  22.174  24.165  1.00  0.00    -0.167 F 
ATOM     22  F   UNL A   1      31.585  23.419  25.861  1.00  0.00    -0.167 F 
ATOM     23  F   UNL A   1      30.572  23.703  23.948  1.00  0.00    -0.167 F 
ENDBRANCH  19  20
ENDBRANCH   4   6
ENDBRANCH   3   4
ENDBRANCH   2   3
ENDBRANCH   1   2
BRANCH   1  24
ATOM     24  O   UNL A   1      37.429  21.643  24.969  1.00  0.00    -0.458 OA
BRANCH  24  25
ATOM     25  C   UNL A   1      38.524  21.259  25.662  1.00  0.00     0.338 C 
ATOM     26  O   UNL A   1      39.078  20.173  25.628  1.00  0.00    -0.246 OA
BRANCH  25  27
ATOM     27  C   UNL A   1      39.067  22.393  26.423  1.00  0.00     0.060 A 
ATOM     28  C   UNL A   1      38.545  23.654  26.177  1.00  0.00     0.016 A 
ATOM     29  C   UNL A   1      40.214  22.253  27.199  1.00  0.00     0.016 A 
ATOM     30  C   UNL A   1      39.264  24.784  26.545  1.00  0.00     0.010 A 
ATOM     31  C   UNL A   1      40.848  23.397  27.705  1.00  0.00     0.010 A 
ATOM     32  C   UNL A   1      40.422  24.685  27.329  1.00  0.00    -0.014 A 
BRANCH  32  33
ATOM     33  C   UNL A   1      41.181  25.915  27.715  1.00  0.00     0.031 A 
ATOM     34  C   UNL A   1      40.545  26.970  28.592  1.00  0.00     0.074 A 
ATOM     35  C   UNL A   1      42.458  26.088  27.306  1.00  0.00     0.049 A 
ATOM     36  N   UNL A   1      40.968  28.177  28.870  1.00  0.00    -0.248 NA
ATOM     37  C   UNL A   1      39.259  26.636  29.228  1.00  0.00     0.031 C 
ATOM     38  C   UNL A   1      43.225  25.143  26.492  1.00  0.00     0.029 A 
ATOM     39  N   UNL A   1      43.345  27.117  27.523  1.00  0.00    -0.354 N 
ATOM     40  C   UNL A   1      39.968  28.772  29.634  1.00  0.00     0.074 A 
ATOM     41  C   UNL A   1      38.918  27.790  29.786  1.00  0.00     0.031 C 
ATOM     42  C   UNL A   1      44.474  25.597  26.335  1.00  0.00     0.029 A 
ATOM     43  C   UNL A   1      44.565  26.930  26.911  1.00  0.00     0.049 A 
ATOM     44  H   UNL A   1      43.128  27.911  28.064  1.00  0.00     0.167 HD
ATOM     45  C   UNL A   1      39.932  30.018  30.167  1.00  0.00     0.034 A 
ATOM     46  C   UNL A   1      45.623  27.751  26.765  1.00  0.00     0.034 A 
ATOM     47  C   UNL A   1      41.018  30.960  30.081  1.00  0.00     0.049 A 
ATOM     48  C   UNL A   1      45.549  29.135  27.340  1.00  0.00     0.074 A 
ATOM     49  C   UNL A   1      41.086  32.238  30.607  1.00  0.00     0.029 A 
ATOM     50  N   UNL A   1      42.229  30.724  29.450  1.00  0.00    -0.354 N 
ATOM     51  N   UNL A   1      44.590  29.682  28.047  1.00  0.00    -0.248 NA
ATOM     52  C   UNL A   1      46.698  30.018  27.100  1.00  0.00     0.031 C 
ATOM     53  C   UNL A   1      42.327  32.786  30.269  1.00  0.00     0.029 A 
ATOM     54  C   UNL A   1      43.049  31.834  29.567  1.00  0.00     0.049 A 
ATOM     55  H   UNL A   1      42.471  29.889  28.985  1.00  0.00     0.167 HD
ATOM     56  C   UNL A   1      45.028  30.963  28.356  1.00  0.00     0.074 A 
ATOM     57  C   UNL A   1      46.351  31.102  27.782  1.00  0.00     0.031 C 
ATOM     58  C   UNL A   1      44.384  31.942  29.035  1.00  0.00     0.034 A 
BRANCH  45  59
ATOM     59  C   UNL A   1      38.691  30.447  30.913  1.00  0.00     0.023 A 
ATOM     60  C   UNL A   1      38.615  30.286  32.310  1.00  0.00     0.012 A 
ATOM     61  C   UNL A   1      37.641  31.107  30.239  1.00  0.00     0.148 A 
ATOM     62  C   UNL A   1      37.507  30.751  33.021  1.00  0.00     0.002 A 
ATOM     63  C   UNL A   1      36.565  31.613  30.959  1.00  0.00     0.091 A 
ATOM     64  F   UNL A   1      37.721  31.238  28.906  1.00  0.00    -0.205 F 
ATOM     65  C   UNL A   1      36.490  31.425  32.348  1.00  0.00     0.022 A 
BRANCH  63  66
ATOM     66  S   UNL A   1      35.252  32.579  30.202  1.00  0.00     0.127 S 
ATOM     67  O   UNL A   1      35.988  33.746  29.713  1.00  0.00    -0.237 OA
ATOM     68  O   UNL A   1      34.774  31.678  29.153  1.00  0.00    -0.237 OA
ATOM     69  O   UNL A   1      34.289  32.851  31.259  1.00  0.00    -0.744 OA
ENDBRANCH  63  66
ENDBRANCH  45  59
BRANCH  46  70
ATOM     70  C   UNL A   1      46.835  27.275  26.036  1.00  0.00     0.023 A 
ATOM     71  C   UNL A   1      46.988  27.587  24.672  1.00  0.00     0.012 A 
ATOM     72  C   UNL A   1      47.868  26.583  26.699  1.00  0.00     0.148 A 
ATOM     73  C   UNL A   1      48.144  27.214  23.982  1.00  0.00     0.002 A 
ATOM     74  C   UNL A   1      49.046  26.280  26.027  1.00  0.00     0.091 A 
ATOM     75  F   UNL A   1      47.696  26.271  27.992  1.00  0.00    -0.205 F 
ATOM     76  C   UNL A   1      49.179  26.579  24.663  1.00  0.00     0.022 A 
BRANCH  74  77
ATOM     77  S   UNL A   1      50.492  25.619  26.866  1.00  0.00     0.127 S 
ATOM     78  O   UNL A   1      50.844  26.717  27.763  1.00  0.00    -0.237 OA
ATOM     79  O   UNL A   1      49.940  24.436  27.526  1.00  0.00    -0.237 OA
ATOM     80  O   UNL A   1      51.457  25.326  25.816  1.00  0.00    -0.744 OA
ENDBRANCH  74  77
ENDBRANCH  46  70
BRANCH  58  81
ATOM     81  C   UNL A   1      45.104  33.250  29.234  1.00  0.00     0.023 A 
ATOM     82  C   UNL A   1      45.943  33.424  30.352  1.00  0.00     0.012 A 
ATOM     83  C   UNL A   1      45.026  34.265  28.261  1.00  0.00     0.148 A 
ATOM     84  C   UNL A   1      46.673  34.600  30.512  1.00  0.00     0.002 A 
ATOM     85  C   UNL A   1      45.799  35.411  28.399  1.00  0.00     0.091 A 
ATOM     86  F   UNL A   1      44.208  34.086  27.214  1.00  0.00    -0.205 F 
ATOM     87  C   UNL A   1      46.613  35.586  29.529  1.00  0.00     0.022 A 
BRANCH  85  88
ATOM     88  S   UNL A   1      45.873  36.685  27.134  1.00  0.00     0.127 S 
ATOM     89  O   UNL A   1      46.341  35.926  25.975  1.00  0.00    -0.237 OA
ATOM     90  O   UNL A   1      44.478  37.120  27.055  1.00  0.00    -0.237 OA
ATOM     91  O   UNL A   1      46.797  37.695  27.632  1.00  0.00    -0.744 OA
ENDBRANCH  85  88
ENDBRANCH  58  81
ENDBRANCH  32  33
ENDBRANCH  25  27
ENDBRANCH  24  25
ENDBRANCH   1  24
TORSDOF 15
ENDMDL
MODEL 3
REMARK VINA RESULT:     -11.4      0.582      7.788
REMARK SMILES Cc1c(Br)c(C)c2c(c1Br)O[C@H](C(F)(F)F)C(C(=O)OCCOC(=O)c1ccc(-c3c4nc(c(-c5cccc(S(=O)(=O)[O-])c5F)c5ccc([nH]5)c(-c5cccc(S(=O)(=O)[O-])c5F)c5nc(c(-c6cccc(S(=O)(=O)[O-])c6F)c6ccc3[nH]6)C=C5)C=C4)cc1)=C2
REMARK SMILES IDX 22 1 21 2 20 3 18 4 19 5 17 6 1 7 2 8 3 9 9 10 4 11 5 12
REMARK SMILES IDX 8 13 10 14 6 15 7 16 11 17 89 18 12 19 13 20 14 21 15 22
REMARK SMILES IDX 16 23 23 24 24 25 25 26 26 27 27 28 88 29 28 30 87 31 29 32
REMARK SMILES IDX 30 33 31 34 81 35 32 36 86 37 80 38 82 39 33 40 85 41 79 42
REMARK SMILES IDX 78 43 34 45 66 46 46 47 65 48 47 49 50 50 64 51 83 52 48 53
REMARK SMILES IDX 49 54 63 56 84 57 51 58 35 59 36 60 44 61 37 62 39 63 45 64
REMARK SMILES IDX 38 65 40 66 41 67 42 68 43 69 67 70 68 71 76 72 69 73 71 74
REMARK SMILES IDX 77 75 70 76 72 77 73 78 74 79 75 80 52 81 53 82 61 83 54 84
REMARK SMILES IDX 56 85 62 86 55 87 57 88 58 89 59 90 60 91
REMARK H PARENT 82 44 50 55
REMARK Flexibility Score: inf
ROOT
ATOM      1  C   UNL A   1      31.775  30.224  26.336  1.00  0.00     0.275 C 
ENDROOT
BRANCH   1   2
ATOM      2  C   UNL A   1      31.650  28.923  25.541  1.00  0.00     0.275 C 
BRANCH   2   3
ATOM      3  O   UNL A   1      32.592  27.929  26.004  1.00  0.00    -0.459 OA
BRANCH   3   4
ATOM      4  C   UNL A   1      33.394  27.401  25.051  1.00  0.00     0.338 C 
ATOM      5  O   UNL A   1      34.000  28.017  24.188  1.00  0.00    -0.246 OA
BRANCH   4   6
ATOM      6  C   UNL A   1      33.447  25.932  25.164  1.00  0.00     0.087 C 
ATOM      7  C   UNL A   1      34.993  19.598  24.753  1.00  0.00     0.047 C 
ATOM      8  C   UNL A   1      34.935  21.086  25.006  1.00  0.00    -0.019 A 
ATOM      9  C   UNL A   1      36.094  21.850  25.282  1.00  0.00     0.025 A 
ATOM     10  C   UNL A   1      33.697  21.761  24.909  1.00  0.00     0.064 A 
ATOM     11  Br  UNL A   1      37.797  20.970  25.389  1.00  0.00    -0.050 Br
ATOM     12  C   UNL A   1      36.022  23.255  25.459  1.00  0.00    -0.026 A 
ATOM     13  C   UNL A   1      33.607  23.154  25.071  1.00  0.00     0.142 A 
ATOM     14  Br  UNL A   1      32.088  20.798  24.494  1.00  0.00    -0.046 Br
ATOM     15  C   UNL A   1      37.248  24.087  25.774  1.00  0.00     0.046 C 
ATOM     16  C   UNL A   1      34.761  23.901  25.330  1.00  0.00     0.022 A 
ATOM     17  O   UNL A   1      32.358  23.719  24.992  1.00  0.00    -0.474 OA
ATOM     18  C   UNL A   1      34.629  25.354  25.406  1.00  0.00     0.027 C 
ATOM     19  C   UNL A   1      32.215  25.153  24.843  1.00  0.00     0.316 C 
BRANCH  19  20
ATOM     20  C   UNL A   1      31.695  25.467  23.431  1.00  0.00     0.430 C 
ATOM     21  F   UNL A   1      30.947  26.596  23.422  1.00  0.00    -0.167 F 
ATOM     22  F   UNL A   1      32.712  25.678  22.560  1.00  0.00    -0.167 F 
ATOM     23  F   UNL A   1      30.931  24.471  22.930  1.00  0.00    -0.167 F 
ENDBRANCH  19  20
ENDBRANCH   4   6
ENDBRANCH   3   4
ENDBRANCH   2   3
ENDBRANCH   1   2
BRANCH   1  24
ATOM     24  O   UNL A   1      33.045  30.850  26.082  1.00  0.00    -0.458 OA
BRANCH  24  25
ATOM     25  C   UNL A   1      33.497  31.647  27.076  1.00  0.00     0.338 C 
ATOM     26  O   UNL A   1      32.891  32.545  27.638  1.00  0.00    -0.246 OA
BRANCH  25  27
ATOM     27  C   UNL A   1      34.835  31.218  27.503  1.00  0.00     0.060 A 
ATOM     28  C   UNL A   1      35.065  29.859  27.664  1.00  0.00     0.016 A 
ATOM     29  C   UNL A   1      35.777  32.141  27.950  1.00  0.00     0.016 A 
ATOM     30  C   UNL A   1      36.139  29.425  28.430  1.00  0.00     0.010 A 
ATOM     31  C   UNL A   1      36.941  31.685  28.583  1.00  0.00     0.010 A 
ATOM     32  C   UNL A   1      37.109  30.323  28.895  1.00  0.00    -0.014 A 
BRANCH  32  33
ATOM     33  C   UNL A   1      38.259  29.833  29.719  1.00  0.00     0.031 A 
ATOM     34  C   UNL A   1      38.427  30.286  31.152  1.00  0.00     0.074 A 
ATOM     35  C   UNL A   1      39.149  28.958  29.201  1.00  0.00     0.049 A 
ATOM     36  N   UNL A   1      39.450  30.126  31.953  1.00  0.00    -0.248 NA
ATOM     37  C   UNL A   1      37.310  31.027  31.763  1.00  0.00     0.031 C 
ATOM     38  C   UNL A   1      39.100  28.396  27.849  1.00  0.00     0.029 A 
ATOM     39  N   UNL A   1      40.270  28.378  29.749  1.00  0.00    -0.354 N 
ATOM     40  C   UNL A   1      39.139  30.817  33.121  1.00  0.00     0.074 A 
ATOM     41  C   UNL A   1      37.825  31.390  32.930  1.00  0.00     0.031 C 
ATOM     42  C   UNL A   1      40.092  27.511  27.696  1.00  0.00     0.029 A 
ATOM     43  C   UNL A   1      40.937  27.543  28.880  1.00  0.00     0.049 A 
ATOM     44  H   UNL A   1      40.566  28.544  30.673  1.00  0.00     0.167 HD
ATOM     45  C   UNL A   1      39.875  30.953  34.251  1.00  0.00     0.034 A 
ATOM     46  C   UNL A   1      42.126  26.917  28.984  1.00  0.00     0.034 A 
ATOM     47  C   UNL A   1      41.145  30.309  34.464  1.00  0.00     0.049 A 
ATOM     48  C   UNL A   1      42.935  27.104  30.233  1.00  0.00     0.074 A 
ATOM     49  C   UNL A   1      41.959  30.367  35.582  1.00  0.00     0.029 A 
ATOM     50  N   UNL A   1      41.779  29.476  33.554  1.00  0.00    -0.354 N 
ATOM     51  N   UNL A   1      42.629  27.771  31.320  1.00  0.00    -0.248 NA
ATOM     52  C   UNL A   1      44.253  26.457  30.275  1.00  0.00     0.031 C 
ATOM     53  C   UNL A   1      43.096  29.593  35.339  1.00  0.00     0.029 A 
ATOM     54  C   UNL A   1      42.974  29.019  34.083  1.00  0.00     0.049 A 
ATOM     55  H   UNL A   1      41.430  29.244  32.663  1.00  0.00     0.167 HD
ATOM     56  C   UNL A   1      43.705  27.605  32.183  1.00  0.00     0.074 A 
ATOM     57  C   UNL A   1      44.659  26.752  31.503  1.00  0.00     0.031 C 
ATOM     58  C   UNL A   1      43.892  28.130  33.418  1.00  0.00     0.034 A 
BRANCH  45  59
ATOM     59  C   UNL A   1      39.332  31.814  35.366  1.00  0.00     0.023 A 
ATOM     60  C   UNL A   1      38.476  31.256  36.337  1.00  0.00     0.012 A 
ATOM     61  C   UNL A   1      39.755  33.153  35.511  1.00  0.00     0.148 A 
ATOM     62  C   UNL A   1      38.031  32.021  37.416  1.00  0.00     0.002 A 
ATOM     63  C   UNL A   1      39.349  33.892  36.615  1.00  0.00     0.091 A 
ATOM     64  F   UNL A   1      40.556  33.673  34.569  1.00  0.00    -0.205 F 
ATOM     65  C   UNL A   1      38.477  33.332  37.563  1.00  0.00     0.022 A 
BRANCH  63  66
ATOM     66  S   UNL A   1      39.943  35.556  36.946  1.00  0.00     0.127 S 
ATOM     67  O   UNL A   1      39.463  36.281  35.769  1.00  0.00    -0.237 OA
ATOM     68  O   UNL A   1      39.248  35.888  38.190  1.00  0.00    -0.237 OA
ATOM     69  O   UNL A   1      41.391  35.453  37.063  1.00  0.00    -0.744 OA
ENDBRANCH  63  66
ENDBRANCH  45  59
BRANCH  46  70
ATOM     70  C   UNL A   1      42.612  26.060  27.862  1.00  0.00     0.023 A 
ATOM     71  C   UNL A   1      43.626  26.544  27.013  1.00  0.00     0.012 A 
ATOM     72  C   UNL A   1      42.133  24.748  27.677  1.00  0.00     0.148 A 
ATOM     73  C   UNL A   1      44.148  25.738  25.998  1.00  0.00     0.002 A 
ATOM     74  C   UNL A   1      42.709  23.927  26.715  1.00  0.00     0.091 A 
ATOM     75  F   UNL A   1      41.150  24.311  28.479  1.00  0.00    -0.205 F 
ATOM     76  C   UNL A   1      43.704  24.426  25.862  1.00  0.00     0.022 A 
BRANCH  74  77
ATOM     77  S   UNL A   1      42.320  22.177  26.585  1.00  0.00     0.127 S 
ATOM     78  O   UNL A   1      42.734  21.680  27.894  1.00  0.00    -0.237 OA
ATOM     79  O   UNL A   1      40.873  22.207  26.365  1.00  0.00    -0.237 OA
ATOM     80  O   UNL A   1      43.089  21.685  25.450  1.00  0.00    -0.744 OA
ENDBRANCH  74  77
ENDBRANCH  46  70
BRANCH  58  81
ATOM     81  C   UNL A   1      45.163  27.776  34.145  1.00  0.00     0.023 A 
ATOM     82  C   UNL A   1      46.268  28.648  34.090  1.00  0.00     0.012 A 
ATOM     83  C   UNL A   1      45.224  26.630  34.963  1.00  0.00     0.148 A 
ATOM     84  C   UNL A   1      47.424  28.371  34.817  1.00  0.00     0.002 A 
ATOM     85  C   UNL A   1      46.359  26.390  35.727  1.00  0.00     0.091 A 
ATOM     86  F   UNL A   1      44.168  25.804  34.986  1.00  0.00    -0.205 F 
ATOM     87  C   UNL A   1      47.465  27.251  35.646  1.00  0.00     0.022 A 
BRANCH  85  88
ATOM     88  S   UNL A   1      46.462  25.037  36.904  1.00  0.00     0.127 S 
ATOM     89  O   UNL A   1      45.225  25.210  37.665  1.00  0.00    -0.237 OA
ATOM     90  O   UNL A   1      46.480  23.866  36.027  1.00  0.00    -0.237 OA
ATOM     91  O   UNL A   1      47.691  25.251  37.658  1.00  0.00    -0.744 OA
ENDBRANCH  85  88
ENDBRANCH  58  81
ENDBRANCH  32  33
ENDBRANCH  25  27
ENDBRANCH  24  25
ENDBRANCH   1  24
TORSDOF 15
ENDMDL
