MODEL 1
REMARK VINA RESULT:     -11.3      0.000      0.000
REMARK SMILES CCOc1ccc(-c2ccc(N3CCC[C@H](C(=O)OCCOC(=O)c4ccc(-c5c6nc(c(-c7cccc(S(=O)(=O)[O-])c7F)c7ccc([nH]7)c(-c7cccc(S(=O)(=O)[O-])c7F)c7nc(c(-c8cccc(S(=O)(=O)[O-])c8F)c8ccc5[nH]8)C=C7)C=C6)cc4)C3)nn2)cc1
REMARK SMILES IDX 20 1 19 2 17 3 18 4 16 5 12 6 13 7 88 8 14 9 15 10 11 11
REMARK SMILES IDX 8 12 9 13 90 14 10 15 89 16 7 17 4 18 5 19 92 20 6 21 91 22
REMARK SMILES IDX 3 23 2 24 1 25 21 26 22 27 23 28 24 29 25 30 26 31 87 32
REMARK SMILES IDX 27 33 86 34 28 35 29 36 30 37 80 38 31 39 85 40 79 41 81 42
REMARK SMILES IDX 32 43 84 44 78 45 77 46 33 48 65 49 45 50 64 51 46 52 49 53
REMARK SMILES IDX 63 54 82 55 47 56 48 57 62 59 83 60 50 61 34 62 35 63 43 64
REMARK SMILES IDX 36 65 38 66 44 67 37 68 39 69 40 70 41 71 42 72 66 73 67 74
REMARK SMILES IDX 75 75 68 76 70 77 76 78 69 79 71 80 72 81 73 82 74 83 51 84
REMARK SMILES IDX 52 85 60 86 53 87 55 88 61 89 54 90 56 91 57 92 58 93 59 94
REMARK H PARENT 81 47 49 58
REMARK Flexibility Score: inf
ROOT
ATOM      1  C   UNL A   1      31.789  28.681  27.084  1.00  0.00     0.274 C 
ENDROOT
BRANCH   1   2
ATOM      2  O   UNL A   1      31.887  27.822  25.934  1.00  0.00    -0.462 OA
BRANCH   2   3
ATOM      3  C   UNL A   1      31.235  26.635  25.973  1.00  0.00     0.310 C 
ATOM      4  O   UNL A   1      31.363  25.792  26.853  1.00  0.00    -0.252 OA
BRANCH   3   5
ATOM      5  C   UNL A   1      30.289  26.442  24.796  1.00  0.00     0.118 C 
ATOM      6  N   UNL A   1      31.689  24.989  23.396  1.00  0.00    -0.354 N 
ATOM      7  C   UNL A   1      31.796  25.956  22.308  1.00  0.00     0.118 C 
ATOM      8  C   UNL A   1      30.476  25.045  24.210  1.00  0.00     0.133 C 
ATOM      9  C   UNL A   1      31.589  27.384  22.806  1.00  0.00     0.022 C 
ATOM     10  C   UNL A   1      30.351  27.511  23.698  1.00  0.00     0.019 C 
BRANCH   6  11
ATOM     11  C   UNL A   1      32.847  24.485  23.977  1.00  0.00     0.151 A 
ATOM     12  C   UNL A   1      35.194  23.465  25.015  1.00  0.00     0.093 A 
ATOM     13  C   UNL A   1      34.213  22.591  24.580  1.00  0.00     0.035 A 
ATOM     14  N   UNL A   1      35.003  24.797  24.959  1.00  0.00    -0.148 NA
ATOM     15  C   UNL A   1      33.035  23.110  24.058  1.00  0.00     0.051 A 
ATOM     16  N   UNL A   1      33.825  25.303  24.424  1.00  0.00    -0.132 NA
BRANCH  12  17
ATOM     17  C   UNL A   1      36.518  22.982  25.396  1.00  0.00     0.002 A 
ATOM     18  C   UNL A   1      39.128  22.190  26.061  1.00  0.00     0.119 A 
ATOM     19  C   UNL A   1      38.294  21.318  25.362  1.00  0.00     0.047 A 
ATOM     20  C   UNL A   1      38.683  23.460  26.407  1.00  0.00     0.047 A 
ATOM     21  C   UNL A   1      36.988  21.709  25.039  1.00  0.00     0.014 A 
ATOM     22  C   UNL A   1      37.383  23.845  26.092  1.00  0.00     0.014 A 
BRANCH  18  23
ATOM     23  O   UNL A   1      40.421  21.819  26.302  1.00  0.00    -0.494 OA
BRANCH  23  24
ATOM     24  C   UNL A   1      40.524  20.484  26.812  1.00  0.00     0.226 C 
ATOM     25  C   UNL A   1      41.607  19.687  26.101  1.00  0.00     0.049 C 
ENDBRANCH  23  24
ENDBRANCH  18  23
ENDBRANCH  12  17
ENDBRANCH   6  11
ENDBRANCH   3   5
ENDBRANCH   2   3
ENDBRANCH   1   2
BRANCH   1  26
ATOM     26  C   UNL A   1      31.949  30.141  26.659  1.00  0.00     0.275 C 
BRANCH  26  27
ATOM     27  O   UNL A   1      33.341  30.472  26.498  1.00  0.00    -0.458 OA
BRANCH  27  28
ATOM     28  C   UNL A   1      33.775  31.503  27.261  1.00  0.00     0.338 C 
ATOM     29  O   UNL A   1      33.197  32.546  27.506  1.00  0.00    -0.246 OA
BRANCH  28  30
ATOM     30  C   UNL A   1      35.037  31.119  27.911  1.00  0.00     0.060 A 
ATOM     31  C   UNL A   1      35.126  29.835  28.450  1.00  0.00     0.016 A 
ATOM     32  C   UNL A   1      36.083  32.027  28.059  1.00  0.00     0.016 A 
ATOM     33  C   UNL A   1      36.260  29.448  29.154  1.00  0.00     0.010 A 
ATOM     34  C   UNL A   1      37.225  31.638  28.764  1.00  0.00     0.010 A 
ATOM     35  C   UNL A   1      37.313  30.352  29.330  1.00  0.00    -0.014 A 
BRANCH  35  36
ATOM     36  C   UNL A   1      38.479  29.964  30.157  1.00  0.00     0.031 A 
ATOM     37  C   UNL A   1      38.657  30.570  31.520  1.00  0.00     0.074 A 
ATOM     38  C   UNL A   1      39.365  29.067  29.688  1.00  0.00     0.049 A 
ATOM     39  N   UNL A   1      39.634  30.406  32.373  1.00  0.00    -0.248 NA
ATOM     40  C   UNL A   1      37.597  31.478  31.985  1.00  0.00     0.031 C 
ATOM     41  C   UNL A   1      39.284  28.403  28.386  1.00  0.00     0.029 A 
ATOM     42  N   UNL A   1      40.515  28.570  30.246  1.00  0.00    -0.354 N 
ATOM     43  C   UNL A   1      39.330  31.221  33.456  1.00  0.00     0.074 A 
ATOM     44  C   UNL A   1      38.077  31.879  33.154  1.00  0.00     0.031 C 
ATOM     45  C   UNL A   1      40.348  27.597  28.240  1.00  0.00     0.029 A 
ATOM     46  C   UNL A   1      41.201  27.713  29.419  1.00  0.00     0.049 A 
ATOM     47  H   UNL A   1      40.820  28.806  31.153  1.00  0.00     0.167 HD
ATOM     48  C   UNL A   1      40.026  31.395  34.605  1.00  0.00     0.034 A 
ATOM     49  C   UNL A   1      42.393  27.107  29.587  1.00  0.00     0.034 A 
ATOM     50  C   UNL A   1      41.251  30.709  34.917  1.00  0.00     0.049 A 
ATOM     51  C   UNL A   1      43.147  27.323  30.872  1.00  0.00     0.074 A 
ATOM     52  C   UNL A   1      42.015  30.792  36.068  1.00  0.00     0.029 A 
ATOM     53  N   UNL A   1      41.891  29.812  34.075  1.00  0.00    -0.354 N 
ATOM     54  N   UNL A   1      42.801  28.025  31.924  1.00  0.00    -0.248 NA
ATOM     55  C   UNL A   1      44.443  26.641  31.005  1.00  0.00     0.031 C 
ATOM     56  C   UNL A   1      43.123  29.951  35.918  1.00  0.00     0.029 A 
ATOM     57  C   UNL A   1      43.042  29.335  34.680  1.00  0.00     0.049 A 
ATOM     58  H   UNL A   1      41.574  29.553  33.181  1.00  0.00     0.167 HD
ATOM     59  C   UNL A   1      43.820  27.849  32.851  1.00  0.00     0.074 A 
ATOM     60  C   UNL A   1      44.785  26.952  32.247  1.00  0.00     0.031 C 
ATOM     61  C   UNL A   1      43.959  28.397  34.085  1.00  0.00     0.034 A 
BRANCH  48  62
ATOM     62  C   UNL A   1      39.458  32.339  35.629  1.00  0.00     0.023 A 
ATOM     63  C   UNL A   1      38.465  31.884  36.519  1.00  0.00     0.012 A 
ATOM     64  C   UNL A   1      39.942  33.658  35.747  1.00  0.00     0.148 A 
ATOM     65  C   UNL A   1      37.944  32.732  37.495  1.00  0.00     0.002 A 
ATOM     66  C   UNL A   1      39.444  34.485  36.746  1.00  0.00     0.091 A 
ATOM     67  F   UNL A   1      40.867  34.080  34.874  1.00  0.00    -0.205 F 
ATOM     68  C   UNL A   1      38.440  34.027  37.616  1.00  0.00     0.022 A 
BRANCH  66  69
ATOM     69  S   UNL A   1      40.067  36.148  37.023  1.00  0.00     0.127 S 
ATOM     70  O   UNL A   1      39.701  36.812  35.773  1.00  0.00    -0.237 OA
ATOM     71  O   UNL A   1      39.295  36.579  38.188  1.00  0.00    -0.237 OA
ATOM     72  O   UNL A   1      41.496  36.004  37.264  1.00  0.00    -0.744 OA
ENDBRANCH  66  69
ENDBRANCH  48  62
BRANCH  49  73
ATOM     73  C   UNL A   1      42.925  26.206  28.525  1.00  0.00     0.023 A 
ATOM     74  C   UNL A   1      42.358  24.929  28.354  1.00  0.00     0.012 A 
ATOM     75  C   UNL A   1      43.966  26.616  27.669  1.00  0.00     0.148 A 
ATOM     76  C   UNL A   1      42.834  24.068  27.365  1.00  0.00     0.002 A 
ATOM     77  C   UNL A   1      44.398  25.774  26.651  1.00  0.00     0.091 A 
ATOM     78  F   UNL A   1      44.513  27.825  27.864  1.00  0.00    -0.205 F 
ATOM     79  C   UNL A   1      43.843  24.494  26.506  1.00  0.00     0.022 A 
BRANCH  77  80
ATOM     80  S   UNL A   1      45.599  26.301  25.424  1.00  0.00     0.127 S 
ATOM     81  O   UNL A   1      46.776  26.560  26.248  1.00  0.00    -0.237 OA
ATOM     82  O   UNL A   1      45.697  25.123  24.562  1.00  0.00    -0.237 OA
ATOM     83  O   UNL A   1      45.003  27.463  24.777  1.00  0.00    -0.744 OA
ENDBRANCH  77  80
ENDBRANCH  49  73
BRANCH  61  84
ATOM     84  C   UNL A   1      45.185  28.025  34.876  1.00  0.00     0.023 A 
ATOM     85  C   UNL A   1      46.336  28.833  34.795  1.00  0.00     0.012 A 
ATOM     86  C   UNL A   1      45.173  26.922  35.752  1.00  0.00     0.148 A 
ATOM     87  C   UNL A   1      47.467  28.533  35.552  1.00  0.00     0.002 A 
ATOM     88  C   UNL A   1      46.289  26.653  36.535  1.00  0.00     0.091 A 
ATOM     89  F   UNL A   1      44.076  26.151  35.798  1.00  0.00    -0.205 F 
ATOM     90  C   UNL A   1      47.441  27.452  36.429  1.00  0.00     0.022 A 
BRANCH  88  91
ATOM     91  S   UNL A   1      46.304  25.335  37.754  1.00  0.00     0.127 S 
ATOM     92  O   UNL A   1      45.458  25.892  38.809  1.00  0.00    -0.237 OA
ATOM     93  O   UNL A   1      45.705  24.218  37.020  1.00  0.00    -0.237 OA
ATOM     94  O   UNL A   1      47.703  25.137  38.106  1.00  0.00    -0.744 OA
ENDBRANCH  88  91
ENDBRANCH  61  84
ENDBRANCH  35  36
ENDBRANCH  28  30
ENDBRANCH  27  28
ENDBRANCH  26  27
ENDBRANCH   1  26
TORSDOF 18
ENDMDL
MODEL 2
REMARK VINA RESULT:     -11.1      4.445     10.496
REMARK SMILES CCOc1ccc(-c2ccc(N3CCC[C@H](C(=O)OCCOC(=O)c4ccc(-c5c6nc(c(-c7cccc(S(=O)(=O)[O-])c7F)c7ccc([nH]7)c(-c7cccc(S(=O)(=O)[O-])c7F)c7nc(c(-c8cccc(S(=O)(=O)[O-])c8F)c8ccc5[nH]8)C=C7)C=C6)cc4)C3)nn2)cc1
REMARK SMILES IDX 20 1 19 2 17 3 18 4 16 5 12 6 13 7 88 8 14 9 15 10 11 11
REMARK SMILES IDX 8 12 9 13 90 14 10 15 89 16 7 17 4 18 5 19 92 20 6 21 91 22
REMARK SMILES IDX 3 23 2 24 1 25 21 26 22 27 23 28 24 29 25 30 26 31 87 32
REMARK SMILES IDX 27 33 86 34 28 35 29 36 30 37 80 38 31 39 85 40 79 41 81 42
REMARK SMILES IDX 32 43 84 44 78 45 77 46 33 48 65 49 45 50 64 51 46 52 49 53
REMARK SMILES IDX 63 54 82 55 47 56 48 57 62 59 83 60 50 61 34 62 35 63 43 64
REMARK SMILES IDX 36 65 38 66 44 67 37 68 39 69 40 70 41 71 42 72 66 73 67 74
REMARK SMILES IDX 75 75 68 76 70 77 76 78 69 79 71 80 72 81 73 82 74 83 51 84
REMARK SMILES IDX 52 85 60 86 53 87 55 88 61 89 54 90 56 91 57 92 58 93 59 94
REMARK H PARENT 81 47 49 58
REMARK Flexibility Score: inf
ROOT
ATOM      1  C   UNL A   1      35.834  21.381  24.483  1.00  0.00     0.274 C 
ENDROOT
BRANCH   1   2
ATOM      2  O   UNL A   1      34.971  22.526  24.605  1.00  0.00    -0.462 OA
BRANCH   2   3
ATOM      3  C   UNL A   1      34.840  23.336  23.527  1.00  0.00     0.310 C 
ATOM      4  O   UNL A   1      35.604  24.250  23.237  1.00  0.00    -0.252 OA
BRANCH   3   5
ATOM      5  C   UNL A   1      33.628  22.992  22.674  1.00  0.00     0.118 C 
ATOM      6  N   UNL A   1      32.107  24.777  23.404  1.00  0.00    -0.354 N 
ATOM      7  C   UNL A   1      31.136  23.860  23.992  1.00  0.00     0.118 C 
ATOM      8  C   UNL A   1      32.895  24.272  22.280  1.00  0.00     0.133 C 
ATOM      9  C   UNL A   1      31.785  22.535  24.385  1.00  0.00     0.022 C 
ATOM     10  C   UNL A   1      32.656  21.963  23.266  1.00  0.00     0.019 C 
BRANCH   6  11
ATOM     11  C   UNL A   1      32.655  25.785  24.189  1.00  0.00     0.151 A 
ATOM     12  C   UNL A   1      33.636  27.851  25.737  1.00  0.00     0.093 A 
ATOM     13  C   UNL A   1      33.657  27.972  24.359  1.00  0.00     0.035 A 
ATOM     14  N   UNL A   1      33.167  26.732  26.322  1.00  0.00    -0.148 NA
ATOM     15  C   UNL A   1      33.162  26.930  23.586  1.00  0.00     0.051 A 
ATOM     16  N   UNL A   1      32.663  25.703  25.538  1.00  0.00    -0.132 NA
BRANCH  12  17
ATOM     17  C   UNL A   1      33.967  28.983  26.599  1.00  0.00     0.002 A 
ATOM     18  C   UNL A   1      34.573  31.258  28.127  1.00  0.00     0.119 A 
ATOM     19  C   UNL A   1      35.484  30.205  28.057  1.00  0.00     0.047 A 
ATOM     20  C   UNL A   1      33.378  31.199  27.421  1.00  0.00     0.047 A 
ATOM     21  C   UNL A   1      35.177  29.065  27.303  1.00  0.00     0.014 A 
ATOM     22  C   UNL A   1      33.070  30.063  26.677  1.00  0.00     0.014 A 
BRANCH  18  23
ATOM     23  O   UNL A   1      34.921  32.391  28.807  1.00  0.00    -0.494 OA
BRANCH  23  24
ATOM     24  C   UNL A   1      35.139  33.509  27.937  1.00  0.00     0.226 C 
ATOM     25  C   UNL A   1      34.351  34.733  28.380  1.00  0.00     0.049 C 
ENDBRANCH  23  24
ENDBRANCH  18  23
ENDBRANCH  12  17
ENDBRANCH   6  11
ENDBRANCH   3   5
ENDBRANCH   2   3
ENDBRANCH   1   2
BRANCH   1  26
ATOM     26  C   UNL A   1      37.296  21.816  24.590  1.00  0.00     0.275 C 
BRANCH  26  27
ATOM     27  O   UNL A   1      37.643  22.092  25.959  1.00  0.00    -0.458 OA
BRANCH  27  28
ATOM     28  C   UNL A   1      38.930  21.827  26.287  1.00  0.00     0.338 C 
ATOM     29  O   UNL A   1      39.533  20.777  26.154  1.00  0.00    -0.246 OA
BRANCH  28  30
ATOM     30  C   UNL A   1      39.584  23.075  26.708  1.00  0.00     0.060 A 
ATOM     31  C   UNL A   1      39.132  24.268  26.142  1.00  0.00     0.016 A 
ATOM     32  C   UNL A   1      40.672  23.066  27.579  1.00  0.00     0.016 A 
ATOM     33  C   UNL A   1      39.771  25.467  26.434  1.00  0.00     0.010 A 
ATOM     34  C   UNL A   1      41.313  24.272  27.875  1.00  0.00     0.010 A 
ATOM     35  C   UNL A   1      40.877  25.477  27.292  1.00  0.00    -0.014 A 
BRANCH  35  36
ATOM     36  C   UNL A   1      41.609  26.743  27.527  1.00  0.00     0.031 A 
ATOM     37  C   UNL A   1      42.996  26.913  26.976  1.00  0.00     0.074 A 
ATOM     38  C   UNL A   1      41.025  27.735  28.223  1.00  0.00     0.049 A 
ATOM     39  N   UNL A   1      43.821  27.917  27.118  1.00  0.00    -0.248 NA
ATOM     40  C   UNL A   1      43.523  25.810  26.157  1.00  0.00     0.031 C 
ATOM     41  C   UNL A   1      39.676  27.686  28.792  1.00  0.00     0.029 A 
ATOM     42  N   UNL A   1      41.495  28.971  28.585  1.00  0.00    -0.354 N 
ATOM     43  C   UNL A   1      44.980  27.551  26.444  1.00  0.00     0.074 A 
ATOM     44  C   UNL A   1      44.752  26.233  25.892  1.00  0.00     0.031 C 
ATOM     45  C   UNL A   1      39.436  28.835  29.444  1.00  0.00     0.029 A 
ATOM     46  C   UNL A   1      40.621  29.685  29.369  1.00  0.00     0.049 A 
ATOM     47  H   UNL A   1      42.377  29.314  28.309  1.00  0.00     0.167 HD
ATOM     48  C   UNL A   1      46.125  28.257  26.289  1.00  0.00     0.034 A 
ATOM     49  C   UNL A   1      40.767  30.880  29.973  1.00  0.00     0.034 A 
ATOM     50  C   UNL A   1      46.332  29.582  26.806  1.00  0.00     0.049 A 
ATOM     51  C   UNL A   1      42.054  31.639  29.787  1.00  0.00     0.074 A 
ATOM     52  C   UNL A   1      47.446  30.394  26.674  1.00  0.00     0.029 A 
ATOM     53  N   UNL A   1      45.406  30.293  27.554  1.00  0.00    -0.354 N 
ATOM     54  N   UNL A   1      43.105  31.319  29.071  1.00  0.00    -0.248 NA
ATOM     55  C   UNL A   1      42.164  32.937  30.469  1.00  0.00     0.031 C 
ATOM     56  C   UNL A   1      47.195  31.592  27.351  1.00  0.00     0.029 A 
ATOM     57  C   UNL A   1      45.921  31.532  27.893  1.00  0.00     0.049 A 
ATOM     58  H   UNL A   1      44.513  29.964  27.807  1.00  0.00     0.167 HD
ATOM     59  C   UNL A   1      43.989  32.383  29.195  1.00  0.00     0.074 A 
ATOM     60  C   UNL A   1      43.339  33.371  30.033  1.00  0.00     0.031 C 
ATOM     61  C   UNL A   1      45.236  32.525  28.680  1.00  0.00     0.034 A 
BRANCH  48  62
ATOM     62  C   UNL A   1      47.233  27.622  25.493  1.00  0.00     0.023 A 
ATOM     63  C   UNL A   1      48.082  26.683  26.113  1.00  0.00     0.012 A 
ATOM     64  C   UNL A   1      47.402  27.912  24.125  1.00  0.00     0.148 A 
ATOM     65  C   UNL A   1      49.099  26.060  25.390  1.00  0.00     0.002 A 
ATOM     66  C   UNL A   1      48.393  27.259  23.402  1.00  0.00     0.091 A 
ATOM     67  F   UNL A   1      46.601  28.827  23.562  1.00  0.00    -0.205 F 
ATOM     68  C   UNL A   1      49.248  26.339  24.033  1.00  0.00     0.022 A 
BRANCH  66  69
ATOM     69  S   UNL A   1      48.620  27.503  21.636  1.00  0.00     0.127 S 
ATOM     70  O   UNL A   1      49.593  28.593  21.611  1.00  0.00    -0.237 OA
ATOM     71  O   UNL A   1      49.147  26.207  21.208  1.00  0.00    -0.237 OA
ATOM     72  O   UNL A   1      47.302  27.824  21.105  1.00  0.00    -0.744 OA
ENDBRANCH  66  69
ENDBRANCH  48  62
BRANCH  49  73
ATOM     73  C   UNL A   1      39.649  31.448  30.778  1.00  0.00     0.023 A 
ATOM     74  C   UNL A   1      38.590  32.105  30.123  1.00  0.00     0.012 A 
ATOM     75  C   UNL A   1      39.614  31.319  32.181  1.00  0.00     0.148 A 
ATOM     76  C   UNL A   1      37.528  32.642  30.851  1.00  0.00     0.002 A 
ATOM     77  C   UNL A   1      38.526  31.808  32.894  1.00  0.00     0.091 A 
ATOM     78  F   UNL A   1      40.644  30.715  32.791  1.00  0.00    -0.205 F 
ATOM     79  C   UNL A   1      37.489  32.483  32.234  1.00  0.00     0.022 A 
BRANCH  77  80
ATOM     80  S   UNL A   1      38.340  31.526  34.658  1.00  0.00     0.127 S 
ATOM     81  O   UNL A   1      39.484  32.253  35.201  1.00  0.00    -0.237 OA
ATOM     82  O   UNL A   1      37.037  32.134  34.933  1.00  0.00    -0.237 OA
ATOM     83  O   UNL A   1      38.366  30.078  34.821  1.00  0.00    -0.744 OA
ENDBRANCH  77  80
ENDBRANCH  49  73
BRANCH  61  84
ATOM     84  C   UNL A   1      45.973  33.801  28.986  1.00  0.00     0.023 A 
ATOM     85  C   UNL A   1      46.764  33.885  30.149  1.00  0.00     0.012 A 
ATOM     86  C   UNL A   1      45.942  34.887  28.089  1.00  0.00     0.148 A 
ATOM     87  C   UNL A   1      47.490  35.041  30.430  1.00  0.00     0.002 A 
ATOM     88  C   UNL A   1      46.702  36.020  28.355  1.00  0.00     0.091 A 
ATOM     89  F   UNL A   1      45.165  34.798  27.000  1.00  0.00    -0.205 F 
ATOM     90  C   UNL A   1      47.469  36.103  29.529  1.00  0.00     0.022 A 
BRANCH  88  91
ATOM     91  S   UNL A   1      46.799  37.394  27.202  1.00  0.00     0.127 S 
ATOM     92  O   UNL A   1      46.849  36.703  25.915  1.00  0.00    -0.237 OA
ATOM     93  O   UNL A   1      45.549  38.113  27.460  1.00  0.00    -0.237 OA
ATOM     94  O   UNL A   1      48.000  38.133  27.568  1.00  0.00    -0.744 OA
ENDBRANCH  88  91
ENDBRANCH  61  84
ENDBRANCH  35  36
ENDBRANCH  28  30
ENDBRANCH  27  28
ENDBRANCH  26  27
ENDBRANCH   1  26
TORSDOF 18
ENDMDL
MODEL 3
REMARK VINA RESULT:     -11.1      4.405      7.817
REMARK SMILES CCOc1ccc(-c2ccc(N3CCC[C@H](C(=O)OCCOC(=O)c4ccc(-c5c6nc(c(-c7cccc(S(=O)(=O)[O-])c7F)c7ccc([nH]7)c(-c7cccc(S(=O)(=O)[O-])c7F)c7nc(c(-c8cccc(S(=O)(=O)[O-])c8F)c8ccc5[nH]8)C=C7)C=C6)cc4)C3)nn2)cc1
REMARK SMILES IDX 20 1 19 2 17 3 18 4 16 5 12 6 13 7 88 8 14 9 15 10 11 11
REMARK SMILES IDX 8 12 9 13 90 14 10 15 89 16 7 17 4 18 5 19 92 20 6 21 91 22
REMARK SMILES IDX 3 23 2 24 1 25 21 26 22 27 23 28 24 29 25 30 26 31 87 32
REMARK SMILES IDX 27 33 86 34 28 35 29 36 30 37 80 38 31 39 85 40 79 41 81 42
REMARK SMILES IDX 32 43 84 44 78 45 77 46 33 48 65 49 45 50 64 51 46 52 49 53
REMARK SMILES IDX 63 54 82 55 47 56 48 57 62 59 83 60 50 61 34 62 35 63 43 64
REMARK SMILES IDX 36 65 38 66 44 67 37 68 39 69 40 70 41 71 42 72 66 73 67 74
REMARK SMILES IDX 75 75 68 76 70 77 76 78 69 79 71 80 72 81 73 82 74 83 51 84
REMARK SMILES IDX 52 85 60 86 53 87 55 88 61 89 54 90 56 91 57 92 58 93 59 94
REMARK H PARENT 81 47 49 58
REMARK Flexibility Score: inf
ROOT
ATOM      1  C   UNL A   1      36.657  22.845  23.559  1.00  0.00     0.274 C 
ENDROOT
BRANCH   1   2
ATOM      2  O   UNL A   1      35.783  23.742  24.267  1.00  0.00    -0.462 OA
BRANCH   2   3
ATOM      3  C   UNL A   1      34.570  23.273  24.649  1.00  0.00     0.310 C 
ATOM      4  O   UNL A   1      34.139  23.293  25.796  1.00  0.00    -0.252 OA
BRANCH   3   5
ATOM      5  C   UNL A   1      33.762  22.711  23.489  1.00  0.00     0.118 C 
ATOM      6  N   UNL A   1      32.156  24.547  23.199  1.00  0.00    -0.354 N 
ATOM      7  C   UNL A   1      30.996  23.732  23.547  1.00  0.00     0.118 C 
ATOM      8  C   UNL A   1      33.290  23.852  22.591  1.00  0.00     0.133 C 
ATOM      9  C   UNL A   1      31.388  22.545  24.422  1.00  0.00     0.022 C 
ATOM     10  C   UNL A   1      32.595  21.788  23.864  1.00  0.00     0.019 C 
BRANCH   6  11
ATOM     11  C   UNL A   1      32.405  25.716  23.907  1.00  0.00     0.151 A 
ATOM     12  C   UNL A   1      32.967  27.972  25.398  1.00  0.00     0.093 A 
ATOM     13  C   UNL A   1      31.952  27.127  25.810  1.00  0.00     0.035 A 
ATOM     14  N   UNL A   1      33.660  27.716  24.271  1.00  0.00    -0.148 NA
ATOM     15  C   UNL A   1      31.674  25.994  25.057  1.00  0.00     0.051 A 
ATOM     16  N   UNL A   1      33.380  26.573  23.534  1.00  0.00    -0.132 NA
BRANCH  12  17
ATOM     17  C   UNL A   1      33.425  29.070  26.245  1.00  0.00     0.002 A 
ATOM     18  C   UNL A   1      34.325  31.071  27.996  1.00  0.00     0.119 A 
ATOM     19  C   UNL A   1      33.119  31.233  27.316  1.00  0.00     0.047 A 
ATOM     20  C   UNL A   1      35.071  29.910  27.833  1.00  0.00     0.047 A 
ATOM     21  C   UNL A   1      32.674  30.239  26.434  1.00  0.00     0.014 A 
ATOM     22  C   UNL A   1      34.633  28.926  26.951  1.00  0.00     0.014 A 
BRANCH  18  23
ATOM     23  O   UNL A   1      34.705  32.016  28.906  1.00  0.00    -0.494 OA
BRANCH  23  24
ATOM     24  C   UNL A   1      34.194  33.318  28.593  1.00  0.00     0.226 C 
ATOM     25  C   UNL A   1      34.175  34.228  29.812  1.00  0.00     0.049 C 
ENDBRANCH  23  24
ENDBRANCH  18  23
ENDBRANCH  12  17
ENDBRANCH   6  11
ENDBRANCH   3   5
ENDBRANCH   2   3
ENDBRANCH   1   2
BRANCH   1  26
ATOM     26  C   UNL A   1      37.111  21.718  24.487  1.00  0.00     0.275 C 
BRANCH  26  27
ATOM     27  O   UNL A   1      37.532  22.247  25.758  1.00  0.00    -0.458 OA
BRANCH  27  28
ATOM     28  C   UNL A   1      38.772  21.872  26.151  1.00  0.00     0.338 C 
ATOM     29  O   UNL A   1      39.285  20.772  26.054  1.00  0.00    -0.246 OA
BRANCH  28  30
ATOM     30  C   UNL A   1      39.514  23.062  26.595  1.00  0.00     0.060 A 
ATOM     31  C   UNL A   1      39.284  24.261  25.919  1.00  0.00     0.016 A 
ATOM     32  C   UNL A   1      40.474  22.984  27.602  1.00  0.00     0.016 A 
ATOM     33  C   UNL A   1      40.021  25.396  26.236  1.00  0.00     0.010 A 
ATOM     34  C   UNL A   1      41.213  24.126  27.923  1.00  0.00     0.010 A 
ATOM     35  C   UNL A   1      41.003  25.333  27.232  1.00  0.00    -0.014 A 
BRANCH  35  36
ATOM     36  C   UNL A   1      41.846  26.521  27.502  1.00  0.00     0.031 A 
ATOM     37  C   UNL A   1      41.287  27.661  28.304  1.00  0.00     0.074 A 
ATOM     38  C   UNL A   1      43.107  26.568  27.036  1.00  0.00     0.049 A 
ATOM     39  N   UNL A   1      41.840  28.808  28.601  1.00  0.00    -0.248 NA
ATOM     40  C   UNL A   1      39.929  27.489  28.844  1.00  0.00     0.031 C 
ATOM     41  C   UNL A   1      43.759  25.512  26.258  1.00  0.00     0.029 A 
ATOM     42  N   UNL A   1      44.061  27.548  27.134  1.00  0.00    -0.354 N 
ATOM     43  C   UNL A   1      40.885  29.511  29.325  1.00  0.00     0.074 A 
ATOM     44  C   UNL A   1      39.717  28.663  29.423  1.00  0.00     0.031 C 
ATOM     45  C   UNL A   1      45.000  25.909  25.938  1.00  0.00     0.029 A 
ATOM     46  C   UNL A   1      45.220  27.257  26.456  1.00  0.00     0.049 A 
ATOM     47  H   UNL A   1      43.927  28.382  27.642  1.00  0.00     0.167 HD
ATOM     48  C   UNL A   1      40.980  30.747  29.870  1.00  0.00     0.034 A 
ATOM     49  C   UNL A   1      46.326  28.002  26.258  1.00  0.00     0.034 A 
ATOM     50  C   UNL A   1      42.156  31.571  29.803  1.00  0.00     0.049 A 
ATOM     51  C   UNL A   1      46.400  29.374  26.872  1.00  0.00     0.074 A 
ATOM     52  C   UNL A   1      42.362  32.825  30.351  1.00  0.00     0.029 A 
ATOM     53  N   UNL A   1      43.328  31.223  29.149  1.00  0.00    -0.354 N 
ATOM     54  N   UNL A   1      45.523  29.987  27.630  1.00  0.00    -0.248 NA
ATOM     55  C   UNL A   1      47.626  30.147  26.625  1.00  0.00     0.031 C 
ATOM     56  C   UNL A   1      43.657  33.239  30.020  1.00  0.00     0.029 A 
ATOM     57  C   UNL A   1      44.261  32.237  29.277  1.00  0.00     0.049 A 
ATOM     58  H   UNL A   1      43.475  30.379  28.665  1.00  0.00     0.167 HD
ATOM     59  C   UNL A   1      46.101  31.204  27.972  1.00  0.00     0.074 A 
ATOM     60  C   UNL A   1      47.414  31.230  27.360  1.00  0.00     0.031 C 
ATOM     61  C   UNL A   1      45.585  32.220  28.709  1.00  0.00     0.034 A 
BRANCH  48  62
ATOM     62  C   UNL A   1      39.786  31.272  30.621  1.00  0.00     0.023 A 
ATOM     63  C   UNL A   1      38.717  31.852  29.909  1.00  0.00     0.012 A 
ATOM     64  C   UNL A   1      39.697  31.143  32.022  1.00  0.00     0.148 A 
ATOM     65  C   UNL A   1      37.588  32.320  30.580  1.00  0.00     0.002 A 
ATOM     66  C   UNL A   1      38.552  31.577  32.680  1.00  0.00     0.091 A 
ATOM     67  F   UNL A   1      40.735  30.612  32.683  1.00  0.00    -0.205 F 
ATOM     68  C   UNL A   1      37.500  32.173  31.963  1.00  0.00     0.022 A 
BRANCH  66  69
ATOM     69  S   UNL A   1      38.318  31.371  34.449  1.00  0.00     0.127 S 
ATOM     70  O   UNL A   1      39.354  32.251  34.988  1.00  0.00    -0.237 OA
ATOM     71  O   UNL A   1      36.951  31.853  34.640  1.00  0.00    -0.237 OA
ATOM     72  O   UNL A   1      38.501  29.951  34.713  1.00  0.00    -0.744 OA
ENDBRANCH  66  69
ENDBRANCH  48  62
BRANCH  49  73
ATOM     73  C   UNL A   1      47.467  27.446  25.477  1.00  0.00     0.023 A 
ATOM     74  C   UNL A   1      48.323  26.503  26.078  1.00  0.00     0.012 A 
ATOM     75  C   UNL A   1      47.692  27.823  24.138  1.00  0.00     0.148 A 
ATOM     76  C   UNL A   1      49.396  25.963  25.369  1.00  0.00     0.002 A 
ATOM     77  C   UNL A   1      48.730  27.239  23.420  1.00  0.00     0.091 A 
ATOM     78  F   UNL A   1      46.884  28.741  23.590  1.00  0.00    -0.205 F 
ATOM     79  C   UNL A   1      49.592  26.321  24.038  1.00  0.00     0.022 A 
BRANCH  77  80
ATOM     80  S   UNL A   1      48.966  27.548  21.667  1.00  0.00     0.127 S 
ATOM     81  O   UNL A   1      47.633  27.278  21.133  1.00  0.00    -0.237 OA
ATOM     82  O   UNL A   1      49.361  28.957  21.652  1.00  0.00    -0.237 OA
ATOM     83  O   UNL A   1      50.019  26.631  21.253  1.00  0.00    -0.744 OA
ENDBRANCH  77  80
ENDBRANCH  49  73
BRANCH  61  84
ATOM     84  C   UNL A   1      46.448  33.436  28.916  1.00  0.00     0.023 A 
ATOM     85  C   UNL A   1      47.328  33.484  30.014  1.00  0.00     0.012 A 
ATOM     86  C   UNL A   1      46.440  34.494  27.986  1.00  0.00     0.148 A 
ATOM     87  C   UNL A   1      48.167  34.581  30.201  1.00  0.00     0.002 A 
ATOM     88  C   UNL A   1      47.310  35.565  28.155  1.00  0.00     0.091 A 
ATOM     89  F   UNL A   1      45.579  34.441  26.959  1.00  0.00    -0.205 F 
ATOM     90  C   UNL A   1      48.167  35.615  29.268  1.00  0.00     0.022 A 
BRANCH  88  91
ATOM     91  S   UNL A   1      47.435  36.892  26.951  1.00  0.00     0.127 S 
ATOM     92  O   UNL A   1      47.998  36.196  25.795  1.00  0.00    -0.237 OA
ATOM     93  O   UNL A   1      46.040  37.307  26.792  1.00  0.00    -0.237 OA
ATOM     94  O   UNL A   1      48.293  37.899  27.560  1.00  0.00    -0.744 OA
ENDBRANCH  88  91
ENDBRANCH  61  84
ENDBRANCH  35  36
ENDBRANCH  28  30
ENDBRANCH  27  28
ENDBRANCH  26  27
ENDBRANCH   1  26
TORSDOF 18
ENDMDL
