MODEL 1
REMARK VINA RESULT:     -12.6      0.000      0.000
REMARK SMILES C[N@H+]1C[C@@H](Oc2cccc3cccnc23)C[C@H]1C(=O)OCCOC(=O)c1ccc(-c2c3nc(c(-c4cccc(S(=O)(=O)[O-])c4F)c4ccc([nH]4)c(-c4cccc(S(=O)(=O)[O-])c4F)c4nc(c(-c5cccc(S(=O)(=O)[O-])c5F)c5ccc2[nH]5)C=C4)C=C3)cc1
REMARK SMILES IDX 22 1 21 2 20 3 18 4 19 5 17 6 1 7 2 8 3 9 4 11 16 12 5 13
REMARK SMILES IDX 6 14 7 15 15 16 8 17 10 18 14 19 9 20 11 21 13 22 12 23
REMARK SMILES IDX 23 24 24 25 25 26 26 27 27 28 88 29 28 30 87 31 29 32 30 33
REMARK SMILES IDX 31 34 81 35 32 36 86 37 80 38 82 39 33 40 85 41 79 42 78 43
REMARK SMILES IDX 34 45 66 46 46 47 65 48 47 49 50 50 64 51 83 52 48 53 49 54
REMARK SMILES IDX 63 56 84 57 51 58 35 59 36 60 44 61 37 62 39 63 45 64 38 65
REMARK SMILES IDX 40 66 41 67 42 68 43 69 67 70 68 71 76 72 69 73 71 74 77 75
REMARK SMILES IDX 70 76 72 77 73 78 74 79 75 80 52 81 53 82 61 83 54 84 56 85
REMARK SMILES IDX 62 86 55 87 57 88 58 89 59 90 60 91
REMARK H PARENT 2 10 82 44 50 55
REMARK Flexibility Score: inf
ROOT
ATOM      1  C   UNL A   1      31.899  29.728  27.020  1.00  0.00     0.275 C 
ENDROOT
BRANCH   1   2
ATOM      2  C   UNL A   1      32.074  28.290  27.500  1.00  0.00     0.274 C 
BRANCH   2   3
ATOM      3  O   UNL A   1      30.982  27.450  27.084  1.00  0.00    -0.458 OA
BRANCH   3   4
ATOM      4  C   UNL A   1      31.151  26.722  25.951  1.00  0.00     0.365 C 
ATOM      5  O   UNL A   1      32.020  26.956  25.114  1.00  0.00    -0.245 OA
BRANCH   4   6
ATOM      6  C   UNL A   1      30.146  25.572  25.761  1.00  0.00     0.298 C 
ATOM      7  C   UNL A   1      28.807  26.469  23.865  1.00  0.00     0.333 C 
ATOM      8  N   UNL A   1      29.543  25.359  24.434  1.00  0.00    -0.322 N 
ATOM      9  C   UNL A   1      30.588  24.782  23.589  1.00  0.00     0.308 C 
ATOM     10  H   UNL A   1      28.764  24.707  24.523  1.00  0.00     0.348 HD
ATOM     11  C   UNL A   1      31.280  23.801  24.552  1.00  0.00     0.234 C 
ATOM     12  C   UNL A   1      30.855  24.233  25.966  1.00  0.00     0.128 C 
BRANCH  11  13
ATOM     13  O   UNL A   1      32.680  23.544  24.391  1.00  0.00    -0.482 OA
BRANCH  13  14
ATOM     14  C   UNL A   1      33.123  22.259  24.594  1.00  0.00     0.146 A 
ATOM     15  C   UNL A   1      32.196  21.218  24.462  1.00  0.00     0.049 A 
ATOM     16  C   UNL A   1      34.494  22.003  24.744  1.00  0.00     0.112 A 
ATOM     17  C   UNL A   1      32.604  19.896  24.572  1.00  0.00     0.005 A 
ATOM     18  C   UNL A   1      34.895  20.648  24.838  1.00  0.00     0.004 A 
ATOM     19  N   UNL A   1      35.405  23.004  24.798  1.00  0.00    -0.252 NA
ATOM     20  C   UNL A   1      33.952  19.609  24.765  1.00  0.00     0.010 A 
ATOM     21  C   UNL A   1      36.257  20.361  24.999  1.00  0.00     0.012 A 
ATOM     22  C   UNL A   1      36.710  22.687  24.945  1.00  0.00     0.112 A 
ATOM     23  C   UNL A   1      37.181  21.395  25.050  1.00  0.00     0.021 A 
ENDBRANCH  13  14
ENDBRANCH  11  13
ENDBRANCH   4   6
ENDBRANCH   3   4
ENDBRANCH   2   3
ENDBRANCH   1   2
BRANCH   1  24
ATOM     24  O   UNL A   1      33.146  30.268  26.562  1.00  0.00    -0.458 OA
BRANCH  24  25
ATOM     25  C   UNL A   1      33.609  31.311  27.286  1.00  0.00     0.338 C 
ATOM     26  O   UNL A   1      33.019  32.332  27.589  1.00  0.00    -0.246 OA
BRANCH  25  27
ATOM     27  C   UNL A   1      34.961  31.001  27.751  1.00  0.00     0.060 A 
ATOM     28  C   UNL A   1      35.287  29.672  28.041  1.00  0.00     0.016 A 
ATOM     29  C   UNL A   1      35.861  32.036  27.991  1.00  0.00     0.016 A 
ATOM     30  C   UNL A   1      36.518  29.370  28.610  1.00  0.00     0.010 A 
ATOM     31  C   UNL A   1      37.097  31.731  28.552  1.00  0.00     0.010 A 
ATOM     32  C   UNL A   1      37.419  30.403  28.888  1.00  0.00    -0.014 A 
BRANCH  32  33
ATOM     33  C   UNL A   1      38.677  30.144  29.613  1.00  0.00     0.031 A 
ATOM     34  C   UNL A   1      39.637  29.143  29.044  1.00  0.00     0.074 A 
ATOM     35  C   UNL A   1      38.896  30.726  30.804  1.00  0.00     0.049 A 
ATOM     36  N   UNL A   1      40.648  28.549  29.617  1.00  0.00    -0.248 NA
ATOM     37  C   UNL A   1      39.412  28.741  27.644  1.00  0.00     0.031 C 
ATOM     38  C   UNL A   1      38.034  31.732  31.424  1.00  0.00     0.029 A 
ATOM     39  N   UNL A   1      39.883  30.510  31.730  1.00  0.00    -0.354 N 
ATOM     40  C   UNL A   1      41.143  27.658  28.672  1.00  0.00     0.074 A 
ATOM     41  C   UNL A   1      40.332  27.801  27.483  1.00  0.00     0.031 C 
ATOM     42  C   UNL A   1      38.505  32.015  32.650  1.00  0.00     0.029 A 
ATOM     43  C   UNL A   1      39.665  31.171  32.916  1.00  0.00     0.049 A 
ATOM     44  H   UNL A   1      40.669  29.939  31.563  1.00  0.00     0.167 HD
ATOM     45  C   UNL A   1      42.182  26.801  28.795  1.00  0.00     0.034 A 
ATOM     46  C   UNL A   1      40.305  31.065  34.096  1.00  0.00     0.034 A 
ATOM     47  C   UNL A   1      42.996  26.707  29.976  1.00  0.00     0.049 A 
ATOM     48  C   UNL A   1      41.462  30.107  34.206  1.00  0.00     0.074 A 
ATOM     49  C   UNL A   1      44.086  25.889  30.210  1.00  0.00     0.029 A 
ATOM     50  N   UNL A   1      42.809  27.469  31.120  1.00  0.00    -0.354 N 
ATOM     51  N   UNL A   1      41.957  29.305  33.293  1.00  0.00    -0.248 NA
ATOM     52  C   UNL A   1      42.163  30.054  35.496  1.00  0.00     0.031 C 
ATOM     53  C   UNL A   1      44.560  26.158  31.499  1.00  0.00     0.029 A 
ATOM     54  C   UNL A   1      43.771  27.151  32.061  1.00  0.00     0.049 A 
ATOM     55  H   UNL A   1      42.098  28.138  31.244  1.00  0.00     0.167 HD
ATOM     56  C   UNL A   1      43.049  28.683  33.882  1.00  0.00     0.074 A 
ATOM     57  C   UNL A   1      43.148  29.208  35.230  1.00  0.00     0.031 C 
ATOM     58  C   UNL A   1      43.886  27.749  33.366  1.00  0.00     0.034 A 
BRANCH  45  59
ATOM     59  C   UNL A   1      42.511  25.923  27.618  1.00  0.00     0.023 A 
ATOM     60  C   UNL A   1      43.352  26.413  26.600  1.00  0.00     0.012 A 
ATOM     61  C   UNL A   1      42.028  24.602  27.541  1.00  0.00     0.148 A 
ATOM     62  C   UNL A   1      43.687  25.612  25.509  1.00  0.00     0.002 A 
ATOM     63  C   UNL A   1      42.397  23.797  26.469  1.00  0.00     0.091 A 
ATOM     64  F   UNL A   1      41.206  24.163  28.505  1.00  0.00    -0.205 F 
ATOM     65  C   UNL A   1      43.218  24.302  25.449  1.00  0.00     0.022 A 
BRANCH  63  66
ATOM     66  S   UNL A   1      41.898  22.075  26.340  1.00  0.00     0.127 S 
ATOM     67  O   UNL A   1      40.458  22.201  26.117  1.00  0.00    -0.237 OA
ATOM     68  O   UNL A   1      42.657  21.618  25.176  1.00  0.00    -0.237 OA
ATOM     69  O   UNL A   1      42.287  21.451  27.598  1.00  0.00    -0.744 OA
ENDBRANCH  63  66
ENDBRANCH  45  59
BRANCH  46  70
ATOM     70  C   UNL A   1      39.883  31.912  35.247  1.00  0.00     0.023 A 
ATOM     71  C   UNL A   1      40.312  33.251  35.305  1.00  0.00     0.012 A 
ATOM     72  C   UNL A   1      39.023  31.422  36.249  1.00  0.00     0.148 A 
ATOM     73  C   UNL A   1      39.909  34.081  36.351  1.00  0.00     0.002 A 
ATOM     74  C   UNL A   1      38.583  32.269  37.261  1.00  0.00     0.091 A 
ATOM     75  F   UNL A   1      38.640  30.138  36.190  1.00  0.00    -0.205 F 
ATOM     76  C   UNL A   1      39.036  33.596  37.321  1.00  0.00     0.022 A 
BRANCH  74  77
ATOM     77  S   UNL A   1      37.354  31.758  38.469  1.00  0.00     0.127 S 
ATOM     78  O   UNL A   1      38.068  31.956  39.726  1.00  0.00    -0.237 OA
ATOM     79  O   UNL A   1      36.265  32.705  38.222  1.00  0.00    -0.237 OA
ATOM     80  O   UNL A   1      37.029  30.379  38.127  1.00  0.00    -0.744 OA
ENDBRANCH  74  77
ENDBRANCH  46  70
BRANCH  58  81
ATOM     81  C   UNL A   1      45.020  27.276  34.233  1.00  0.00     0.023 A 
ATOM     82  C   UNL A   1      46.234  27.986  34.241  1.00  0.00     0.012 A 
ATOM     83  C   UNL A   1      44.839  26.192  35.113  1.00  0.00     0.148 A 
ATOM     84  C   UNL A   1      47.263  27.612  35.103  1.00  0.00     0.002 A 
ATOM     85  C   UNL A   1      45.854  25.851  35.998  1.00  0.00     0.091 A 
ATOM     86  F   UNL A   1      43.680  25.519  35.071  1.00  0.00    -0.205 F 
ATOM     87  C   UNL A   1      47.069  26.554  35.990  1.00  0.00     0.022 A 
BRANCH  85  88
ATOM     88  S   UNL A   1      45.652  24.562  37.234  1.00  0.00     0.127 S 
ATOM     89  O   UNL A   1      44.475  25.029  37.962  1.00  0.00    -0.237 OA
ATOM     90  O   UNL A   1      45.428  23.373  36.411  1.00  0.00    -0.237 OA
ATOM     91  O   UNL A   1      46.894  24.541  37.995  1.00  0.00    -0.744 OA
ENDBRANCH  85  88
ENDBRANCH  58  81
ENDBRANCH  32  33
ENDBRANCH  25  27
ENDBRANCH  24  25
ENDBRANCH   1  24
TORSDOF 16
ENDMDL
MODEL 2
REMARK VINA RESULT:     -12.6      1.375      1.668
REMARK SMILES C[N@H+]1C[C@@H](Oc2cccc3cccnc23)C[C@H]1C(=O)OCCOC(=O)c1ccc(-c2c3nc(c(-c4cccc(S(=O)(=O)[O-])c4F)c4ccc([nH]4)c(-c4cccc(S(=O)(=O)[O-])c4F)c4nc(c(-c5cccc(S(=O)(=O)[O-])c5F)c5ccc2[nH]5)C=C4)C=C3)cc1
REMARK SMILES IDX 22 1 21 2 20 3 18 4 19 5 17 6 1 7 2 8 3 9 4 11 16 12 5 13
REMARK SMILES IDX 6 14 7 15 15 16 8 17 10 18 14 19 9 20 11 21 13 22 12 23
REMARK SMILES IDX 23 24 24 25 25 26 26 27 27 28 88 29 28 30 87 31 29 32 30 33
REMARK SMILES IDX 31 34 81 35 32 36 86 37 80 38 82 39 33 40 85 41 79 42 78 43
REMARK SMILES IDX 34 45 66 46 46 47 65 48 47 49 50 50 64 51 83 52 48 53 49 54
REMARK SMILES IDX 63 56 84 57 51 58 35 59 36 60 44 61 37 62 39 63 45 64 38 65
REMARK SMILES IDX 40 66 41 67 42 68 43 69 67 70 68 71 76 72 69 73 71 74 77 75
REMARK SMILES IDX 70 76 72 77 73 78 74 79 75 80 52 81 53 82 61 83 54 84 56 85
REMARK SMILES IDX 62 86 55 87 57 88 58 89 59 90 60 91
REMARK H PARENT 2 10 82 44 50 55
REMARK Flexibility Score: inf
ROOT
ATOM      1  C   UNL A   1      31.836  30.166  25.723  1.00  0.00     0.275 C 
ENDROOT
BRANCH   1   2
ATOM      2  C   UNL A   1      32.635  29.328  24.728  1.00  0.00     0.274 C 
BRANCH   2   3
ATOM      3  O   UNL A   1      31.778  28.552  23.871  1.00  0.00    -0.458 OA
BRANCH   3   4
ATOM      4  C   UNL A   1      31.990  27.212  23.825  1.00  0.00     0.365 C 
ATOM      5  O   UNL A   1      32.728  26.666  23.009  1.00  0.00    -0.245 OA
BRANCH   4   6
ATOM      6  C   UNL A   1      31.209  26.394  24.870  1.00  0.00     0.298 C 
ATOM      7  C   UNL A   1      28.930  26.477  23.876  1.00  0.00     0.333 C 
ATOM      8  N   UNL A   1      29.990  25.679  24.455  1.00  0.00    -0.322 N 
ATOM      9  C   UNL A   1      30.429  24.529  23.666  1.00  0.00     0.308 C 
ATOM     10  H   UNL A   1      29.489  25.364  25.285  1.00  0.00     0.348 HD
ATOM     11  C   UNL A   1      31.664  24.048  24.452  1.00  0.00     0.234 C 
ATOM     12  C   UNL A   1      32.069  25.227  25.354  1.00  0.00     0.128 C 
BRANCH  11  13
ATOM     13  O   UNL A   1      32.741  23.430  23.739  1.00  0.00    -0.482 OA
BRANCH  13  14
ATOM     14  C   UNL A   1      33.187  22.209  24.185  1.00  0.00     0.146 A 
ATOM     15  C   UNL A   1      32.270  21.152  24.226  1.00  0.00     0.049 A 
ATOM     16  C   UNL A   1      34.556  21.999  24.410  1.00  0.00     0.112 A 
ATOM     17  C   UNL A   1      32.684  19.877  24.587  1.00  0.00     0.005 A 
ATOM     18  C   UNL A   1      34.962  20.689  24.761  1.00  0.00     0.004 A 
ATOM     19  N   UNL A   1      35.459  23.003  24.298  1.00  0.00    -0.252 NA
ATOM     20  C   UNL A   1      34.028  19.645  24.858  1.00  0.00     0.010 A 
ATOM     21  C   UNL A   1      36.323  20.451  25.001  1.00  0.00     0.012 A 
ATOM     22  C   UNL A   1      36.761  22.732  24.530  1.00  0.00     0.112 A 
ATOM     23  C   UNL A   1      37.238  21.487  24.882  1.00  0.00     0.021 A 
ENDBRANCH  13  14
ENDBRANCH  11  13
ENDBRANCH   4   6
ENDBRANCH   3   4
ENDBRANCH   2   3
ENDBRANCH   1   2
BRANCH   1  24
ATOM     24  O   UNL A   1      32.500  30.222  26.991  1.00  0.00    -0.458 OA
BRANCH  24  25
ATOM     25  C   UNL A   1      33.121  31.394  27.251  1.00  0.00     0.338 C 
ATOM     26  O   UNL A   1      32.658  32.518  27.180  1.00  0.00    -0.246 OA
BRANCH  25  27
ATOM     27  C   UNL A   1      34.475  31.117  27.730  1.00  0.00     0.060 A 
ATOM     28  C   UNL A   1      34.828  29.797  28.029  1.00  0.00     0.016 A 
ATOM     29  C   UNL A   1      35.349  32.173  27.976  1.00  0.00     0.016 A 
ATOM     30  C   UNL A   1      36.060  29.525  28.612  1.00  0.00     0.010 A 
ATOM     31  C   UNL A   1      36.586  31.898  28.550  1.00  0.00     0.010 A 
ATOM     32  C   UNL A   1      36.934  30.579  28.894  1.00  0.00    -0.014 A 
BRANCH  32  33
ATOM     33  C   UNL A   1      38.191  30.351  29.633  1.00  0.00     0.031 A 
ATOM     34  C   UNL A   1      39.202  29.411  29.051  1.00  0.00     0.074 A 
ATOM     35  C   UNL A   1      38.364  30.903  30.846  1.00  0.00     0.049 A 
ATOM     36  N   UNL A   1      40.229  28.843  29.622  1.00  0.00    -0.248 NA
ATOM     37  C   UNL A   1      39.018  29.045  27.635  1.00  0.00     0.031 C 
ATOM     38  C   UNL A   1      37.450  31.851  31.481  1.00  0.00     0.029 A 
ATOM     39  N   UNL A   1      39.345  30.700  31.781  1.00  0.00    -0.354 N 
ATOM     40  C   UNL A   1      40.778  28.005  28.659  1.00  0.00     0.074 A 
ATOM     41  C   UNL A   1      39.981  28.151  27.460  1.00  0.00     0.031 C 
ATOM     42  C   UNL A   1      37.887  32.114  32.724  1.00  0.00     0.029 A 
ATOM     43  C   UNL A   1      39.079  31.313  32.984  1.00  0.00     0.049 A 
ATOM     44  H   UNL A   1      40.157  30.170  31.611  1.00  0.00     0.167 HD
ATOM     45  C   UNL A   1      41.851  27.190  28.773  1.00  0.00     0.034 A 
ATOM     46  C   UNL A   1      39.703  31.197  34.172  1.00  0.00     0.034 A 
ATOM     47  C   UNL A   1      42.649  27.094  29.965  1.00  0.00     0.049 A 
ATOM     48  C   UNL A   1      40.899  30.287  34.271  1.00  0.00     0.074 A 
ATOM     49  C   UNL A   1      43.770  26.316  30.192  1.00  0.00     0.029 A 
ATOM     50  N   UNL A   1      42.410  27.810  31.129  1.00  0.00    -0.354 N 
ATOM     51  N   UNL A   1      41.443  29.537  33.342  1.00  0.00    -0.248 NA
ATOM     52  C   UNL A   1      41.580  30.223  35.571  1.00  0.00     0.031 C 
ATOM     53  C   UNL A   1      44.210  26.564  31.497  1.00  0.00     0.029 A 
ATOM     54  C   UNL A   1      43.369  27.503  32.076  1.00  0.00     0.049 A 
ATOM     55  H   UNL A   1      41.668  28.443  31.261  1.00  0.00     0.167 HD
ATOM     56  C   UNL A   1      42.551  28.943  33.931  1.00  0.00     0.074 A 
ATOM     57  C   UNL A   1      42.606  29.428  35.296  1.00  0.00     0.031 C 
ATOM     58  C   UNL A   1      43.437  28.064  33.401  1.00  0.00     0.034 A 
BRANCH  45  59
ATOM     59  C   UNL A   1      42.237  26.366  27.576  1.00  0.00     0.023 A 
ATOM     60  C   UNL A   1      43.010  26.947  26.552  1.00  0.00     0.012 A 
ATOM     61  C   UNL A   1      41.875  25.007  27.483  1.00  0.00     0.148 A 
ATOM     62  C   UNL A   1      43.397  26.198  25.441  1.00  0.00     0.002 A 
ATOM     63  C   UNL A   1      42.297  24.256  26.391  1.00  0.00     0.091 A 
ATOM     64  F   UNL A   1      41.115  24.479  28.452  1.00  0.00    -0.205 F 
ATOM     65  C   UNL A   1      43.049  24.851  25.366  1.00  0.00     0.022 A 
BRANCH  63  66
ATOM     66  S   UNL A   1      41.956  22.498  26.240  1.00  0.00     0.127 S 
ATOM     67  O   UNL A   1      40.496  22.488  26.140  1.00  0.00    -0.237 OA
ATOM     68  O   UNL A   1      42.653  22.152  25.001  1.00  0.00    -0.237 OA
ATOM     69  O   UNL A   1      42.507  21.880  27.437  1.00  0.00    -0.744 OA
ENDBRANCH  63  66
ENDBRANCH  45  59
BRANCH  46  70
ATOM     70  C   UNL A   1      39.226  31.987  35.340  1.00  0.00     0.023 A 
ATOM     71  C   UNL A   1      38.334  31.392  36.251  1.00  0.00     0.012 A 
ATOM     72  C   UNL A   1      39.687  33.296  35.586  1.00  0.00     0.148 A 
ATOM     73  C   UNL A   1      37.892  32.093  37.374  1.00  0.00     0.002 A 
ATOM     74  C   UNL A   1      39.284  33.969  36.734  1.00  0.00     0.091 A 
ATOM     75  F   UNL A   1      40.521  33.856  34.697  1.00  0.00    -0.205 F 
ATOM     76  C   UNL A   1      38.375  33.374  37.623  1.00  0.00     0.022 A 
BRANCH  74  77
ATOM     77  S   UNL A   1      39.965  35.568  37.193  1.00  0.00     0.127 S 
ATOM     78  O   UNL A   1      39.268  35.843  38.446  1.00  0.00    -0.237 OA
ATOM     79  O   UNL A   1      41.391  35.267  37.334  1.00  0.00    -0.237 OA
ATOM     80  O   UNL A   1      39.653  36.453  36.079  1.00  0.00    -0.744 OA
ENDBRANCH  74  77
ENDBRANCH  46  70
BRANCH  58  81
ATOM     81  C   UNL A   1      44.576  27.612  34.272  1.00  0.00     0.023 A 
ATOM     82  C   UNL A   1      45.772  28.353  34.295  1.00  0.00     0.012 A 
ATOM     83  C   UNL A   1      44.416  26.517  35.142  1.00  0.00     0.148 A 
ATOM     84  C   UNL A   1      46.803  27.997  35.163  1.00  0.00     0.002 A 
ATOM     85  C   UNL A   1      45.433  26.194  36.032  1.00  0.00     0.091 A 
ATOM     86  F   UNL A   1      43.275  25.815  35.086  1.00  0.00    -0.205 F 
ATOM     87  C   UNL A   1      46.630  26.928  36.039  1.00  0.00     0.022 A 
BRANCH  85  88
ATOM     88  S   UNL A   1      45.255  24.890  37.256  1.00  0.00     0.127 S 
ATOM     89  O   UNL A   1      46.567  24.902  37.898  1.00  0.00    -0.237 OA
ATOM     90  O   UNL A   1      44.163  25.392  38.090  1.00  0.00    -0.237 OA
ATOM     91  O   UNL A   1      44.934  23.681  36.507  1.00  0.00    -0.744 OA
ENDBRANCH  85  88
ENDBRANCH  58  81
ENDBRANCH  32  33
ENDBRANCH  25  27
ENDBRANCH  24  25
ENDBRANCH   1  24
TORSDOF 16
ENDMDL
MODEL 3
REMARK VINA RESULT:     -12.5      5.209     10.152
REMARK SMILES C[N@H+]1C[C@@H](Oc2cccc3cccnc23)C[C@H]1C(=O)OCCOC(=O)c1ccc(-c2c3nc(c(-c4cccc(S(=O)(=O)[O-])c4F)c4ccc([nH]4)c(-c4cccc(S(=O)(=O)[O-])c4F)c4nc(c(-c5cccc(S(=O)(=O)[O-])c5F)c5ccc2[nH]5)C=C4)C=C3)cc1
REMARK SMILES IDX 22 1 21 2 20 3 18 4 19 5 17 6 1 7 2 8 3 9 4 11 16 12 5 13
REMARK SMILES IDX 6 14 7 15 15 16 8 17 10 18 14 19 9 20 11 21 13 22 12 23
REMARK SMILES IDX 23 24 24 25 25 26 26 27 27 28 88 29 28 30 87 31 29 32 30 33
REMARK SMILES IDX 31 34 81 35 32 36 86 37 80 38 82 39 33 40 85 41 79 42 78 43
REMARK SMILES IDX 34 45 66 46 46 47 65 48 47 49 50 50 64 51 83 52 48 53 49 54
REMARK SMILES IDX 63 56 84 57 51 58 35 59 36 60 44 61 37 62 39 63 45 64 38 65
REMARK SMILES IDX 40 66 41 67 42 68 43 69 67 70 68 71 76 72 69 73 71 74 77 75
REMARK SMILES IDX 70 76 72 77 73 78 74 79 75 80 52 81 53 82 61 83 54 84 56 85
REMARK SMILES IDX 62 86 55 87 57 88 58 89 59 90 60 91
REMARK H PARENT 2 10 82 44 50 55
REMARK Flexibility Score: inf
ROOT
ATOM      1  C   UNL A   1      36.600  20.654  24.967  1.00  0.00     0.275 C 
ENDROOT
BRANCH   1   2
ATOM      2  C   UNL A   1      35.366  21.090  25.753  1.00  0.00     0.274 C 
BRANCH   2   3
ATOM      3  O   UNL A   1      35.365  22.507  26.006  1.00  0.00    -0.458 OA
BRANCH   3   4
ATOM      4  C   UNL A   1      34.763  23.304  25.087  1.00  0.00     0.365 C 
ATOM      5  O   UNL A   1      35.260  24.342  24.655  1.00  0.00    -0.245 OA
BRANCH   4   6
ATOM      6  C   UNL A   1      33.374  22.829  24.625  1.00  0.00     0.298 C 
ATOM      7  C   UNL A   1      32.185  22.765  26.810  1.00  0.00     0.333 C 
ATOM      8  N   UNL A   1      32.191  23.190  25.426  1.00  0.00    -0.322 N 
ATOM      9  C   UNL A   1      31.946  24.612  25.191  1.00  0.00     0.308 C 
ATOM     10  H   UNL A   1      31.393  22.639  25.109  1.00  0.00     0.348 HD
ATOM     11  C   UNL A   1      32.222  24.744  23.681  1.00  0.00     0.234 C 
ATOM     12  C   UNL A   1      33.023  23.490  23.292  1.00  0.00     0.128 C 
BRANCH  11  13
ATOM     13  O   UNL A   1      32.745  25.979  23.179  1.00  0.00    -0.482 OA
BRANCH  13  14
ATOM     14  C   UNL A   1      31.967  27.105  23.312  1.00  0.00     0.146 A 
ATOM     15  C   UNL A   1      30.768  27.161  22.591  1.00  0.00     0.049 A 
ATOM     16  C   UNL A   1      32.287  28.071  24.278  1.00  0.00     0.112 A 
ATOM     17  C   UNL A   1      29.902  28.235  22.752  1.00  0.00     0.005 A 
ATOM     18  C   UNL A   1      31.385  29.150  24.439  1.00  0.00     0.004 A 
ATOM     19  N   UNL A   1      33.410  27.982  25.030  1.00  0.00    -0.252 NA
ATOM     20  C   UNL A   1      30.211  29.232  23.671  1.00  0.00     0.010 A 
ATOM     21  C   UNL A   1      31.682  30.135  25.391  1.00  0.00     0.012 A 
ATOM     22  C   UNL A   1      33.657  28.947  25.942  1.00  0.00     0.112 A 
ATOM     23  C   UNL A   1      32.834  30.033  26.157  1.00  0.00     0.021 A 
ENDBRANCH  13  14
ENDBRANCH  11  13
ENDBRANCH   4   6
ENDBRANCH   3   4
ENDBRANCH   2   3
ENDBRANCH   1   2
BRANCH   1  24
ATOM     24  O   UNL A   1      37.636  21.641  25.057  1.00  0.00    -0.458 OA
BRANCH  24  25
ATOM     25  C   UNL A   1      38.728  21.249  25.750  1.00  0.00     0.338 C 
ATOM     26  O   UNL A   1      39.224  20.139  25.800  1.00  0.00    -0.246 OA
BRANCH  25  27
ATOM     27  C   UNL A   1      39.315  22.417  26.408  1.00  0.00     0.060 A 
ATOM     28  C   UNL A   1      38.839  23.689  26.074  1.00  0.00     0.016 A 
ATOM     29  C   UNL A   1      40.394  22.251  27.271  1.00  0.00     0.016 A 
ATOM     30  C   UNL A   1      39.470  24.819  26.583  1.00  0.00     0.010 A 
ATOM     31  C   UNL A   1      41.018  23.382  27.788  1.00  0.00     0.010 A 
ATOM     32  C   UNL A   1      40.576  24.667  27.425  1.00  0.00    -0.014 A 
BRANCH  32  33
ATOM     33  C   UNL A   1      41.356  25.836  27.878  1.00  0.00     0.031 A 
ATOM     34  C   UNL A   1      40.650  26.912  28.646  1.00  0.00     0.074 A 
ATOM     35  C   UNL A   1      42.643  25.963  27.515  1.00  0.00     0.049 A 
ATOM     36  N   UNL A   1      41.034  28.131  28.904  1.00  0.00    -0.248 NA
ATOM     37  C   UNL A   1      39.318  26.571  29.179  1.00  0.00     0.031 C 
ATOM     38  C   UNL A   1      43.421  24.957  26.793  1.00  0.00     0.029 A 
ATOM     39  N   UNL A   1      43.505  27.019  27.658  1.00  0.00    -0.354 N 
ATOM     40  C   UNL A   1      39.971  28.726  29.573  1.00  0.00     0.074 A 
ATOM     41  C   UNL A   1      38.931  27.728  29.697  1.00  0.00     0.031 C 
ATOM     42  C   UNL A   1      44.634  25.461  26.513  1.00  0.00     0.029 A 
ATOM     43  C   UNL A   1      44.694  26.839  26.990  1.00  0.00     0.049 A 
ATOM     44  H   UNL A   1      43.295  27.825  28.184  1.00  0.00     0.167 HD
ATOM     45  C   UNL A   1      39.880  29.993  30.038  1.00  0.00     0.034 A 
ATOM     46  C   UNL A   1      45.694  27.710  26.753  1.00  0.00     0.034 A 
ATOM     47  C   UNL A   1      40.944  30.953  29.936  1.00  0.00     0.049 A 
ATOM     48  C   UNL A   1      45.569  29.113  27.286  1.00  0.00     0.074 A 
ATOM     49  C   UNL A   1      40.974  32.260  30.386  1.00  0.00     0.029 A 
ATOM     50  N   UNL A   1      42.174  30.701  29.346  1.00  0.00    -0.354 N 
ATOM     51  N   UNL A   1      44.584  29.653  27.962  1.00  0.00    -0.248 NA
ATOM     52  C   UNL A   1      46.701  30.019  27.046  1.00  0.00     0.031 C 
ATOM     53  C   UNL A   1      42.225  32.799  30.068  1.00  0.00     0.029 A 
ATOM     54  C   UNL A   1      42.977  31.823  29.431  1.00  0.00     0.049 A 
ATOM     55  H   UNL A   1      42.437  29.849  28.929  1.00  0.00     0.167 HD
ATOM     56  C   UNL A   1      44.989  30.946  28.263  1.00  0.00     0.074 A 
ATOM     57  C   UNL A   1      46.317  31.106  27.702  1.00  0.00     0.031 C 
ATOM     58  C   UNL A   1      44.323  31.922  28.928  1.00  0.00     0.034 A 
BRANCH  45  59
ATOM     59  C   UNL A   1      38.602  30.399  30.721  1.00  0.00     0.023 A 
ATOM     60  C   UNL A   1      38.420  30.105  32.086  1.00  0.00     0.012 A 
ATOM     61  C   UNL A   1      37.603  31.110  30.027  1.00  0.00     0.148 A 
ATOM     62  C   UNL A   1      37.253  30.489  32.747  1.00  0.00     0.002 A 
ATOM     63  C   UNL A   1      36.459  31.522  30.701  1.00  0.00     0.091 A 
ATOM     64  F   UNL A   1      37.781  31.355  28.722  1.00  0.00    -0.205 F 
ATOM     65  C   UNL A   1      36.278  31.205  32.057  1.00  0.00     0.022 A 
BRANCH  63  66
ATOM     66  S   UNL A   1      35.178  32.508  29.915  1.00  0.00     0.127 S 
ATOM     67  O   UNL A   1      34.710  31.602  28.867  1.00  0.00    -0.237 OA
ATOM     68  O   UNL A   1      34.230  32.715  31.009  1.00  0.00    -0.237 OA
ATOM     69  O   UNL A   1      35.838  33.720  29.449  1.00  0.00    -0.744 OA
ENDBRANCH  63  66
ENDBRANCH  45  59
BRANCH  46  70
ATOM     70  C   UNL A   1      46.903  27.264  26.006  1.00  0.00     0.023 A 
ATOM     71  C   UNL A   1      46.988  27.522  24.625  1.00  0.00     0.012 A 
ATOM     72  C   UNL A   1      47.986  26.640  26.656  1.00  0.00     0.148 A 
ATOM     73  C   UNL A   1      48.121  27.147  23.901  1.00  0.00     0.002 A 
ATOM     74  C   UNL A   1      49.133  26.316  25.939  1.00  0.00     0.091 A 
ATOM     75  F   UNL A   1      47.879  26.384  27.968  1.00  0.00    -0.205 F 
ATOM     76  C   UNL A   1      49.197  26.557  24.558  1.00  0.00     0.022 A 
BRANCH  74  77
ATOM     77  S   UNL A   1      50.610  25.677  26.738  1.00  0.00     0.127 S 
ATOM     78  O   UNL A   1      51.516  25.510  25.606  1.00  0.00    -0.237 OA
ATOM     79  O   UNL A   1      50.962  26.765  27.653  1.00  0.00    -0.237 OA
ATOM     80  O   UNL A   1      50.187  24.454  27.406  1.00  0.00    -0.744 OA
ENDBRANCH  74  77
ENDBRANCH  46  70
BRANCH  58  81
ATOM     81  C   UNL A   1      45.034  33.229  29.141  1.00  0.00     0.023 A 
ATOM     82  C   UNL A   1      45.833  33.409  30.284  1.00  0.00     0.012 A 
ATOM     83  C   UNL A   1      44.990  34.233  28.155  1.00  0.00     0.148 A 
ATOM     84  C   UNL A   1      46.568  34.582  30.452  1.00  0.00     0.002 A 
ATOM     85  C   UNL A   1      45.756  35.381  28.310  1.00  0.00     0.091 A 
ATOM     86  F   UNL A   1      44.204  34.046  27.084  1.00  0.00    -0.205 F 
ATOM     87  C   UNL A   1      46.540  35.561  29.461  1.00  0.00     0.022 A 
BRANCH  85  88
ATOM     88  S   UNL A   1      45.849  36.649  27.040  1.00  0.00     0.127 S 
ATOM     89  O   UNL A   1      46.818  37.578  27.616  1.00  0.00    -0.237 OA
ATOM     90  O   UNL A   1      46.337  35.897  25.883  1.00  0.00    -0.237 OA
ATOM     91  O   UNL A   1      44.494  37.166  26.893  1.00  0.00    -0.744 OA
ENDBRANCH  85  88
ENDBRANCH  58  81
ENDBRANCH  32  33
ENDBRANCH  25  27
ENDBRANCH  24  25
ENDBRANCH   1  24
TORSDOF 16
ENDMDL
