MODEL 1
REMARK VINA RESULT:     -13.4      0.000      0.000
REMARK SMILES Cc1ccc(C(=O)NC2(CC(=O)OCCOC(=O)c3ccc(-c4c5nc(c(-c6cccc(S(=O)(=O)[O-])c6F)c6ccc([nH]6)c(-c6cccc(S(=O)(=O)[O-])c6F)c6nc(c(-c7cccc(S(=O)(=O)[O-])c7F)c7ccc4[nH]7)C=C6)C=C5)cc3)CCC2)cc1
REMARK SMILES IDX 14 1 13 2 11 3 12 4 10 5 9 6 82 7 84 8 83 9 8 10 6 11 7 12
REMARK SMILES IDX 5 14 1 15 2 16 3 17 86 18 4 19 85 20 15 21 16 22 17 23 18 24
REMARK SMILES IDX 19 25 20 26 81 27 21 28 80 29 22 30 23 31 24 32 74 33 25 34
REMARK SMILES IDX 79 35 73 36 75 37 26 38 78 39 72 40 71 41 27 43 59 44 39 45
REMARK SMILES IDX 58 46 40 47 43 48 57 49 76 50 41 51 42 52 56 54 77 55 44 56
REMARK SMILES IDX 28 57 29 58 37 59 30 60 32 61 38 62 31 63 33 64 34 65 35 66
REMARK SMILES IDX 36 67 60 68 61 69 69 70 62 71 64 72 70 73 63 74 65 75 66 76
REMARK SMILES IDX 67 77 68 78 45 79 46 80 54 81 47 82 49 83 55 84 48 85 50 86
REMARK SMILES IDX 51 87 52 88 53 89
REMARK H PARENT 8 13 75 42 43 53
REMARK Flexibility Score: inf
ROOT
ATOM      1  C   UNL A   1      33.222  31.790  27.424  1.00  0.00     0.274 C 
ENDROOT
BRANCH   1   2
ATOM      2  O   UNL A   1      33.246  29.775  27.570  1.00  0.00    -0.462 OA
BRANCH   2   3
ATOM      3  C   UNL A   1      32.823  28.428  27.262  1.00  0.00     0.308 C 
ATOM      4  O   UNL A   1      31.818  27.852  27.667  1.00  0.00    -0.252 OA
BRANCH   3   5
ATOM      5  C   UNL A   1      33.504  27.915  26.034  1.00  0.00     0.151 C 
BRANCH   5   6
ATOM      6  C   UNL A   1      32.614  27.698  24.785  1.00  0.00     0.051 C 
ATOM      7  C   UNL A   1      33.310  27.430  23.403  1.00  0.00     0.029 C 
ATOM      8  C   UNL A   1      32.255  29.110  24.220  1.00  0.00     0.029 C 
ATOM      9  C   UNL A   1      33.372  28.950  23.180  1.00  0.00     0.005 C 
BRANCH   6  10
ATOM     10  N   UNL A   1      31.337  26.915  24.866  1.00  0.00    -0.346 N 
ATOM     11  C   UNL A   1      31.053  25.612  25.128  1.00  0.00     0.251 C 
ATOM     12  O   UNL A   1      29.948  25.222  25.479  1.00  0.00    -0.269 OA
ATOM     13  H   UNL A   1      30.535  27.459  24.692  1.00  0.00     0.164 HD
BRANCH  11  14
ATOM     14  C   UNL A   1      32.110  24.664  24.916  1.00  0.00     0.039 A 
ATOM     15  C   UNL A   1      36.652  22.881  23.478  1.00  0.00     0.044 C 
ATOM     16  C   UNL A   1      35.277  23.231  23.965  1.00  0.00    -0.051 A 
ATOM     17  C   UNL A   1      33.967  23.339  22.757  1.00  0.00     0.004 A 
ATOM     18  C   UNL A   1      34.991  23.784  25.639  1.00  0.00     0.004 A 
ATOM     19  C   UNL A   1      32.384  24.117  23.207  1.00  0.00     0.014 A 
ATOM     20  C   UNL A   1      33.426  24.514  26.126  1.00  0.00     0.014 A 
ENDBRANCH  11  14
ENDBRANCH   6  10
ENDBRANCH   5   6
ENDBRANCH   3   5
ENDBRANCH   2   3
ENDBRANCH   1   2
BRANCH   1  21
ATOM     21  C   UNL A   1      34.287  32.957  28.138  1.00  0.00     0.275 C 
BRANCH  21  22
ATOM     22  O   UNL A   1      35.553  32.627  28.853  1.00  0.00    -0.458 OA
BRANCH  22  23
ATOM     23  C   UNL A   1      35.905  31.600  29.722  1.00  0.00     0.338 C 
ATOM     24  O   UNL A   1      35.713  31.695  30.929  1.00  0.00    -0.246 OA
BRANCH  23  25
ATOM     25  C   UNL A   1      36.431  30.316  29.161  1.00  0.00     0.060 A 
ATOM     26  C   UNL A   1      37.005  30.220  27.867  1.00  0.00     0.016 A 
ATOM     27  C   UNL A   1      36.670  29.328  30.071  1.00  0.00     0.016 A 
ATOM     28  C   UNL A   1      38.095  29.330  27.617  1.00  0.00     0.010 A 
ATOM     29  C   UNL A   1      37.813  28.580  29.866  1.00  0.00     0.010 A 
ATOM     30  C   UNL A   1      38.598  28.559  28.660  1.00  0.00    -0.014 A 
BRANCH  30  31
ATOM     31  C   UNL A   1      39.862  27.727  28.736  1.00  0.00     0.031 A 
ATOM     32  C   UNL A   1      40.160  26.270  28.444  1.00  0.00     0.074 A 
ATOM     33  C   UNL A   1      40.965  28.485  28.971  1.00  0.00     0.049 A 
ATOM     34  N   UNL A   1      41.366  25.793  28.564  1.00  0.00    -0.248 NA
ATOM     35  C   UNL A   1      39.255  25.215  28.005  1.00  0.00     0.031 C 
ATOM     36  C   UNL A   1      42.383  28.259  28.753  1.00  0.00     0.029 A 
ATOM     37  N   UNL A   1      40.946  29.677  29.691  1.00  0.00    -0.354 N 
ATOM     38  C   UNL A   1      41.457  24.532  28.016  1.00  0.00     0.074 A 
ATOM     39  C   UNL A   1      40.094  24.210  27.676  1.00  0.00     0.031 C 
ATOM     40  C   UNL A   1      43.070  29.056  29.588  1.00  0.00     0.029 A 
ATOM     41  C   UNL A   1      42.106  29.730  30.443  1.00  0.00     0.049 A 
ATOM     42  H   UNL A   1      40.235  30.359  29.670  1.00  0.00     0.167 HD
ATOM     43  C   UNL A   1      42.696  23.960  27.891  1.00  0.00     0.034 A 
ATOM     44  C   UNL A   1      42.031  29.788  31.802  1.00  0.00     0.034 A 
ATOM     45  C   UNL A   1      43.688  24.675  28.715  1.00  0.00     0.049 A 
ATOM     46  C   UNL A   1      42.771  28.642  32.446  1.00  0.00     0.074 A 
ATOM     47  C   UNL A   1      44.800  25.464  28.478  1.00  0.00     0.029 A 
ATOM     48  N   UNL A   1      43.508  24.669  30.089  1.00  0.00    -0.354 N 
ATOM     49  N   UNL A   1      43.547  27.808  31.815  1.00  0.00    -0.248 NA
ATOM     50  C   UNL A   1      42.578  28.281  33.847  1.00  0.00     0.031 C 
ATOM     51  C   UNL A   1      45.278  25.944  29.736  1.00  0.00     0.029 A 
ATOM     52  C   UNL A   1      44.462  25.437  30.732  1.00  0.00     0.049 A 
ATOM     53  H   UNL A   1      42.790  24.179  30.551  1.00  0.00     0.167 HD
ATOM     54  C   UNL A   1      43.780  26.726  32.622  1.00  0.00     0.074 A 
ATOM     55  C   UNL A   1      43.186  27.087  33.896  1.00  0.00     0.031 C 
ATOM     56  C   UNL A   1      44.358  25.570  32.177  1.00  0.00     0.034 A 
BRANCH  43  57
ATOM     57  C   UNL A   1      43.152  22.767  27.035  1.00  0.00     0.023 A 
ATOM     58  C   UNL A   1      44.095  23.050  26.006  1.00  0.00     0.012 A 
ATOM     59  C   UNL A   1      42.679  21.436  27.071  1.00  0.00     0.148 A 
ATOM     60  C   UNL A   1      44.506  22.114  25.049  1.00  0.00     0.002 A 
ATOM     61  C   UNL A   1      43.117  20.482  26.128  1.00  0.00     0.091 A 
ATOM     62  F   UNL A   1      41.771  21.082  27.982  1.00  0.00    -0.205 F 
ATOM     63  C   UNL A   1      44.016  20.825  25.110  1.00  0.00     0.022 A 
BRANCH  61  64
ATOM     64  S   UNL A   1      42.563  18.764  26.119  1.00  0.00     0.127 S 
ATOM     65  O   UNL A   1      42.793  18.363  27.508  1.00  0.00    -0.237 OA
ATOM     66  O   UNL A   1      41.152  18.885  25.751  1.00  0.00    -0.237 OA
ATOM     67  O   UNL A   1      43.391  18.075  25.136  1.00  0.00    -0.744 OA
ENDBRANCH  61  64
ENDBRANCH  43  57
BRANCH  44  68
ATOM     68  C   UNL A   1      40.730  30.382  32.294  1.00  0.00     0.023 A 
ATOM     69  C   UNL A   1      39.728  29.467  32.716  1.00  0.00     0.012 A 
ATOM     70  C   UNL A   1      40.636  31.715  32.748  1.00  0.00     0.148 A 
ATOM     71  C   UNL A   1      38.746  29.839  33.642  1.00  0.00     0.002 A 
ATOM     72  C   UNL A   1      39.630  32.084  33.643  1.00  0.00     0.091 A 
ATOM     73  F   UNL A   1      41.580  32.594  32.391  1.00  0.00    -0.205 F 
ATOM     74  C   UNL A   1      38.706  31.144  34.117  1.00  0.00     0.022 A 
BRANCH  72  75
ATOM     75  S   UNL A   1      39.566  33.763  34.285  1.00  0.00     0.127 S 
ATOM     76  O   UNL A   1      39.316  34.567  33.088  1.00  0.00    -0.237 OA
ATOM     77  O   UNL A   1      38.455  33.738  35.227  1.00  0.00    -0.237 OA
ATOM     78  O   UNL A   1      40.904  33.909  34.849  1.00  0.00    -0.744 OA
ENDBRANCH  72  75
ENDBRANCH  44  68
BRANCH  56  79
ATOM     79  C   UNL A   1      44.772  24.449  33.109  1.00  0.00     0.023 A 
ATOM     80  C   UNL A   1      43.808  23.533  33.587  1.00  0.00     0.012 A 
ATOM     81  C   UNL A   1      46.080  24.327  33.637  1.00  0.00     0.148 A 
ATOM     82  C   UNL A   1      44.140  22.467  34.425  1.00  0.00     0.002 A 
ATOM     83  C   UNL A   1      46.394  23.303  34.531  1.00  0.00     0.091 A 
ATOM     84  F   UNL A   1      47.017  25.220  33.301  1.00  0.00    -0.205 F 
ATOM     85  C   UNL A   1      45.437  22.348  34.893  1.00  0.00     0.022 A 
BRANCH  83  86
ATOM     86  S   UNL A   1      47.997  23.169  35.334  1.00  0.00     0.127 S 
ATOM     87  O   UNL A   1      47.993  24.357  36.189  1.00  0.00    -0.237 OA
ATOM     88  O   UNL A   1      47.871  21.902  36.054  1.00  0.00    -0.237 OA
ATOM     89  O   UNL A   1      48.986  23.170  34.268  1.00  0.00    -0.744 OA
ENDBRANCH  83  86
ENDBRANCH  56  79
ENDBRANCH  30  31
ENDBRANCH  23  25
ENDBRANCH  22  23
ENDBRANCH  21  22
ENDBRANCH   1  21
TORSDOF 17
ENDMDL
MODEL 2
REMARK VINA RESULT:     -13.0      4.161     10.693
REMARK SMILES Cc1ccc(C(=O)NC2(CC(=O)OCCOC(=O)c3ccc(-c4c5nc(c(-c6cccc(S(=O)(=O)[O-])c6F)c6ccc([nH]6)c(-c6cccc(S(=O)(=O)[O-])c6F)c6nc(c(-c7cccc(S(=O)(=O)[O-])c7F)c7ccc4[nH]7)C=C6)C=C5)cc3)CCC2)cc1
REMARK SMILES IDX 14 1 13 2 11 3 12 4 10 5 9 6 82 7 84 8 83 9 8 10 6 11 7 12
REMARK SMILES IDX 5 14 1 15 2 16 3 17 86 18 4 19 85 20 15 21 16 22 17 23 18 24
REMARK SMILES IDX 19 25 20 26 81 27 21 28 80 29 22 30 23 31 24 32 74 33 25 34
REMARK SMILES IDX 79 35 73 36 75 37 26 38 78 39 72 40 71 41 27 43 59 44 39 45
REMARK SMILES IDX 58 46 40 47 43 48 57 49 76 50 41 51 42 52 56 54 77 55 44 56
REMARK SMILES IDX 28 57 29 58 37 59 30 60 32 61 38 62 31 63 33 64 34 65 35 66
REMARK SMILES IDX 36 67 60 68 61 69 69 70 62 71 64 72 70 73 63 74 65 75 66 76
REMARK SMILES IDX 67 77 68 78 45 79 46 80 54 81 47 82 49 83 55 84 48 85 50 86
REMARK SMILES IDX 51 87 52 88 53 89
REMARK H PARENT 8 13 75 42 43 53
REMARK Flexibility Score: inf
ROOT
ATOM      1  C   UNL A   1      38.750  21.101  25.395  1.00  0.00     0.274 C 
ENDROOT
BRANCH   1   2
ATOM      2  O   UNL A   1      36.750  21.387  25.431  1.00  0.00    -0.462 OA
BRANCH   2   3
ATOM      3  C   UNL A   1      35.506  21.925  25.932  1.00  0.00     0.308 C 
ATOM      4  O   UNL A   1      35.355  22.697  26.873  1.00  0.00    -0.252 OA
BRANCH   3   5
ATOM      5  C   UNL A   1      34.416  21.802  24.916  1.00  0.00     0.151 C 
BRANCH   5   6
ATOM      6  C   UNL A   1      33.067  21.223  25.411  1.00  0.00     0.051 C 
ATOM      7  C   UNL A   1      32.930  19.666  25.573  1.00  0.00     0.029 C 
ATOM      8  C   UNL A   1      32.139  21.077  24.163  1.00  0.00     0.029 C 
ATOM      9  C   UNL A   1      32.502  19.588  24.098  1.00  0.00     0.005 C 
BRANCH   6  10
ATOM     10  N   UNL A   1      32.270  21.912  26.479  1.00  0.00    -0.346 N 
ATOM     11  C   UNL A   1      31.608  23.098  26.535  1.00  0.00     0.251 C 
ATOM     12  O   UNL A   1      30.742  23.345  27.362  1.00  0.00    -0.269 OA
ATOM     13  H   UNL A   1      32.213  21.396  27.316  1.00  0.00     0.164 HD
BRANCH  11  14
ATOM     14  C   UNL A   1      32.013  24.109  25.601  1.00  0.00     0.039 A 
ATOM     15  C   UNL A   1      32.172  28.650  23.313  1.00  0.00     0.044 C 
ATOM     16  C   UNL A   1      32.262  27.258  23.867  1.00  0.00    -0.051 A 
ATOM     17  C   UNL A   1      31.016  26.081  23.369  1.00  0.00     0.004 A 
ATOM     18  C   UNL A   1      33.401  26.847  25.179  1.00  0.00     0.004 A 
ATOM     19  C   UNL A   1      30.839  24.513  24.277  1.00  0.00     0.014 A 
ATOM     20  C   UNL A   1      33.282  25.290  26.063  1.00  0.00     0.014 A 
ENDBRANCH  11  14
ENDBRANCH   6  10
ENDBRANCH   5   6
ENDBRANCH   3   5
ENDBRANCH   2   3
ENDBRANCH   1   2
BRANCH   1  21
ATOM     21  C   UNL A   1      39.960  21.651  26.509  1.00  0.00     0.275 C 
BRANCH  21  22
ATOM     22  O   UNL A   1      41.024  22.643  26.186  1.00  0.00    -0.458 OA
BRANCH  22  23
ATOM     23  C   UNL A   1      41.414  23.837  26.783  1.00  0.00     0.338 C 
ATOM     24  O   UNL A   1      42.595  24.088  26.989  1.00  0.00    -0.246 OA
BRANCH  23  25
ATOM     25  C   UNL A   1      40.379  24.875  27.084  1.00  0.00     0.060 A 
ATOM     26  C   UNL A   1      39.569  24.840  28.248  1.00  0.00     0.016 A 
ATOM     27  C   UNL A   1      40.493  26.043  26.388  1.00  0.00     0.016 A 
ATOM     28  C   UNL A   1      39.178  26.049  28.902  1.00  0.00     0.010 A 
ATOM     29  C   UNL A   1      40.240  27.199  27.099  1.00  0.00     0.010 A 
ATOM     30  C   UNL A   1      39.607  27.269  28.389  1.00  0.00    -0.014 A 
BRANCH  30  31
ATOM     31  C   UNL A   1      39.540  28.657  28.993  1.00  0.00     0.031 A 
ATOM     32  C   UNL A   1      38.552  29.798  28.856  1.00  0.00     0.074 A 
ATOM     33  C   UNL A   1      40.478  28.845  29.958  1.00  0.00     0.049 A 
ATOM     34  N   UNL A   1      38.711  30.908  29.518  1.00  0.00    -0.248 NA
ATOM     35  C   UNL A   1      37.343  29.877  28.046  1.00  0.00     0.031 C 
ATOM     36  C   UNL A   1      40.587  29.786  31.059  1.00  0.00     0.029 A 
ATOM     37  N   UNL A   1      41.716  28.206  29.969  1.00  0.00    -0.354 N 
ATOM     38  C   UNL A   1      37.584  31.698  29.440  1.00  0.00     0.074 A 
ATOM     39  C   UNL A   1      36.747  31.002  28.496  1.00  0.00     0.031 C 
ATOM     40  C   UNL A   1      41.884  29.897  31.392  1.00  0.00     0.029 A 
ATOM     41  C   UNL A   1      42.650  29.114  30.435  1.00  0.00     0.049 A 
ATOM     42  H   UNL A   1      41.894  27.278  29.695  1.00  0.00     0.167 HD
ATOM     43  C   UNL A   1      37.510  32.815  30.230  1.00  0.00     0.034 A 
ATOM     44  C   UNL A   1      43.694  29.481  29.640  1.00  0.00     0.034 A 
ATOM     45  C   UNL A   1      38.838  33.164  30.768  1.00  0.00     0.049 A 
ATOM     46  C   UNL A   1      43.726  30.973  29.422  1.00  0.00     0.074 A 
ATOM     47  C   UNL A   1      39.438  33.177  32.015  1.00  0.00     0.029 A 
ATOM     48  N   UNL A   1      39.826  33.519  29.864  1.00  0.00    -0.354 N 
ATOM     49  N   UNL A   1      42.981  31.835  30.056  1.00  0.00    -0.248 NA
ATOM     50  C   UNL A   1      44.522  31.588  28.365  1.00  0.00     0.031 C 
ATOM     51  C   UNL A   1      40.811  33.534  31.842  1.00  0.00     0.029 A 
ATOM     52  C   UNL A   1      41.037  33.746  30.494  1.00  0.00     0.049 A 
ATOM     53  H   UNL A   1      39.684  33.599  28.893  1.00  0.00     0.167 HD
ATOM     54  C   UNL A   1      43.029  33.030  29.390  1.00  0.00     0.074 A 
ATOM     55  C   UNL A   1      44.037  32.837  28.364  1.00  0.00     0.031 C 
ATOM     56  C   UNL A   1      42.181  34.070  29.656  1.00  0.00     0.034 A 
BRANCH  43  57
ATOM     57  C   UNL A   1      36.295  33.670  30.622  1.00  0.00     0.023 A 
ATOM     58  C   UNL A   1      35.975  33.721  32.009  1.00  0.00     0.012 A 
ATOM     59  C   UNL A   1      35.386  34.336  29.769  1.00  0.00     0.148 A 
ATOM     60  C   UNL A   1      34.824  34.332  32.520  1.00  0.00     0.002 A 
ATOM     61  C   UNL A   1      34.242  34.982  30.285  1.00  0.00     0.091 A 
ATOM     62  F   UNL A   1      35.584  34.320  28.449  1.00  0.00    -0.205 F 
ATOM     63  C   UNL A   1      33.954  34.966  31.655  1.00  0.00     0.022 A 
BRANCH  61  64
ATOM     64  S   UNL A   1      33.045  35.859  29.257  1.00  0.00     0.127 S 
ATOM     65  O   UNL A   1      32.498  34.776  28.437  1.00  0.00    -0.237 OA
ATOM     66  O   UNL A   1      32.110  36.399  30.245  1.00  0.00    -0.237 OA
ATOM     67  O   UNL A   1      33.800  36.865  28.521  1.00  0.00    -0.744 OA
ENDBRANCH  61  64
ENDBRANCH  43  57
BRANCH  44  68
ATOM     68  C   UNL A   1      44.041  28.433  28.606  1.00  0.00     0.023 A 
ATOM     69  C   UNL A   1      43.544  28.642  27.292  1.00  0.00     0.012 A 
ATOM     70  C   UNL A   1      45.135  27.555  28.764  1.00  0.00     0.148 A 
ATOM     71  C   UNL A   1      44.184  28.091  26.175  1.00  0.00     0.002 A 
ATOM     72  C   UNL A   1      45.743  26.982  27.645  1.00  0.00     0.091 A 
ATOM     73  F   UNL A   1      45.645  27.359  29.986  1.00  0.00    -0.205 F 
ATOM     74  C   UNL A   1      45.293  27.273  26.351  1.00  0.00     0.022 A 
BRANCH  72  75
ATOM     75  S   UNL A   1      47.190  25.931  27.845  1.00  0.00     0.127 S 
ATOM     76  O   UNL A   1      46.718  24.885  28.753  1.00  0.00    -0.237 OA
ATOM     77  O   UNL A   1      47.474  25.464  26.495  1.00  0.00    -0.237 OA
ATOM     78  O   UNL A   1      48.147  26.864  28.434  1.00  0.00    -0.744 OA
ENDBRANCH  72  75
ENDBRANCH  44  68
BRANCH  56  79
ATOM     79  C   UNL A   1      42.352  35.445  29.042  1.00  0.00     0.023 A 
ATOM     80  C   UNL A   1      41.868  35.704  27.740  1.00  0.00     0.012 A 
ATOM     81  C   UNL A   1      43.089  36.482  29.663  1.00  0.00     0.148 A 
ATOM     82  C   UNL A   1      41.976  36.959  27.139  1.00  0.00     0.002 A 
ATOM     83  C   UNL A   1      43.257  37.714  29.030  1.00  0.00     0.091 A 
ATOM     84  F   UNL A   1      43.656  36.270  30.855  1.00  0.00    -0.205 F 
ATOM     85  C   UNL A   1      42.666  37.968  27.788  1.00  0.00     0.022 A 
BRANCH  83  86
ATOM     86  S   UNL A   1      44.285  39.024  29.707  1.00  0.00     0.127 S 
ATOM     87  O   UNL A   1      45.598  38.379  29.730  1.00  0.00    -0.237 OA
ATOM     88  O   UNL A   1      44.142  40.074  28.698  1.00  0.00    -0.237 OA
ATOM     89  O   UNL A   1      43.725  39.348  31.010  1.00  0.00    -0.744 OA
ENDBRANCH  83  86
ENDBRANCH  56  79
ENDBRANCH  30  31
ENDBRANCH  23  25
ENDBRANCH  22  23
ENDBRANCH  21  22
ENDBRANCH   1  21
TORSDOF 17
ENDMDL
MODEL 3
REMARK VINA RESULT:     -13.0      1.372      2.464
REMARK SMILES Cc1ccc(C(=O)NC2(CC(=O)OCCOC(=O)c3ccc(-c4c5nc(c(-c6cccc(S(=O)(=O)[O-])c6F)c6ccc([nH]6)c(-c6cccc(S(=O)(=O)[O-])c6F)c6nc(c(-c7cccc(S(=O)(=O)[O-])c7F)c7ccc4[nH]7)C=C6)C=C5)cc3)CCC2)cc1
REMARK SMILES IDX 14 1 13 2 11 3 12 4 10 5 9 6 82 7 84 8 83 9 8 10 6 11 7 12
REMARK SMILES IDX 5 14 1 15 2 16 3 17 86 18 4 19 85 20 15 21 16 22 17 23 18 24
REMARK SMILES IDX 19 25 20 26 81 27 21 28 80 29 22 30 23 31 24 32 74 33 25 34
REMARK SMILES IDX 79 35 73 36 75 37 26 38 78 39 72 40 71 41 27 43 59 44 39 45
REMARK SMILES IDX 58 46 40 47 43 48 57 49 76 50 41 51 42 52 56 54 77 55 44 56
REMARK SMILES IDX 28 57 29 58 37 59 30 60 32 61 38 62 31 63 33 64 34 65 35 66
REMARK SMILES IDX 36 67 60 68 61 69 69 70 62 71 64 72 70 73 63 74 65 75 66 76
REMARK SMILES IDX 67 77 68 78 45 79 46 80 54 81 47 82 49 83 55 84 48 85 50 86
REMARK SMILES IDX 51 87 52 88 53 89
REMARK H PARENT 8 13 75 42 43 53
REMARK Flexibility Score: inf
ROOT
ATOM      1  C   UNL A   1      33.933  28.215  24.664  1.00  0.00     0.274 C 
ENDROOT
BRANCH   1   2
ATOM      2  O   UNL A   1      33.637  27.067  23.027  1.00  0.00    -0.462 OA
BRANCH   2   3
ATOM      3  C   UNL A   1      32.861  26.290  22.088  1.00  0.00     0.308 C 
ATOM      4  O   UNL A   1      33.279  25.650  21.128  1.00  0.00    -0.252 OA
BRANCH   3   5
ATOM      5  C   UNL A   1      31.511  25.965  22.640  1.00  0.00     0.151 C 
BRANCH   5   6
ATOM      6  C   UNL A   1      31.384  24.637  23.429  1.00  0.00     0.051 C 
ATOM      7  C   UNL A   1      30.278  24.524  24.539  1.00  0.00     0.029 C 
ATOM      8  C   UNL A   1      32.416  24.693  24.601  1.00  0.00     0.029 C 
ATOM      9  C   UNL A   1      31.282  25.108  25.547  1.00  0.00     0.005 C 
BRANCH   6  10
ATOM     10  N   UNL A   1      31.554  23.310  22.751  1.00  0.00    -0.346 N 
ATOM     11  C   UNL A   1      32.377  22.249  22.963  1.00  0.00     0.251 C 
ATOM     12  O   UNL A   1      32.153  21.128  22.530  1.00  0.00    -0.269 OA
ATOM     13  H   UNL A   1      30.940  23.179  21.993  1.00  0.00     0.164 HD
BRANCH  11  14
ATOM     14  C   UNL A   1      33.591  22.506  23.685  1.00  0.00     0.039 A 
ATOM     15  C   UNL A   1      38.247  21.683  25.561  1.00  0.00     0.044 C 
ATOM     16  C   UNL A   1      36.885  22.098  25.088  1.00  0.00    -0.051 A 
ATOM     17  C   UNL A   1      35.469  21.482  25.984  1.00  0.00     0.004 A 
ATOM     18  C   UNL A   1      36.653  22.951  23.537  1.00  0.00     0.004 A 
ATOM     19  C   UNL A   1      33.806  21.626  25.258  1.00  0.00     0.014 A 
ATOM     20  C   UNL A   1      35.022  23.150  22.816  1.00  0.00     0.014 A 
ENDBRANCH  11  14
ENDBRANCH   6  10
ENDBRANCH   5   6
ENDBRANCH   3   5
ENDBRANCH   2   3
ENDBRANCH   1   2
BRANCH   1  21
ATOM     21  C   UNL A   1      33.964  27.758  26.337  1.00  0.00     0.275 C 
BRANCH  21  22
ATOM     22  O   UNL A   1      34.160  28.704  27.472  1.00  0.00    -0.458 OA
BRANCH  22  23
ATOM     23  C   UNL A   1      34.810  29.929  27.578  1.00  0.00     0.338 C 
ATOM     24  O   UNL A   1      34.254  30.972  27.252  1.00  0.00    -0.246 OA
BRANCH  23  25
ATOM     25  C   UNL A   1      36.171  29.984  28.196  1.00  0.00     0.060 A 
ATOM     26  C   UNL A   1      36.425  29.592  29.535  1.00  0.00     0.016 A 
ATOM     27  C   UNL A   1      37.214  30.078  27.321  1.00  0.00     0.016 A 
ATOM     28  C   UNL A   1      37.654  28.954  29.888  1.00  0.00     0.010 A 
ATOM     29  C   UNL A   1      38.334  29.332  27.631  1.00  0.00     0.010 A 
ATOM     30  C   UNL A   1      38.603  28.710  28.901  1.00  0.00    -0.014 A 
BRANCH  30  31
ATOM     31  C   UNL A   1      39.860  27.865  28.944  1.00  0.00     0.031 A 
ATOM     32  C   UNL A   1      40.144  26.416  28.601  1.00  0.00     0.074 A 
ATOM     33  C   UNL A   1      40.969  28.604  29.203  1.00  0.00     0.049 A 
ATOM     34  N   UNL A   1      41.346  25.925  28.702  1.00  0.00    -0.248 NA
ATOM     35  C   UNL A   1      39.229  25.385  28.127  1.00  0.00     0.031 C 
ATOM     36  C   UNL A   1      42.385  28.374  28.974  1.00  0.00     0.029 A 
ATOM     37  N   UNL A   1      40.962  29.771  29.965  1.00  0.00    -0.354 N 
ATOM     38  C   UNL A   1      41.424  24.682  28.110  1.00  0.00     0.074 A 
ATOM     39  C   UNL A   1      40.058  24.385  27.762  1.00  0.00     0.031 C 
ATOM     40  C   UNL A   1      43.081  29.135  29.835  1.00  0.00     0.029 A 
ATOM     41  C   UNL A   1      42.124  29.787  30.715  1.00  0.00     0.049 A 
ATOM     42  H   UNL A   1      40.258  30.459  29.969  1.00  0.00     0.167 HD
ATOM     43  C   UNL A   1      42.658  24.105  27.963  1.00  0.00     0.034 A 
ATOM     44  C   UNL A   1      42.053  29.798  32.076  1.00  0.00     0.034 A 
ATOM     45  C   UNL A   1      43.659  24.781  28.809  1.00  0.00     0.049 A 
ATOM     46  C   UNL A   1      42.784  28.624  32.678  1.00  0.00     0.074 A 
ATOM     47  C   UNL A   1      44.777  25.569  28.596  1.00  0.00     0.029 A 
ATOM     48  N   UNL A   1      43.481  24.730  30.182  1.00  0.00    -0.354 N 
ATOM     49  N   UNL A   1      43.552  27.805  32.015  1.00  0.00    -0.248 NA
ATOM     50  C   UNL A   1      42.590  28.216  34.065  1.00  0.00     0.031 C 
ATOM     51  C   UNL A   1      45.262  26.000  29.869  1.00  0.00     0.029 A 
ATOM     52  C   UNL A   1      44.443  25.466  30.849  1.00  0.00     0.049 A 
ATOM     53  H   UNL A   1      42.759  24.230  30.628  1.00  0.00     0.167 HD
ATOM     54  C   UNL A   1      43.776  26.695  32.784  1.00  0.00     0.074 A 
ATOM     55  C   UNL A   1      43.188  27.016  34.071  1.00  0.00     0.031 C 
ATOM     56  C   UNL A   1      44.343  25.550  32.298  1.00  0.00     0.034 A 
BRANCH  43  57
ATOM     57  C   UNL A   1      43.103  22.939  27.064  1.00  0.00     0.023 A 
ATOM     58  C   UNL A   1      44.007  23.258  26.011  1.00  0.00     0.012 A 
ATOM     59  C   UNL A   1      42.650  21.600  27.084  1.00  0.00     0.148 A 
ATOM     60  C   UNL A   1      44.398  22.350  25.020  1.00  0.00     0.002 A 
ATOM     61  C   UNL A   1      43.069  20.674  26.106  1.00  0.00     0.091 A 
ATOM     62  F   UNL A   1      41.777  21.212  28.017  1.00  0.00    -0.205 F 
ATOM     63  C   UNL A   1      43.928  21.054  25.067  1.00  0.00     0.022 A 
BRANCH  61  64
ATOM     64  S   UNL A   1      42.539  18.949  26.075  1.00  0.00     0.127 S 
ATOM     65  O   UNL A   1      41.117  19.074  25.751  1.00  0.00    -0.237 OA
ATOM     66  O   UNL A   1      43.354  18.383  25.001  1.00  0.00    -0.237 OA
ATOM     67  O   UNL A   1      42.821  18.413  27.400  1.00  0.00    -0.744 OA
ENDBRANCH  61  64
ENDBRANCH  43  57
BRANCH  44  68
ATOM     68  C   UNL A   1      40.757  30.386  32.591  1.00  0.00     0.023 A 
ATOM     69  C   UNL A   1      39.705  29.472  32.867  1.00  0.00     0.012 A 
ATOM     70  C   UNL A   1      40.698  31.659  33.197  1.00  0.00     0.148 A 
ATOM     71  C   UNL A   1      38.703  29.774  33.797  1.00  0.00     0.002 A 
ATOM     72  C   UNL A   1      39.674  31.963  34.096  1.00  0.00     0.091 A 
ATOM     73  F   UNL A   1      41.689  32.533  32.979  1.00  0.00    -0.205 F 
ATOM     74  C   UNL A   1      38.696  31.015  34.422  1.00  0.00     0.022 A 
BRANCH  72  75
ATOM     75  S   UNL A   1      39.651  33.557  34.930  1.00  0.00     0.127 S 
ATOM     76  O   UNL A   1      40.889  33.542  35.710  1.00  0.00    -0.237 OA
ATOM     77  O   UNL A   1      39.645  34.523  33.841  1.00  0.00    -0.237 OA
ATOM     78  O   UNL A   1      38.430  33.452  35.723  1.00  0.00    -0.744 OA
ENDBRANCH  72  75
ENDBRANCH  44  68
BRANCH  56  79
ATOM     79  C   UNL A   1      44.749  24.393  33.189  1.00  0.00     0.023 A 
ATOM     80  C   UNL A   1      43.791  23.431  33.580  1.00  0.00     0.012 A 
ATOM     81  C   UNL A   1      46.037  24.276  33.765  1.00  0.00     0.148 A 
ATOM     82  C   UNL A   1      44.118  22.332  34.377  1.00  0.00     0.002 A 
ATOM     83  C   UNL A   1      46.343  23.216  34.619  1.00  0.00     0.091 A 
ATOM     84  F   UNL A   1      46.963  25.208  33.513  1.00  0.00    -0.205 F 
ATOM     85  C   UNL A   1      45.398  22.221  34.892  1.00  0.00     0.022 A 
BRANCH  83  86
ATOM     86  S   UNL A   1      47.915  23.081  35.480  1.00  0.00     0.127 S 
ATOM     87  O   UNL A   1      47.679  21.915  36.332  1.00  0.00    -0.237 OA
ATOM     88  O   UNL A   1      48.846  22.848  34.376  1.00  0.00    -0.237 OA
ATOM     89  O   UNL A   1      48.102  24.341  36.183  1.00  0.00    -0.744 OA
ENDBRANCH  83  86
ENDBRANCH  56  79
ENDBRANCH  30  31
ENDBRANCH  23  25
ENDBRANCH  22  23
ENDBRANCH  21  22
ENDBRANCH   1  21
TORSDOF 17
ENDMDL
