MODEL 1
REMARK VINA RESULT:     -12.3      0.000      0.000
REMARK SMILES O=C(CCC(=O)N1N=C(c2ccc(F)cc2)C[C@@H]1c1ccc2nccnc2c1)OCCOC(=O)c1ccc(-c2c3nc(c(-c4cccc(S(=O)(=O)[O-])c4F)c4ccc([nH]4)c(-c4cccc(S(=O)(=O)[O-])c4F)c4nc(c(-c5cccc(S(=O)(=O)[O-])c5F)c5ccc2[nH]5)C=C4)C=C3)cc1
REMARK SMILES IDX 30 1 29 2 2 3 1 4 3 5 4 6 5 7 6 8 7 9 8 10 18 11 9 12 17 13
REMARK SMILES IDX 19 14 20 15 28 16 21 17 27 18 22 19 26 20 23 21 25 22 24 23
REMARK SMILES IDX 10 24 11 25 16 26 12 27 15 28 13 29 14 30 31 31 32 32 33 33
REMARK SMILES IDX 34 34 35 35 36 36 97 37 37 38 96 39 38 40 39 41 40 42 90 43
REMARK SMILES IDX 41 44 95 45 89 46 91 47 42 48 94 49 88 50 87 51 43 53 75 54
REMARK SMILES IDX 55 55 74 56 56 57 59 58 73 59 92 60 57 61 58 62 72 64 93 65
REMARK SMILES IDX 60 66 44 67 45 68 53 69 46 70 48 71 54 72 47 73 49 74 50 75
REMARK SMILES IDX 51 76 52 77 76 78 77 79 85 80 78 81 80 82 86 83 79 84 81 85
REMARK SMILES IDX 82 86 83 87 84 88 61 89 62 90 70 91 63 92 65 93 71 94 64 95
REMARK SMILES IDX 66 96 67 97 68 98 69 99
REMARK H PARENT 91 52 59 63
REMARK Flexibility Score: inf
ROOT
ATOM      1  C   UNL A   1      34.905  32.442  27.932  1.00  0.00     0.274 C 
ENDROOT
BRANCH   1   2
ATOM      2  O   UNL A   1      34.572  31.187  27.286  1.00  0.00    -0.462 OA
BRANCH   2   3
ATOM      3  C   UNL A   1      35.342  30.104  27.091  1.00  0.00     0.306 C 
ATOM      4  O   UNL A   1      36.555  30.104  27.291  1.00  0.00    -0.252 OA
BRANCH   3   5
ATOM      5  C   UNL A   1      34.632  28.850  26.846  1.00  0.00     0.132 C 
BRANCH   5   6
ATOM      6  C   UNL A   1      33.331  28.952  27.599  1.00  0.00     0.114 C 
BRANCH   6   7
ATOM      7  C   UNL A   1      32.162  27.977  27.352  1.00  0.00     0.243 C 
ATOM      8  O   UNL A   1      31.324  28.006  28.279  1.00  0.00    -0.273 OA
BRANCH   7   9
ATOM      9  N   UNL A   1      31.887  27.188  26.217  1.00  0.00    -0.225 N 
ATOM     10  N   UNL A   1      30.781  27.709  25.578  1.00  0.00    -0.174 NA
ATOM     11  C   UNL A   1      32.588  26.208  25.246  1.00  0.00     0.147 C 
ATOM     12  C   UNL A   1      30.854  27.442  24.325  1.00  0.00     0.071 C 
ATOM     13  C   UNL A   1      31.921  26.508  23.889  1.00  0.00     0.091 C 
BRANCH  11  14
ATOM     14  C   UNL A   1      32.488  24.659  25.385  1.00  0.00    -0.021 A 
ATOM     15  C   UNL A   1      31.209  24.075  25.282  1.00  0.00     0.008 A 
ATOM     16  C   UNL A   1      33.551  23.765  25.618  1.00  0.00     0.036 A 
ATOM     17  C   UNL A   1      31.032  22.683  25.245  1.00  0.00     0.031 A 
ATOM     18  C   UNL A   1      33.405  22.362  25.474  1.00  0.00     0.089 A 
ATOM     19  C   UNL A   1      32.113  21.822  25.250  1.00  0.00     0.089 A 
ATOM     20  N   UNL A   1      34.491  21.553  25.402  1.00  0.00    -0.253 NA
ATOM     21  N   UNL A   1      31.909  20.522  24.933  1.00  0.00    -0.253 NA
ATOM     22  C   UNL A   1      34.280  20.304  24.909  1.00  0.00     0.132 A 
ATOM     23  C   UNL A   1      33.018  19.801  24.673  1.00  0.00     0.132 A 
ENDBRANCH  11  14
BRANCH  12  24
ATOM     24  C   UNL A   1      29.977  28.145  23.395  1.00  0.00    -0.002 A 
ATOM     25  C   UNL A   1      28.599  27.960  23.422  1.00  0.00     0.013 A 
ATOM     26  C   UNL A   1      30.573  29.117  22.577  1.00  0.00     0.013 A 
ATOM     27  C   UNL A   1      27.804  28.780  22.621  1.00  0.00     0.040 A 
ATOM     28  C   UNL A   1      29.776  29.919  21.770  1.00  0.00     0.040 A 
ATOM     29  C   UNL A   1      28.396  29.747  21.806  1.00  0.00     0.123 A 
ATOM     30  F   UNL A   1      27.619  30.541  21.059  1.00  0.00    -0.207 F 
ENDBRANCH  12  24
ENDBRANCH   7   9
ENDBRANCH   6   7
ENDBRANCH   5   6
ENDBRANCH   3   5
ENDBRANCH   2   3
ENDBRANCH   1   2
BRANCH   1  31
ATOM     31  C   UNL A   1      33.635  33.265  28.038  1.00  0.00     0.275 C 
BRANCH  31  32
ATOM     32  O   UNL A   1      33.952  34.601  28.434  1.00  0.00    -0.458 OA
BRANCH  32  33
ATOM     33  C   UNL A   1      33.550  35.008  29.663  1.00  0.00     0.338 C 
ATOM     34  O   UNL A   1      32.561  35.622  30.006  1.00  0.00    -0.246 OA
BRANCH  33  35
ATOM     35  C   UNL A   1      34.420  34.357  30.615  1.00  0.00     0.060 A 
ATOM     36  C   UNL A   1      33.877  33.499  31.583  1.00  0.00     0.016 A 
ATOM     37  C   UNL A   1      35.783  34.508  30.409  1.00  0.00     0.016 A 
ATOM     38  C   UNL A   1      34.725  32.666  32.282  1.00  0.00     0.010 A 
ATOM     39  C   UNL A   1      36.625  33.694  31.111  1.00  0.00     0.010 A 
ATOM     40  C   UNL A   1      36.089  32.762  32.018  1.00  0.00    -0.014 A 
BRANCH  40  41
ATOM     41  C   UNL A   1      37.067  31.941  32.716  1.00  0.00     0.031 A 
ATOM     42  C   UNL A   1      37.569  32.467  34.010  1.00  0.00     0.074 A 
ATOM     43  C   UNL A   1      37.622  30.928  32.037  1.00  0.00     0.049 A 
ATOM     44  N   UNL A   1      38.650  32.149  34.651  1.00  0.00    -0.248 NA
ATOM     45  C   UNL A   1      36.770  33.541  34.631  1.00  0.00     0.031 C 
ATOM     46  C   UNL A   1      37.159  30.425  30.740  1.00  0.00     0.029 A 
ATOM     47  N   UNL A   1      38.744  30.203  32.306  1.00  0.00    -0.354 N 
ATOM     48  C   UNL A   1      38.687  33.004  35.740  1.00  0.00     0.074 A 
ATOM     49  C   UNL A   1      37.535  33.871  35.659  1.00  0.00     0.031 C 
ATOM     50  C   UNL A   1      38.020  29.492  30.306  1.00  0.00     0.029 A 
ATOM     51  C   UNL A   1      39.108  29.379  31.270  1.00  0.00     0.049 A 
ATOM     52  H   UNL A   1      39.241  30.262  33.155  1.00  0.00     0.167 HD
ATOM     53  C   UNL A   1      39.616  33.040  36.718  1.00  0.00     0.034 A 
ATOM     54  C   UNL A   1      40.226  28.648  31.119  1.00  0.00     0.034 A 
ATOM     55  C   UNL A   1      40.758  32.172  36.723  1.00  0.00     0.049 A 
ATOM     56  C   UNL A   1      41.246  28.704  32.220  1.00  0.00     0.074 A 
ATOM     57  C   UNL A   1      41.762  32.075  37.663  1.00  0.00     0.029 A 
ATOM     58  N   UNL A   1      41.052  31.256  35.718  1.00  0.00    -0.354 N 
ATOM     59  N   UNL A   1      41.244  29.446  33.304  1.00  0.00    -0.248 NA
ATOM     60  C   UNL A   1      42.398  27.806  32.103  1.00  0.00     0.031 C 
ATOM     61  C   UNL A   1      42.681  31.123  37.209  1.00  0.00     0.029 A 
ATOM     62  C   UNL A   1      42.222  30.586  36.013  1.00  0.00     0.049 A 
ATOM     63  H   UNL A   1      40.504  31.108  34.913  1.00  0.00     0.167 HD
ATOM     64  C   UNL A   1      42.366  29.072  34.028  1.00  0.00     0.074 A 
ATOM     65  C   UNL A   1      43.025  28.036  33.251  1.00  0.00     0.031 C 
ATOM     66  C   UNL A   1      42.815  29.533  35.222  1.00  0.00     0.034 A 
BRANCH  53  67
ATOM     67  C   UNL A   1      39.408  34.029  37.830  1.00  0.00     0.023 A 
ATOM     68  C   UNL A   1      39.801  35.372  37.654  1.00  0.00     0.012 A 
ATOM     69  C   UNL A   1      38.819  33.636  39.045  1.00  0.00     0.148 A 
ATOM     70  C   UNL A   1      39.646  36.300  38.682  1.00  0.00     0.002 A 
ATOM     71  C   UNL A   1      38.616  34.579  40.045  1.00  0.00     0.091 A 
ATOM     72  F   UNL A   1      38.491  32.347  39.211  1.00  0.00    -0.205 F 
ATOM     73  C   UNL A   1      39.041  35.907  39.871  1.00  0.00     0.022 A 
BRANCH  71  74
ATOM     74  S   UNL A   1      37.769  34.192  41.580  1.00  0.00     0.127 S 
ATOM     75  O   UNL A   1      38.663  33.194  42.167  1.00  0.00    -0.237 OA
ATOM     76  O   UNL A   1      37.769  35.487  42.261  1.00  0.00    -0.237 OA
ATOM     77  O   UNL A   1      36.452  33.702  41.202  1.00  0.00    -0.744 OA
ENDBRANCH  71  74
ENDBRANCH  53  67
BRANCH  54  78
ATOM     78  C   UNL A   1      40.354  27.754  29.939  1.00  0.00     0.023 A 
ATOM     79  C   UNL A   1      39.503  26.637  29.845  1.00  0.00     0.012 A 
ATOM     80  C   UNL A   1      41.202  28.068  28.860  1.00  0.00     0.148 A 
ATOM     81  C   UNL A   1      39.500  25.840  28.700  1.00  0.00     0.002 A 
ATOM     82  C   UNL A   1      41.158  27.300  27.702  1.00  0.00     0.091 A 
ATOM     83  F   UNL A   1      41.992  29.146  28.968  1.00  0.00    -0.205 F 
ATOM     84  C   UNL A   1      40.318  26.178  27.625  1.00  0.00     0.022 A 
BRANCH  82  85
ATOM     85  S   UNL A   1      42.066  27.732  26.212  1.00  0.00     0.127 S 
ATOM     86  O   UNL A   1      41.580  29.085  25.949  1.00  0.00    -0.237 OA
ATOM     87  O   UNL A   1      43.451  27.654  26.678  1.00  0.00    -0.237 OA
ATOM     88  O   UNL A   1      41.702  26.732  25.220  1.00  0.00    -0.744 OA
ENDBRANCH  82  85
ENDBRANCH  54  78
BRANCH  66  89
ATOM     89  C   UNL A   1      44.045  28.884  35.794  1.00  0.00     0.023 A 
ATOM     90  C   UNL A   1      45.318  29.427  35.541  1.00  0.00     0.012 A 
ATOM     91  C   UNL A   1      43.913  27.795  36.679  1.00  0.00     0.148 A 
ATOM     92  C   UNL A   1      46.449  28.876  36.139  1.00  0.00     0.002 A 
ATOM     93  C   UNL A   1      45.037  27.293  37.320  1.00  0.00     0.091 A 
ATOM     94  F   UNL A   1      42.691  27.284  36.889  1.00  0.00    -0.205 F 
ATOM     95  C   UNL A   1      46.306  27.822  37.040  1.00  0.00     0.022 A 
BRANCH  93  96
ATOM     96  S   UNL A   1      44.930  26.023  38.585  1.00  0.00     0.127 S 
ATOM     97  O   UNL A   1      44.308  24.924  37.848  1.00  0.00    -0.237 OA
ATOM     98  O   UNL A   1      46.338  25.811  38.927  1.00  0.00    -0.237 OA
ATOM     99  O   UNL A   1      44.126  26.590  39.658  1.00  0.00    -0.744 OA
ENDBRANCH  93  96
ENDBRANCH  66  89
ENDBRANCH  40  41
ENDBRANCH  33  35
ENDBRANCH  32  33
ENDBRANCH  31  32
ENDBRANCH   1  31
TORSDOF 19
ENDMDL
MODEL 2
REMARK VINA RESULT:     -12.3      6.503     12.725
REMARK SMILES O=C(CCC(=O)N1N=C(c2ccc(F)cc2)C[C@@H]1c1ccc2nccnc2c1)OCCOC(=O)c1ccc(-c2c3nc(c(-c4cccc(S(=O)(=O)[O-])c4F)c4ccc([nH]4)c(-c4cccc(S(=O)(=O)[O-])c4F)c4nc(c(-c5cccc(S(=O)(=O)[O-])c5F)c5ccc2[nH]5)C=C4)C=C3)cc1
REMARK SMILES IDX 30 1 29 2 2 3 1 4 3 5 4 6 5 7 6 8 7 9 8 10 18 11 9 12 17 13
REMARK SMILES IDX 19 14 20 15 28 16 21 17 27 18 22 19 26 20 23 21 25 22 24 23
REMARK SMILES IDX 10 24 11 25 16 26 12 27 15 28 13 29 14 30 31 31 32 32 33 33
REMARK SMILES IDX 34 34 35 35 36 36 97 37 37 38 96 39 38 40 39 41 40 42 90 43
REMARK SMILES IDX 41 44 95 45 89 46 91 47 42 48 94 49 88 50 87 51 43 53 75 54
REMARK SMILES IDX 55 55 74 56 56 57 59 58 73 59 92 60 57 61 58 62 72 64 93 65
REMARK SMILES IDX 60 66 44 67 45 68 53 69 46 70 48 71 54 72 47 73 49 74 50 75
REMARK SMILES IDX 51 76 52 77 76 78 77 79 85 80 78 81 80 82 86 83 79 84 81 85
REMARK SMILES IDX 82 86 83 87 84 88 61 89 62 90 70 91 63 92 65 93 71 94 64 95
REMARK SMILES IDX 66 96 67 97 68 98 69 99
REMARK H PARENT 91 52 59 63
REMARK Flexibility Score: inf
ROOT
ATOM      1  C   UNL A   1      40.676  19.446  26.399  1.00  0.00     0.274 C 
ENDROOT
BRANCH   1   2
ATOM      2  O   UNL A   1      40.901  20.636  27.196  1.00  0.00    -0.462 OA
BRANCH   2   3
ATOM      3  C   UNL A   1      40.356  21.857  27.068  1.00  0.00     0.306 C 
ATOM      4  O   UNL A   1      40.497  22.741  27.910  1.00  0.00    -0.252 OA
BRANCH   3   5
ATOM      5  C   UNL A   1      39.772  22.163  25.762  1.00  0.00     0.132 C 
BRANCH   5   6
ATOM      6  C   UNL A   1      38.301  21.862  25.881  1.00  0.00     0.114 C 
BRANCH   6   7
ATOM      7  C   UNL A   1      37.227  22.964  25.777  1.00  0.00     0.243 C 
ATOM      8  O   UNL A   1      37.734  24.104  25.698  1.00  0.00    -0.273 OA
BRANCH   7   9
ATOM      9  N   UNL A   1      35.830  22.836  25.653  1.00  0.00    -0.225 N 
ATOM     10  N   UNL A   1      35.558  21.712  24.900  1.00  0.00    -0.174 NA
ATOM     11  C   UNL A   1      34.523  23.270  26.359  1.00  0.00     0.147 C 
ATOM     12  C   UNL A   1      34.417  21.237  25.247  1.00  0.00     0.071 C 
ATOM     13  C   UNL A   1      33.588  22.061  26.163  1.00  0.00     0.091 C 
BRANCH  11  14
ATOM     14  C   UNL A   1      33.671  24.489  25.890  1.00  0.00    -0.021 A 
ATOM     15  C   UNL A   1      32.357  24.598  26.389  1.00  0.00     0.008 A 
ATOM     16  C   UNL A   1      34.074  25.504  25.000  1.00  0.00     0.036 A 
ATOM     17  C   UNL A   1      31.566  25.731  26.146  1.00  0.00     0.031 A 
ATOM     18  C   UNL A   1      33.333  26.701  24.833  1.00  0.00     0.089 A 
ATOM     19  C   UNL A   1      32.063  26.819  25.453  1.00  0.00     0.089 A 
ATOM     20  N   UNL A   1      33.881  27.779  24.218  1.00  0.00    -0.253 NA
ATOM     21  N   UNL A   1      31.372  27.982  25.487  1.00  0.00    -0.253 NA
ATOM     22  C   UNL A   1      33.258  28.970  24.420  1.00  0.00     0.132 A 
ATOM     23  C   UNL A   1      32.033  29.070  25.046  1.00  0.00     0.132 A 
ENDBRANCH  11  14
BRANCH  12  24
ATOM     24  C   UNL A   1      34.048  19.891  24.827  1.00  0.00    -0.002 A 
ATOM     25  C   UNL A   1      32.766  19.602  24.372  1.00  0.00     0.013 A 
ATOM     26  C   UNL A   1      35.081  18.942  24.769  1.00  0.00     0.013 A 
ATOM     27  C   UNL A   1      32.523  18.339  23.833  1.00  0.00     0.040 A 
ATOM     28  C   UNL A   1      34.826  17.681  24.247  1.00  0.00     0.040 A 
ATOM     29  C   UNL A   1      33.550  17.394  23.775  1.00  0.00     0.123 A 
ATOM     30  F   UNL A   1      33.307  16.193  23.236  1.00  0.00    -0.207 F 
ENDBRANCH  12  24
ENDBRANCH   7   9
ENDBRANCH   6   7
ENDBRANCH   5   6
ENDBRANCH   3   5
ENDBRANCH   2   3
ENDBRANCH   1   2
BRANCH   1  31
ATOM     31  C   UNL A   1      42.019  18.779  26.166  1.00  0.00     0.275 C 
BRANCH  31  32
ATOM     32  O   UNL A   1      42.642  19.334  25.005  1.00  0.00    -0.458 OA
BRANCH  32  33
ATOM     33  C   UNL A   1      43.935  19.728  25.109  1.00  0.00     0.338 C 
ATOM     34  O   UNL A   1      44.963  19.133  24.862  1.00  0.00    -0.246 OA
BRANCH  33  35
ATOM     35  C   UNL A   1      43.909  21.150  25.359  1.00  0.00     0.060 A 
ATOM     36  C   UNL A   1      44.123  21.635  26.658  1.00  0.00     0.016 A 
ATOM     37  C   UNL A   1      43.822  21.972  24.244  1.00  0.00     0.016 A 
ATOM     38  C   UNL A   1      44.389  22.977  26.831  1.00  0.00     0.010 A 
ATOM     39  C   UNL A   1      44.071  23.303  24.417  1.00  0.00     0.010 A 
ATOM     40  C   UNL A   1      44.380  23.789  25.699  1.00  0.00    -0.014 A 
BRANCH  40  41
ATOM     41  C   UNL A   1      44.630  25.220  25.779  1.00  0.00     0.031 A 
ATOM     42  C   UNL A   1      46.045  25.652  25.657  1.00  0.00     0.074 A 
ATOM     43  C   UNL A   1      43.628  26.000  26.206  1.00  0.00     0.049 A 
ATOM     44  N   UNL A   1      46.587  26.771  26.027  1.00  0.00    -0.248 NA
ATOM     45  C   UNL A   1      46.983  24.661  25.097  1.00  0.00     0.031 C 
ATOM     46  C   UNL A   1      42.234  25.575  26.368  1.00  0.00     0.029 A 
ATOM     47  N   UNL A   1      43.650  27.285  26.660  1.00  0.00    -0.354 N 
ATOM     48  C   UNL A   1      47.940  26.614  25.777  1.00  0.00     0.074 A 
ATOM     49  C   UNL A   1      48.141  25.285  25.249  1.00  0.00     0.031 C 
ATOM     50  C   UNL A   1      41.538  26.577  26.925  1.00  0.00     0.029 A 
ATOM     51  C   UNL A   1      42.450  27.681  27.199  1.00  0.00     0.049 A 
ATOM     52  H   UNL A   1      44.441  27.869  26.606  1.00  0.00     0.167 HD
ATOM     53  C   UNL A   1      48.917  27.523  25.975  1.00  0.00     0.034 A 
ATOM     54  C   UNL A   1      42.152  28.805  27.874  1.00  0.00     0.034 A 
ATOM     55  C   UNL A   1      48.657  28.818  26.535  1.00  0.00     0.049 A 
ATOM     56  C   UNL A   1      43.255  29.801  28.084  1.00  0.00     0.074 A 
ATOM     57  C   UNL A   1      49.541  29.851  26.765  1.00  0.00     0.029 A 
ATOM     58  N   UNL A   1      47.408  29.248  26.972  1.00  0.00    -0.354 N 
ATOM     59  N   UNL A   1      44.526  29.699  27.766  1.00  0.00    -0.248 NA
ATOM     60  C   UNL A   1      42.888  31.076  28.707  1.00  0.00     0.031 C 
ATOM     61  C   UNL A   1      48.832  30.894  27.370  1.00  0.00     0.029 A 
ATOM     62  C   UNL A   1      47.494  30.533  27.468  1.00  0.00     0.049 A 
ATOM     63  H   UNL A   1      46.582  28.712  26.932  1.00  0.00     0.167 HD
ATOM     64  C   UNL A   1      45.105  30.914  28.102  1.00  0.00     0.074 A 
ATOM     65  C   UNL A   1      44.040  31.734  28.653  1.00  0.00     0.031 C 
ATOM     66  C   UNL A   1      46.393  31.321  27.970  1.00  0.00     0.034 A 
BRANCH  53  67
ATOM     67  C   UNL A   1      50.311  27.135  25.573  1.00  0.00     0.023 A 
ATOM     68  C   UNL A   1      51.162  26.514  26.511  1.00  0.00     0.012 A 
ATOM     69  C   UNL A   1      50.782  27.377  24.270  1.00  0.00     0.148 A 
ATOM     70  C   UNL A   1      52.470  26.172  26.171  1.00  0.00     0.002 A 
ATOM     71  C   UNL A   1      52.067  26.983  23.921  1.00  0.00     0.091 A 
ATOM     72  F   UNL A   1      49.976  28.008  23.405  1.00  0.00    -0.205 F 
ATOM     73  C   UNL A   1      52.917  26.395  24.872  1.00  0.00     0.022 A 
BRANCH  71  74
ATOM     74  S   UNL A   1      52.709  27.148  22.252  1.00  0.00     0.127 S 
ATOM     75  O   UNL A   1      52.943  28.590  22.167  1.00  0.00    -0.237 OA
ATOM     76  O   UNL A   1      53.923  26.335  22.312  1.00  0.00    -0.237 OA
ATOM     77  O   UNL A   1      51.672  26.634  21.369  1.00  0.00    -0.744 OA
ENDBRANCH  71  74
ENDBRANCH  53  67
BRANCH  54  78
ATOM     78  C   UNL A   1      40.746  29.052  28.285  1.00  0.00     0.023 A 
ATOM     79  C   UNL A   1      39.793  29.337  27.289  1.00  0.00     0.012 A 
ATOM     80  C   UNL A   1      40.321  28.876  29.617  1.00  0.00     0.148 A 
ATOM     81  C   UNL A   1      38.441  29.454  27.611  1.00  0.00     0.002 A 
ATOM     82  C   UNL A   1      38.966  28.945  29.922  1.00  0.00     0.091 A 
ATOM     83  F   UNL A   1      41.246  28.590  30.544  1.00  0.00    -0.205 F 
ATOM     84  C   UNL A   1      38.027  29.246  28.924  1.00  0.00     0.022 A 
BRANCH  82  85
ATOM     85  S   UNL A   1      38.317  28.554  31.552  1.00  0.00     0.127 S 
ATOM     86  O   UNL A   1      36.916  28.950  31.418  1.00  0.00    -0.237 OA
ATOM     87  O   UNL A   1      38.546  27.111  31.623  1.00  0.00    -0.237 OA
ATOM     88  O   UNL A   1      39.102  29.340  32.492  1.00  0.00    -0.744 OA
ENDBRANCH  82  85
ENDBRANCH  54  78
BRANCH  66  89
ATOM     89  C   UNL A   1      46.714  32.734  28.372  1.00  0.00     0.023 A 
ATOM     90  C   UNL A   1      47.176  33.015  29.670  1.00  0.00     0.012 A 
ATOM     91  C   UNL A   1      46.660  33.763  27.411  1.00  0.00     0.148 A 
ATOM     92  C   UNL A   1      47.555  34.311  30.016  1.00  0.00     0.002 A 
ATOM     93  C   UNL A   1      47.097  35.036  27.745  1.00  0.00     0.091 A 
ATOM     94  F   UNL A   1      46.197  33.473  26.186  1.00  0.00    -0.205 F 
ATOM     95  C   UNL A   1      47.531  35.315  29.050  1.00  0.00     0.022 A 
BRANCH  93  96
ATOM     96  S   UNL A   1      47.218  36.356  26.533  1.00  0.00     0.127 S 
ATOM     97  O   UNL A   1      45.821  36.521  26.135  1.00  0.00    -0.237 OA
ATOM     98  O   UNL A   1      47.761  37.457  27.331  1.00  0.00    -0.237 OA
ATOM     99  O   UNL A   1      48.111  35.867  25.492  1.00  0.00    -0.744 OA
ENDBRANCH  93  96
ENDBRANCH  66  89
ENDBRANCH  40  41
ENDBRANCH  33  35
ENDBRANCH  32  33
ENDBRANCH  31  32
ENDBRANCH   1  31
TORSDOF 19
ENDMDL
MODEL 3
REMARK VINA RESULT:     -12.1      3.099      8.926
REMARK SMILES O=C(CCC(=O)N1N=C(c2ccc(F)cc2)C[C@@H]1c1ccc2nccnc2c1)OCCOC(=O)c1ccc(-c2c3nc(c(-c4cccc(S(=O)(=O)[O-])c4F)c4ccc([nH]4)c(-c4cccc(S(=O)(=O)[O-])c4F)c4nc(c(-c5cccc(S(=O)(=O)[O-])c5F)c5ccc2[nH]5)C=C4)C=C3)cc1
REMARK SMILES IDX 30 1 29 2 2 3 1 4 3 5 4 6 5 7 6 8 7 9 8 10 18 11 9 12 17 13
REMARK SMILES IDX 19 14 20 15 28 16 21 17 27 18 22 19 26 20 23 21 25 22 24 23
REMARK SMILES IDX 10 24 11 25 16 26 12 27 15 28 13 29 14 30 31 31 32 32 33 33
REMARK SMILES IDX 34 34 35 35 36 36 97 37 37 38 96 39 38 40 39 41 40 42 90 43
REMARK SMILES IDX 41 44 95 45 89 46 91 47 42 48 94 49 88 50 87 51 43 53 75 54
REMARK SMILES IDX 55 55 74 56 56 57 59 58 73 59 92 60 57 61 58 62 72 64 93 65
REMARK SMILES IDX 60 66 44 67 45 68 53 69 46 70 48 71 54 72 47 73 49 74 50 75
REMARK SMILES IDX 51 76 52 77 76 78 77 79 85 80 78 81 80 82 86 83 79 84 81 85
REMARK SMILES IDX 82 86 83 87 84 88 61 89 62 90 70 91 63 92 65 93 71 94 64 95
REMARK SMILES IDX 66 96 67 97 68 98 69 99
REMARK H PARENT 91 52 59 63
REMARK Flexibility Score: inf
ROOT
ATOM      1  C   UNL A   1      40.622  21.393  26.816  1.00  0.00     0.274 C 
ENDROOT
BRANCH   1   2
ATOM      2  O   UNL A   1      39.651  20.720  25.976  1.00  0.00    -0.462 OA
BRANCH   2   3
ATOM      3  C   UNL A   1      38.525  21.204  25.426  1.00  0.00     0.306 C 
ATOM      4  O   UNL A   1      37.751  20.508  24.772  1.00  0.00    -0.252 OA
BRANCH   3   5
ATOM      5  C   UNL A   1      38.143  22.554  25.835  1.00  0.00     0.132 C 
BRANCH   5   6
ATOM      6  C   UNL A   1      37.105  23.014  24.844  1.00  0.00     0.114 C 
BRANCH   6   7
ATOM      7  C   UNL A   1      35.763  23.630  25.289  1.00  0.00     0.243 C 
ATOM      8  O   UNL A   1      35.918  24.748  25.827  1.00  0.00    -0.273 OA
BRANCH   7   9
ATOM      9  N   UNL A   1      34.453  23.161  25.071  1.00  0.00    -0.225 N 
ATOM     10  N   UNL A   1      34.524  21.965  24.386  1.00  0.00    -0.174 NA
ATOM     11  C   UNL A   1      33.023  23.304  25.644  1.00  0.00     0.147 C 
ATOM     12  C   UNL A   1      33.501  21.248  24.682  1.00  0.00     0.071 C 
ATOM     13  C   UNL A   1      32.422  21.895  25.469  1.00  0.00     0.091 C 
BRANCH  11  14
ATOM     14  C   UNL A   1      31.952  24.253  25.023  1.00  0.00    -0.021 A 
ATOM     15  C   UNL A   1      30.802  24.530  25.791  1.00  0.00     0.008 A 
ATOM     16  C   UNL A   1      32.003  24.864  23.756  1.00  0.00     0.036 A 
ATOM     17  C   UNL A   1      29.856  25.484  25.385  1.00  0.00     0.031 A 
ATOM     18  C   UNL A   1      31.119  25.906  23.382  1.00  0.00     0.089 A 
ATOM     19  C   UNL A   1      30.040  26.237  24.242  1.00  0.00     0.089 A 
ATOM     20  N   UNL A   1      31.372  26.680  22.296  1.00  0.00    -0.253 NA
ATOM     21  N   UNL A   1      29.257  27.324  24.046  1.00  0.00    -0.253 NA
ATOM     22  C   UNL A   1      30.694  27.855  22.222  1.00  0.00     0.132 A 
ATOM     23  C   UNL A   1      29.663  28.173  23.081  1.00  0.00     0.132 A 
ENDBRANCH  11  14
BRANCH  12  24
ATOM     24  C   UNL A   1      33.501  19.832  24.337  1.00  0.00    -0.002 A 
ATOM     25  C   UNL A   1      32.495  19.280  23.551  1.00  0.00     0.013 A 
ATOM     26  C   UNL A   1      34.633  19.090  24.713  1.00  0.00     0.013 A 
ATOM     27  C   UNL A   1      32.638  17.960  23.122  1.00  0.00     0.040 A 
ATOM     28  C   UNL A   1      34.759  17.771  24.295  1.00  0.00     0.040 A 
ATOM     29  C   UNL A   1      33.763  17.221  23.496  1.00  0.00     0.123 A 
ATOM     30  F   UNL A   1      33.896  15.963  23.059  1.00  0.00    -0.207 F 
ENDBRANCH  12  24
ENDBRANCH   7   9
ENDBRANCH   6   7
ENDBRANCH   5   6
ENDBRANCH   3   5
ENDBRANCH   2   3
ENDBRANCH   1   2
BRANCH   1  31
ATOM     31  C   UNL A   1      41.934  21.457  26.056  1.00  0.00     0.275 C 
BRANCH  31  32
ATOM     32  O   UNL A   1      42.733  22.532  26.554  1.00  0.00    -0.458 OA
BRANCH  32  33
ATOM     33  C   UNL A   1      42.860  23.637  25.779  1.00  0.00     0.338 C 
ATOM     34  O   UNL A   1      43.123  23.747  24.600  1.00  0.00    -0.246 OA
BRANCH  33  35
ATOM     35  C   UNL A   1      42.375  24.746  26.566  1.00  0.00     0.060 A 
ATOM     36  C   UNL A   1      41.248  24.581  27.385  1.00  0.00     0.016 A 
ATOM     37  C   UNL A   1      43.164  25.887  26.578  1.00  0.00     0.016 A 
ATOM     38  C   UNL A   1      40.976  25.536  28.342  1.00  0.00     0.010 A 
ATOM     39  C   UNL A   1      42.887  26.841  27.516  1.00  0.00     0.010 A 
ATOM     40  C   UNL A   1      41.817  26.645  28.406  1.00  0.00    -0.014 A 
BRANCH  40  41
ATOM     41  C   UNL A   1      41.603  27.717  29.367  1.00  0.00     0.031 A 
ATOM     42  C   UNL A   1      42.376  27.634  30.631  1.00  0.00     0.074 A 
ATOM     43  C   UNL A   1      40.562  28.534  29.160  1.00  0.00     0.049 A 
ATOM     44  N   UNL A   1      42.143  28.219  31.765  1.00  0.00    -0.248 NA
ATOM     45  C   UNL A   1      43.534  26.720  30.629  1.00  0.00     0.031 C 
ATOM     46  C   UNL A   1      39.767  28.597  27.930  1.00  0.00     0.029 A 
ATOM     47  N   UNL A   1      39.948  29.403  30.012  1.00  0.00    -0.354 N 
ATOM     48  C   UNL A   1      43.103  27.723  32.630  1.00  0.00     0.074 A 
ATOM     49  C   UNL A   1      43.906  26.770  31.899  1.00  0.00     0.031 C 
ATOM     50  C   UNL A   1      38.738  29.437  28.123  1.00  0.00     0.029 A 
ATOM     51  C   UNL A   1      38.784  29.921  29.498  1.00  0.00     0.049 A 
ATOM     52  H   UNL A   1      40.301  29.636  30.901  1.00  0.00     0.167 HD
ATOM     53  C   UNL A   1      43.285  28.054  33.925  1.00  0.00     0.034 A 
ATOM     54  C   UNL A   1      37.849  30.673  30.104  1.00  0.00     0.034 A 
ATOM     55  C   UNL A   1      42.430  28.985  34.605  1.00  0.00     0.049 A 
ATOM     56  C   UNL A   1      38.072  31.029  31.545  1.00  0.00     0.074 A 
ATOM     57  C   UNL A   1      42.512  29.438  35.905  1.00  0.00     0.029 A 
ATOM     58  N   UNL A   1      41.318  29.593  34.032  1.00  0.00    -0.354 N 
ATOM     59  N   UNL A   1      39.033  30.635  32.349  1.00  0.00    -0.248 NA
ATOM     60  C   UNL A   1      37.112  31.953  32.156  1.00  0.00     0.031 C 
ATOM     61  C   UNL A   1      41.430  30.296  36.127  1.00  0.00     0.029 A 
ATOM     62  C   UNL A   1      40.704  30.421  34.949  1.00  0.00     0.049 A 
ATOM     63  H   UNL A   1      41.014  29.451  33.106  1.00  0.00     0.167 HD
ATOM     64  C   UNL A   1      38.828  31.302  33.549  1.00  0.00     0.074 A 
ATOM     65  C   UNL A   1      37.644  32.122  33.361  1.00  0.00     0.031 C 
ATOM     66  C   UNL A   1      39.546  31.248  34.698  1.00  0.00     0.034 A 
BRANCH  53  67
ATOM     67  C   UNL A   1      44.438  27.416  34.645  1.00  0.00     0.023 A 
ATOM     68  C   UNL A   1      45.692  28.063  34.670  1.00  0.00     0.012 A 
ATOM     69  C   UNL A   1      44.286  26.182  35.303  1.00  0.00     0.148 A 
ATOM     70  C   UNL A   1      46.785  27.476  35.306  1.00  0.00     0.002 A 
ATOM     71  C   UNL A   1      45.365  25.630  35.983  1.00  0.00     0.091 A 
ATOM     72  F   UNL A   1      43.102  25.560  35.232  1.00  0.00    -0.205 F 
ATOM     73  C   UNL A   1      46.617  26.267  35.973  1.00  0.00     0.022 A 
BRANCH  71  74
ATOM     74  S   UNL A   1      45.231  24.119  36.944  1.00  0.00     0.127 S 
ATOM     75  O   UNL A   1      44.413  24.561  38.074  1.00  0.00    -0.237 OA
ATOM     76  O   UNL A   1      44.548  23.225  36.010  1.00  0.00    -0.237 OA
ATOM     77  O   UNL A   1      46.593  23.730  37.276  1.00  0.00    -0.744 OA
ENDBRANCH  71  74
ENDBRANCH  53  67
BRANCH  54  78
ATOM     78  C   UNL A   1      36.710  31.195  29.306  1.00  0.00     0.023 A 
ATOM     79  C   UNL A   1      36.721  32.549  28.921  1.00  0.00     0.012 A 
ATOM     80  C   UNL A   1      35.698  30.346  28.815  1.00  0.00     0.148 A 
ATOM     81  C   UNL A   1      35.738  33.054  28.069  1.00  0.00     0.002 A 
ATOM     82  C   UNL A   1      34.751  30.844  27.927  1.00  0.00     0.091 A 
ATOM     83  F   UNL A   1      35.719  29.058  29.184  1.00  0.00    -0.205 F 
ATOM     84  C   UNL A   1      34.761  32.200  27.563  1.00  0.00     0.022 A 
BRANCH  82  85
ATOM     85  S   UNL A   1      33.540  29.797  27.110  1.00  0.00     0.127 S 
ATOM     86  O   UNL A   1      32.455  30.742  26.852  1.00  0.00    -0.237 OA
ATOM     87  O   UNL A   1      34.277  29.365  25.923  1.00  0.00    -0.237 OA
ATOM     88  O   UNL A   1      33.232  28.734  28.055  1.00  0.00    -0.744 OA
ENDBRANCH  82  85
ENDBRANCH  54  78
BRANCH  66  89
ATOM     89  C   UNL A   1      39.110  32.141  35.826  1.00  0.00     0.023 A 
ATOM     90  C   UNL A   1      39.389  33.520  35.788  1.00  0.00     0.012 A 
ATOM     91  C   UNL A   1      38.322  31.617  36.870  1.00  0.00     0.148 A 
ATOM     92  C   UNL A   1      38.912  34.362  36.790  1.00  0.00     0.002 A 
ATOM     93  C   UNL A   1      37.799  32.471  37.829  1.00  0.00     0.091 A 
ATOM     94  F   UNL A   1      38.087  30.296  36.894  1.00  0.00    -0.205 F 
ATOM     95  C   UNL A   1      38.104  33.840  37.799  1.00  0.00     0.022 A 
BRANCH  93  96
ATOM     96  S   UNL A   1      36.651  31.907  39.090  1.00  0.00     0.127 S 
ATOM     97  O   UNL A   1      35.520  32.811  38.886  1.00  0.00    -0.237 OA
ATOM     98  O   UNL A   1      36.407  30.521  38.685  1.00  0.00    -0.237 OA
ATOM     99  O   UNL A   1      37.346  32.052  40.361  1.00  0.00    -0.744 OA
ENDBRANCH  93  96
ENDBRANCH  66  89
ENDBRANCH  40  41
ENDBRANCH  33  35
ENDBRANCH  32  33
ENDBRANCH  31  32
ENDBRANCH   1  31
TORSDOF 19
ENDMDL
